MODEL 1
REMARK VINA RESULT:     -14.4      0.000      0.000
REMARK SMILES O=C(OCCOC(=O)c1ccc(-c2c3nc(c(-c4c(F)c(F)c(F)c(F)c4F)c4ccc([nH]4)c(-c4c(F)c(F)c(F)c(F)c4F)c4nc(c(-c5c(F)c(F)c(F)c(F)c5F)c5ccc2[nH]5)C=C4)C=C3)cc1)C1=Cc2c(Cl)ccc(Cl)c2O[C@@H]1C(F)(F)F
REMARK SMILES IDX 5 1 4 2 3 3 2 4 1 5 72 6 73 7 83 8 74 9 82 10 75 11 81 12
REMARK SMILES IDX 76 13 77 14 79 15 78 16 80 17 84 18 85 19 86 20 87 21 6 22
REMARK SMILES IDX 7 23 8 24 9 25 10 26 71 27 11 28 70 29 12 30 13 31 14 32
REMARK SMILES IDX 64 33 15 34 69 35 63 36 65 37 16 38 68 39 62 40 61 41 17 43
REMARK SMILES IDX 49 44 29 45 48 46 30 47 33 48 47 49 66 50 31 51 32 52 46 54
REMARK SMILES IDX 67 55 34 56 18 57 19 58 27 59 20 60 21 61 25 62 28 63 22 64
REMARK SMILES IDX 23 65 26 66 24 67 50 68 51 69 59 70 52 71 53 72 57 73 60 74
REMARK SMILES IDX 54 75 55 76 58 77 56 78 35 79 36 80 44 81 37 82 38 83 42 84
REMARK SMILES IDX 45 85 39 86 40 87 43 88 41 89
REMARK H PARENT 65 42 33 53
REMARK Flexibility Score: inf
ROOT
ATOM      1  C   UNL A   1      31.778  32.351  26.889  1.00  0.00     0.275 C 
ENDROOT
BRANCH   1   2
ATOM      2  C   UNL A   1      33.191  30.712  26.860  1.00  0.00     0.275 C 
BRANCH   2   3
ATOM      3  O   UNL A   1      33.129  29.451  25.959  1.00  0.00    -0.459 OA
BRANCH   3   4
ATOM      4  C   UNL A   1      32.473  28.432  26.526  1.00  0.00     0.338 C 
ATOM      5  O   UNL A   1      32.268  28.201  27.691  1.00  0.00    -0.246 OA
BRANCH   4   6
ATOM      6  C   UNL A   1      32.533  27.574  25.364  1.00  0.00     0.087 C 
ATOM      7  C   UNL A   1      33.556  26.550  25.464  1.00  0.00     0.029 C 
ATOM      8  C   UNL A   1      30.641  27.271  25.268  1.00  0.00     0.316 C 
ATOM      9  C   UNL A   1      33.194  24.807  25.727  1.00  0.00     0.037 A 
ATOM     10  O   UNL A   1      30.209  25.419  25.640  1.00  0.00    -0.474 OA
ATOM     11  C   UNL A   1      34.230  23.933  25.952  1.00  0.00     0.052 A 
ATOM     12  C   UNL A   1      31.569  24.223  25.942  1.00  0.00     0.148 A 
ATOM     13  Cl  UNL A   1      35.881  24.361  25.784  1.00  0.00    -0.084 Cl
ATOM     14  C   UNL A   1      33.861  22.646  26.368  1.00  0.00     0.023 A 
ATOM     15  C   UNL A   1      31.305  22.943  26.350  1.00  0.00     0.083 A 
ATOM     16  C   UNL A   1      32.488  22.186  26.564  1.00  0.00     0.026 A 
ATOM     17  Cl  UNL A   1      29.768  22.293  26.650  1.00  0.00    -0.080 Cl
BRANCH   8  18
ATOM     18  C   UNL A   1      30.543  28.231  23.991  1.00  0.00     0.430 C 
ATOM     19  F   UNL A   1      31.339  27.857  23.000  1.00  0.00    -0.167 F 
ATOM     20  F   UNL A   1      29.299  28.095  23.433  1.00  0.00    -0.167 F 
ATOM     21  F   UNL A   1      30.636  29.562  24.201  1.00  0.00    -0.167 F 
ENDBRANCH   8  18
ENDBRANCH   4   6
ENDBRANCH   3   4
ENDBRANCH   2   3
ENDBRANCH   1   2
BRANCH   1  22
ATOM     22  O   UNL A   1      32.126  33.934  27.571  1.00  0.00    -0.458 OA
BRANCH  22  23
ATOM     23  C   UNL A   1      32.907  34.566  28.523  1.00  0.00     0.338 C 
ATOM     24  O   UNL A   1      32.609  35.436  29.318  1.00  0.00    -0.246 OA
BRANCH  23  25
ATOM     25  C   UNL A   1      34.147  33.737  28.681  1.00  0.00     0.060 A 
ATOM     26  C   UNL A   1      35.386  34.237  28.229  1.00  0.00     0.016 A 
ATOM     27  C   UNL A   1      34.125  32.688  29.594  1.00  0.00     0.016 A 
ATOM     28  C   UNL A   1      36.565  33.905  28.936  1.00  0.00     0.010 A 
ATOM     29  C   UNL A   1      35.298  32.341  30.266  1.00  0.00     0.010 A 
ATOM     30  C   UNL A   1      36.503  33.028  30.031  1.00  0.00    -0.014 A 
BRANCH  30  31
ATOM     31  C   UNL A   1      37.697  32.630  30.832  1.00  0.00     0.031 A 
ATOM     32  C   UNL A   1      38.474  31.472  30.292  1.00  0.00     0.074 A 
ATOM     33  C   UNL A   1      37.998  33.131  32.053  1.00  0.00     0.049 A 
ATOM     34  N   UNL A   1      39.390  30.738  30.862  1.00  0.00    -0.248 NA
ATOM     35  C   UNL A   1      38.117  31.053  28.926  1.00  0.00     0.031 C 
ATOM     36  C   UNL A   1      37.337  34.254  32.714  1.00  0.00     0.029 A 
ATOM     37  N   UNL A   1      38.938  32.723  32.983  1.00  0.00    -0.354 N 
ATOM     38  C   UNL A   1      39.689  29.751  29.937  1.00  0.00     0.074 A 
ATOM     39  C   UNL A   1      38.837  29.957  28.790  1.00  0.00     0.031 C 
ATOM     40  C   UNL A   1      37.870  34.430  33.940  1.00  0.00     0.029 A 
ATOM     41  C   UNL A   1      38.893  33.412  34.178  1.00  0.00     0.049 A 
ATOM     42  H   UNL A   1      39.584  32.001  32.808  1.00  0.00     0.167 HD
ATOM     43  C   UNL A   1      40.599  28.759  30.028  1.00  0.00     0.037 A 
ATOM     44  C   UNL A   1      39.581  33.224  35.330  1.00  0.00     0.037 A 
ATOM     45  C   UNL A   1      41.451  28.550  31.160  1.00  0.00     0.049 A 
ATOM     46  C   UNL A   1      40.575  32.077  35.416  1.00  0.00     0.074 A 
ATOM     47  C   UNL A   1      42.444  27.604  31.321  1.00  0.00     0.029 A 
ATOM     48  N   UNL A   1      41.401  29.294  32.329  1.00  0.00    -0.354 N 
ATOM     49  N   UNL A   1      40.918  31.204  34.500  1.00  0.00    -0.248 NA
ATOM     50  C   UNL A   1      41.273  31.884  36.701  1.00  0.00     0.031 C 
ATOM     51  C   UNL A   1      42.959  27.737  32.611  1.00  0.00     0.029 A 
ATOM     52  C   UNL A   1      42.327  28.804  33.230  1.00  0.00     0.049 A 
ATOM     53  H   UNL A   1      40.798  30.055  32.491  1.00  0.00     0.167 HD
ATOM     54  C   UNL A   1      41.886  30.392  35.082  1.00  0.00     0.074 A 
ATOM     55  C   UNL A   1      42.093  30.881  36.425  1.00  0.00     0.031 C 
ATOM     56  C   UNL A   1      42.542  29.330  34.553  1.00  0.00     0.037 A 
BRANCH  43  57
ATOM     57  C   UNL A   1      40.681  27.817  28.871  1.00  0.00     0.064 A 
ATOM     58  C   UNL A   1      41.531  28.064  27.783  1.00  0.00     0.173 A 
ATOM     59  C   UNL A   1      39.870  26.675  28.834  1.00  0.00     0.173 A 
ATOM     60  F   UNL A   1      42.296  29.166  27.761  1.00  0.00    -0.203 F 
ATOM     61  C   UNL A   1      41.540  27.218  26.681  1.00  0.00     0.198 A 
ATOM     62  C   UNL A   1      39.908  25.810  27.746  1.00  0.00     0.198 A 
ATOM     63  F   UNL A   1      39.031  26.405  29.846  1.00  0.00    -0.203 F 
ATOM     64  F   UNL A   1      42.304  27.511  25.620  1.00  0.00    -0.200 F 
ATOM     65  C   UNL A   1      40.734  26.088  26.667  1.00  0.00     0.200 A 
ATOM     66  F   UNL A   1      39.134  24.718  27.734  1.00  0.00    -0.200 F 
ATOM     67  F   UNL A   1      40.743  25.273  25.603  1.00  0.00    -0.200 F 
ENDBRANCH  43  57
BRANCH  44  68
ATOM     68  C   UNL A   1      39.370  34.090  36.534  1.00  0.00     0.064 A 
ATOM     69  C   UNL A   1      40.045  35.317  36.671  1.00  0.00     0.173 A 
ATOM     70  C   UNL A   1      38.605  33.660  37.629  1.00  0.00     0.173 A 
ATOM     71  F   UNL A   1      40.830  35.761  35.678  1.00  0.00    -0.203 F 
ATOM     72  C   UNL A   1      39.999  36.049  37.860  1.00  0.00     0.198 A 
ATOM     73  C   UNL A   1      38.532  34.411  38.806  1.00  0.00     0.198 A 
ATOM     74  F   UNL A   1      37.952  32.491  37.574  1.00  0.00    -0.203 F 
ATOM     75  F   UNL A   1      40.730  37.166  37.986  1.00  0.00    -0.200 F 
ATOM     76  C   UNL A   1      39.242  35.595  38.927  1.00  0.00     0.200 A 
ATOM     77  F   UNL A   1      37.800  33.967  39.838  1.00  0.00    -0.200 F 
ATOM     78  F   UNL A   1      39.218  36.284  40.077  1.00  0.00    -0.200 F 
ENDBRANCH  44  68
BRANCH  56  79
ATOM     79  C   UNL A   1      43.579  28.641  35.395  1.00  0.00     0.064 A 
ATOM     80  C   UNL A   1      43.249  27.576  36.245  1.00  0.00     0.173 A 
ATOM     81  C   UNL A   1      44.936  28.973  35.252  1.00  0.00     0.173 A 
ATOM     82  F   UNL A   1      41.966  27.227  36.423  1.00  0.00    -0.203 F 
ATOM     83  C   UNL A   1      44.239  26.871  36.923  1.00  0.00     0.198 A 
ATOM     84  C   UNL A   1      45.925  28.245  35.905  1.00  0.00     0.198 A 
ATOM     85  F   UNL A   1      45.305  29.977  34.440  1.00  0.00    -0.203 F 
ATOM     86  F   UNL A   1      43.901  25.870  37.747  1.00  0.00    -0.200 F 
ATOM     87  C   UNL A   1      45.576  27.196  36.741  1.00  0.00     0.200 A 
ATOM     88  F   UNL A   1      47.216  28.545  35.709  1.00  0.00    -0.200 F 
ATOM     89  F   UNL A   1      46.529  26.493  37.369  1.00  0.00    -0.200 F 
ENDBRANCH  56  79
ENDBRANCH  30  31
ENDBRANCH  23  25
ENDBRANCH  22  23
ENDBRANCH   1  22
TORSDOF 12
ENDMDL
MODEL 2
REMARK VINA RESULT:     -14.4      1.970      3.314
REMARK SMILES O=C(OCCOC(=O)c1ccc(-c2c3nc(c(-c4c(F)c(F)c(F)c(F)c4F)c4ccc([nH]4)c(-c4c(F)c(F)c(F)c(F)c4F)c4nc(c(-c5c(F)c(F)c(F)c(F)c5F)c5ccc2[nH]5)C=C4)C=C3)cc1)C1=Cc2c(Cl)ccc(Cl)c2O[C@@H]1C(F)(F)F
REMARK SMILES IDX 5 1 4 2 3 3 2 4 1 5 72 6 73 7 83 8 74 9 82 10 75 11 81 12
REMARK SMILES IDX 76 13 77 14 79 15 78 16 80 17 84 18 85 19 86 20 87 21 6 22
REMARK SMILES IDX 7 23 8 24 9 25 10 26 71 27 11 28 70 29 12 30 13 31 14 32
REMARK SMILES IDX 64 33 15 34 69 35 63 36 65 37 16 38 68 39 62 40 61 41 17 43
REMARK SMILES IDX 49 44 29 45 48 46 30 47 33 48 47 49 66 50 31 51 32 52 46 54
REMARK SMILES IDX 67 55 34 56 18 57 19 58 27 59 20 60 21 61 25 62 28 63 22 64
REMARK SMILES IDX 23 65 26 66 24 67 50 68 51 69 59 70 52 71 53 72 57 73 60 74
REMARK SMILES IDX 54 75 55 76 58 77 56 78 35 79 36 80 44 81 37 82 38 83 42 84
REMARK SMILES IDX 45 85 39 86 40 87 43 88 41 89
REMARK H PARENT 65 42 33 53
REMARK Flexibility Score: inf
ROOT
ATOM      1  C   UNL A   1      32.000  29.278  26.385  1.00  0.00     0.275 C 
ENDROOT
BRANCH   1   2
ATOM      2  C   UNL A   1      31.657  27.194  26.857  1.00  0.00     0.275 C 
BRANCH   2   3
ATOM      3  O   UNL A   1      32.659  26.024  26.672  1.00  0.00    -0.459 OA
BRANCH   3   4
ATOM      4  C   UNL A   1      32.058  24.844  26.479  1.00  0.00     0.338 C 
ATOM      5  O   UNL A   1      31.526  24.112  27.274  1.00  0.00    -0.246 OA
BRANCH   4   6
ATOM      6  C   UNL A   1      32.663  24.600  25.189  1.00  0.00     0.087 C 
ATOM      7  C   UNL A   1      34.094  24.370  25.265  1.00  0.00     0.029 C 
ATOM      8  C   UNL A   1      31.347  23.327  24.613  1.00  0.00     0.316 C 
ATOM      9  C   UNL A   1      34.856  22.758  25.022  1.00  0.00     0.037 A 
ATOM     10  O   UNL A   1      32.116  21.558  24.433  1.00  0.00    -0.474 OA
ATOM     11  C   UNL A   1      36.202  22.611  25.254  1.00  0.00     0.052 A 
ATOM     12  C   UNL A   1      33.912  21.325  24.733  1.00  0.00     0.148 A 
ATOM     13  Cl  UNL A   1      37.259  23.925  25.556  1.00  0.00    -0.084 Cl
ATOM     14  C   UNL A   1      36.676  21.291  25.263  1.00  0.00     0.023 A 
ATOM     15  C   UNL A   1      34.466  20.073  24.760  1.00  0.00     0.083 A 
ATOM     16  C   UNL A   1      35.858  20.100  25.041  1.00  0.00     0.026 A 
ATOM     17  Cl  UNL A   1      33.630  18.612  24.554  1.00  0.00    -0.080 Cl
BRANCH   8  18
ATOM     18  C   UNL A   1      30.727  24.409  23.610  1.00  0.00     0.430 C 
ATOM     19  F   UNL A   1      31.603  24.852  22.721  1.00  0.00    -0.167 F 
ATOM     20  F   UNL A   1      29.795  23.791  22.818  1.00  0.00    -0.167 F 
ATOM     21  F   UNL A   1      30.033  25.436  24.148  1.00  0.00    -0.167 F 
ENDBRANCH   8  18
ENDBRANCH   4   6
ENDBRANCH   3   4
ENDBRANCH   2   3
ENDBRANCH   1   2
BRANCH   1  22
ATOM     22  O   UNL A   1      32.740  30.426  27.493  1.00  0.00    -0.458 OA
BRANCH  22  23
ATOM     23  C   UNL A   1      33.390  31.646  27.527  1.00  0.00     0.338 C 
ATOM     24  O   UNL A   1      32.942  32.759  27.725  1.00  0.00    -0.246 OA
BRANCH  23  25
ATOM     25  C   UNL A   1      34.857  31.350  27.639  1.00  0.00     0.060 A 
ATOM     26  C   UNL A   1      35.777  32.411  27.767  1.00  0.00     0.016 A 
ATOM     27  C   UNL A   1      35.242  30.063  27.997  1.00  0.00     0.016 A 
ATOM     28  C   UNL A   1      36.941  32.225  28.549  1.00  0.00     0.010 A 
ATOM     29  C   UNL A   1      36.409  29.880  28.740  1.00  0.00     0.010 A 
ATOM     30  C   UNL A   1      37.206  30.972  29.126  1.00  0.00    -0.014 A 
BRANCH  30  31
ATOM     31  C   UNL A   1      38.407  30.694  29.966  1.00  0.00     0.031 A 
ATOM     32  C   UNL A   1      39.367  29.696  29.401  1.00  0.00     0.074 A 
ATOM     33  C   UNL A   1      38.576  31.149  31.230  1.00  0.00     0.049 A 
ATOM     34  N   UNL A   1      40.352  29.063  29.976  1.00  0.00    -0.248 NA
ATOM     35  C   UNL A   1      39.137  29.325  27.995  1.00  0.00     0.031 C 
ATOM     36  C   UNL A   1      37.730  32.121  31.920  1.00  0.00     0.029 A 
ATOM     37  N   UNL A   1      39.522  30.817  32.184  1.00  0.00    -0.354 N 
ATOM     38  C   UNL A   1      40.833  28.193  29.012  1.00  0.00     0.074 A 
ATOM     39  C   UNL A   1      40.013  28.352  27.833  1.00  0.00     0.031 C 
ATOM     40  C   UNL A   1      38.176  32.287  33.182  1.00  0.00     0.029 A 
ATOM     41  C   UNL A   1      39.322  31.410  33.414  1.00  0.00     0.049 A 
ATOM     42  H   UNL A   1      40.272  30.206  32.002  1.00  0.00     0.167 HD
ATOM     43  C   UNL A   1      41.871  27.335  29.093  1.00  0.00     0.037 A 
ATOM     44  C   UNL A   1      39.977  31.244  34.589  1.00  0.00     0.037 A 
ATOM     45  C   UNL A   1      42.692  27.172  30.254  1.00  0.00     0.049 A 
ATOM     46  C   UNL A   1      41.121  30.246  34.660  1.00  0.00     0.074 A 
ATOM     47  C   UNL A   1      43.803  26.367  30.413  1.00  0.00     0.029 A 
ATOM     48  N   UNL A   1      42.482  27.822  31.462  1.00  0.00    -0.354 N 
ATOM     49  N   UNL A   1      41.628  29.493  33.714  1.00  0.00    -0.248 NA
ATOM     50  C   UNL A   1      41.780  30.067  35.968  1.00  0.00     0.031 C 
ATOM     51  C   UNL A   1      44.234  26.485  31.735  1.00  0.00     0.029 A 
ATOM     52  C   UNL A   1      43.426  27.408  32.382  1.00  0.00     0.049 A 
ATOM     53  H   UNL A   1      41.768  28.477  31.635  1.00  0.00     0.167 HD
ATOM     54  C   UNL A   1      42.676  28.789  34.298  1.00  0.00     0.074 A 
ATOM     55  C   UNL A   1      42.748  29.211  35.678  1.00  0.00     0.031 C 
ATOM     56  C   UNL A   1      43.502  27.868  33.744  1.00  0.00     0.037 A 
BRANCH  43  57
ATOM     57  C   UNL A   1      42.141  26.494  27.887  1.00  0.00     0.064 A 
ATOM     58  C   UNL A   1      41.465  25.285  27.669  1.00  0.00     0.173 A 
ATOM     59  C   UNL A   1      43.117  26.886  26.960  1.00  0.00     0.173 A 
ATOM     60  F   UNL A   1      40.551  24.854  28.552  1.00  0.00    -0.203 F 
ATOM     61  C   UNL A   1      41.782  24.478  26.583  1.00  0.00     0.198 A 
ATOM     62  C   UNL A   1      43.406  26.094  25.854  1.00  0.00     0.198 A 
ATOM     63  F   UNL A   1      43.798  28.028  27.134  1.00  0.00    -0.203 F 
ATOM     64  F   UNL A   1      41.177  23.292  26.433  1.00  0.00    -0.200 F 
ATOM     65  C   UNL A   1      42.746  24.887  25.673  1.00  0.00     0.200 A 
ATOM     66  F   UNL A   1      44.334  26.490  24.973  1.00  0.00    -0.200 F 
ATOM     67  F   UNL A   1      43.052  24.108  24.626  1.00  0.00    -0.200 F 
ENDBRANCH  43  57
BRANCH  44  68
ATOM     68  C   UNL A   1      39.588  31.989  35.830  1.00  0.00     0.064 A 
ATOM     69  C   UNL A   1      38.545  31.529  36.653  1.00  0.00     0.173 A 
ATOM     70  C   UNL A   1      40.149  33.235  36.150  1.00  0.00     0.173 A 
ATOM     71  F   UNL A   1      37.935  30.367  36.373  1.00  0.00    -0.203 F 
ATOM     72  C   UNL A   1      38.052  32.300  37.709  1.00  0.00     0.198 A 
ATOM     73  C   UNL A   1      39.678  33.989  37.228  1.00  0.00     0.198 A 
ATOM     74  F   UNL A   1      41.134  33.742  35.395  1.00  0.00    -0.203 F 
ATOM     75  F   UNL A   1      36.995  31.872  38.414  1.00  0.00    -0.200 F 
ATOM     76  C   UNL A   1      38.620  33.530  37.996  1.00  0.00     0.200 A 
ATOM     77  F   UNL A   1      40.229  35.181  37.501  1.00  0.00    -0.200 F 
ATOM     78  F   UNL A   1      38.132  34.281  38.993  1.00  0.00    -0.200 F 
ENDBRANCH  44  68
BRANCH  56  79
ATOM     79  C   UNL A   1      44.588  27.278  34.598  1.00  0.00     0.064 A 
ATOM     80  C   UNL A   1      45.823  27.918  34.766  1.00  0.00     0.173 A 
ATOM     81  C   UNL A   1      44.338  26.121  35.354  1.00  0.00     0.173 A 
ATOM     82  F   UNL A   1      46.114  29.021  34.060  1.00  0.00    -0.203 F 
ATOM     83  C   UNL A   1      46.770  27.421  35.657  1.00  0.00     0.198 A 
ATOM     84  C   UNL A   1      45.274  25.646  36.268  1.00  0.00     0.198 A 
ATOM     85  F   UNL A   1      43.166  25.477  35.238  1.00  0.00    -0.203 F 
ATOM     86  F   UNL A   1      47.953  28.037  35.788  1.00  0.00    -0.200 F 
ATOM     87  C   UNL A   1      46.489  26.294  36.418  1.00  0.00     0.200 A 
ATOM     88  F   UNL A   1      44.989  24.572  37.018  1.00  0.00    -0.200 F 
ATOM     89  F   UNL A   1      47.389  25.837  37.299  1.00  0.00    -0.200 F 
ENDBRANCH  56  79
ENDBRANCH  30  31
ENDBRANCH  23  25
ENDBRANCH  22  23
ENDBRANCH   1  22
TORSDOF 12
ENDMDL
MODEL 3
REMARK VINA RESULT:     -14.4      1.868      2.838
REMARK SMILES O=C(OCCOC(=O)c1ccc(-c2c3nc(c(-c4c(F)c(F)c(F)c(F)c4F)c4ccc([nH]4)c(-c4c(F)c(F)c(F)c(F)c4F)c4nc(c(-c5c(F)c(F)c(F)c(F)c5F)c5ccc2[nH]5)C=C4)C=C3)cc1)C1=Cc2c(Cl)ccc(Cl)c2O[C@@H]1C(F)(F)F
REMARK SMILES IDX 5 1 4 2 3 3 2 4 1 5 72 6 73 7 83 8 74 9 82 10 75 11 81 12
REMARK SMILES IDX 76 13 77 14 79 15 78 16 80 17 84 18 85 19 86 20 87 21 6 22
REMARK SMILES IDX 7 23 8 24 9 25 10 26 71 27 11 28 70 29 12 30 13 31 14 32
REMARK SMILES IDX 64 33 15 34 69 35 63 36 65 37 16 38 68 39 62 40 61 41 17 43
REMARK SMILES IDX 49 44 29 45 48 46 30 47 33 48 47 49 66 50 31 51 32 52 46 54
REMARK SMILES IDX 67 55 34 56 18 57 19 58 27 59 20 60 21 61 25 62 28 63 22 64
REMARK SMILES IDX 23 65 26 66 24 67 50 68 51 69 59 70 52 71 53 72 57 73 60 74
REMARK SMILES IDX 54 75 55 76 58 77 56 78 35 79 36 80 44 81 37 82 38 83 42 84
REMARK SMILES IDX 45 85 39 86 40 87 43 88 41 89
REMARK H PARENT 65 42 33 53
REMARK Flexibility Score: inf
ROOT
ATOM      1  C   UNL A   1      31.649  30.602  26.153  1.00  0.00     0.275 C 
ENDROOT
BRANCH   1   2
ATOM      2  C   UNL A   1      31.643  28.741  25.048  1.00  0.00     0.275 C 
BRANCH   2   3
ATOM      3  O   UNL A   1      32.794  27.705  24.972  1.00  0.00    -0.459 OA
BRANCH   3   4
ATOM      4  C   UNL A   1      32.370  26.441  25.085  1.00  0.00     0.338 C 
ATOM      5  O   UNL A   1      31.735  25.917  25.965  1.00  0.00    -0.246 OA
BRANCH   4   6
ATOM      6  C   UNL A   1      33.284  25.908  24.100  1.00  0.00     0.087 C 
ATOM      7  C   UNL A   1      34.421  25.224  24.689  1.00  0.00     0.029 C 
ATOM      8  C   UNL A   1      31.924  25.101  23.013  1.00  0.00     0.316 C 
ATOM      9  C   UNL A   1      34.628  23.436  24.662  1.00  0.00     0.037 A 
ATOM     10  O   UNL A   1      32.062  23.169  23.038  1.00  0.00    -0.474 OA
ATOM     11  C   UNL A   1      35.661  22.871  25.369  1.00  0.00     0.052 A 
ATOM     12  C   UNL A   1      33.432  22.379  23.970  1.00  0.00     0.148 A 
ATOM     13  Cl  UNL A   1      36.910  23.781  26.109  1.00  0.00    -0.084 Cl
ATOM     14  C   UNL A   1      35.625  21.474  25.484  1.00  0.00     0.023 A 
ATOM     15  C   UNL A   1      33.482  21.020  24.135  1.00  0.00     0.083 A 
ATOM     16  C   UNL A   1      34.596  20.607  24.913  1.00  0.00     0.026 A 
ATOM     17  Cl  UNL A   1      32.340  19.907  23.558  1.00  0.00    -0.080 Cl
BRANCH   8  18
ATOM     18  C   UNL A   1      32.117  26.244  21.908  1.00  0.00     0.430 C 
ATOM     19  F   UNL A   1      33.389  26.536  21.683  1.00  0.00    -0.167 F 
ATOM     20  F   UNL A   1      31.710  25.755  20.694  1.00  0.00    -0.167 F 
ATOM     21  F   UNL A   1      31.385  27.372  22.041  1.00  0.00    -0.167 F 
ENDBRANCH   8  18
ENDBRANCH   4   6
ENDBRANCH   3   4
ENDBRANCH   2   3
ENDBRANCH   1   2
BRANCH   1  22
ATOM     22  O   UNL A   1      32.970  31.123  27.190  1.00  0.00    -0.458 OA
BRANCH  22  23
ATOM     23  C   UNL A   1      33.643  32.255  27.616  1.00  0.00     0.338 C 
ATOM     24  O   UNL A   1      33.206  33.286  28.089  1.00  0.00    -0.246 OA
BRANCH  23  25
ATOM     25  C   UNL A   1      35.089  31.873  27.742  1.00  0.00     0.060 A 
ATOM     26  C   UNL A   1      36.066  32.878  27.901  1.00  0.00     0.016 A 
ATOM     27  C   UNL A   1      35.395  30.561  28.082  1.00  0.00     0.016 A 
ATOM     28  C   UNL A   1      37.206  32.613  28.695  1.00  0.00     0.010 A 
ATOM     29  C   UNL A   1      36.539  30.299  28.838  1.00  0.00     0.010 A 
ATOM     30  C   UNL A   1      37.391  31.338  29.254  1.00  0.00    -0.014 A 
BRANCH  30  31
ATOM     31  C   UNL A   1      38.562  30.978  30.105  1.00  0.00     0.031 A 
ATOM     32  C   UNL A   1      39.482  29.950  29.527  1.00  0.00     0.074 A 
ATOM     33  C   UNL A   1      38.731  31.389  31.384  1.00  0.00     0.049 A 
ATOM     34  N   UNL A   1      40.425  29.253  30.100  1.00  0.00    -0.248 NA
ATOM     35  C   UNL A   1      39.260  29.630  28.108  1.00  0.00     0.031 C 
ATOM     36  C   UNL A   1      37.921  32.381  32.088  1.00  0.00     0.029 A 
ATOM     37  N   UNL A   1      39.642  30.984  32.344  1.00  0.00    -0.354 N 
ATOM     38  C   UNL A   1      40.880  28.388  29.119  1.00  0.00     0.074 A 
ATOM     39  C   UNL A   1      40.090  28.620  27.932  1.00  0.00     0.031 C 
ATOM     40  C   UNL A   1      38.352  32.491  33.361  1.00  0.00     0.029 A 
ATOM     41  C   UNL A   1      39.450  31.552  33.587  1.00  0.00     0.049 A 
ATOM     42  H   UNL A   1      40.365  30.342  32.156  1.00  0.00     0.167 HD
ATOM     43  C   UNL A   1      41.873  27.478  29.193  1.00  0.00     0.037 A 
ATOM     44  C   UNL A   1      40.075  31.321  34.767  1.00  0.00     0.037 A 
ATOM     45  C   UNL A   1      42.665  27.243  30.363  1.00  0.00     0.049 A 
ATOM     46  C   UNL A   1      41.168  30.267  34.828  1.00  0.00     0.074 A 
ATOM     47  C   UNL A   1      43.732  26.380  30.516  1.00  0.00     0.029 A 
ATOM     48  N   UNL A   1      42.465  27.868  31.584  1.00  0.00    -0.354 N 
ATOM     49  N   UNL A   1      41.654  29.517  33.869  1.00  0.00    -0.248 NA
ATOM     50  C   UNL A   1      41.794  30.020  36.141  1.00  0.00     0.031 C 
ATOM     51  C   UNL A   1      44.145  26.440  31.848  1.00  0.00     0.029 A 
ATOM     52  C   UNL A   1      43.371  27.383  32.507  1.00  0.00     0.049 A 
ATOM     53  H   UNL A   1      41.781  28.553  31.765  1.00  0.00     0.167 HD
ATOM     54  C   UNL A   1      42.656  28.746  34.450  1.00  0.00     0.074 A 
ATOM     55  C   UNL A   1      42.724  29.125  35.842  1.00  0.00     0.031 C 
ATOM     56  C   UNL A   1      43.446  27.801  33.883  1.00  0.00     0.037 A 
BRANCH  43  57
ATOM     57  C   UNL A   1      42.123  26.659  27.968  1.00  0.00     0.064 A 
ATOM     58  C   UNL A   1      41.452  25.447  27.745  1.00  0.00     0.173 A 
ATOM     59  C   UNL A   1      43.075  27.073  27.027  1.00  0.00     0.173 A 
ATOM     60  F   UNL A   1      40.560  24.996  28.641  1.00  0.00    -0.203 F 
ATOM     61  C   UNL A   1      41.751  24.661  26.640  1.00  0.00     0.198 A 
ATOM     62  C   UNL A   1      43.346  26.300  25.902  1.00  0.00     0.198 A 
ATOM     63  F   UNL A   1      43.752  28.217  27.205  1.00  0.00    -0.203 F 
ATOM     64  F   UNL A   1      41.152  23.473  26.484  1.00  0.00    -0.200 F 
ATOM     65  C   UNL A   1      42.692  25.092  25.716  1.00  0.00     0.200 A 
ATOM     66  F   UNL A   1      44.252  26.718  25.008  1.00  0.00    -0.200 F 
ATOM     67  F   UNL A   1      42.980  24.331  24.650  1.00  0.00    -0.200 F 
ENDBRANCH  43  57
BRANCH  44  68
ATOM     68  C   UNL A   1      39.701  32.050  36.022  1.00  0.00     0.064 A 
ATOM     69  C   UNL A   1      38.588  31.654  36.785  1.00  0.00     0.173 A 
ATOM     70  C   UNL A   1      40.354  33.228  36.415  1.00  0.00     0.173 A 
ATOM     71  F   UNL A   1      37.891  30.562  36.433  1.00  0.00    -0.203 F 
ATOM     72  C   UNL A   1      38.120  32.424  37.853  1.00  0.00     0.198 A 
ATOM     73  C   UNL A   1      39.906  33.980  37.505  1.00  0.00     0.198 A 
ATOM     74  F   UNL A   1      41.410  33.674  35.720  1.00  0.00    -0.203 F 
ATOM     75  F   UNL A   1      37.001  32.065  38.497  1.00  0.00    -0.200 F 
ATOM     76  C   UNL A   1      38.781  33.587  38.212  1.00  0.00     0.200 A 
ATOM     77  F   UNL A   1      40.547  35.106  37.848  1.00  0.00    -0.200 F 
ATOM     78  F   UNL A   1      38.319  34.340  39.220  1.00  0.00    -0.200 F 
ENDBRANCH  44  68
BRANCH  56  79
ATOM     79  C   UNL A   1      44.486  27.134  34.738  1.00  0.00     0.064 A 
ATOM     80  C   UNL A   1      44.240  25.913  35.379  1.00  0.00     0.173 A 
ATOM     81  C   UNL A   1      45.783  27.666  34.811  1.00  0.00     0.173 A 
ATOM     82  F   UNL A   1      43.015  25.368  35.346  1.00  0.00    -0.203 F 
ATOM     83  C   UNL A   1      45.254  25.250  36.065  1.00  0.00     0.198 A 
ATOM     84  C   UNL A   1      46.802  26.985  35.470  1.00  0.00     0.198 A 
ATOM     85  F   UNL A   1      46.074  28.828  34.204  1.00  0.00    -0.203 F 
ATOM     86  F   UNL A   1      44.992  24.093  36.689  1.00  0.00    -0.200 F 
ATOM     87  C   UNL A   1      46.536  25.778  36.098  1.00  0.00     0.200 A 
ATOM     88  F   UNL A   1      48.045  27.486  35.479  1.00  0.00    -0.200 F 
ATOM     89  F   UNL A   1      47.518  25.121  36.730  1.00  0.00    -0.200 F 
ENDBRANCH  56  79
ENDBRANCH  30  31
ENDBRANCH  23  25
ENDBRANCH  22  23
ENDBRANCH   1  22
TORSDOF 12
ENDMDL
