MODEL 1
REMARK VINA RESULT:     -11.1      0.000      0.000
REMARK SMILES CC(=O)[C@@H]1CCCC[N@H+]1CC(C)(C)C(=O)OCCOC(=O)c1ccc(-c2c3nc(c(-c4c(F)c(F)c(F)c(F)c4F)c4ccc([nH]4)c(-c4c(F)c(F)c(F)c(F)c4F)c4nc(c(-c5c(F)c(F)c(F)c(F)c5F)c5ccc2[nH]5)C=C4)C=C3)cc1
REMARK SMILES IDX 17 1 16 2 14 3 15 4 11 5 12 6 13 7 10 8 9 9 4 10 5 11 6 12
REMARK SMILES IDX 8 13 7 15 2 16 1 17 3 18 18 19 19 20 20 21 21 22 22 23 23 24
REMARK SMILES IDX 84 25 24 26 83 27 25 28 26 29 27 30 77 31 28 32 82 33 76 34
REMARK SMILES IDX 78 35 29 36 81 37 75 38 74 39 30 41 62 42 42 43 61 44 43 45
REMARK SMILES IDX 46 46 60 47 79 48 44 49 45 50 59 52 80 53 47 54 31 55 32 56
REMARK SMILES IDX 40 57 33 58 34 59 38 60 41 61 35 62 36 63 39 64 37 65 63 66
REMARK SMILES IDX 64 67 72 68 65 69 66 70 70 71 73 72 67 73 68 74 71 75 69 76
REMARK SMILES IDX 48 77 49 78 57 79 50 80 51 81 55 82 58 83 52 84 53 85 56 86
REMARK SMILES IDX 54 87
REMARK H PARENT 9 14 78 40 46 51
REMARK Flexibility Score: inf
ROOT
ATOM      1  C   UNL A   1      31.765  28.233  26.756  1.00  0.00     0.274 C 
ENDROOT
BRANCH   1   2
ATOM      2  O   UNL A   1      30.965  27.628  25.709  1.00  0.00    -0.461 OA
BRANCH   2   3
ATOM      3  C   UNL A   1      31.688  26.825  24.885  1.00  0.00     0.317 C 
ATOM      4  O   UNL A   1      32.894  26.708  25.039  1.00  0.00    -0.251 OA
BRANCH   3   5
ATOM      5  C   UNL A   1      30.880  26.112  23.796  1.00  0.00     0.111 C 
ATOM      6  C   UNL A   1      31.378  26.512  22.403  1.00  0.00     0.029 C 
ATOM      7  C   UNL A   1      29.416  26.598  23.952  1.00  0.00     0.029 C 
BRANCH   5   8
ATOM      8  C   UNL A   1      30.875  24.534  23.930  1.00  0.00     0.281 C 
BRANCH   8   9
ATOM      9  N   UNL A   1      31.963  23.681  24.469  1.00  0.00    -0.325 N 
ATOM     10  C   UNL A   1      31.573  22.625  25.412  1.00  0.00     0.251 C 
ATOM     11  C   UNL A   1      32.769  21.820  25.963  1.00  0.00     0.074 C 
ATOM     12  C   UNL A   1      33.713  21.344  24.870  1.00  0.00     0.012 C 
ATOM     13  C   UNL A   1      32.999  23.291  23.519  1.00  0.00     0.262 C 
ATOM     14  H   UNL A   1      32.433  24.353  25.076  1.00  0.00     0.348 HD
ATOM     15  C   UNL A   1      34.195  22.553  24.099  1.00  0.00     0.062 C 
BRANCH  10  16
ATOM     16  C   UNL A   1      30.885  23.248  26.641  1.00  0.00     0.186 C 
ATOM     17  C   UNL A   1      29.561  22.651  27.027  1.00  0.00     0.094 C 
ATOM     18  O   UNL A   1      31.377  24.164  27.304  1.00  0.00    -0.293 OA
ENDBRANCH  10  16
ENDBRANCH   8   9
ENDBRANCH   5   8
ENDBRANCH   3   5
ENDBRANCH   2   3
ENDBRANCH   1   2
BRANCH   1  19
ATOM     19  C   UNL A   1      31.817  29.780  26.746  1.00  0.00     0.275 C 
BRANCH  19  20
ATOM     20  O   UNL A   1      33.103  30.350  26.385  1.00  0.00    -0.458 OA
BRANCH  20  21
ATOM     21  C   UNL A   1      33.523  31.392  27.150  1.00  0.00     0.338 C 
ATOM     22  O   UNL A   1      32.844  32.350  27.490  1.00  0.00    -0.246 OA
BRANCH  21  23
ATOM     23  C   UNL A   1      34.867  31.153  27.741  1.00  0.00     0.060 A 
ATOM     24  C   UNL A   1      35.094  29.871  28.250  1.00  0.00     0.016 A 
ATOM     25  C   UNL A   1      35.851  32.123  27.912  1.00  0.00     0.016 A 
ATOM     26  C   UNL A   1      36.302  29.512  28.850  1.00  0.00     0.010 A 
ATOM     27  C   UNL A   1      37.051  31.787  28.581  1.00  0.00     0.010 A 
ATOM     28  C   UNL A   1      37.289  30.476  29.049  1.00  0.00    -0.014 A 
BRANCH  28  29
ATOM     29  C   UNL A   1      38.486  30.133  29.871  1.00  0.00     0.031 A 
ATOM     30  C   UNL A   1      39.505  29.175  29.315  1.00  0.00     0.074 A 
ATOM     31  C   UNL A   1      38.719  30.709  31.067  1.00  0.00     0.049 A 
ATOM     32  N   UNL A   1      40.553  28.642  29.891  1.00  0.00    -0.248 NA
ATOM     33  C   UNL A   1      39.321  28.772  27.911  1.00  0.00     0.031 C 
ATOM     34  C   UNL A   1      37.896  31.751  31.677  1.00  0.00     0.029 A 
ATOM     35  N   UNL A   1      39.721  30.495  31.988  1.00  0.00    -0.354 N 
ATOM     36  C   UNL A   1      41.133  27.819  28.935  1.00  0.00     0.074 A 
ATOM     37  C   UNL A   1      40.328  27.928  27.738  1.00  0.00     0.031 C 
ATOM     38  C   UNL A   1      38.409  32.066  32.880  1.00  0.00     0.029 A 
ATOM     39  C   UNL A   1      39.565  31.211  33.152  1.00  0.00     0.049 A 
ATOM     40  H   UNL A   1      40.477  29.886  31.829  1.00  0.00     0.167 HD
ATOM     41  C   UNL A   1      42.230  27.033  29.052  1.00  0.00     0.037 A 
ATOM     42  C   UNL A   1      40.244  31.149  34.316  1.00  0.00     0.037 A 
ATOM     43  C   UNL A   1      43.049  26.940  30.233  1.00  0.00     0.049 A 
ATOM     44  C   UNL A   1      41.400  30.182  34.453  1.00  0.00     0.074 A 
ATOM     45  C   UNL A   1      44.183  26.171  30.435  1.00  0.00     0.029 A 
ATOM     46  N   UNL A   1      42.823  27.636  31.409  1.00  0.00    -0.354 N 
ATOM     47  N   UNL A   1      41.929  29.386  33.557  1.00  0.00    -0.248 NA
ATOM     48  C   UNL A   1      42.049  30.098  35.773  1.00  0.00     0.031 C 
ATOM     49  C   UNL A   1      44.602  26.347  31.756  1.00  0.00     0.029 A 
ATOM     50  C   UNL A   1      43.775  27.283  32.354  1.00  0.00     0.049 A 
ATOM     51  H   UNL A   1      42.097  28.284  31.553  1.00  0.00     0.167 HD
ATOM     52  C   UNL A   1      42.988  28.743  34.188  1.00  0.00     0.074 A 
ATOM     53  C   UNL A   1      43.040  29.251  35.540  1.00  0.00     0.031 C 
ATOM     54  C   UNL A   1      43.839  27.812  33.692  1.00  0.00     0.037 A 
BRANCH  41  55
ATOM     55  C   UNL A   1      42.586  26.148  27.894  1.00  0.00     0.064 A 
ATOM     56  C   UNL A   1      41.971  24.905  27.686  1.00  0.00     0.173 A 
ATOM     57  C   UNL A   1      43.508  26.596  26.934  1.00  0.00     0.173 A 
ATOM     58  F   UNL A   1      41.093  24.427  28.579  1.00  0.00    -0.203 F 
ATOM     59  C   UNL A   1      42.275  24.139  26.562  1.00  0.00     0.198 A 
ATOM     60  C   UNL A   1      43.787  25.842  25.800  1.00  0.00     0.198 A 
ATOM     61  F   UNL A   1      44.119  27.781  27.086  1.00  0.00    -0.203 F 
ATOM     62  F   UNL A   1      41.699  22.941  26.394  1.00  0.00    -0.200 F 
ATOM     63  C   UNL A   1      43.173  24.613  25.615  1.00  0.00     0.200 A 
ATOM     64  F   UNL A   1      44.643  26.309  24.880  1.00  0.00    -0.200 F 
ATOM     65  F   UNL A   1      43.448  23.883  24.526  1.00  0.00    -0.200 F 
ENDBRANCH  41  55
BRANCH  42  66
ATOM     66  C   UNL A   1      39.820  31.961  35.495  1.00  0.00     0.064 A 
ATOM     67  C   UNL A   1      38.798  31.529  36.354  1.00  0.00     0.173 A 
ATOM     68  C   UNL A   1      40.358  33.238  35.724  1.00  0.00     0.173 A 
ATOM     69  F   UNL A   1      38.219  30.335  36.160  1.00  0.00    -0.203 F 
ATOM     70  C   UNL A   1      38.303  32.355  37.363  1.00  0.00     0.198 A 
ATOM     71  C   UNL A   1      39.890  34.046  36.759  1.00  0.00     0.198 A 
ATOM     72  F   UNL A   1      41.327  33.715  34.929  1.00  0.00    -0.203 F 
ATOM     73  F   UNL A   1      37.265  31.951  38.110  1.00  0.00    -0.200 F 
ATOM     74  C   UNL A   1      38.851  33.612  37.567  1.00  0.00     0.200 A 
ATOM     75  F   UNL A   1      40.429  35.258  36.956  1.00  0.00    -0.200 F 
ATOM     76  F   UNL A   1      38.364  34.413  38.524  1.00  0.00    -0.200 F 
ENDBRANCH  42  66
BRANCH  54  77
ATOM     77  C   UNL A   1      44.944  27.322  34.587  1.00  0.00     0.064 A 
ATOM     78  C   UNL A   1      44.795  26.186  35.396  1.00  0.00     0.173 A 
ATOM     79  C   UNL A   1      46.189  27.971  34.595  1.00  0.00     0.173 A 
ATOM     80  F   UNL A   1      43.624  25.533  35.437  1.00  0.00    -0.203 F 
ATOM     81  C   UNL A   1      45.841  25.737  36.200  1.00  0.00     0.198 A 
ATOM     82  C   UNL A   1      47.243  27.499  35.371  1.00  0.00     0.198 A 
ATOM     83  F   UNL A   1      46.390  29.057  33.832  1.00  0.00    -0.203 F 
ATOM     84  F   UNL A   1      45.658  24.679  37.003  1.00  0.00    -0.200 F 
ATOM     85  C   UNL A   1      47.065  26.387  36.180  1.00  0.00     0.200 A 
ATOM     86  F   UNL A   1      48.431  28.117  35.335  1.00  0.00    -0.200 F 
ATOM     87  F   UNL A   1      48.074  25.944  36.944  1.00  0.00    -0.200 F 
ENDBRANCH  54  77
ENDBRANCH  28  29
ENDBRANCH  21  23
ENDBRANCH  20  21
ENDBRANCH  19  20
ENDBRANCH   1  19
TORSDOF 14
ENDMDL
MODEL 2
REMARK VINA RESULT:     -11.0      1.063      2.349
REMARK SMILES CC(=O)[C@@H]1CCCC[N@H+]1CC(C)(C)C(=O)OCCOC(=O)c1ccc(-c2c3nc(c(-c4c(F)c(F)c(F)c(F)c4F)c4ccc([nH]4)c(-c4c(F)c(F)c(F)c(F)c4F)c4nc(c(-c5c(F)c(F)c(F)c(F)c5F)c5ccc2[nH]5)C=C4)C=C3)cc1
REMARK SMILES IDX 17 1 16 2 14 3 15 4 11 5 12 6 13 7 10 8 9 9 4 10 5 11 6 12
REMARK SMILES IDX 8 13 7 15 2 16 1 17 3 18 18 19 19 20 20 21 21 22 22 23 23 24
REMARK SMILES IDX 84 25 24 26 83 27 25 28 26 29 27 30 77 31 28 32 82 33 76 34
REMARK SMILES IDX 78 35 29 36 81 37 75 38 74 39 30 41 62 42 42 43 61 44 43 45
REMARK SMILES IDX 46 46 60 47 79 48 44 49 45 50 59 52 80 53 47 54 31 55 32 56
REMARK SMILES IDX 40 57 33 58 34 59 38 60 41 61 35 62 36 63 39 64 37 65 63 66
REMARK SMILES IDX 64 67 72 68 65 69 66 70 70 71 73 72 67 73 68 74 71 75 69 76
REMARK SMILES IDX 48 77 49 78 57 79 50 80 51 81 55 82 58 83 52 84 53 85 56 86
REMARK SMILES IDX 54 87
REMARK H PARENT 9 14 78 40 46 51
REMARK Flexibility Score: inf
ROOT
ATOM      1  C   UNL A   1      31.348  28.921  24.236  1.00  0.00     0.274 C 
ENDROOT
BRANCH   1   2
ATOM      2  O   UNL A   1      32.181  27.775  23.932  1.00  0.00    -0.461 OA
BRANCH   2   3
ATOM      3  C   UNL A   1      31.689  26.612  24.435  1.00  0.00     0.317 C 
ATOM      4  O   UNL A   1      30.484  26.413  24.465  1.00  0.00    -0.251 OA
BRANCH   3   5
ATOM      5  C   UNL A   1      32.744  25.621  24.936  1.00  0.00     0.111 C 
ATOM      6  C   UNL A   1      32.169  24.730  26.042  1.00  0.00     0.029 C 
ATOM      7  C   UNL A   1      33.892  26.472  25.537  1.00  0.00     0.029 C 
BRANCH   5   8
ATOM      8  C   UNL A   1      33.369  24.717  23.794  1.00  0.00     0.281 C 
BRANCH   8   9
ATOM      9  N   UNL A   1      33.539  23.244  23.815  1.00  0.00    -0.325 N 
ATOM     10  C   UNL A   1      34.465  22.697  24.816  1.00  0.00     0.251 C 
ATOM     11  C   UNL A   1      34.623  21.165  24.736  1.00  0.00     0.074 C 
ATOM     12  C   UNL A   1      33.290  20.436  24.676  1.00  0.00     0.012 C 
ATOM     13  C   UNL A   1      32.327  22.457  23.620  1.00  0.00     0.262 C 
ATOM     14  H   UNL A   1      34.056  23.111  22.946  1.00  0.00     0.348 HD
ATOM     15  C   UNL A   1      32.518  20.955  23.483  1.00  0.00     0.062 C 
BRANCH  10  16
ATOM     16  C   UNL A   1      35.875  23.277  24.598  1.00  0.00     0.186 C 
ATOM     17  C   UNL A   1      36.546  22.905  23.305  1.00  0.00     0.094 C 
ATOM     18  O   UNL A   1      36.436  24.023  25.403  1.00  0.00    -0.293 OA
ENDBRANCH  10  16
ENDBRANCH   8   9
ENDBRANCH   5   8
ENDBRANCH   3   5
ENDBRANCH   2   3
ENDBRANCH   1   2
BRANCH   1  19
ATOM     19  C   UNL A   1      31.620  29.602  25.600  1.00  0.00     0.275 C 
BRANCH  19  20
ATOM     20  O   UNL A   1      32.979  30.078  25.788  1.00  0.00    -0.458 OA
BRANCH  20  21
ATOM     21  C   UNL A   1      33.150  31.003  26.770  1.00  0.00     0.338 C 
ATOM     22  O   UNL A   1      32.283  31.739  27.220  1.00  0.00    -0.246 OA
BRANCH  21  23
ATOM     23  C   UNL A   1      34.480  30.890  27.426  1.00  0.00     0.060 A 
ATOM     24  C   UNL A   1      34.859  29.607  27.828  1.00  0.00     0.016 A 
ATOM     25  C   UNL A   1      35.305  31.964  27.753  1.00  0.00     0.016 A 
ATOM     26  C   UNL A   1      36.071  29.357  28.473  1.00  0.00     0.010 A 
ATOM     27  C   UNL A   1      36.503  31.728  28.467  1.00  0.00     0.010 A 
ATOM     28  C   UNL A   1      36.900  30.421  28.826  1.00  0.00    -0.014 A 
BRANCH  28  29
ATOM     29  C   UNL A   1      38.087  30.163  29.693  1.00  0.00     0.031 A 
ATOM     30  C   UNL A   1      39.188  29.274  29.179  1.00  0.00     0.074 A 
ATOM     31  C   UNL A   1      38.237  30.757  30.893  1.00  0.00     0.049 A 
ATOM     32  N   UNL A   1      40.247  28.815  29.795  1.00  0.00    -0.248 NA
ATOM     33  C   UNL A   1      39.081  28.854  27.772  1.00  0.00     0.031 C 
ATOM     34  C   UNL A   1      37.325  31.743  31.467  1.00  0.00     0.029 A 
ATOM     35  N   UNL A   1      39.218  30.614  31.850  1.00  0.00    -0.354 N 
ATOM     36  C   UNL A   1      40.915  28.029  28.865  1.00  0.00     0.074 A 
ATOM     37  C   UNL A   1      40.149  28.080  27.639  1.00  0.00     0.031 C 
ATOM     38  C   UNL A   1      37.772  32.096  32.686  1.00  0.00     0.029 A 
ATOM     39  C   UNL A   1      38.972  31.322  33.004  1.00  0.00     0.049 A 
ATOM     40  H   UNL A   1      40.019  30.057  31.721  1.00  0.00     0.167 HD
ATOM     41  C   UNL A   1      42.058  27.320  29.025  1.00  0.00     0.037 A 
ATOM     42  C   UNL A   1      39.613  31.311  34.192  1.00  0.00     0.037 A 
ATOM     43  C   UNL A   1      42.839  27.287  30.234  1.00  0.00     0.049 A 
ATOM     44  C   UNL A   1      40.825  30.424  34.375  1.00  0.00     0.074 A 
ATOM     45  C   UNL A   1      44.014  26.597  30.481  1.00  0.00     0.029 A 
ATOM     46  N   UNL A   1      42.525  27.970  31.398  1.00  0.00    -0.354 N 
ATOM     47  N   UNL A   1      41.438  29.663  33.502  1.00  0.00    -0.248 NA
ATOM     48  C   UNL A   1      41.430  30.389  35.717  1.00  0.00     0.031 C 
ATOM     49  C   UNL A   1      44.373  26.806  31.815  1.00  0.00     0.029 A 
ATOM     50  C   UNL A   1      43.464  27.686  32.378  1.00  0.00     0.049 A 
ATOM     51  H   UNL A   1      41.752  28.568  31.512  1.00  0.00     0.167 HD
ATOM     52  C   UNL A   1      42.515  29.095  34.175  1.00  0.00     0.074 A 
ATOM     53  C   UNL A   1      42.484  29.610  35.525  1.00  0.00     0.031 C 
ATOM     54  C   UNL A   1      43.444  28.223  33.714  1.00  0.00     0.037 A 
BRANCH  41  55
ATOM     55  C   UNL A   1      42.514  26.457  27.886  1.00  0.00     0.064 A 
ATOM     56  C   UNL A   1      42.021  25.161  27.685  1.00  0.00     0.173 A 
ATOM     57  C   UNL A   1      43.407  26.977  26.934  1.00  0.00     0.173 A 
ATOM     58  F   UNL A   1      41.176  24.614  28.571  1.00  0.00    -0.203 F 
ATOM     59  C   UNL A   1      42.414  24.412  26.577  1.00  0.00     0.198 A 
ATOM     60  C   UNL A   1      43.774  26.237  25.815  1.00  0.00     0.198 A 
ATOM     61  F   UNL A   1      43.902  28.215  27.078  1.00  0.00    -0.203 F 
ATOM     62  F   UNL A   1      41.955  23.163  26.418  1.00  0.00    -0.200 F 
ATOM     63  C   UNL A   1      43.280  24.954  25.638  1.00  0.00     0.200 A 
ATOM     64  F   UNL A   1      44.598  26.771  24.902  1.00  0.00    -0.200 F 
ATOM     65  F   UNL A   1      43.640  24.239  24.564  1.00  0.00    -0.200 F 
ENDBRANCH  41  55
BRANCH  42  66
ATOM     66  C   UNL A   1      39.093  32.096  35.350  1.00  0.00     0.064 A 
ATOM     67  C   UNL A   1      39.454  33.438  35.548  1.00  0.00     0.173 A 
ATOM     68  C   UNL A   1      38.306  31.487  36.341  1.00  0.00     0.173 A 
ATOM     69  F   UNL A   1      40.237  34.060  34.654  1.00  0.00    -0.203 F 
ATOM     70  C   UNL A   1      39.089  34.122  36.708  1.00  0.00     0.198 A 
ATOM     71  C   UNL A   1      37.908  32.185  37.480  1.00  0.00     0.198 A 
ATOM     72  F   UNL A   1      37.941  30.202  36.217  1.00  0.00    -0.203 F 
ATOM     73  F   UNL A   1      39.524  35.373  36.911  1.00  0.00    -0.200 F 
ATOM     74  C   UNL A   1      38.313  33.496  37.671  1.00  0.00     0.200 A 
ATOM     75  F   UNL A   1      37.152  31.577  38.406  1.00  0.00    -0.200 F 
ATOM     76  F   UNL A   1      37.978  34.147  38.793  1.00  0.00    -0.200 F 
ENDBRANCH  42  66
BRANCH  54  77
ATOM     77  C   UNL A   1      44.547  27.811  34.651  1.00  0.00     0.064 A 
ATOM     78  C   UNL A   1      45.731  28.553  34.774  1.00  0.00     0.173 A 
ATOM     79  C   UNL A   1      44.393  26.685  35.474  1.00  0.00     0.173 A 
ATOM     80  F   UNL A   1      45.937  29.632  34.004  1.00  0.00    -0.203 F 
ATOM     81  C   UNL A   1      46.730  28.165  35.666  1.00  0.00     0.198 A 
ATOM     82  C   UNL A   1      45.376  26.321  36.389  1.00  0.00     0.198 A 
ATOM     83  F   UNL A   1      43.276  25.944  35.404  1.00  0.00    -0.203 F 
ATOM     84  F   UNL A   1      47.874  28.862  35.730  1.00  0.00    -0.200 F 
ATOM     85  C   UNL A   1      46.548  27.057  36.478  1.00  0.00     0.200 A 
ATOM     86  F   UNL A   1      45.189  25.261  37.187  1.00  0.00    -0.200 F 
ATOM     87  F   UNL A   1      47.504  26.694  37.345  1.00  0.00    -0.200 F 
ENDBRANCH  54  77
ENDBRANCH  28  29
ENDBRANCH  21  23
ENDBRANCH  20  21
ENDBRANCH  19  20
ENDBRANCH   1  19
TORSDOF 14
ENDMDL
MODEL 3
REMARK VINA RESULT:     -11.0      4.940      8.126
REMARK SMILES CC(=O)[C@@H]1CCCC[N@H+]1CC(C)(C)C(=O)OCCOC(=O)c1ccc(-c2c3nc(c(-c4c(F)c(F)c(F)c(F)c4F)c4ccc([nH]4)c(-c4c(F)c(F)c(F)c(F)c4F)c4nc(c(-c5c(F)c(F)c(F)c(F)c5F)c5ccc2[nH]5)C=C4)C=C3)cc1
REMARK SMILES IDX 17 1 16 2 14 3 15 4 11 5 12 6 13 7 10 8 9 9 4 10 5 11 6 12
REMARK SMILES IDX 8 13 7 15 2 16 1 17 3 18 18 19 19 20 20 21 21 22 22 23 23 24
REMARK SMILES IDX 84 25 24 26 83 27 25 28 26 29 27 30 77 31 28 32 82 33 76 34
REMARK SMILES IDX 78 35 29 36 81 37 75 38 74 39 30 41 62 42 42 43 61 44 43 45
REMARK SMILES IDX 46 46 60 47 79 48 44 49 45 50 59 52 80 53 47 54 31 55 32 56
REMARK SMILES IDX 40 57 33 58 34 59 38 60 41 61 35 62 36 63 39 64 37 65 63 66
REMARK SMILES IDX 64 67 72 68 65 69 66 70 70 71 73 72 67 73 68 74 71 75 69 76
REMARK SMILES IDX 48 77 49 78 57 79 50 80 51 81 55 82 58 83 52 84 53 85 56 86
REMARK SMILES IDX 54 87
REMARK H PARENT 9 14 78 40 46 51
REMARK Flexibility Score: inf
ROOT
ATOM      1  C   UNL A   1      38.527  19.828  24.974  1.00  0.00     0.274 C 
ENDROOT
BRANCH   1   2
ATOM      2  O   UNL A   1      38.012  21.181  25.053  1.00  0.00    -0.461 OA
BRANCH   2   3
ATOM      3  C   UNL A   1      36.654  21.233  25.037  1.00  0.00     0.317 C 
ATOM      4  O   UNL A   1      35.996  20.203  25.025  1.00  0.00    -0.251 OA
BRANCH   3   5
ATOM      5  C   UNL A   1      36.056  22.643  25.036  1.00  0.00     0.111 C 
ATOM      6  C   UNL A   1      35.912  23.171  23.605  1.00  0.00     0.029 C 
ATOM      7  C   UNL A   1      37.066  23.545  25.792  1.00  0.00     0.029 C 
BRANCH   5   8
ATOM      8  C   UNL A   1      34.666  22.751  25.789  1.00  0.00     0.281 C 
BRANCH   8   9
ATOM      9  N   UNL A   1      33.475  23.524  25.356  1.00  0.00    -0.325 N 
ATOM     10  C   UNL A   1      32.176  22.845  25.444  1.00  0.00     0.251 C 
ATOM     11  C   UNL A   1      30.999  23.698  24.927  1.00  0.00     0.074 C 
ATOM     12  C   UNL A   1      30.993  25.106  25.504  1.00  0.00     0.012 C 
ATOM     13  C   UNL A   1      33.451  24.930  25.743  1.00  0.00     0.262 C 
ATOM     14  H   UNL A   1      33.637  23.553  24.349  1.00  0.00     0.348 HD
ATOM     15  C   UNL A   1      32.315  25.762  25.170  1.00  0.00     0.062 C 
BRANCH  10  16
ATOM     16  C   UNL A   1      32.187  21.575  24.573  1.00  0.00     0.186 C 
ATOM     17  C   UNL A   1      32.323  21.794  23.093  1.00  0.00     0.094 C 
ATOM     18  O   UNL A   1      32.117  20.434  25.034  1.00  0.00    -0.293 OA
ENDBRANCH  10  16
ENDBRANCH   8   9
ENDBRANCH   5   8
ENDBRANCH   3   5
ENDBRANCH   2   3
ENDBRANCH   1   2
BRANCH   1  19
ATOM     19  C   UNL A   1      39.564  19.445  26.058  1.00  0.00     0.275 C 
BRANCH  19  20
ATOM     20  O   UNL A   1      40.801  18.878  25.552  1.00  0.00    -0.458 OA
BRANCH  20  21
ATOM     21  C   UNL A   1      41.922  19.180  26.260  1.00  0.00     0.338 C 
ATOM     22  O   UNL A   1      42.874  18.437  26.445  1.00  0.00    -0.246 OA
BRANCH  21  23
ATOM     23  C   UNL A   1      41.989  20.621  26.622  1.00  0.00     0.060 A 
ATOM     24  C   UNL A   1      41.990  21.523  25.554  1.00  0.00     0.016 A 
ATOM     25  C   UNL A   1      42.153  21.115  27.914  1.00  0.00     0.016 A 
ATOM     26  C   UNL A   1      42.069  22.903  25.746  1.00  0.00     0.010 A 
ATOM     27  C   UNL A   1      42.303  22.508  28.112  1.00  0.00     0.010 A 
ATOM     28  C   UNL A   1      42.254  23.414  27.030  1.00  0.00    -0.014 A 
BRANCH  28  29
ATOM     29  C   UNL A   1      42.542  24.868  27.201  1.00  0.00     0.031 A 
ATOM     30  C   UNL A   1      43.857  25.415  26.714  1.00  0.00     0.074 A 
ATOM     31  C   UNL A   1      41.632  25.720  27.713  1.00  0.00     0.049 A 
ATOM     32  N   UNL A   1      44.371  26.610  26.862  1.00  0.00    -0.248 NA
ATOM     33  C   UNL A   1      44.703  24.487  25.946  1.00  0.00     0.031 C 
ATOM     34  C   UNL A   1      40.270  25.366  28.104  1.00  0.00     0.029 A 
ATOM     35  N   UNL A   1      41.720  27.066  27.995  1.00  0.00    -0.354 N 
ATOM     36  C   UNL A   1      45.610  26.569  26.236  1.00  0.00     0.074 A 
ATOM     37  C   UNL A   1      45.768  25.235  25.698  1.00  0.00     0.031 C 
ATOM     38  C   UNL A   1      39.658  26.457  28.600  1.00  0.00     0.029 A 
ATOM     39  C   UNL A   1      40.602  27.575  28.613  1.00  0.00     0.049 A 
ATOM     40  H   UNL A   1      42.509  27.611  27.776  1.00  0.00     0.167 HD
ATOM     41  C   UNL A   1      46.536  27.552  26.132  1.00  0.00     0.037 A 
ATOM     42  C   UNL A   1      40.382  28.787  29.167  1.00  0.00     0.037 A 
ATOM     43  C   UNL A   1      46.372  28.889  26.642  1.00  0.00     0.049 A 
ATOM     44  C   UNL A   1      41.477  29.830  29.131  1.00  0.00     0.074 A 
ATOM     45  C   UNL A   1      47.260  29.950  26.576  1.00  0.00     0.029 A 
ATOM     46  N   UNL A   1      45.250  29.347  27.314  1.00  0.00    -0.354 N 
ATOM     47  N   UNL A   1      42.656  29.780  28.562  1.00  0.00    -0.248 NA
ATOM     48  C   UNL A   1      41.211  31.102  29.825  1.00  0.00     0.031 C 
ATOM     49  C   UNL A   1      46.705  31.029  27.268  1.00  0.00     0.029 A 
ATOM     50  C   UNL A   1      45.440  30.665  27.701  1.00  0.00     0.049 A 
ATOM     51  H   UNL A   1      44.440  28.818  27.489  1.00  0.00     0.167 HD
ATOM     52  C   UNL A   1      43.250  31.015  28.794  1.00  0.00     0.074 A 
ATOM     53  C   UNL A   1      42.298  31.804  29.543  1.00  0.00     0.031 C 
ATOM     54  C   UNL A   1      44.477  31.456  28.423  1.00  0.00     0.037 A 
BRANCH  41  55
ATOM     55  C   UNL A   1      47.851  27.213  25.495  1.00  0.00     0.064 A 
ATOM     56  C   UNL A   1      48.101  27.428  24.133  1.00  0.00     0.173 A 
ATOM     57  C   UNL A   1      48.906  26.734  26.291  1.00  0.00     0.173 A 
ATOM     58  F   UNL A   1      47.124  27.873  23.328  1.00  0.00    -0.203 F 
ATOM     59  C   UNL A   1      49.356  27.167  23.588  1.00  0.00     0.198 A 
ATOM     60  C   UNL A   1      50.165  26.502  25.749  1.00  0.00     0.198 A 
ATOM     61  F   UNL A   1      48.719  26.518  27.601  1.00  0.00    -0.203 F 
ATOM     62  F   UNL A   1      49.568  27.351  22.277  1.00  0.00    -0.200 F 
ATOM     63  C   UNL A   1      50.389  26.715  24.397  1.00  0.00     0.200 A 
ATOM     64  F   UNL A   1      51.165  26.081  26.537  1.00  0.00    -0.200 F 
ATOM     65  F   UNL A   1      51.601  26.483  23.874  1.00  0.00    -0.200 F 
ENDBRANCH  41  55
BRANCH  42  66
ATOM     66  C   UNL A   1      39.107  29.081  29.886  1.00  0.00     0.064 A 
ATOM     67  C   UNL A   1      38.046  29.748  29.255  1.00  0.00     0.173 A 
ATOM     68  C   UNL A   1      38.966  28.793  31.253  1.00  0.00     0.173 A 
ATOM     69  F   UNL A   1      38.141  30.084  27.960  1.00  0.00    -0.203 F 
ATOM     70  C   UNL A   1      36.919  30.153  29.970  1.00  0.00     0.198 A 
ATOM     71  C   UNL A   1      37.821  29.163  31.957  1.00  0.00     0.198 A 
ATOM     72  F   UNL A   1      39.952  28.171  31.917  1.00  0.00    -0.203 F 
ATOM     73  F   UNL A   1      35.962  30.868  29.361  1.00  0.00    -0.200 F 
ATOM     74  C   UNL A   1      36.806  29.857  31.319  1.00  0.00     0.200 A 
ATOM     75  F   UNL A   1      37.714  28.868  33.261  1.00  0.00    -0.200 F 
ATOM     76  F   UNL A   1      35.732  30.262  32.010  1.00  0.00    -0.200 F 
ENDBRANCH  42  66
BRANCH  54  77
ATOM     77  C   UNL A   1      44.846  32.875  28.759  1.00  0.00     0.064 A 
ATOM     78  C   UNL A   1      44.543  33.943  27.903  1.00  0.00     0.173 A 
ATOM     79  C   UNL A   1      45.468  33.173  29.982  1.00  0.00     0.173 A 
ATOM     80  F   UNL A   1      43.960  33.715  26.716  1.00  0.00    -0.203 F 
ATOM     81  C   UNL A   1      44.875  35.253  28.246  1.00  0.00     0.198 A 
ATOM     82  C   UNL A   1      45.765  34.485  30.338  1.00  0.00     0.198 A 
ATOM     83  F   UNL A   1      45.772  32.190  30.844  1.00  0.00    -0.203 F 
ATOM     84  F   UNL A   1      44.620  36.252  27.389  1.00  0.00    -0.200 F 
ATOM     85  C   UNL A   1      45.476  35.523  29.466  1.00  0.00     0.200 A 
ATOM     86  F   UNL A   1      46.328  34.746  31.526  1.00  0.00    -0.200 F 
ATOM     87  F   UNL A   1      45.781  36.786  29.800  1.00  0.00    -0.200 F 
ENDBRANCH  54  77
ENDBRANCH  28  29
ENDBRANCH  21  23
ENDBRANCH  20  21
ENDBRANCH  19  20
ENDBRANCH   1  19
TORSDOF 14
ENDMDL
