MODEL 1
REMARK VINA RESULT:     -13.6      0.000      0.000
REMARK SMILES Cc1cc(C(=O)N[C@H]2C=C[C@H](C(=O)OCCOC(=O)c3ccc(-c4c5nc(c(-c6c(F)c(F)c(F)c(F)c6F)c6ccc([nH]6)c(-c6c(F)c(F)c(F)c(F)c6F)c6nc(c(-c7c(F)c(F)c(F)c(F)c7F)c7ccc4[nH]7)C=C6)C=C5)cc3)C2)ccc1F
REMARK SMILES IDX 15 1 14 2 12 3 13 4 11 5 8 6 9 7 83 8 10 9 7 10 5 11 6 12
REMARK SMILES IDX 4 14 1 15 2 16 3 17 86 18 85 19 87 20 84 21 16 22 17 23
REMARK SMILES IDX 18 24 19 25 20 26 21 27 82 28 22 29 81 30 23 31 24 32 25 33
REMARK SMILES IDX 75 34 26 35 80 36 74 37 76 38 27 39 79 40 73 41 72 42 28 44
REMARK SMILES IDX 60 45 40 46 59 47 41 48 44 49 58 50 77 51 42 52 43 53 57 55
REMARK SMILES IDX 78 56 45 57 29 58 30 59 38 60 31 61 32 62 36 63 39 64 33 65
REMARK SMILES IDX 34 66 37 67 35 68 61 69 62 70 70 71 63 72 64 73 68 74 71 75
REMARK SMILES IDX 65 76 66 77 69 78 67 79 46 80 47 81 55 82 48 83 49 84 53 85
REMARK SMILES IDX 56 86 50 87 51 88 54 89 52 90
REMARK H PARENT 7 13 76 43 44 54
REMARK Flexibility Score: inf
ROOT
ATOM      1  C   UNL A   1      38.302  21.701  25.475  1.00  0.00     0.274 C 
ENDROOT
BRANCH   1   2
ATOM      2  O   UNL A   1      37.214  22.594  25.783  1.00  0.00    -0.462 OA
BRANCH   2   3
ATOM      3  C   UNL A   1      35.976  22.034  25.723  1.00  0.00     0.312 C 
ATOM      4  O   UNL A   1      35.292  21.767  26.710  1.00  0.00    -0.252 OA
BRANCH   3   5
ATOM      5  C   UNL A   1      35.495  21.853  24.282  1.00  0.00     0.124 C 
ATOM      6  C   UNL A   1      34.346  23.929  23.887  1.00  0.00     0.106 C 
ATOM      7  C   UNL A   1      33.375  22.788  23.894  1.00  0.00    -0.006 C 
ATOM      8  C   UNL A   1      35.640  23.190  23.535  1.00  0.00     0.048 C 
ATOM      9  C   UNL A   1      34.013  21.640  24.170  1.00  0.00    -0.014 C 
BRANCH   6  10
ATOM     10  N   UNL A   1      33.983  24.960  22.960  1.00  0.00    -0.346 N 
ATOM     11  C   UNL A   1      33.310  26.144  23.151  1.00  0.00     0.251 C 
ATOM     12  O   UNL A   1      33.081  26.822  22.146  1.00  0.00    -0.269 OA
ATOM     13  H   UNL A   1      34.263  24.794  22.031  1.00  0.00     0.164 HD
BRANCH  11  14
ATOM     14  C   UNL A   1      32.895  26.690  24.488  1.00  0.00     0.040 A 
ATOM     15  C   UNL A   1      34.023  28.892  27.399  1.00  0.00     0.047 C 
ATOM     16  C   UNL A   1      33.186  27.976  26.557  1.00  0.00    -0.015 A 
ATOM     17  C   UNL A   1      33.695  27.445  25.357  1.00  0.00     0.020 A 
ATOM     18  C   UNL A   1      31.869  27.694  26.911  1.00  0.00     0.126 A 
ATOM     19  C   UNL A   1      31.071  26.894  26.105  1.00  0.00     0.040 A 
ATOM     20  F   UNL A   1      31.357  28.196  28.044  1.00  0.00    -0.207 F 
ATOM     21  C   UNL A   1      31.580  26.402  24.899  1.00  0.00     0.017 A 
ENDBRANCH  11  14
ENDBRANCH   6  10
ENDBRANCH   3   5
ENDBRANCH   2   3
ENDBRANCH   1   2
BRANCH   1  22
ATOM     22  C   UNL A   1      39.465  21.852  26.461  1.00  0.00     0.275 C 
BRANCH  22  23
ATOM     23  O   UNL A   1      40.430  22.837  26.054  1.00  0.00    -0.458 OA
BRANCH  23  24
ATOM     24  C   UNL A   1      40.880  23.608  27.068  1.00  0.00     0.338 C 
ATOM     25  O   UNL A   1      41.737  23.319  27.890  1.00  0.00    -0.246 OA
BRANCH  24  26
ATOM     26  C   UNL A   1      40.108  24.844  27.219  1.00  0.00     0.060 A 
ATOM     27  C   UNL A   1      40.516  25.950  26.455  1.00  0.00     0.016 A 
ATOM     28  C   UNL A   1      39.346  24.993  28.377  1.00  0.00     0.016 A 
ATOM     29  C   UNL A   1      40.338  27.228  26.961  1.00  0.00     0.010 A 
ATOM     30  C   UNL A   1      39.184  26.267  28.886  1.00  0.00     0.010 A 
ATOM     31  C   UNL A   1      39.770  27.359  28.226  1.00  0.00    -0.014 A 
BRANCH  31  32
ATOM     32  C   UNL A   1      39.962  28.553  29.033  1.00  0.00     0.031 A 
ATOM     33  C   UNL A   1      38.956  29.627  29.072  1.00  0.00     0.074 A 
ATOM     34  C   UNL A   1      41.092  28.638  29.770  1.00  0.00     0.049 A 
ATOM     35  N   UNL A   1      39.162  30.797  29.577  1.00  0.00    -0.248 NA
ATOM     36  C   UNL A   1      37.655  29.495  28.429  1.00  0.00     0.031 C 
ATOM     37  C   UNL A   1      41.357  29.528  30.893  1.00  0.00     0.029 A 
ATOM     38  N   UNL A   1      42.339  28.056  29.472  1.00  0.00    -0.354 N 
ATOM     39  C   UNL A   1      37.965  31.469  29.574  1.00  0.00     0.074 A 
ATOM     40  C   UNL A   1      37.113  30.682  28.719  1.00  0.00     0.031 C 
ATOM     41  C   UNL A   1      42.685  29.648  31.042  1.00  0.00     0.029 A 
ATOM     42  C   UNL A   1      43.302  28.999  29.897  1.00  0.00     0.049 A 
ATOM     43  H   UNL A   1      42.504  27.179  29.057  1.00  0.00     0.167 HD
ATOM     44  C   UNL A   1      37.813  32.533  30.413  1.00  0.00     0.037 A 
ATOM     45  C   UNL A   1      44.126  29.625  29.006  1.00  0.00     0.037 A 
ATOM     46  C   UNL A   1      39.112  33.003  30.902  1.00  0.00     0.049 A 
ATOM     47  C   UNL A   1      44.044  31.135  29.005  1.00  0.00     0.074 A 
ATOM     48  C   UNL A   1      39.809  32.876  32.092  1.00  0.00     0.029 A 
ATOM     49  N   UNL A   1      40.009  33.533  29.986  1.00  0.00    -0.354 N 
ATOM     50  N   UNL A   1      43.105  31.817  29.596  1.00  0.00    -0.248 NA
ATOM     51  C   UNL A   1      44.955  31.984  28.233  1.00  0.00     0.031 C 
ATOM     52  C   UNL A   1      41.157  33.282  31.859  1.00  0.00     0.029 A 
ATOM     53  C   UNL A   1      41.269  33.670  30.537  1.00  0.00     0.049 A 
ATOM     54  H   UNL A   1      39.778  33.779  29.062  1.00  0.00     0.167 HD
ATOM     55  C   UNL A   1      43.245  33.137  29.275  1.00  0.00     0.074 A 
ATOM     56  C   UNL A   1      44.415  33.200  28.422  1.00  0.00     0.031 C 
ATOM     57  C   UNL A   1      42.371  34.089  29.694  1.00  0.00     0.037 A 
BRANCH  44  58
ATOM     58  C   UNL A   1      36.489  33.038  30.971  1.00  0.00     0.064 A 
ATOM     59  C   UNL A   1      35.678  33.894  30.189  1.00  0.00     0.173 A 
ATOM     60  C   UNL A   1      36.012  32.844  32.286  1.00  0.00     0.173 A 
ATOM     61  F   UNL A   1      35.970  34.155  28.907  1.00  0.00    -0.203 F 
ATOM     62  C   UNL A   1      34.542  34.538  30.696  1.00  0.00     0.198 A 
ATOM     63  C   UNL A   1      34.864  33.467  32.784  1.00  0.00     0.198 A 
ATOM     64  F   UNL A   1      36.635  32.071  33.175  1.00  0.00    -0.203 F 
ATOM     65  F   UNL A   1      33.852  35.382  29.916  1.00  0.00    -0.200 F 
ATOM     66  C   UNL A   1      34.137  34.329  31.997  1.00  0.00     0.200 A 
ATOM     67  F   UNL A   1      34.487  33.238  34.051  1.00  0.00    -0.200 F 
ATOM     68  F   UNL A   1      33.062  34.955  32.491  1.00  0.00    -0.200 F 
ENDBRANCH  44  58
BRANCH  45  69
ATOM     69  C   UNL A   1      44.424  28.830  27.789  1.00  0.00     0.064 A 
ATOM     70  C   UNL A   1      45.426  27.844  27.831  1.00  0.00     0.173 A 
ATOM     71  C   UNL A   1      43.555  28.828  26.691  1.00  0.00     0.173 A 
ATOM     72  F   UNL A   1      46.283  27.803  28.863  1.00  0.00    -0.203 F 
ATOM     73  C   UNL A   1      45.506  26.855  26.853  1.00  0.00     0.198 A 
ATOM     74  C   UNL A   1      43.639  27.838  25.714  1.00  0.00     0.198 A 
ATOM     75  F   UNL A   1      42.574  29.738  26.600  1.00  0.00    -0.203 F 
ATOM     76  F   UNL A   1      46.435  25.893  26.949  1.00  0.00    -0.200 F 
ATOM     77  C   UNL A   1      44.599  26.840  25.806  1.00  0.00     0.200 A 
ATOM     78  F   UNL A   1      42.751  27.817  24.711  1.00  0.00    -0.200 F 
ATOM     79  F   UNL A   1      44.633  25.858  24.894  1.00  0.00    -0.200 F 
ENDBRANCH  45  69
BRANCH  57  80
ATOM     80  C   UNL A   1      42.525  35.520  29.315  1.00  0.00     0.064 A 
ATOM     81  C   UNL A   1      41.923  36.044  28.162  1.00  0.00     0.173 A 
ATOM     82  C   UNL A   1      43.366  36.372  30.048  1.00  0.00     0.173 A 
ATOM     83  F   UNL A   1      41.115  35.283  27.409  1.00  0.00    -0.203 F 
ATOM     84  C   UNL A   1      42.152  37.362  27.766  1.00  0.00     0.198 A 
ATOM     85  C   UNL A   1      43.616  37.677  29.633  1.00  0.00     0.198 A 
ATOM     86  F   UNL A   1      43.943  35.953  31.186  1.00  0.00    -0.203 F 
ATOM     87  F   UNL A   1      41.542  37.844  26.673  1.00  0.00    -0.200 F 
ATOM     88  C   UNL A   1      43.008  38.172  28.493  1.00  0.00     0.200 A 
ATOM     89  F   UNL A   1      44.449  38.452  30.342  1.00  0.00    -0.200 F 
ATOM     90  F   UNL A   1      43.241  39.431  28.101  1.00  0.00    -0.200 F 
ENDBRANCH  57  80
ENDBRANCH  31  32
ENDBRANCH  24  26
ENDBRANCH  23  24
ENDBRANCH  22  23
ENDBRANCH   1  22
TORSDOF 13
ENDMDL
MODEL 2
REMARK VINA RESULT:     -13.5      4.262     10.294
REMARK SMILES Cc1cc(C(=O)N[C@H]2C=C[C@H](C(=O)OCCOC(=O)c3ccc(-c4c5nc(c(-c6c(F)c(F)c(F)c(F)c6F)c6ccc([nH]6)c(-c6c(F)c(F)c(F)c(F)c6F)c6nc(c(-c7c(F)c(F)c(F)c(F)c7F)c7ccc4[nH]7)C=C6)C=C5)cc3)C2)ccc1F
REMARK SMILES IDX 15 1 14 2 12 3 13 4 11 5 8 6 9 7 83 8 10 9 7 10 5 11 6 12
REMARK SMILES IDX 4 14 1 15 2 16 3 17 86 18 85 19 87 20 84 21 16 22 17 23
REMARK SMILES IDX 18 24 19 25 20 26 21 27 82 28 22 29 81 30 23 31 24 32 25 33
REMARK SMILES IDX 75 34 26 35 80 36 74 37 76 38 27 39 79 40 73 41 72 42 28 44
REMARK SMILES IDX 60 45 40 46 59 47 41 48 44 49 58 50 77 51 42 52 43 53 57 55
REMARK SMILES IDX 78 56 45 57 29 58 30 59 38 60 31 61 32 62 36 63 39 64 33 65
REMARK SMILES IDX 34 66 37 67 35 68 61 69 62 70 70 71 63 72 64 73 68 74 71 75
REMARK SMILES IDX 65 76 66 77 69 78 67 79 46 80 47 81 55 82 48 83 49 84 53 85
REMARK SMILES IDX 56 86 50 87 51 88 54 89 52 90
REMARK H PARENT 7 13 76 43 44 54
REMARK Flexibility Score: inf
ROOT
ATOM      1  C   UNL A   1      33.387  31.798  27.613  1.00  0.00     0.274 C 
ENDROOT
BRANCH   1   2
ATOM      2  O   UNL A   1      33.699  30.391  27.645  1.00  0.00    -0.462 OA
BRANCH   2   3
ATOM      3  C   UNL A   1      33.331  29.695  26.535  1.00  0.00     0.312 C 
ATOM      4  O   UNL A   1      34.115  29.337  25.656  1.00  0.00    -0.252 OA
BRANCH   3   5
ATOM      5  C   UNL A   1      31.844  29.336  26.545  1.00  0.00     0.124 C 
ATOM      6  C   UNL A   1      31.924  26.932  26.555  1.00  0.00     0.106 C 
ATOM      7  C   UNL A   1      31.349  27.429  25.264  1.00  0.00    -0.006 C 
ATOM      8  C   UNL A   1      31.630  28.124  27.469  1.00  0.00     0.048 C 
ATOM      9  C   UNL A   1      31.359  28.772  25.241  1.00  0.00    -0.014 C 
BRANCH   6  10
ATOM     10  N   UNL A   1      31.336  25.698  26.985  1.00  0.00    -0.346 N 
ATOM     11  C   UNL A   1      31.643  24.396  26.666  1.00  0.00     0.251 C 
ATOM     12  O   UNL A   1      30.919  23.520  27.145  1.00  0.00    -0.269 OA
ATOM     13  H   UNL A   1      30.587  25.798  27.616  1.00  0.00     0.164 HD
BRANCH  11  14
ATOM     14  C   UNL A   1      32.819  23.970  25.833  1.00  0.00     0.040 A 
ATOM     15  C   UNL A   1      36.620  23.583  25.846  1.00  0.00     0.047 C 
ATOM     16  C   UNL A   1      35.197  23.578  25.373  1.00  0.00    -0.015 A 
ATOM     17  C   UNL A   1      34.169  24.077  26.195  1.00  0.00     0.020 A 
ATOM     18  C   UNL A   1      34.861  23.015  24.145  1.00  0.00     0.126 A 
ATOM     19  C   UNL A   1      33.539  22.955  23.727  1.00  0.00     0.040 A 
ATOM     20  F   UNL A   1      35.820  22.524  23.347  1.00  0.00    -0.207 F 
ATOM     21  C   UNL A   1      32.526  23.425  24.570  1.00  0.00     0.017 A 
ENDBRANCH  11  14
ENDBRANCH   6  10
ENDBRANCH   3   5
ENDBRANCH   2   3
ENDBRANCH   1   2
BRANCH   1  22
ATOM     22  C   UNL A   1      34.520  32.648  28.196  1.00  0.00     0.275 C 
BRANCH  22  23
ATOM     23  O   UNL A   1      35.826  32.094  27.960  1.00  0.00    -0.458 OA
BRANCH  23  24
ATOM     24  C   UNL A   1      36.383  31.531  29.054  1.00  0.00     0.338 C 
ATOM     25  O   UNL A   1      36.553  32.052  30.146  1.00  0.00    -0.246 OA
BRANCH  24  26
ATOM     26  C   UNL A   1      36.948  30.208  28.779  1.00  0.00     0.060 A 
ATOM     27  C   UNL A   1      37.063  29.322  29.863  1.00  0.00     0.016 A 
ATOM     28  C   UNL A   1      37.724  30.064  27.629  1.00  0.00     0.016 A 
ATOM     29  C   UNL A   1      38.102  28.407  29.886  1.00  0.00     0.010 A 
ATOM     30  C   UNL A   1      38.769  29.161  27.662  1.00  0.00     0.010 A 
ATOM     31  C   UNL A   1      39.008  28.417  28.828  1.00  0.00    -0.014 A 
BRANCH  31  32
ATOM     32  C   UNL A   1      40.348  27.866  28.960  1.00  0.00     0.031 A 
ATOM     33  C   UNL A   1      40.639  26.462  28.632  1.00  0.00     0.074 A 
ATOM     34  C   UNL A   1      41.330  28.696  29.375  1.00  0.00     0.049 A 
ATOM     35  N   UNL A   1      41.738  25.857  28.940  1.00  0.00    -0.248 NA
ATOM     36  C   UNL A   1      39.647  25.585  28.021  1.00  0.00     0.031 C 
ATOM     37  C   UNL A   1      42.769  28.501  29.258  1.00  0.00     0.029 A 
ATOM     38  N   UNL A   1      41.188  29.817  30.216  1.00  0.00    -0.354 N 
ATOM     39  C   UNL A   1      41.714  24.620  28.343  1.00  0.00     0.074 A 
ATOM     40  C   UNL A   1      40.345  24.450  27.924  1.00  0.00     0.031 C 
ATOM     41  C   UNL A   1      43.383  29.270  30.170  1.00  0.00     0.029 A 
ATOM     42  C   UNL A   1      42.347  29.826  31.025  1.00  0.00     0.049 A 
ATOM     43  H   UNL A   1      40.441  30.457  30.236  1.00  0.00     0.167 HD
ATOM     44  C   UNL A   1      42.894  23.962  28.159  1.00  0.00     0.037 A 
ATOM     45  C   UNL A   1      42.274  29.632  32.374  1.00  0.00     0.037 A 
ATOM     46  C   UNL A   1      43.953  24.546  28.989  1.00  0.00     0.049 A 
ATOM     47  C   UNL A   1      43.075  28.462  32.901  1.00  0.00     0.074 A 
ATOM     48  C   UNL A   1      45.025  25.388  28.749  1.00  0.00     0.029 A 
ATOM     49  N   UNL A   1      43.831  24.462  30.368  1.00  0.00    -0.354 N 
ATOM     50  N   UNL A   1      43.598  27.536  32.150  1.00  0.00    -0.248 NA
ATOM     51  C   UNL A   1      43.245  28.189  34.330  1.00  0.00     0.031 C 
ATOM     52  C   UNL A   1      45.509  25.855  30.007  1.00  0.00     0.029 A 
ATOM     53  C   UNL A   1      44.741  25.284  31.004  1.00  0.00     0.049 A 
ATOM     54  H   UNL A   1      43.179  23.889  30.834  1.00  0.00     0.167 HD
ATOM     55  C   UNL A   1      44.121  26.560  32.947  1.00  0.00     0.074 A 
ATOM     56  C   UNL A   1      43.881  27.006  34.305  1.00  0.00     0.031 C 
ATOM     57  C   UNL A   1      44.682  25.427  32.446  1.00  0.00     0.037 A 
BRANCH  44  58
ATOM     58  C   UNL A   1      43.169  22.922  27.082  1.00  0.00     0.064 A 
ATOM     59  C   UNL A   1      42.550  21.651  27.159  1.00  0.00     0.173 A 
ATOM     60  C   UNL A   1      44.109  23.036  26.035  1.00  0.00     0.173 A 
ATOM     61  F   UNL A   1      41.608  21.387  28.075  1.00  0.00    -0.203 F 
ATOM     62  C   UNL A   1      42.889  20.589  26.312  1.00  0.00     0.198 A 
ATOM     63  C   UNL A   1      44.427  21.983  25.174  1.00  0.00     0.198 A 
ATOM     64  F   UNL A   1      44.795  24.154  25.797  1.00  0.00    -0.203 F 
ATOM     65  F   UNL A   1      42.304  19.394  26.478  1.00  0.00    -0.200 F 
ATOM     66  C   UNL A   1      43.833  20.752  25.321  1.00  0.00     0.200 A 
ATOM     67  F   UNL A   1      45.342  22.173  24.210  1.00  0.00    -0.200 F 
ATOM     68  F   UNL A   1      44.171  19.735  24.520  1.00  0.00    -0.200 F 
ENDBRANCH  44  58
BRANCH  45  69
ATOM     69  C   UNL A   1      40.997  30.079  32.987  1.00  0.00     0.064 A 
ATOM     70  C   UNL A   1      40.806  31.441  33.278  1.00  0.00     0.173 A 
ATOM     71  C   UNL A   1      39.875  29.243  33.019  1.00  0.00     0.173 A 
ATOM     72  F   UNL A   1      41.852  32.284  33.258  1.00  0.00    -0.203 F 
ATOM     73  C   UNL A   1      39.534  31.957  33.518  1.00  0.00     0.198 A 
ATOM     74  C   UNL A   1      38.604  29.761  33.262  1.00  0.00     0.198 A 
ATOM     75  F   UNL A   1      39.993  27.936  32.742  1.00  0.00    -0.203 F 
ATOM     76  F   UNL A   1      39.375  33.269  33.736  1.00  0.00    -0.200 F 
ATOM     77  C   UNL A   1      38.431  31.119  33.489  1.00  0.00     0.200 A 
ATOM     78  F   UNL A   1      37.537  28.953  33.218  1.00  0.00    -0.200 F 
ATOM     79  F   UNL A   1      37.199  31.617  33.661  1.00  0.00    -0.200 F 
ENDBRANCH  45  69
BRANCH  57  80
ATOM     80  C   UNL A   1      45.226  24.361  33.330  1.00  0.00     0.064 A 
ATOM     81  C   UNL A   1      46.544  24.402  33.807  1.00  0.00     0.173 A 
ATOM     82  C   UNL A   1      44.465  23.220  33.633  1.00  0.00     0.173 A 
ATOM     83  F   UNL A   1      47.329  25.458  33.546  1.00  0.00    -0.203 F 
ATOM     84  C   UNL A   1      47.072  23.352  34.556  1.00  0.00     0.198 A 
ATOM     85  C   UNL A   1      45.005  22.160  34.356  1.00  0.00     0.198 A 
ATOM     86  F   UNL A   1      43.182  23.129  33.247  1.00  0.00    -0.203 F 
ATOM     87  F   UNL A   1      48.327  23.431  35.021  1.00  0.00    -0.200 F 
ATOM     88  C   UNL A   1      46.307  22.227  34.819  1.00  0.00     0.200 A 
ATOM     89  F   UNL A   1      44.258  21.073  34.601  1.00  0.00    -0.200 F 
ATOM     90  F   UNL A   1      46.823  21.210  35.522  1.00  0.00    -0.200 F 
ENDBRANCH  57  80
ENDBRANCH  31  32
ENDBRANCH  24  26
ENDBRANCH  23  24
ENDBRANCH  22  23
ENDBRANCH   1  22
TORSDOF 13
ENDMDL
MODEL 3
REMARK VINA RESULT:     -13.4      1.960      3.255
REMARK SMILES Cc1cc(C(=O)N[C@H]2C=C[C@H](C(=O)OCCOC(=O)c3ccc(-c4c5nc(c(-c6c(F)c(F)c(F)c(F)c6F)c6ccc([nH]6)c(-c6c(F)c(F)c(F)c(F)c6F)c6nc(c(-c7c(F)c(F)c(F)c(F)c7F)c7ccc4[nH]7)C=C6)C=C5)cc3)C2)ccc1F
REMARK SMILES IDX 15 1 14 2 12 3 13 4 11 5 8 6 9 7 83 8 10 9 7 10 5 11 6 12
REMARK SMILES IDX 4 14 1 15 2 16 3 17 86 18 85 19 87 20 84 21 16 22 17 23
REMARK SMILES IDX 18 24 19 25 20 26 21 27 82 28 22 29 81 30 23 31 24 32 25 33
REMARK SMILES IDX 75 34 26 35 80 36 74 37 76 38 27 39 79 40 73 41 72 42 28 44
REMARK SMILES IDX 60 45 40 46 59 47 41 48 44 49 58 50 77 51 42 52 43 53 57 55
REMARK SMILES IDX 78 56 45 57 29 58 30 59 38 60 31 61 32 62 36 63 39 64 33 65
REMARK SMILES IDX 34 66 37 67 35 68 61 69 62 70 70 71 63 72 64 73 68 74 71 75
REMARK SMILES IDX 65 76 66 77 69 78 67 79 46 80 47 81 55 82 48 83 49 84 53 85
REMARK SMILES IDX 56 86 50 87 51 88 54 89 52 90
REMARK H PARENT 7 13 76 43 44 54
REMARK Flexibility Score: inf
ROOT
ATOM      1  C   UNL A   1      39.955  21.113  26.300  1.00  0.00     0.274 C 
ENDROOT
BRANCH   1   2
ATOM      2  O   UNL A   1      38.783  21.946  26.411  1.00  0.00    -0.462 OA
BRANCH   2   3
ATOM      3  C   UNL A   1      37.936  21.892  25.348  1.00  0.00     0.312 C 
ATOM      4  O   UNL A   1      37.802  20.907  24.624  1.00  0.00    -0.252 OA
BRANCH   3   5
ATOM      5  C   UNL A   1      37.107  23.170  25.206  1.00  0.00     0.124 C 
ATOM      6  C   UNL A   1      34.867  22.295  25.172  1.00  0.00     0.106 C 
ATOM      7  C   UNL A   1      35.213  22.892  23.842  1.00  0.00    -0.006 C 
ATOM      8  C   UNL A   1      35.845  23.046  26.078  1.00  0.00     0.048 C 
ATOM      9  C   UNL A   1      36.484  23.328  23.849  1.00  0.00    -0.014 C 
BRANCH   6  10
ATOM     10  N   UNL A   1      33.487  22.473  25.515  1.00  0.00    -0.346 N 
ATOM     11  C   UNL A   1      32.403  21.644  25.344  1.00  0.00     0.251 C 
ATOM     12  O   UNL A   1      31.304  22.087  25.686  1.00  0.00    -0.269 OA
ATOM     13  H   UNL A   1      33.280  23.332  25.948  1.00  0.00     0.164 HD
BRANCH  11  14
ATOM     14  C   UNL A   1      32.474  20.233  24.831  1.00  0.00     0.040 A 
ATOM     15  C   UNL A   1      32.154  18.079  21.692  1.00  0.00     0.047 C 
ATOM     16  C   UNL A   1      32.348  18.474  23.126  1.00  0.00    -0.015 A 
ATOM     17  C   UNL A   1      32.177  19.812  23.528  1.00  0.00     0.020 A 
ATOM     18  C   UNL A   1      32.772  17.539  24.066  1.00  0.00     0.126 A 
ATOM     19  C   UNL A   1      33.010  17.911  25.383  1.00  0.00     0.040 A 
ATOM     20  F   UNL A   1      32.952  16.260  23.707  1.00  0.00    -0.207 F 
ATOM     21  C   UNL A   1      32.867  19.250  25.759  1.00  0.00     0.017 A 
ENDBRANCH  11  14
ENDBRANCH   6  10
ENDBRANCH   3   5
ENDBRANCH   2   3
ENDBRANCH   1   2
BRANCH   1  22
ATOM     22  C   UNL A   1      41.079  21.578  27.230  1.00  0.00     0.275 C 
BRANCH  22  23
ATOM     23  O   UNL A   1      40.848  22.881  27.792  1.00  0.00    -0.458 OA
BRANCH  23  24
ATOM     24  C   UNL A   1      41.147  23.896  26.951  1.00  0.00     0.338 C 
ATOM     25  O   UNL A   1      42.087  23.956  26.172  1.00  0.00    -0.246 OA
BRANCH  24  26
ATOM     26  C   UNL A   1      40.293  25.068  27.159  1.00  0.00     0.060 A 
ATOM     27  C   UNL A   1      40.548  26.196  26.362  1.00  0.00     0.016 A 
ATOM     28  C   UNL A   1      39.618  25.166  28.376  1.00  0.00     0.016 A 
ATOM     29  C   UNL A   1      40.309  27.460  26.877  1.00  0.00     0.010 A 
ATOM     30  C   UNL A   1      39.396  26.428  28.892  1.00  0.00     0.010 A 
ATOM     31  C   UNL A   1      39.837  27.557  28.183  1.00  0.00    -0.014 A 
BRANCH  31  32
ATOM     32  C   UNL A   1      39.997  28.771  28.969  1.00  0.00     0.031 A 
ATOM     33  C   UNL A   1      38.985  29.838  28.952  1.00  0.00     0.074 A 
ATOM     34  C   UNL A   1      41.103  28.879  29.738  1.00  0.00     0.049 A 
ATOM     35  N   UNL A   1      39.169  31.021  29.436  1.00  0.00    -0.248 NA
ATOM     36  C   UNL A   1      37.705  29.684  28.271  1.00  0.00     0.031 C 
ATOM     37  C   UNL A   1      41.327  29.796  30.849  1.00  0.00     0.029 A 
ATOM     38  N   UNL A   1      42.361  28.298  29.493  1.00  0.00    -0.354 N 
ATOM     39  C   UNL A   1      37.968  31.685  29.381  1.00  0.00     0.074 A 
ATOM     40  C   UNL A   1      37.148  30.874  28.517  1.00  0.00     0.031 C 
ATOM     41  C   UNL A   1      42.649  29.928  31.036  1.00  0.00     0.029 A 
ATOM     42  C   UNL A   1      43.306  29.256  29.926  1.00  0.00     0.049 A 
ATOM     43  H   UNL A   1      42.544  27.413  29.104  1.00  0.00     0.167 HD
ATOM     44  C   UNL A   1      37.784  32.767  30.190  1.00  0.00     0.037 A 
ATOM     45  C   UNL A   1      44.154  29.867  29.048  1.00  0.00     0.037 A 
ATOM     46  C   UNL A   1      39.065  33.257  30.709  1.00  0.00     0.049 A 
ATOM     47  C   UNL A   1      44.064  31.376  29.009  1.00  0.00     0.074 A 
ATOM     48  C   UNL A   1      39.724  33.160  31.922  1.00  0.00     0.029 A 
ATOM     49  N   UNL A   1      39.987  33.771  29.809  1.00  0.00    -0.354 N 
ATOM     50  N   UNL A   1      43.103  32.066  29.555  1.00  0.00    -0.248 NA
ATOM     51  C   UNL A   1      44.993  32.213  28.248  1.00  0.00     0.031 C 
ATOM     52  C   UNL A   1      41.076  33.569  31.722  1.00  0.00     0.029 A 
ATOM     53  C   UNL A   1      41.228  33.928  30.396  1.00  0.00     0.049 A 
ATOM     54  H   UNL A   1      39.783  33.995  28.872  1.00  0.00     0.167 HD
ATOM     55  C   UNL A   1      43.246  33.378  29.209  1.00  0.00     0.074 A 
ATOM     56  C   UNL A   1      44.441  33.429  28.391  1.00  0.00     0.031 C 
ATOM     57  C   UNL A   1      42.353  34.335  29.578  1.00  0.00     0.037 A 
BRANCH  44  58
ATOM     58  C   UNL A   1      36.440  33.277  30.695  1.00  0.00     0.064 A 
ATOM     59  C   UNL A   1      35.555  33.927  29.802  1.00  0.00     0.173 A 
ATOM     60  C   UNL A   1      36.006  33.288  32.038  1.00  0.00     0.173 A 
ATOM     61  F   UNL A   1      35.802  33.976  28.485  1.00  0.00    -0.203 F 
ATOM     62  C   UNL A   1      34.389  34.576  30.226  1.00  0.00     0.198 A 
ATOM     63  C   UNL A   1      34.829  33.914  32.457  1.00  0.00     0.198 A 
ATOM     64  F   UNL A   1      36.700  32.725  33.028  1.00  0.00    -0.203 F 
ATOM     65  F   UNL A   1      33.626  35.223  29.334  1.00  0.00    -0.200 F 
ATOM     66  C   UNL A   1      34.027  34.575  31.556  1.00  0.00     0.200 A 
ATOM     67  F   UNL A   1      34.495  33.888  33.757  1.00  0.00    -0.200 F 
ATOM     68  F   UNL A   1      32.922  35.207  31.969  1.00  0.00    -0.200 F 
ENDBRANCH  44  58
BRANCH  45  69
ATOM     69  C   UNL A   1      44.494  29.047  27.858  1.00  0.00     0.064 A 
ATOM     70  C   UNL A   1      45.532  28.102  27.940  1.00  0.00     0.173 A 
ATOM     71  C   UNL A   1      43.637  28.977  26.754  1.00  0.00     0.173 A 
ATOM     72  F   UNL A   1      46.380  28.126  28.981  1.00  0.00    -0.203 F 
ATOM     73  C   UNL A   1      45.661  27.086  26.995  1.00  0.00     0.198 A 
ATOM     74  C   UNL A   1      43.769  27.961  25.809  1.00  0.00     0.198 A 
ATOM     75  F   UNL A   1      42.623  29.845  26.625  1.00  0.00    -0.203 F 
ATOM     76  F   UNL A   1      46.625  26.165  27.130  1.00  0.00    -0.200 F 
ATOM     77  C   UNL A   1      44.765  27.004  25.941  1.00  0.00     0.200 A 
ATOM     78  F   UNL A   1      42.892  27.874  24.799  1.00  0.00    -0.200 F 
ATOM     79  F   UNL A   1      44.845  25.997  25.061  1.00  0.00    -0.200 F 
ENDBRANCH  45  69
BRANCH  57  80
ATOM     80  C   UNL A   1      42.512  35.757  29.172  1.00  0.00     0.064 A 
ATOM     81  C   UNL A   1      41.910  36.262  28.010  1.00  0.00     0.173 A 
ATOM     82  C   UNL A   1      43.357  36.620  29.887  1.00  0.00     0.173 A 
ATOM     83  F   UNL A   1      41.098  35.489  27.273  1.00  0.00    -0.203 F 
ATOM     84  C   UNL A   1      42.142  37.570  27.589  1.00  0.00     0.198 A 
ATOM     85  C   UNL A   1      43.611  37.916  29.447  1.00  0.00     0.198 A 
ATOM     86  F   UNL A   1      43.935  36.221  31.032  1.00  0.00    -0.203 F 
ATOM     87  F   UNL A   1      41.532  38.034  26.488  1.00  0.00    -0.200 F 
ATOM     88  C   UNL A   1      43.002  38.392  28.299  1.00  0.00     0.200 A 
ATOM     89  F   UNL A   1      44.448  38.703  30.140  1.00  0.00    -0.200 F 
ATOM     90  F   UNL A   1      43.239  39.642  27.882  1.00  0.00    -0.200 F 
ENDBRANCH  57  80
ENDBRANCH  31  32
ENDBRANCH  24  26
ENDBRANCH  23  24
ENDBRANCH  22  23
ENDBRANCH   1  22
TORSDOF 13
ENDMDL
