MODEL 1
REMARK VINA RESULT:     -11.5      0.000      0.000
REMARK SMILES C=CCN(CC(=O)OCCOC(=O)c1ccc(-c2c3nc(c(-c4c(F)c(F)c(F)c(F)c4F)c4ccc([nH]4)c(-c4c(F)c(F)c(F)c(F)c4F)c4nc(c(-c5c(F)c(F)c(F)c(F)c5F)c5ccc2[nH]5)C=C4)C=C3)cc1)C(=O)[C@@H]1Oc2ccccc2O[C@H]1C
REMARK SMILES IDX 9 1 8 2 6 3 7 4 5 5 4 6 3 7 2 8 1 9 77 10 78 11 79 12 80 13
REMARK SMILES IDX 88 14 81 15 87 16 89 17 82 18 86 19 83 20 85 21 84 22 10 23
REMARK SMILES IDX 11 24 12 25 13 26 14 27 15 28 76 29 16 30 75 31 17 32 18 33
REMARK SMILES IDX 19 34 69 35 20 36 74 37 68 38 70 39 21 40 73 41 67 42 66 43
REMARK SMILES IDX 22 45 54 46 34 47 53 48 35 49 38 50 52 51 71 52 36 53 37 54
REMARK SMILES IDX 51 56 72 57 39 58 23 59 24 60 32 61 25 62 26 63 30 64 33 65
REMARK SMILES IDX 27 66 28 67 31 68 29 69 55 70 56 71 64 72 57 73 58 74 62 75
REMARK SMILES IDX 65 76 59 77 60 78 63 79 61 80 40 81 41 82 49 83 42 84 43 85
REMARK SMILES IDX 47 86 50 87 44 88 45 89 48 90 46 91
REMARK H PARENT 70 44 38 55
REMARK Flexibility Score: inf
ROOT
ATOM      1  C   UNL A   1      31.771  28.810  27.226  1.00  0.00     0.274 C 
ENDROOT
BRANCH   1   2
ATOM      2  O   UNL A   1      32.796  27.977  26.633  1.00  0.00    -0.461 OA
BRANCH   2   3
ATOM      3  C   UNL A   1      32.359  26.846  26.016  1.00  0.00     0.325 C 
ATOM      4  O   UNL A   1      31.408  26.173  26.408  1.00  0.00    -0.250 OA
BRANCH   3   5
ATOM      5  C   UNL A   1      33.157  26.448  24.767  1.00  0.00     0.242 C 
BRANCH   5   6
ATOM      6  N   UNL A   1      32.575  26.701  23.441  1.00  0.00    -0.325 N 
BRANCH   6   7
ATOM      7  C   UNL A   1      32.370  25.517  22.626  1.00  0.00     0.147 C 
BRANCH   7   8
ATOM      8  C   UNL A   1      33.011  24.345  23.315  1.00  0.00    -0.014 C 
ATOM      9  C   UNL A   1      33.636  23.341  22.686  1.00  0.00     0.006 C 
ENDBRANCH   7   8
ENDBRANCH   6   7
BRANCH   6  10
ATOM     10  C   UNL A   1      31.837  27.873  23.251  1.00  0.00     0.268 C 
ATOM     11  O   UNL A   1      32.344  28.970  23.529  1.00  0.00    -0.270 OA
BRANCH  10  12
ATOM     12  C   UNL A   1      30.423  27.847  22.566  1.00  0.00     0.302 C 
ATOM     13  O   UNL A   1      30.134  28.881  21.627  1.00  0.00    -0.473 OA
ATOM     14  C   UNL A   1      29.374  27.638  23.693  1.00  0.00     0.221 C 
ATOM     15  C   UNL A   1      29.227  29.802  22.066  1.00  0.00     0.162 A 
ATOM     16  O   UNL A   1      28.100  28.254  23.485  1.00  0.00    -0.482 OA
ATOM     17  C   UNL A   1      29.091  26.150  23.935  1.00  0.00     0.057 C 
ATOM     18  C   UNL A   1      29.296  31.080  21.516  1.00  0.00     0.050 A 
ATOM     19  C   UNL A   1      28.295  29.530  23.054  1.00  0.00     0.161 A 
ATOM     20  C   UNL A   1      28.533  32.111  22.063  1.00  0.00     0.004 A 
ATOM     21  C   UNL A   1      27.513  30.543  23.594  1.00  0.00     0.050 A 
ATOM     22  C   UNL A   1      27.662  31.847  23.121  1.00  0.00     0.004 A 
ENDBRANCH  10  12
ENDBRANCH   6  10
ENDBRANCH   5   6
ENDBRANCH   3   5
ENDBRANCH   2   3
ENDBRANCH   1   2
BRANCH   1  23
ATOM     23  C   UNL A   1      31.775  30.250  26.687  1.00  0.00     0.275 C 
BRANCH  23  24
ATOM     24  O   UNL A   1      33.097  30.743  26.380  1.00  0.00    -0.458 OA
BRANCH  24  25
ATOM     25  C   UNL A   1      33.500  31.686  27.255  1.00  0.00     0.338 C 
ATOM     26  O   UNL A   1      32.958  32.756  27.448  1.00  0.00    -0.246 OA
BRANCH  25  27
ATOM     27  C   UNL A   1      34.683  31.367  28.031  1.00  0.00     0.060 A 
ATOM     28  C   UNL A   1      35.719  32.305  28.058  1.00  0.00     0.016 A 
ATOM     29  C   UNL A   1      34.887  30.046  28.424  1.00  0.00     0.016 A 
ATOM     30  C   UNL A   1      36.979  31.923  28.490  1.00  0.00     0.010 A 
ATOM     31  C   UNL A   1      36.142  29.670  28.890  1.00  0.00     0.010 A 
ATOM     32  C   UNL A   1      37.187  30.609  28.929  1.00  0.00    -0.014 A 
BRANCH  32  33
ATOM     33  C   UNL A   1      38.436  30.263  29.625  1.00  0.00     0.031 A 
ATOM     34  C   UNL A   1      39.408  29.283  29.060  1.00  0.00     0.074 A 
ATOM     35  C   UNL A   1      38.605  30.812  30.840  1.00  0.00     0.049 A 
ATOM     36  N   UNL A   1      40.459  28.754  29.632  1.00  0.00    -0.248 NA
ATOM     37  C   UNL A   1      39.172  28.829  27.682  1.00  0.00     0.031 C 
ATOM     38  C   UNL A   1      37.688  31.779  31.451  1.00  0.00     0.029 A 
ATOM     39  N   UNL A   1      39.565  30.611  31.790  1.00  0.00    -0.354 N 
ATOM     40  C   UNL A   1      41.005  27.893  28.693  1.00  0.00     0.074 A 
ATOM     41  C   UNL A   1      40.167  27.967  27.512  1.00  0.00     0.031 C 
ATOM     42  C   UNL A   1      38.110  32.058  32.690  1.00  0.00     0.029 A 
ATOM     43  C   UNL A   1      39.295  31.259  32.967  1.00  0.00     0.049 A 
ATOM     44  H   UNL A   1      40.367  30.059  31.645  1.00  0.00     0.167 HD
ATOM     45  C   UNL A   1      42.105  27.114  28.826  1.00  0.00     0.037 A 
ATOM     46  C   UNL A   1      39.909  31.180  34.158  1.00  0.00     0.037 A 
ATOM     47  C   UNL A   1      42.918  27.071  30.016  1.00  0.00     0.049 A 
ATOM     48  C   UNL A   1      41.112  30.301  34.283  1.00  0.00     0.074 A 
ATOM     49  C   UNL A   1      44.082  26.360  30.245  1.00  0.00     0.029 A 
ATOM     50  N   UNL A   1      42.639  27.769  31.185  1.00  0.00    -0.354 N 
ATOM     51  N   UNL A   1      41.643  29.509  33.383  1.00  0.00    -0.248 NA
ATOM     52  C   UNL A   1      41.805  30.308  35.574  1.00  0.00     0.031 C 
ATOM     53  C   UNL A   1      44.490  26.602  31.563  1.00  0.00     0.029 A 
ATOM     54  C   UNL A   1      43.598  27.489  32.146  1.00  0.00     0.049 A 
ATOM     55  H   UNL A   1      41.873  28.374  31.312  1.00  0.00     0.167 HD
ATOM     56  C   UNL A   1      42.742  28.928  33.990  1.00  0.00     0.074 A 
ATOM     57  C   UNL A   1      42.803  29.467  35.337  1.00  0.00     0.031 C 
ATOM     58  C   UNL A   1      43.621  28.034  33.480  1.00  0.00     0.037 A 
BRANCH  45  59
ATOM     59  C   UNL A   1      42.480  26.229  27.675  1.00  0.00     0.064 A 
ATOM     60  C   UNL A   1      43.461  26.604  26.746  1.00  0.00     0.173 A 
ATOM     61  C   UNL A   1      41.887  24.965  27.531  1.00  0.00     0.173 A 
ATOM     62  F   UNL A   1      44.053  27.804  26.836  1.00  0.00    -0.203 F 
ATOM     63  C   UNL A   1      43.826  25.750  25.706  1.00  0.00     0.198 A 
ATOM     64  C   UNL A   1      42.266  24.108  26.502  1.00  0.00     0.198 A 
ATOM     65  F   UNL A   1      40.947  24.558  28.397  1.00  0.00    -0.203 F 
ATOM     66  F   UNL A   1      44.749  26.138  24.816  1.00  0.00    -0.200 F 
ATOM     67  C   UNL A   1      43.233  24.502  25.588  1.00  0.00     0.200 A 
ATOM     68  F   UNL A   1      41.699  22.899  26.395  1.00  0.00    -0.200 F 
ATOM     69  F   UNL A   1      43.591  23.679  24.594  1.00  0.00    -0.200 F 
ENDBRANCH  45  59
BRANCH  46  70
ATOM     70  C   UNL A   1      39.359  31.958  35.291  1.00  0.00     0.064 A 
ATOM     71  C   UNL A   1      38.531  31.352  36.241  1.00  0.00     0.173 A 
ATOM     72  C   UNL A   1      39.758  33.285  35.512  1.00  0.00     0.173 A 
ATOM     73  F   UNL A   1      38.127  30.086  36.066  1.00  0.00    -0.203 F 
ATOM     74  C   UNL A   1      38.127  32.042  37.381  1.00  0.00     0.198 A 
ATOM     75  C   UNL A   1      39.370  33.968  36.662  1.00  0.00     0.198 A 
ATOM     76  F   UNL A   1      40.571  33.897  34.637  1.00  0.00    -0.203 F 
ATOM     77  F   UNL A   1      37.337  31.442  38.280  1.00  0.00    -0.200 F 
ATOM     78  C   UNL A   1      38.556  33.345  37.596  1.00  0.00     0.200 A 
ATOM     79  F   UNL A   1      39.805  35.217  36.877  1.00  0.00    -0.200 F 
ATOM     80  F   UNL A   1      38.192  33.997  38.708  1.00  0.00    -0.200 F 
ENDBRANCH  46  70
BRANCH  58  81
ATOM     81  C   UNL A   1      44.725  27.597  34.388  1.00  0.00     0.064 A 
ATOM     82  C   UNL A   1      44.589  26.467  35.204  1.00  0.00     0.173 A 
ATOM     83  C   UNL A   1      45.935  28.305  34.428  1.00  0.00     0.173 A 
ATOM     84  F   UNL A   1      43.440  25.773  35.210  1.00  0.00    -0.203 F 
ATOM     85  C   UNL A   1      45.623  26.067  36.043  1.00  0.00     0.198 A 
ATOM     86  C   UNL A   1      46.973  27.894  35.255  1.00  0.00     0.198 A 
ATOM     87  F   UNL A   1      46.104  29.395  33.665  1.00  0.00    -0.203 F 
ATOM     88  F   UNL A   1      45.463  25.003  36.842  1.00  0.00    -0.200 F 
ATOM     89  C   UNL A   1      46.815  26.778  36.065  1.00  0.00     0.200 A 
ATOM     90  F   UNL A   1      48.124  28.579  35.275  1.00  0.00    -0.200 F 
ATOM     91  F   UNL A   1      47.811  26.392  36.876  1.00  0.00    -0.200 F 
ENDBRANCH  58  81
ENDBRANCH  32  33
ENDBRANCH  25  27
ENDBRANCH  24  25
ENDBRANCH  23  24
ENDBRANCH   1  23
TORSDOF 16
ENDMDL
MODEL 2
REMARK VINA RESULT:     -11.3      2.083      3.574
REMARK SMILES C=CCN(CC(=O)OCCOC(=O)c1ccc(-c2c3nc(c(-c4c(F)c(F)c(F)c(F)c4F)c4ccc([nH]4)c(-c4c(F)c(F)c(F)c(F)c4F)c4nc(c(-c5c(F)c(F)c(F)c(F)c5F)c5ccc2[nH]5)C=C4)C=C3)cc1)C(=O)[C@@H]1Oc2ccccc2O[C@H]1C
REMARK SMILES IDX 9 1 8 2 6 3 7 4 5 5 4 6 3 7 2 8 1 9 77 10 78 11 79 12 80 13
REMARK SMILES IDX 88 14 81 15 87 16 89 17 82 18 86 19 83 20 85 21 84 22 10 23
REMARK SMILES IDX 11 24 12 25 13 26 14 27 15 28 76 29 16 30 75 31 17 32 18 33
REMARK SMILES IDX 19 34 69 35 20 36 74 37 68 38 70 39 21 40 73 41 67 42 66 43
REMARK SMILES IDX 22 45 54 46 34 47 53 48 35 49 38 50 52 51 71 52 36 53 37 54
REMARK SMILES IDX 51 56 72 57 39 58 23 59 24 60 32 61 25 62 26 63 30 64 33 65
REMARK SMILES IDX 27 66 28 67 31 68 29 69 55 70 56 71 64 72 57 73 58 74 62 75
REMARK SMILES IDX 65 76 59 77 60 78 63 79 61 80 40 81 41 82 49 83 42 84 43 85
REMARK SMILES IDX 47 86 50 87 44 88 45 89 48 90 46 91
REMARK H PARENT 70 44 38 55
REMARK Flexibility Score: inf
ROOT
ATOM      1  C   UNL A   1      31.893  31.462  26.642  1.00  0.00     0.274 C 
ENDROOT
BRANCH   1   2
ATOM      2  O   UNL A   1      32.223  30.205  27.280  1.00  0.00    -0.461 OA
BRANCH   2   3
ATOM      3  C   UNL A   1      33.415  29.654  26.927  1.00  0.00     0.325 C 
ATOM      4  O   UNL A   1      34.423  29.689  27.629  1.00  0.00    -0.250 OA
BRANCH   3   5
ATOM      5  C   UNL A   1      33.425  28.971  25.552  1.00  0.00     0.242 C 
BRANCH   5   6
ATOM      6  N   UNL A   1      32.503  27.852  25.309  1.00  0.00    -0.325 N 
BRANCH   6   7
ATOM      7  C   UNL A   1      32.238  27.013  26.464  1.00  0.00     0.147 C 
BRANCH   7   8
ATOM      8  C   UNL A   1      32.468  25.579  26.077  1.00  0.00    -0.014 C 
ATOM      9  C   UNL A   1      33.652  24.956  26.132  1.00  0.00     0.006 C 
ENDBRANCH   7   8
ENDBRANCH   6   7
BRANCH   6  10
ATOM     10  C   UNL A   1      31.611  27.946  24.236  1.00  0.00     0.268 C 
ATOM     11  O   UNL A   1      30.654  28.732  24.301  1.00  0.00    -0.270 OA
BRANCH  10  12
ATOM     12  C   UNL A   1      31.867  27.178  22.889  1.00  0.00     0.302 C 
ATOM     13  O   UNL A   1      31.112  25.989  22.663  1.00  0.00    -0.473 OA
ATOM     14  C   UNL A   1      33.406  27.049  22.725  1.00  0.00     0.221 C 
ATOM     15  C   UNL A   1      31.837  24.836  22.749  1.00  0.00     0.162 A 
ATOM     16  O   UNL A   1      33.867  25.873  22.052  1.00  0.00    -0.482 OA
ATOM     17  C   UNL A   1      33.996  28.237  21.955  1.00  0.00     0.057 C 
ATOM     18  C   UNL A   1      31.155  23.675  23.100  1.00  0.00     0.050 A 
ATOM     19  C   UNL A   1      33.209  24.794  22.553  1.00  0.00     0.161 A 
ATOM     20  C   UNL A   1      31.869  22.514  23.396  1.00  0.00     0.004 A 
ATOM     21  C   UNL A   1      33.931  23.638  22.824  1.00  0.00     0.050 A 
ATOM     22  C   UNL A   1      33.260  22.505  23.285  1.00  0.00     0.004 A 
ENDBRANCH  10  12
ENDBRANCH   6  10
ENDBRANCH   5   6
ENDBRANCH   3   5
ENDBRANCH   2   3
ENDBRANCH   1   2
BRANCH   1  23
ATOM     23  C   UNL A   1      32.836  32.608  27.043  1.00  0.00     0.275 C 
BRANCH  23  24
ATOM     24  O   UNL A   1      32.145  33.763  27.567  1.00  0.00    -0.458 OA
BRANCH  24  25
ATOM     25  C   UNL A   1      32.932  34.498  28.377  1.00  0.00     0.338 C 
ATOM     26  O   UNL A   1      32.709  35.633  28.747  1.00  0.00    -0.246 OA
BRANCH  25  27
ATOM     27  C   UNL A   1      34.143  33.849  28.844  1.00  0.00     0.060 A 
ATOM     28  C   UNL A   1      34.013  32.820  29.781  1.00  0.00     0.016 A 
ATOM     29  C   UNL A   1      35.365  34.478  28.618  1.00  0.00     0.016 A 
ATOM     30  C   UNL A   1      35.122  32.404  30.501  1.00  0.00     0.010 A 
ATOM     31  C   UNL A   1      36.485  34.039  29.315  1.00  0.00     0.010 A 
ATOM     32  C   UNL A   1      36.366  32.998  30.252  1.00  0.00    -0.014 A 
BRANCH  32  33
ATOM     33  C   UNL A   1      37.585  32.398  30.816  1.00  0.00     0.031 A 
ATOM     34  C   UNL A   1      38.312  31.294  30.125  1.00  0.00     0.074 A 
ATOM     35  C   UNL A   1      37.951  32.839  32.031  1.00  0.00     0.049 A 
ATOM     36  N   UNL A   1      39.293  30.556  30.575  1.00  0.00    -0.248 NA
ATOM     37  C   UNL A   1      37.884  30.968  28.757  1.00  0.00     0.031 C 
ATOM     38  C   UNL A   1      37.280  33.918  32.762  1.00  0.00     0.029 A 
ATOM     39  N   UNL A   1      38.935  32.418  32.880  1.00  0.00    -0.354 N 
ATOM     40  C   UNL A   1      39.593  29.666  29.556  1.00  0.00     0.074 A 
ATOM     41  C   UNL A   1      38.688  29.953  28.462  1.00  0.00     0.031 C 
ATOM     42  C   UNL A   1      37.847  34.048  33.967  1.00  0.00     0.029 A 
ATOM     43  C   UNL A   1      38.886  33.037  34.102  1.00  0.00     0.049 A 
ATOM     44  H   UNL A   1      39.608  31.741  32.639  1.00  0.00     0.167 HD
ATOM     45  C   UNL A   1      40.541  28.697  29.556  1.00  0.00     0.037 A 
ATOM     46  C   UNL A   1      39.573  32.783  35.227  1.00  0.00     0.037 A 
ATOM     47  C   UNL A   1      41.429  28.445  30.663  1.00  0.00     0.049 A 
ATOM     48  C   UNL A   1      40.602  31.699  35.205  1.00  0.00     0.074 A 
ATOM     49  C   UNL A   1      42.460  27.527  30.755  1.00  0.00     0.029 A 
ATOM     50  N   UNL A   1      41.380  29.114  31.880  1.00  0.00    -0.354 N 
ATOM     51  N   UNL A   1      40.904  30.877  34.229  1.00  0.00    -0.248 NA
ATOM     52  C   UNL A   1      41.390  31.511  36.426  1.00  0.00     0.031 C 
ATOM     53  C   UNL A   1      43.013  27.618  32.039  1.00  0.00     0.029 A 
ATOM     54  C   UNL A   1      42.348  28.615  32.737  1.00  0.00     0.049 A 
ATOM     55  H   UNL A   1      40.750  29.837  32.102  1.00  0.00     0.167 HD
ATOM     56  C   UNL A   1      41.925  30.078  34.709  1.00  0.00     0.074 A 
ATOM     57  C   UNL A   1      42.196  30.521  36.064  1.00  0.00     0.031 C 
ATOM     58  C   UNL A   1      42.582  29.072  34.083  1.00  0.00     0.037 A 
BRANCH  45  59
ATOM     59  C   UNL A   1      40.652  27.826  28.341  1.00  0.00     0.064 A 
ATOM     60  C   UNL A   1      41.435  28.195  27.238  1.00  0.00     0.173 A 
ATOM     61  C   UNL A   1      40.007  26.580  28.302  1.00  0.00     0.173 A 
ATOM     62  F   UNL A   1      42.067  29.378  27.224  1.00  0.00    -0.203 F 
ATOM     63  C   UNL A   1      41.560  27.353  26.135  1.00  0.00     0.198 A 
ATOM     64  C   UNL A   1      40.147  25.734  27.206  1.00  0.00     0.198 A 
ATOM     65  F   UNL A   1      39.250  26.179  29.334  1.00  0.00    -0.203 F 
ATOM     66  F   UNL A   1      42.295  27.734  25.081  1.00  0.00    -0.200 F 
ATOM     67  C   UNL A   1      40.920  26.122  26.121  1.00  0.00     0.200 A 
ATOM     68  F   UNL A   1      39.536  24.541  27.198  1.00  0.00    -0.200 F 
ATOM     69  F   UNL A   1      41.048  25.309  25.063  1.00  0.00    -0.200 F 
ENDBRANCH  45  59
BRANCH  46  70
ATOM     70  C   UNL A   1      39.270  33.582  36.435  1.00  0.00     0.064 A 
ATOM     71  C   UNL A   1      38.473  33.058  37.459  1.00  0.00     0.173 A 
ATOM     72  C   UNL A   1      39.878  34.829  36.644  1.00  0.00     0.173 A 
ATOM     73  F   UNL A   1      37.873  31.870  37.298  1.00  0.00    -0.203 F 
ATOM     74  C   UNL A   1      38.302  33.749  38.656  1.00  0.00     0.198 A 
ATOM     75  C   UNL A   1      39.723  35.510  37.849  1.00  0.00     0.198 A 
ATOM     76  F   UNL A   1      40.669  35.358  35.698  1.00  0.00    -0.203 F 
ATOM     77  F   UNL A   1      37.537  33.228  39.624  1.00  0.00    -0.200 F 
ATOM     78  C   UNL A   1      38.935  34.968  38.854  1.00  0.00     0.200 A 
ATOM     79  F   UNL A   1      40.355  36.675  38.045  1.00  0.00    -0.200 F 
ATOM     80  F   UNL A   1      38.795  35.617  40.018  1.00  0.00    -0.200 F 
ENDBRANCH  46  70
BRANCH  58  81
ATOM     81  C   UNL A   1      43.660  28.395  34.868  1.00  0.00     0.064 A 
ATOM     82  C   UNL A   1      44.979  28.865  34.842  1.00  0.00     0.173 A 
ATOM     83  C   UNL A   1      43.365  27.281  35.666  1.00  0.00     0.173 A 
ATOM     84  F   UNL A   1      45.307  29.916  34.075  1.00  0.00    -0.203 F 
ATOM     85  C   UNL A   1      45.974  28.231  35.579  1.00  0.00     0.198 A 
ATOM     86  C   UNL A   1      44.358  26.659  36.414  1.00  0.00     0.198 A 
ATOM     87  F   UNL A   1      42.114  26.799  35.717  1.00  0.00    -0.203 F 
ATOM     88  F   UNL A   1      47.238  28.672  35.515  1.00  0.00    -0.200 F 
ATOM     89  C   UNL A   1      45.662  27.132  36.367  1.00  0.00     0.200 A 
ATOM     90  F   UNL A   1      44.056  25.600  37.177  1.00  0.00    -0.200 F 
ATOM     91  F   UNL A   1      46.622  26.520  37.075  1.00  0.00    -0.200 F 
ENDBRANCH  58  81
ENDBRANCH  32  33
ENDBRANCH  25  27
ENDBRANCH  24  25
ENDBRANCH  23  24
ENDBRANCH   1  23
TORSDOF 16
ENDMDL
MODEL 3
REMARK VINA RESULT:     -11.3      1.530      2.701
REMARK SMILES C=CCN(CC(=O)OCCOC(=O)c1ccc(-c2c3nc(c(-c4c(F)c(F)c(F)c(F)c4F)c4ccc([nH]4)c(-c4c(F)c(F)c(F)c(F)c4F)c4nc(c(-c5c(F)c(F)c(F)c(F)c5F)c5ccc2[nH]5)C=C4)C=C3)cc1)C(=O)[C@@H]1Oc2ccccc2O[C@H]1C
REMARK SMILES IDX 9 1 8 2 6 3 7 4 5 5 4 6 3 7 2 8 1 9 77 10 78 11 79 12 80 13
REMARK SMILES IDX 88 14 81 15 87 16 89 17 82 18 86 19 83 20 85 21 84 22 10 23
REMARK SMILES IDX 11 24 12 25 13 26 14 27 15 28 76 29 16 30 75 31 17 32 18 33
REMARK SMILES IDX 19 34 69 35 20 36 74 37 68 38 70 39 21 40 73 41 67 42 66 43
REMARK SMILES IDX 22 45 54 46 34 47 53 48 35 49 38 50 52 51 71 52 36 53 37 54
REMARK SMILES IDX 51 56 72 57 39 58 23 59 24 60 32 61 25 62 26 63 30 64 33 65
REMARK SMILES IDX 27 66 28 67 31 68 29 69 55 70 56 71 64 72 57 73 58 74 62 75
REMARK SMILES IDX 65 76 59 77 60 78 63 79 61 80 40 81 41 82 49 83 42 84 43 85
REMARK SMILES IDX 47 86 50 87 44 88 45 89 48 90 46 91
REMARK H PARENT 70 44 38 55
REMARK Flexibility Score: inf
ROOT
ATOM      1  C   UNL A   1      32.662  31.387  26.934  1.00  0.00     0.274 C 
ENDROOT
BRANCH   1   2
ATOM      2  O   UNL A   1      31.801  30.232  27.078  1.00  0.00    -0.461 OA
BRANCH   2   3
ATOM      3  C   UNL A   1      32.431  29.036  27.226  1.00  0.00     0.325 C 
ATOM      4  O   UNL A   1      33.649  28.909  27.327  1.00  0.00    -0.250 OA
BRANCH   3   5
ATOM      5  C   UNL A   1      31.498  27.819  27.254  1.00  0.00     0.242 C 
BRANCH   5   6
ATOM      6  N   UNL A   1      31.557  26.853  26.146  1.00  0.00    -0.325 N 
BRANCH   6   7
ATOM      7  C   UNL A   1      32.008  25.524  26.516  1.00  0.00     0.147 C 
BRANCH   7   8
ATOM      8  C   UNL A   1      33.044  25.077  25.522  1.00  0.00    -0.014 C 
ATOM      9  C   UNL A   1      34.022  25.855  25.041  1.00  0.00     0.006 C 
ENDBRANCH   7   8
ENDBRANCH   6   7
BRANCH   6  10
ATOM     10  C   UNL A   1      30.760  27.083  25.020  1.00  0.00     0.268 C 
ATOM     11  O   UNL A   1      29.650  26.537  24.931  1.00  0.00    -0.270 OA
BRANCH  10  12
ATOM     12  C   UNL A   1      31.179  28.126  23.922  1.00  0.00     0.302 C 
ATOM     13  O   UNL A   1      30.952  29.504  24.212  1.00  0.00    -0.473 OA
ATOM     14  C   UNL A   1      30.614  27.613  22.568  1.00  0.00     0.221 C 
ATOM     15  C   UNL A   1      29.940  30.072  23.494  1.00  0.00     0.162 A 
ATOM     16  O   UNL A   1      30.236  28.621  21.626  1.00  0.00    -0.482 OA
ATOM     17  C   UNL A   1      31.618  26.709  21.842  1.00  0.00     0.057 C 
ATOM     18  C   UNL A   1      29.288  31.164  24.060  1.00  0.00     0.050 A 
ATOM     19  C   UNL A   1      29.515  29.577  22.272  1.00  0.00     0.161 A 
ATOM     20  C   UNL A   1      28.126  31.658  23.470  1.00  0.00     0.004 A 
ATOM     21  C   UNL A   1      28.369  30.074  21.662  1.00  0.00     0.050 A 
ATOM     22  C   UNL A   1      27.651  31.094  22.286  1.00  0.00     0.004 A 
ENDBRANCH  10  12
ENDBRANCH   6  10
ENDBRANCH   5   6
ENDBRANCH   3   5
ENDBRANCH   2   3
ENDBRANCH   1   2
BRANCH   1  23
ATOM     23  C   UNL A   1      31.977  32.705  27.335  1.00  0.00     0.275 C 
BRANCH  23  24
ATOM     24  O   UNL A   1      32.877  33.834  27.361  1.00  0.00    -0.458 OA
BRANCH  24  25
ATOM     25  C   UNL A   1      33.277  34.131  28.612  1.00  0.00     0.338 C 
ATOM     26  O   UNL A   1      32.706  34.876  29.384  1.00  0.00    -0.246 OA
BRANCH  25  27
ATOM     27  C   UNL A   1      34.497  33.485  29.059  1.00  0.00     0.060 A 
ATOM     28  C   UNL A   1      34.393  32.516  30.062  1.00  0.00     0.016 A 
ATOM     29  C   UNL A   1      35.719  34.071  28.736  1.00  0.00     0.016 A 
ATOM     30  C   UNL A   1      35.528  32.120  30.752  1.00  0.00     0.010 A 
ATOM     31  C   UNL A   1      36.863  33.648  29.403  1.00  0.00     0.010 A 
ATOM     32  C   UNL A   1      36.770  32.669  30.407  1.00  0.00    -0.014 A 
BRANCH  32  33
ATOM     33  C   UNL A   1      38.003  32.075  30.946  1.00  0.00     0.031 A 
ATOM     34  C   UNL A   1      38.743  31.001  30.223  1.00  0.00     0.074 A 
ATOM     35  C   UNL A   1      38.372  32.493  32.169  1.00  0.00     0.049 A 
ATOM     36  N   UNL A   1      39.740  30.269  30.648  1.00  0.00    -0.248 NA
ATOM     37  C   UNL A   1      38.309  30.701  28.851  1.00  0.00     0.031 C 
ATOM     38  C   UNL A   1      37.688  33.542  32.931  1.00  0.00     0.029 A 
ATOM     39  N   UNL A   1      39.369  32.068  33.000  1.00  0.00    -0.354 N 
ATOM     40  C   UNL A   1      40.046  29.409  29.605  1.00  0.00     0.074 A 
ATOM     41  C   UNL A   1      39.128  29.708  28.525  1.00  0.00     0.031 C 
ATOM     42  C   UNL A   1      38.263  33.652  34.135  1.00  0.00     0.029 A 
ATOM     43  C   UNL A   1      39.320  32.656  34.237  1.00  0.00     0.049 A 
ATOM     44  H   UNL A   1      40.052  31.409  32.738  1.00  0.00     0.167 HD
ATOM     45  C   UNL A   1      41.010  28.457  29.574  1.00  0.00     0.037 A 
ATOM     46  C   UNL A   1      40.020  32.387  35.351  1.00  0.00     0.037 A 
ATOM     47  C   UNL A   1      41.911  28.192  30.668  1.00  0.00     0.049 A 
ATOM     48  C   UNL A   1      41.066  31.321  35.294  1.00  0.00     0.074 A 
ATOM     49  C   UNL A   1      42.958  27.290  30.730  1.00  0.00     0.029 A 
ATOM     50  N   UNL A   1      41.861  28.831  31.901  1.00  0.00    -0.354 N 
ATOM     51  N   UNL A   1      41.374  30.528  34.296  1.00  0.00    -0.248 NA
ATOM     52  C   UNL A   1      41.867  31.116  36.504  1.00  0.00     0.031 C 
ATOM     53  C   UNL A   1      43.519  27.359  32.011  1.00  0.00     0.029 A 
ATOM     54  C   UNL A   1      42.844  28.327  32.738  1.00  0.00     0.049 A 
ATOM     55  H   UNL A   1      41.220  29.538  32.145  1.00  0.00     0.167 HD
ATOM     56  C   UNL A   1      42.412  29.734  34.748  1.00  0.00     0.074 A 
ATOM     57  C   UNL A   1      42.686  30.149  36.112  1.00  0.00     0.031 C 
ATOM     58  C   UNL A   1      43.081  28.755  34.094  1.00  0.00     0.037 A 
BRANCH  45  59
ATOM     59  C   UNL A   1      41.125  27.618  28.338  1.00  0.00     0.064 A 
ATOM     60  C   UNL A   1      41.982  27.970  27.285  1.00  0.00     0.173 A 
ATOM     61  C   UNL A   1      40.409  26.416  28.228  1.00  0.00     0.173 A 
ATOM     62  F   UNL A   1      42.684  29.111  27.338  1.00  0.00    -0.203 F 
ATOM     63  C   UNL A   1      42.107  27.155  26.160  1.00  0.00     0.198 A 
ATOM     64  C   UNL A   1      40.550  25.595  27.112  1.00  0.00     0.198 A 
ATOM     65  F   UNL A   1      39.581  26.031  29.211  1.00  0.00    -0.203 F 
ATOM     66  F   UNL A   1      42.914  27.522  25.155  1.00  0.00    -0.200 F 
ATOM     67  C   UNL A   1      41.396  25.967  26.077  1.00  0.00     0.200 A 
ATOM     68  F   UNL A   1      39.869  24.444  27.037  1.00  0.00    -0.200 F 
ATOM     69  F   UNL A   1      41.524  25.181  25.000  1.00  0.00    -0.200 F 
ENDBRANCH  45  59
BRANCH  46  70
ATOM     70  C   UNL A   1      39.713  33.150  36.580  1.00  0.00     0.064 A 
ATOM     71  C   UNL A   1      40.338  34.375  36.839  1.00  0.00     0.173 A 
ATOM     72  C   UNL A   1      38.695  32.731  37.451  1.00  0.00     0.173 A 
ATOM     73  F   UNL A   1      41.316  34.810  36.032  1.00  0.00    -0.203 F 
ATOM     74  C   UNL A   1      39.949  35.161  37.921  1.00  0.00     0.198 A 
ATOM     75  C   UNL A   1      38.294  33.527  38.521  1.00  0.00     0.198 A 
ATOM     76  F   UNL A   1      38.054  31.574  37.227  1.00  0.00    -0.203 F 
ATOM     77  F   UNL A   1      40.559  36.331  38.148  1.00  0.00    -0.200 F 
ATOM     78  C   UNL A   1      38.921  34.742  38.753  1.00  0.00     0.200 A 
ATOM     79  F   UNL A   1      37.285  33.130  39.308  1.00  0.00    -0.200 F 
ATOM     80  F   UNL A   1      38.527  35.514  39.775  1.00  0.00    -0.200 F 
ENDBRANCH  46  70
BRANCH  58  81
ATOM     81  C   UNL A   1      44.176  28.078  34.854  1.00  0.00     0.064 A 
ATOM     82  C   UNL A   1      45.477  28.598  34.869  1.00  0.00     0.173 A 
ATOM     83  C   UNL A   1      43.916  26.912  35.586  1.00  0.00     0.173 A 
ATOM     84  F   UNL A   1      45.771  29.702  34.165  1.00  0.00    -0.203 F 
ATOM     85  C   UNL A   1      46.488  27.963  35.582  1.00  0.00     0.198 A 
ATOM     86  C   UNL A   1      44.925  26.288  36.311  1.00  0.00     0.198 A 
ATOM     87  F   UNL A   1      42.685  26.380  35.595  1.00  0.00    -0.203 F 
ATOM     88  F   UNL A   1      47.734  28.455  35.558  1.00  0.00    -0.200 F 
ATOM     89  C   UNL A   1      46.210  26.811  36.306  1.00  0.00     0.200 A 
ATOM     90  F   UNL A   1      44.657  25.177  37.011  1.00  0.00    -0.200 F 
ATOM     91  F   UNL A   1      47.186  26.199  36.991  1.00  0.00    -0.200 F 
ENDBRANCH  58  81
ENDBRANCH  32  33
ENDBRANCH  25  27
ENDBRANCH  24  25
ENDBRANCH  23  24
ENDBRANCH   1  23
TORSDOF 16
ENDMDL
