MODEL 1
REMARK VINA RESULT:     -11.8      0.000      0.000
REMARK SMILES COc1ccc(OC)c(-c2cc(C(=O)OCCOC(=O)c3ccc(-c4c5nc(c(-c6c(F)c(F)c(F)c(F)c6F)c6ccc([nH]6)c(-c6c(F)c(F)c(F)c(F)c6F)c6nc(c(-c7c(F)c(F)c(F)c(F)c7F)c7ccc4[nH]7)C=C6)C=C5)cc3)ccn2)c1
REMARK SMILES IDX 16 1 15 2 13 3 14 4 12 5 10 6 11 7 86 8 85 9 84 10 9 11 3 12
REMARK SMILES IDX 4 13 87 14 5 15 6 16 2 17 1 18 7 19 8 20 17 21 18 22 19 23
REMARK SMILES IDX 20 24 21 25 22 26 83 27 23 28 82 29 24 30 25 31 26 32 76 33
REMARK SMILES IDX 27 34 81 35 75 36 77 37 28 38 80 39 74 40 73 41 29 43 61 44
REMARK SMILES IDX 41 45 60 46 42 47 45 48 59 49 78 50 43 51 44 52 58 54 79 55
REMARK SMILES IDX 46 56 30 57 31 58 39 59 32 60 33 61 37 62 40 63 34 64 35 65
REMARK SMILES IDX 38 66 36 67 62 68 63 69 71 70 64 71 65 72 69 73 72 74 66 75
REMARK SMILES IDX 67 76 70 77 68 78 47 79 48 80 56 81 49 82 50 83 54 84 57 85
REMARK SMILES IDX 51 86 52 87 55 88 53 89
REMARK H PARENT 77 42 45 53
REMARK Flexibility Score: inf
ROOT
ATOM      1  C   UNL A   1      31.875  28.434  27.499  1.00  0.00     0.275 C 
ENDROOT
BRANCH   1   2
ATOM      2  O   UNL A   1      32.737  27.545  26.757  1.00  0.00    -0.458 OA
BRANCH   2   3
ATOM      3  C   UNL A   1      32.158  26.407  26.298  1.00  0.00     0.338 C 
ATOM      4  O   UNL A   1      31.078  25.957  26.625  1.00  0.00    -0.246 OA
BRANCH   3   5
ATOM      5  C   UNL A   1      32.984  25.782  25.235  1.00  0.00     0.063 A 
ATOM      6  C   UNL A   1      34.535  24.149  24.446  1.00  0.00     0.075 A 
ATOM      7  C   UNL A   1      33.878  24.756  25.514  1.00  0.00     0.044 A 
ATOM      8  N   UNL A   1      34.375  24.560  23.163  1.00  0.00    -0.256 NA
ATOM      9  C   UNL A   1      33.541  25.585  22.924  1.00  0.00     0.112 A 
ATOM     10  C   UNL A   1      32.797  26.191  23.913  1.00  0.00     0.036 A 
BRANCH   6  11
ATOM     11  C   UNL A   1      35.284  22.903  24.626  1.00  0.00     0.046 A 
ATOM     12  C   UNL A   1      35.055  20.452  24.788  1.00  0.00     0.119 A 
ATOM     13  C   UNL A   1      36.415  20.357  25.042  1.00  0.00     0.050 A 
ATOM     14  C   UNL A   1      34.506  21.712  24.571  1.00  0.00     0.060 A 
ATOM     15  C   UNL A   1      37.207  21.507  25.072  1.00  0.00     0.051 A 
ATOM     16  C   UNL A   1      36.663  22.787  24.870  1.00  0.00     0.128 A 
BRANCH  12  17
ATOM     17  O   UNL A   1      34.370  19.270  24.813  1.00  0.00    -0.497 OA
ATOM     18  C   UNL A   1      33.102  19.245  24.168  1.00  0.00     0.278 C 
ENDBRANCH  12  17
BRANCH  16  19
ATOM     19  O   UNL A   1      37.614  23.758  25.030  1.00  0.00    -0.496 OA
ATOM     20  C   UNL A   1      38.226  23.957  26.292  1.00  0.00     0.278 C 
ENDBRANCH  16  19
ENDBRANCH   6  11
ENDBRANCH   3   5
ENDBRANCH   2   3
ENDBRANCH   1   2
BRANCH   1  21
ATOM     21  C   UNL A   1      31.806  29.819  26.852  1.00  0.00     0.275 C 
BRANCH  21  22
ATOM     22  O   UNL A   1      33.126  30.283  26.510  1.00  0.00    -0.458 OA
BRANCH  22  23
ATOM     23  C   UNL A   1      33.562  31.356  27.210  1.00  0.00     0.338 C 
ATOM     24  O   UNL A   1      32.949  32.377  27.475  1.00  0.00    -0.246 OA
BRANCH  23  25
ATOM     25  C   UNL A   1      34.897  31.082  27.754  1.00  0.00     0.060 A 
ATOM     26  C   UNL A   1      35.141  29.798  28.222  1.00  0.00     0.016 A 
ATOM     27  C   UNL A   1      35.833  32.088  27.968  1.00  0.00     0.016 A 
ATOM     28  C   UNL A   1      36.264  29.522  28.988  1.00  0.00     0.010 A 
ATOM     29  C   UNL A   1      37.030  31.780  28.632  1.00  0.00     0.010 A 
ATOM     30  C   UNL A   1      37.250  30.497  29.172  1.00  0.00    -0.014 A 
BRANCH  30  31
ATOM     31  C   UNL A   1      38.497  30.154  29.913  1.00  0.00     0.031 A 
ATOM     32  C   UNL A   1      39.512  29.218  29.319  1.00  0.00     0.074 A 
ATOM     33  C   UNL A   1      38.728  30.695  31.127  1.00  0.00     0.049 A 
ATOM     34  N   UNL A   1      40.559  28.664  29.879  1.00  0.00    -0.248 NA
ATOM     35  C   UNL A   1      39.318  28.843  27.911  1.00  0.00     0.031 C 
ATOM     36  C   UNL A   1      37.853  31.654  31.806  1.00  0.00     0.029 A 
ATOM     37  N   UNL A   1      39.768  30.521  32.009  1.00  0.00    -0.354 N 
ATOM     38  C   UNL A   1      41.112  27.832  28.914  1.00  0.00     0.074 A 
ATOM     39  C   UNL A   1      40.280  27.949  27.734  1.00  0.00     0.031 C 
ATOM     40  C   UNL A   1      38.405  32.010  32.972  1.00  0.00     0.029 A 
ATOM     41  C   UNL A   1      39.608  31.216  33.183  1.00  0.00     0.049 A 
ATOM     42  H   UNL A   1      40.549  29.954  31.818  1.00  0.00     0.167 HD
ATOM     43  C   UNL A   1      42.209  27.040  29.010  1.00  0.00     0.037 A 
ATOM     44  C   UNL A   1      40.302  31.174  34.335  1.00  0.00     0.037 A 
ATOM     45  C   UNL A   1      43.050  26.962  30.180  1.00  0.00     0.049 A 
ATOM     46  C   UNL A   1      41.475  30.246  34.445  1.00  0.00     0.074 A 
ATOM     47  C   UNL A   1      44.205  26.225  30.366  1.00  0.00     0.029 A 
ATOM     48  N   UNL A   1      42.821  27.648  31.366  1.00  0.00    -0.354 N 
ATOM     49  N   UNL A   1      41.974  29.440  33.540  1.00  0.00    -0.248 NA
ATOM     50  C   UNL A   1      42.166  30.204  35.738  1.00  0.00     0.031 C 
ATOM     51  C   UNL A   1      44.639  26.412  31.683  1.00  0.00     0.029 A 
ATOM     52  C   UNL A   1      43.790  27.316  32.302  1.00  0.00     0.049 A 
ATOM     53  H   UNL A   1      42.080  28.277  31.520  1.00  0.00     0.167 HD
ATOM     54  C   UNL A   1      43.035  28.790  34.152  1.00  0.00     0.074 A 
ATOM     55  C   UNL A   1      43.126  29.321  35.498  1.00  0.00     0.031 C 
ATOM     56  C   UNL A   1      43.854  27.835  33.646  1.00  0.00     0.037 A 
BRANCH  43  57
ATOM     57  C   UNL A   1      42.524  26.146  27.841  1.00  0.00     0.064 A 
ATOM     58  C   UNL A   1      43.478  26.485  26.870  1.00  0.00     0.173 A 
ATOM     59  C   UNL A   1      41.851  24.923  27.691  1.00  0.00     0.173 A 
ATOM     60  F   UNL A   1      44.147  27.646  26.956  1.00  0.00    -0.203 F 
ATOM     61  C   UNL A   1      43.709  25.660  25.771  1.00  0.00     0.198 A 
ATOM     62  C   UNL A   1      42.111  24.083  26.612  1.00  0.00     0.198 A 
ATOM     63  F   UNL A   1      40.935  24.540  28.594  1.00  0.00    -0.203 F 
ATOM     64  F   UNL A   1      44.574  26.040  24.820  1.00  0.00    -0.200 F 
ATOM     65  C   UNL A   1      43.029  24.459  25.644  1.00  0.00     0.200 A 
ATOM     66  F   UNL A   1      41.463  22.915  26.502  1.00  0.00    -0.200 F 
ATOM     67  F   UNL A   1      43.249  23.669  24.585  1.00  0.00    -0.200 F 
ENDBRANCH  43  57
BRANCH  44  68
ATOM     68  C   UNL A   1      39.842  31.992  35.488  1.00  0.00     0.064 A 
ATOM     69  C   UNL A   1      40.356  33.273  35.721  1.00  0.00     0.173 A 
ATOM     70  C   UNL A   1      38.827  31.530  36.342  1.00  0.00     0.173 A 
ATOM     71  F   UNL A   1      41.342  33.750  34.949  1.00  0.00    -0.203 F 
ATOM     72  C   UNL A   1      39.864  34.065  36.759  1.00  0.00     0.198 A 
ATOM     73  C   UNL A   1      38.314  32.335  37.355  1.00  0.00     0.198 A 
ATOM     74  F   UNL A   1      38.300  30.310  36.160  1.00  0.00    -0.203 F 
ATOM     75  F   UNL A   1      40.387  35.280  36.975  1.00  0.00    -0.200 F 
ATOM     76  C   UNL A   1      38.834  33.601  37.564  1.00  0.00     0.200 A 
ATOM     77  F   UNL A   1      37.302  31.890  38.114  1.00  0.00    -0.200 F 
ATOM     78  F   UNL A   1      38.344  34.376  38.541  1.00  0.00    -0.200 F 
ENDBRANCH  44  68
BRANCH  56  79
ATOM     79  C   UNL A   1      44.920  27.302  34.559  1.00  0.00     0.064 A 
ATOM     80  C   UNL A   1      44.711  26.159  35.344  1.00  0.00     0.173 A 
ATOM     81  C   UNL A   1      46.175  27.927  34.631  1.00  0.00     0.173 A 
ATOM     82  F   UNL A   1      43.522  25.538  35.327  1.00  0.00    -0.203 F 
ATOM     83  C   UNL A   1      45.709  25.674  36.183  1.00  0.00     0.198 A 
ATOM     84  C   UNL A   1      47.182  27.420  35.447  1.00  0.00     0.198 A 
ATOM     85  F   UNL A   1      46.428  29.023  33.899  1.00  0.00    -0.203 F 
ATOM     86  F   UNL A   1      45.470  24.610  36.963  1.00  0.00    -0.200 F 
ATOM     87  C   UNL A   1      46.947  26.300  36.229  1.00  0.00     0.200 A 
ATOM     88  F   UNL A   1      48.381  28.019  35.479  1.00  0.00    -0.200 F 
ATOM     89  F   UNL A   1      47.909  25.828  37.033  1.00  0.00    -0.200 F 
ENDBRANCH  56  79
ENDBRANCH  30  31
ENDBRANCH  23  25
ENDBRANCH  22  23
ENDBRANCH  21  22
ENDBRANCH   1  21
TORSDOF 14
ENDMDL
MODEL 2
REMARK VINA RESULT:     -11.8      2.792      8.304
REMARK SMILES COc1ccc(OC)c(-c2cc(C(=O)OCCOC(=O)c3ccc(-c4c5nc(c(-c6c(F)c(F)c(F)c(F)c6F)c6ccc([nH]6)c(-c6c(F)c(F)c(F)c(F)c6F)c6nc(c(-c7c(F)c(F)c(F)c(F)c7F)c7ccc4[nH]7)C=C6)C=C5)cc3)ccn2)c1
REMARK SMILES IDX 16 1 15 2 13 3 14 4 12 5 10 6 11 7 86 8 85 9 84 10 9 11 3 12
REMARK SMILES IDX 4 13 87 14 5 15 6 16 2 17 1 18 7 19 8 20 17 21 18 22 19 23
REMARK SMILES IDX 20 24 21 25 22 26 83 27 23 28 82 29 24 30 25 31 26 32 76 33
REMARK SMILES IDX 27 34 81 35 75 36 77 37 28 38 80 39 74 40 73 41 29 43 61 44
REMARK SMILES IDX 41 45 60 46 42 47 45 48 59 49 78 50 43 51 44 52 58 54 79 55
REMARK SMILES IDX 46 56 30 57 31 58 39 59 32 60 33 61 37 62 40 63 34 64 35 65
REMARK SMILES IDX 38 66 36 67 62 68 63 69 71 70 64 71 65 72 69 73 72 74 66 75
REMARK SMILES IDX 67 76 70 77 68 78 47 79 48 80 56 81 49 82 50 83 54 84 57 85
REMARK SMILES IDX 51 86 52 87 55 88 53 89
REMARK H PARENT 77 42 45 53
REMARK Flexibility Score: inf
ROOT
ATOM      1  C   UNL A   1      42.309  20.442  26.151  1.00  0.00     0.275 C 
ENDROOT
BRANCH   1   2
ATOM      2  O   UNL A   1      41.066  21.120  26.435  1.00  0.00    -0.458 OA
BRANCH   2   3
ATOM      3  C   UNL A   1      39.947  20.539  25.935  1.00  0.00     0.338 C 
ATOM      4  O   UNL A   1      39.775  19.356  25.721  1.00  0.00    -0.246 OA
BRANCH   3   5
ATOM      5  C   UNL A   1      38.866  21.540  25.751  1.00  0.00     0.063 A 
ATOM      6  C   UNL A   1      36.674  22.184  25.062  1.00  0.00     0.075 A 
ATOM      7  C   UNL A   1      37.682  21.223  25.098  1.00  0.00     0.044 A 
ATOM      8  N   UNL A   1      36.830  23.424  25.589  1.00  0.00    -0.256 NA
ATOM      9  C   UNL A   1      38.002  23.722  26.174  1.00  0.00     0.112 A 
ATOM     10  C   UNL A   1      39.022  22.807  26.317  1.00  0.00     0.036 A 
BRANCH   6  11
ATOM     11  C   UNL A   1      35.317  21.843  24.630  1.00  0.00     0.046 A 
ATOM     12  C   UNL A   1      33.630  20.043  24.608  1.00  0.00     0.119 A 
ATOM     13  C   UNL A   1      32.796  20.855  23.855  1.00  0.00     0.050 A 
ATOM     14  C   UNL A   1      34.869  20.543  24.998  1.00  0.00     0.060 A 
ATOM     15  C   UNL A   1      33.198  22.146  23.505  1.00  0.00     0.051 A 
ATOM     16  C   UNL A   1      34.452  22.658  23.879  1.00  0.00     0.128 A 
BRANCH  12  17
ATOM     17  O   UNL A   1      33.152  18.790  24.867  1.00  0.00    -0.497 OA
ATOM     18  C   UNL A   1      32.631  18.056  23.764  1.00  0.00     0.278 C 
ENDBRANCH  12  17
BRANCH  16  19
ATOM     19  O   UNL A   1      34.652  23.905  23.351  1.00  0.00    -0.496 OA
ATOM     20  C   UNL A   1      33.574  24.817  23.246  1.00  0.00     0.278 C 
ENDBRANCH  16  19
ENDBRANCH   6  11
ENDBRANCH   3   5
ENDBRANCH   2   3
ENDBRANCH   1   2
BRANCH   1  21
ATOM     21  C   UNL A   1      43.330  21.385  25.512  1.00  0.00     0.275 C 
BRANCH  21  22
ATOM     22  O   UNL A   1      42.683  22.577  25.028  1.00  0.00    -0.458 OA
BRANCH  22  23
ATOM     23  C   UNL A   1      43.436  23.700  25.066  1.00  0.00     0.338 C 
ATOM     24  O   UNL A   1      44.367  24.003  24.338  1.00  0.00    -0.246 OA
BRANCH  23  25
ATOM     25  C   UNL A   1      42.892  24.627  26.066  1.00  0.00     0.060 A 
ATOM     26  C   UNL A   1      43.329  25.945  26.013  1.00  0.00     0.016 A 
ATOM     27  C   UNL A   1      42.116  24.195  27.135  1.00  0.00     0.016 A 
ATOM     28  C   UNL A   1      43.083  26.817  27.063  1.00  0.00     0.010 A 
ATOM     29  C   UNL A   1      41.758  25.112  28.136  1.00  0.00     0.010 A 
ATOM     30  C   UNL A   1      42.257  26.429  28.124  1.00  0.00    -0.014 A 
BRANCH  30  31
ATOM     31  C   UNL A   1      41.922  27.411  29.193  1.00  0.00     0.031 A 
ATOM     32  C   UNL A   1      42.741  27.489  30.452  1.00  0.00     0.074 A 
ATOM     33  C   UNL A   1      40.879  28.252  29.032  1.00  0.00     0.049 A 
ATOM     34  N   UNL A   1      42.502  28.146  31.559  1.00  0.00    -0.248 NA
ATOM     35  C   UNL A   1      43.991  26.715  30.474  1.00  0.00     0.031 C 
ATOM     36  C   UNL A   1      40.025  28.320  27.843  1.00  0.00     0.029 A 
ATOM     37  N   UNL A   1      40.357  29.212  29.864  1.00  0.00    -0.354 N 
ATOM     38  C   UNL A   1      43.535  27.817  32.428  1.00  0.00     0.074 A 
ATOM     39  C   UNL A   1      44.400  26.897  31.720  1.00  0.00     0.031 C 
ATOM     40  C   UNL A   1      39.115  29.289  28.006  1.00  0.00     0.029 A 
ATOM     41  C   UNL A   1      39.240  29.828  29.354  1.00  0.00     0.049 A 
ATOM     42  H   UNL A   1      40.745  29.437  30.741  1.00  0.00     0.167 HD
ATOM     43  C   UNL A   1      43.734  28.241  33.701  1.00  0.00     0.037 A 
ATOM     44  C   UNL A   1      38.362  30.676  29.920  1.00  0.00     0.037 A 
ATOM     45  C   UNL A   1      42.884  29.187  34.381  1.00  0.00     0.049 A 
ATOM     46  C   UNL A   1      38.564  31.085  31.349  1.00  0.00     0.074 A 
ATOM     47  C   UNL A   1      43.020  29.714  35.653  1.00  0.00     0.029 A 
ATOM     48  N   UNL A   1      41.732  29.747  33.841  1.00  0.00    -0.354 N 
ATOM     49  N   UNL A   1      39.524  30.747  32.174  1.00  0.00    -0.248 NA
ATOM     50  C   UNL A   1      37.551  31.972  31.932  1.00  0.00     0.031 C 
ATOM     51  C   UNL A   1      41.919  30.540  35.907  1.00  0.00     0.029 A 
ATOM     52  C   UNL A   1      41.127  30.580  34.771  1.00  0.00     0.049 A 
ATOM     53  H   UNL A   1      41.396  29.578  32.932  1.00  0.00     0.167 HD
ATOM     54  C   UNL A   1      39.234  31.376  33.375  1.00  0.00     0.074 A 
ATOM     55  C   UNL A   1      38.021  32.141  33.160  1.00  0.00     0.031 C 
ATOM     56  C   UNL A   1      39.907  31.316  34.551  1.00  0.00     0.037 A 
BRANCH  43  57
ATOM     57  C   UNL A   1      44.883  27.635  34.462  1.00  0.00     0.064 A 
ATOM     58  C   UNL A   1      44.759  26.440  35.186  1.00  0.00     0.173 A 
ATOM     59  C   UNL A   1      46.135  28.271  34.466  1.00  0.00     0.173 A 
ATOM     60  F   UNL A   1      43.584  25.792  35.227  1.00  0.00    -0.203 F 
ATOM     61  C   UNL A   1      45.827  25.933  35.924  1.00  0.00     0.198 A 
ATOM     62  C   UNL A   1      47.212  27.742  35.173  1.00  0.00     0.198 A 
ATOM     63  F   UNL A   1      46.317  29.412  33.782  1.00  0.00    -0.203 F 
ATOM     64  F   UNL A   1      45.664  24.828  36.665  1.00  0.00    -0.200 F 
ATOM     65  C   UNL A   1      47.053  26.582  35.914  1.00  0.00     0.200 A 
ATOM     66  F   UNL A   1      48.399  28.363  35.147  1.00  0.00    -0.200 F 
ATOM     67  F   UNL A   1      48.078  26.094  36.626  1.00  0.00    -0.200 F 
ENDBRANCH  43  57
BRANCH  44  68
ATOM     68  C   UNL A   1      37.179  31.122  29.139  1.00  0.00     0.064 A 
ATOM     69  C   UNL A   1      36.102  30.262  28.896  1.00  0.00     0.173 A 
ATOM     70  C   UNL A   1      37.076  32.445  28.676  1.00  0.00     0.173 A 
ATOM     71  F   UNL A   1      36.163  28.983  29.296  1.00  0.00    -0.203 F 
ATOM     72  C   UNL A   1      34.962  30.709  28.228  1.00  0.00     0.198 A 
ATOM     73  C   UNL A   1      35.924  32.899  28.041  1.00  0.00     0.198 A 
ATOM     74  F   UNL A   1      38.079  33.310  28.886  1.00  0.00    -0.203 F 
ATOM     75  F   UNL A   1      33.954  29.860  27.988  1.00  0.00    -0.200 F 
ATOM     76  C   UNL A   1      34.868  32.031  27.815  1.00  0.00     0.200 A 
ATOM     77  F   UNL A   1      35.829  34.183  27.667  1.00  0.00    -0.200 F 
ATOM     78  F   UNL A   1      33.760  32.466  27.201  1.00  0.00    -0.200 F 
ENDBRANCH  44  68
BRANCH  56  79
ATOM     79  C   UNL A   1      39.341  32.103  35.697  1.00  0.00     0.064 A 
ATOM     80  C   UNL A   1      39.663  33.455  35.890  1.00  0.00     0.173 A 
ATOM     81  C   UNL A   1      38.447  31.507  36.600  1.00  0.00     0.173 A 
ATOM     82  F   UNL A   1      40.530  34.065  35.068  1.00  0.00    -0.203 F 
ATOM     83  C   UNL A   1      39.129  34.174  36.955  1.00  0.00     0.198 A 
ATOM     84  C   UNL A   1      37.889  32.238  37.645  1.00  0.00     0.198 A 
ATOM     85  F   UNL A   1      38.103  30.217  36.460  1.00  0.00    -0.203 F 
ATOM     86  F   UNL A   1      39.492  35.450  37.150  1.00  0.00    -0.200 F 
ATOM     87  C   UNL A   1      38.237  33.568  37.827  1.00  0.00     0.200 A 
ATOM     88  F   UNL A   1      37.018  31.654  38.479  1.00  0.00    -0.200 F 
ATOM     89  F   UNL A   1      37.719  34.263  38.849  1.00  0.00    -0.200 F 
ENDBRANCH  56  79
ENDBRANCH  30  31
ENDBRANCH  23  25
ENDBRANCH  22  23
ENDBRANCH  21  22
ENDBRANCH   1  21
TORSDOF 14
ENDMDL
MODEL 3
REMARK VINA RESULT:     -11.6      0.728      1.957
REMARK SMILES COc1ccc(OC)c(-c2cc(C(=O)OCCOC(=O)c3ccc(-c4c5nc(c(-c6c(F)c(F)c(F)c(F)c6F)c6ccc([nH]6)c(-c6c(F)c(F)c(F)c(F)c6F)c6nc(c(-c7c(F)c(F)c(F)c(F)c7F)c7ccc4[nH]7)C=C6)C=C5)cc3)ccn2)c1
REMARK SMILES IDX 16 1 15 2 13 3 14 4 12 5 10 6 11 7 86 8 85 9 84 10 9 11 3 12
REMARK SMILES IDX 4 13 87 14 5 15 6 16 2 17 1 18 7 19 8 20 17 21 18 22 19 23
REMARK SMILES IDX 20 24 21 25 22 26 83 27 23 28 82 29 24 30 25 31 26 32 76 33
REMARK SMILES IDX 27 34 81 35 75 36 77 37 28 38 80 39 74 40 73 41 29 43 61 44
REMARK SMILES IDX 41 45 60 46 42 47 45 48 59 49 78 50 43 51 44 52 58 54 79 55
REMARK SMILES IDX 46 56 30 57 31 58 39 59 32 60 33 61 37 62 40 63 34 64 35 65
REMARK SMILES IDX 38 66 36 67 62 68 63 69 71 70 64 71 65 72 69 73 72 74 66 75
REMARK SMILES IDX 67 76 70 77 68 78 47 79 48 80 56 81 49 82 50 83 54 84 57 85
REMARK SMILES IDX 51 86 52 87 55 88 53 89
REMARK H PARENT 77 42 45 53
REMARK Flexibility Score: inf
ROOT
ATOM      1  C   UNL A   1      32.212  29.273  24.648  1.00  0.00     0.275 C 
ENDROOT
BRANCH   1   2
ATOM      2  O   UNL A   1      31.262  28.193  24.522  1.00  0.00    -0.458 OA
BRANCH   2   3
ATOM      3  C   UNL A   1      31.596  27.036  25.148  1.00  0.00     0.338 C 
ATOM      4  O   UNL A   1      31.203  26.656  26.233  1.00  0.00    -0.246 OA
BRANCH   3   5
ATOM      5  C   UNL A   1      32.467  26.198  24.285  1.00  0.00     0.063 A 
ATOM      6  C   UNL A   1      34.074  24.467  23.947  1.00  0.00     0.075 A 
ATOM      7  C   UNL A   1      33.373  25.293  24.823  1.00  0.00     0.044 A 
ATOM      8  N   UNL A   1      33.944  24.554  22.600  1.00  0.00    -0.256 NA
ATOM      9  C   UNL A   1      33.095  25.469  22.103  1.00  0.00     0.112 A 
ATOM     10  C   UNL A   1      32.310  26.274  22.899  1.00  0.00     0.036 A 
BRANCH   6  11
ATOM     11  C   UNL A   1      34.843  23.321  24.439  1.00  0.00     0.046 A 
ATOM     12  C   UNL A   1      36.998  22.653  25.436  1.00  0.00     0.119 A 
ATOM     13  C   UNL A   1      36.601  21.326  25.368  1.00  0.00     0.050 A 
ATOM     14  C   UNL A   1      36.119  23.634  24.987  1.00  0.00     0.060 A 
ATOM     15  C   UNL A   1      35.342  20.993  24.862  1.00  0.00     0.051 A 
ATOM     16  C   UNL A   1      34.451  21.972  24.390  1.00  0.00     0.128 A 
BRANCH  12  17
ATOM     17  O   UNL A   1      38.259  22.864  25.918  1.00  0.00    -0.497 OA
ATOM     18  C   UNL A   1      38.525  24.136  26.496  1.00  0.00     0.278 C 
ENDBRANCH  12  17
BRANCH  16  19
ATOM     19  O   UNL A   1      33.323  21.401  23.869  1.00  0.00    -0.496 OA
ATOM     20  C   UNL A   1      32.152  21.281  24.657  1.00  0.00     0.278 C 
ENDBRANCH  16  19
ENDBRANCH   6  11
ENDBRANCH   3   5
ENDBRANCH   2   3
ENDBRANCH   1   2
BRANCH   1  21
ATOM     21  C   UNL A   1      31.825  30.233  25.775  1.00  0.00     0.275 C 
BRANCH  21  22
ATOM     22  O   UNL A   1      32.765  30.140  26.862  1.00  0.00    -0.458 OA
BRANCH  22  23
ATOM     23  C   UNL A   1      33.329  31.310  27.240  1.00  0.00     0.338 C 
ATOM     24  O   UNL A   1      32.822  32.419  27.245  1.00  0.00    -0.246 OA
BRANCH  23  25
ATOM     25  C   UNL A   1      34.664  31.058  27.797  1.00  0.00     0.060 A 
ATOM     26  C   UNL A   1      34.929  29.775  28.258  1.00  0.00     0.016 A 
ATOM     27  C   UNL A   1      35.577  32.081  28.028  1.00  0.00     0.016 A 
ATOM     28  C   UNL A   1      36.048  29.516  29.033  1.00  0.00     0.010 A 
ATOM     29  C   UNL A   1      36.773  31.791  28.703  1.00  0.00     0.010 A 
ATOM     30  C   UNL A   1      37.013  30.509  29.235  1.00  0.00    -0.014 A 
BRANCH  30  31
ATOM     31  C   UNL A   1      38.258  30.185  29.987  1.00  0.00     0.031 A 
ATOM     32  C   UNL A   1      39.312  29.298  29.385  1.00  0.00     0.074 A 
ATOM     33  C   UNL A   1      38.453  30.698  31.219  1.00  0.00     0.049 A 
ATOM     34  N   UNL A   1      40.367  28.763  29.946  1.00  0.00    -0.248 NA
ATOM     35  C   UNL A   1      39.152  28.957  27.964  1.00  0.00     0.031 C 
ATOM     36  C   UNL A   1      37.537  31.610  31.910  1.00  0.00     0.029 A 
ATOM     37  N   UNL A   1      39.484  30.533  32.113  1.00  0.00    -0.354 N 
ATOM     38  C   UNL A   1      40.961  27.976  28.968  1.00  0.00     0.074 A 
ATOM     39  C   UNL A   1      40.145  28.099  27.778  1.00  0.00     0.031 C 
ATOM     40  C   UNL A   1      38.059  31.950  33.094  1.00  0.00     0.029 A 
ATOM     41  C   UNL A   1      39.284  31.190  33.303  1.00  0.00     0.049 A 
ATOM     42  H   UNL A   1      40.286  29.996  31.919  1.00  0.00     0.167 HD
ATOM     43  C   UNL A   1      42.082  27.216  29.061  1.00  0.00     0.037 A 
ATOM     44  C   UNL A   1      39.961  31.137  34.465  1.00  0.00     0.037 A 
ATOM     45  C   UNL A   1      42.906  27.132  30.241  1.00  0.00     0.049 A 
ATOM     46  C   UNL A   1      41.161  30.244  34.569  1.00  0.00     0.074 A 
ATOM     47  C   UNL A   1      44.082  26.427  30.426  1.00  0.00     0.029 A 
ATOM     48  N   UNL A   1      42.637  27.776  31.442  1.00  0.00    -0.354 N 
ATOM     49  N   UNL A   1      41.699  29.479  33.651  1.00  0.00    -0.248 NA
ATOM     50  C   UNL A   1      41.832  30.188  35.872  1.00  0.00     0.031 C 
ATOM     51  C   UNL A   1      44.488  26.591  31.755  1.00  0.00     0.029 A 
ATOM     52  C   UNL A   1      43.602  27.450  32.385  1.00  0.00     0.049 A 
ATOM     53  H   UNL A   1      41.874  28.378  31.601  1.00  0.00     0.167 HD
ATOM     54  C   UNL A   1      42.771  28.847  34.262  1.00  0.00     0.074 A 
ATOM     55  C   UNL A   1      42.824  29.343  35.623  1.00  0.00     0.031 C 
ATOM     56  C   UNL A   1      43.628  27.932  33.744  1.00  0.00     0.037 A 
BRANCH  43  57
ATOM     57  C   UNL A   1      42.444  26.366  27.872  1.00  0.00     0.064 A 
ATOM     58  C   UNL A   1      41.903  25.088  27.669  1.00  0.00     0.173 A 
ATOM     59  C   UNL A   1      43.356  26.846  26.919  1.00  0.00     0.173 A 
ATOM     60  F   UNL A   1      41.033  24.573  28.551  1.00  0.00    -0.203 F 
ATOM     61  C   UNL A   1      42.299  24.305  26.586  1.00  0.00     0.198 A 
ATOM     62  C   UNL A   1      43.722  26.076  25.817  1.00  0.00     0.198 A 
ATOM     63  F   UNL A   1      43.899  28.066  27.055  1.00  0.00    -0.203 F 
ATOM     64  F   UNL A   1      41.823  23.059  26.452  1.00  0.00    -0.200 F 
ATOM     65  C   UNL A   1      43.205  24.800  25.660  1.00  0.00     0.200 A 
ATOM     66  F   UNL A   1      44.585  26.565  24.916  1.00  0.00    -0.200 F 
ATOM     67  F   UNL A   1      43.587  24.044  24.622  1.00  0.00    -0.200 F 
ENDBRANCH  43  57
BRANCH  44  68
ATOM     68  C   UNL A   1      39.456  31.907  35.632  1.00  0.00     0.064 A 
ATOM     69  C   UNL A   1      39.840  33.237  35.846  1.00  0.00     0.173 A 
ATOM     70  C   UNL A   1      38.526  31.345  36.521  1.00  0.00     0.173 A 
ATOM     71  F   UNL A   1      40.744  33.811  35.039  1.00  0.00    -0.203 F 
ATOM     72  C   UNL A   1      39.304  33.978  36.899  1.00  0.00     0.198 A 
ATOM     73  C   UNL A   1      37.966  32.096  37.551  1.00  0.00     0.198 A 
ATOM     74  F   UNL A   1      38.124  30.075  36.359  1.00  0.00    -0.203 F 
ATOM     75  F   UNL A   1      39.703  35.242  37.096  1.00  0.00    -0.200 F 
ATOM     76  C   UNL A   1      38.357  33.412  37.740  1.00  0.00     0.200 A 
ATOM     77  F   UNL A   1      37.033  31.551  38.344  1.00  0.00    -0.200 F 
ATOM     78  F   UNL A   1      37.821  34.135  38.733  1.00  0.00    -0.200 F 
ENDBRANCH  44  68
BRANCH  56  79
ATOM     79  C   UNL A   1      44.696  27.408  34.658  1.00  0.00     0.064 A 
ATOM     80  C   UNL A   1      44.520  26.226  35.391  1.00  0.00     0.173 A 
ATOM     81  C   UNL A   1      45.921  28.082  34.785  1.00  0.00     0.173 A 
ATOM     82  F   UNL A   1      43.360  25.556  35.322  1.00  0.00    -0.203 F 
ATOM     83  C   UNL A   1      45.520  25.749  36.234  1.00  0.00     0.198 A 
ATOM     84  C   UNL A   1      46.931  27.586  35.603  1.00  0.00     0.198 A 
ATOM     85  F   UNL A   1      46.142  29.218  34.104  1.00  0.00    -0.203 F 
ATOM     86  F   UNL A   1      45.310  24.645  36.965  1.00  0.00    -0.200 F 
ATOM     87  C   UNL A   1      46.728  26.425  36.333  1.00  0.00     0.200 A 
ATOM     88  F   UNL A   1      48.101  28.233  35.688  1.00  0.00    -0.200 F 
ATOM     89  F   UNL A   1      47.692  25.961  37.141  1.00  0.00    -0.200 F 
ENDBRANCH  56  79
ENDBRANCH  30  31
ENDBRANCH  23  25
ENDBRANCH  22  23
ENDBRANCH  21  22
ENDBRANCH   1  21
TORSDOF 14
ENDMDL
