MODEL 1
REMARK VINA RESULT:     -10.9      0.000      0.000
REMARK SMILES O=C(Cc1ccc(F)cc1F)Nc1sccc1C(=O)OCCOC(=O)c1ccc(-c2c3nc(c(-c4c(F)c(F)c(F)c(F)c4F)c4ccc([nH]4)c(-c4c(F)c(F)c(F)c(F)c4F)c4nc(c(-c5c(F)c(F)c(F)c(F)c5F)c5ccc2[nH]5)C=C4)C=C3)cc1
REMARK SMILES IDX 21 1 20 2 18 3 19 4 17 5 13 6 14 7 15 8 16 9 12 10 1 11 2 12
REMARK SMILES IDX 3 14 4 15 5 16 10 17 6 18 9 19 11 20 7 21 8 22 22 23 23 24
REMARK SMILES IDX 24 25 25 26 26 27 27 28 88 29 28 30 87 31 29 32 30 33 31 34
REMARK SMILES IDX 81 35 32 36 86 37 80 38 82 39 33 40 85 41 79 42 78 43 34 45
REMARK SMILES IDX 66 46 46 47 65 48 47 49 50 50 64 51 83 52 48 53 49 54 63 56
REMARK SMILES IDX 84 57 51 58 35 59 36 60 44 61 37 62 38 63 42 64 45 65 39 66
REMARK SMILES IDX 40 67 43 68 41 69 67 70 68 71 76 72 69 73 70 74 74 75 77 76
REMARK SMILES IDX 71 77 72 78 75 79 73 80 52 81 53 82 61 83 54 84 55 85 59 86
REMARK SMILES IDX 62 87 56 88 57 89 60 90 58 91
REMARK H PARENT 12 13 82 44 50 55
REMARK Flexibility Score: inf
ROOT
ATOM      1  C   UNL A   1      33.796  33.758  28.307  1.00  0.00     0.275 C 
ENDROOT
BRANCH   1   2
ATOM      2  O   UNL A   1      32.976  34.274  29.367  1.00  0.00    -0.458 OA
BRANCH   2   3
ATOM      3  C   UNL A   1      32.929  35.631  29.533  1.00  0.00     0.341 C 
ATOM      4  O   UNL A   1      32.394  36.406  28.751  1.00  0.00    -0.246 OA
BRANCH   3   5
ATOM      5  C   UNL A   1      33.410  36.055  30.850  1.00  0.00     0.094 A 
ATOM      6  C   UNL A   1      34.347  35.414  31.632  1.00  0.00     0.110 A 
ATOM      7  S   UNL A   1      34.355  35.952  33.248  1.00  0.00    -0.126 S 
ATOM      8  C   UNL A   1      33.316  37.254  32.871  1.00  0.00     0.068 A 
ATOM      9  C   UNL A   1      32.905  37.208  31.557  1.00  0.00     0.029 A 
BRANCH   6  10
ATOM     10  N   UNL A   1      35.284  34.434  31.401  1.00  0.00    -0.317 N 
ATOM     11  O   UNL A   1      34.032  32.663  32.236  1.00  0.00    -0.274 OA
ATOM     12  C   UNL A   1      35.067  33.112  31.750  1.00  0.00     0.229 C 
ATOM     13  H   UNL A   1      36.136  34.681  30.974  1.00  0.00     0.170 HD
BRANCH  12  14
ATOM     14  C   UNL A   1      36.236  32.209  31.398  1.00  0.00     0.139 C 
BRANCH  14  15
ATOM     15  C   UNL A   1      37.427  32.968  30.868  1.00  0.00    -0.003 A 
ATOM     16  C   UNL A   1      37.665  33.081  29.488  1.00  0.00     0.010 A 
ATOM     17  C   UNL A   1      38.318  33.593  31.751  1.00  0.00     0.129 A 
ATOM     18  C   UNL A   1      38.767  33.799  29.018  1.00  0.00     0.040 A 
ATOM     19  C   UNL A   1      39.413  34.315  31.289  1.00  0.00     0.078 A 
ATOM     20  F   UNL A   1      38.113  33.518  33.072  1.00  0.00    -0.207 F 
ATOM     21  C   UNL A   1      39.628  34.410  29.923  1.00  0.00     0.126 A 
ATOM     22  F   UNL A   1      40.675  35.106  29.463  1.00  0.00    -0.207 F 
ENDBRANCH  14  15
ENDBRANCH  12  14
ENDBRANCH   6  10
ENDBRANCH   3   5
ENDBRANCH   2   3
ENDBRANCH   1   2
BRANCH   1  23
ATOM     23  C   UNL A   1      33.621  32.241  28.196  1.00  0.00     0.275 C 
BRANCH  23  24
ATOM     24  O   UNL A   1      34.825  31.630  27.696  1.00  0.00    -0.458 OA
BRANCH  24  25
ATOM     25  C   UNL A   1      34.878  30.283  27.804  1.00  0.00     0.338 C 
ATOM     26  O   UNL A   1      34.032  29.472  27.469  1.00  0.00    -0.246 OA
BRANCH  25  27
ATOM     27  C   UNL A   1      36.235  29.904  28.227  1.00  0.00     0.060 A 
ATOM     28  C   UNL A   1      37.265  30.088  27.305  1.00  0.00     0.016 A 
ATOM     29  C   UNL A   1      36.498  29.358  29.484  1.00  0.00     0.016 A 
ATOM     30  C   UNL A   1      38.572  29.749  27.633  1.00  0.00     0.010 A 
ATOM     31  C   UNL A   1      37.811  29.001  29.812  1.00  0.00     0.010 A 
ATOM     32  C   UNL A   1      38.853  29.192  28.886  1.00  0.00    -0.014 A 
BRANCH  32  33
ATOM     33  C   UNL A   1      40.233  28.746  29.187  1.00  0.00     0.031 A 
ATOM     34  C   UNL A   1      41.120  29.611  30.030  1.00  0.00     0.074 A 
ATOM     35  C   UNL A   1      40.666  27.550  28.752  1.00  0.00     0.049 A 
ATOM     36  N   UNL A   1      42.379  29.445  30.347  1.00  0.00    -0.248 NA
ATOM     37  C   UNL A   1      40.509  30.825  30.594  1.00  0.00     0.031 C 
ATOM     38  C   UNL A   1      39.871  26.594  27.983  1.00  0.00     0.029 A 
ATOM     39  N   UNL A   1      41.882  26.931  28.904  1.00  0.00    -0.354 N 
ATOM     40  C   UNL A   1      42.718  30.546  31.121  1.00  0.00     0.074 A 
ATOM     41  C   UNL A   1      41.535  31.373  31.228  1.00  0.00     0.031 C 
ATOM     42  C   UNL A   1      40.616  25.504  27.738  1.00  0.00     0.029 A 
ATOM     43  C   UNL A   1      41.954  25.706  28.292  1.00  0.00     0.049 A 
ATOM     44  H   UNL A   1      42.631  27.330  29.404  1.00  0.00     0.167 HD
ATOM     45  C   UNL A   1      43.912  30.836  31.689  1.00  0.00     0.037 A 
ATOM     46  C   UNL A   1      42.990  24.854  28.171  1.00  0.00     0.037 A 
ATOM     47  C   UNL A   1      45.076  29.996  31.603  1.00  0.00     0.049 A 
ATOM     48  C   UNL A   1      44.320  25.220  28.772  1.00  0.00     0.074 A 
ATOM     49  C   UNL A   1      46.330  30.203  32.151  1.00  0.00     0.029 A 
ATOM     50  N   UNL A   1      45.125  28.783  30.933  1.00  0.00    -0.354 N 
ATOM     51  N   UNL A   1      44.646  26.282  29.468  1.00  0.00    -0.248 NA
ATOM     52  C   UNL A   1      45.429  24.279  28.559  1.00  0.00     0.031 C 
ATOM     53  C   UNL A   1      47.149  29.129  31.784  1.00  0.00     0.029 A 
ATOM     54  C   UNL A   1      46.394  28.238  31.038  1.00  0.00     0.049 A 
ATOM     55  H   UNL A   1      44.371  28.371  30.453  1.00  0.00     0.167 HD
ATOM     56  C   UNL A   1      45.992  26.140  29.775  1.00  0.00     0.074 A 
ATOM     57  C   UNL A   1      46.419  24.876  29.208  1.00  0.00     0.031 C 
ATOM     58  C   UNL A   1      46.802  26.983  30.459  1.00  0.00     0.037 A 
BRANCH  45  59
ATOM     59  C   UNL A   1      44.029  32.135  32.423  1.00  0.00     0.064 A 
ATOM     60  C   UNL A   1      43.730  32.200  33.792  1.00  0.00     0.173 A 
ATOM     61  C   UNL A   1      44.400  33.320  31.772  1.00  0.00     0.173 A 
ATOM     62  F   UNL A   1      43.369  31.092  34.459  1.00  0.00    -0.203 F 
ATOM     63  C   UNL A   1      43.791  33.407  34.482  1.00  0.00     0.198 A 
ATOM     64  C   UNL A   1      44.481  34.522  32.470  1.00  0.00     0.198 A 
ATOM     65  F   UNL A   1      44.712  33.305  30.468  1.00  0.00    -0.203 F 
ATOM     66  F   UNL A   1      43.484  33.449  35.786  1.00  0.00    -0.200 F 
ATOM     67  C   UNL A   1      44.170  34.567  33.822  1.00  0.00     0.200 A 
ATOM     68  F   UNL A   1      44.870  35.638  31.837  1.00  0.00    -0.200 F 
ATOM     69  F   UNL A   1      44.243  35.725  34.491  1.00  0.00    -0.200 F 
ENDBRANCH  45  59
BRANCH  46  70
ATOM     70  C   UNL A   1      42.809  23.584  27.425  1.00  0.00     0.064 A 
ATOM     71  C   UNL A   1      42.275  22.446  28.050  1.00  0.00     0.173 A 
ATOM     72  C   UNL A   1      43.193  23.473  26.083  1.00  0.00     0.173 A 
ATOM     73  F   UNL A   1      41.886  22.506  29.332  1.00  0.00    -0.203 F 
ATOM     74  C   UNL A   1      42.155  21.239  27.366  1.00  0.00     0.198 A 
ATOM     75  C   UNL A   1      43.053  22.270  25.393  1.00  0.00     0.198 A 
ATOM     76  F   UNL A   1      43.684  24.541  25.437  1.00  0.00    -0.203 F 
ATOM     77  F   UNL A   1      41.669  20.160  27.994  1.00  0.00    -0.200 F 
ATOM     78  C   UNL A   1      42.543  21.153  26.038  1.00  0.00     0.200 A 
ATOM     79  F   UNL A   1      43.406  22.196  24.103  1.00  0.00    -0.200 F 
ATOM     80  F   UNL A   1      42.421  19.993  25.377  1.00  0.00    -0.200 F 
ENDBRANCH  46  70
BRANCH  58  81
ATOM     81  C   UNL A   1      48.233  26.577  30.635  1.00  0.00     0.064 A 
ATOM     82  C   UNL A   1      48.626  25.804  31.736  1.00  0.00     0.173 A 
ATOM     83  C   UNL A   1      49.226  27.020  29.749  1.00  0.00     0.173 A 
ATOM     84  F   UNL A   1      47.711  25.364  32.614  1.00  0.00    -0.203 F 
ATOM     85  C   UNL A   1      49.967  25.500  31.954  1.00  0.00     0.198 A 
ATOM     86  C   UNL A   1      50.564  26.697  29.959  1.00  0.00     0.198 A 
ATOM     87  F   UNL A   1      48.895  27.751  28.675  1.00  0.00    -0.203 F 
ATOM     88  F   UNL A   1      50.324  24.783  33.028  1.00  0.00    -0.200 F 
ATOM     89  C   UNL A   1      50.934  25.944  31.064  1.00  0.00     0.200 A 
ATOM     90  F   UNL A   1      51.495  27.111  29.089  1.00  0.00    -0.200 F 
ATOM     91  F   UNL A   1      52.224  25.647  31.273  1.00  0.00    -0.200 F 
ENDBRANCH  58  81
ENDBRANCH  32  33
ENDBRANCH  25  27
ENDBRANCH  24  25
ENDBRANCH  23  24
ENDBRANCH   1  23
TORSDOF 14
ENDMDL
MODEL 2
REMARK VINA RESULT:     -10.9      4.307     11.520
REMARK SMILES O=C(Cc1ccc(F)cc1F)Nc1sccc1C(=O)OCCOC(=O)c1ccc(-c2c3nc(c(-c4c(F)c(F)c(F)c(F)c4F)c4ccc([nH]4)c(-c4c(F)c(F)c(F)c(F)c4F)c4nc(c(-c5c(F)c(F)c(F)c(F)c5F)c5ccc2[nH]5)C=C4)C=C3)cc1
REMARK SMILES IDX 21 1 20 2 18 3 19 4 17 5 13 6 14 7 15 8 16 9 12 10 1 11 2 12
REMARK SMILES IDX 3 14 4 15 5 16 10 17 6 18 9 19 11 20 7 21 8 22 22 23 23 24
REMARK SMILES IDX 24 25 25 26 26 27 27 28 88 29 28 30 87 31 29 32 30 33 31 34
REMARK SMILES IDX 81 35 32 36 86 37 80 38 82 39 33 40 85 41 79 42 78 43 34 45
REMARK SMILES IDX 66 46 46 47 65 48 47 49 50 50 64 51 83 52 48 53 49 54 63 56
REMARK SMILES IDX 84 57 51 58 35 59 36 60 44 61 37 62 38 63 42 64 45 65 39 66
REMARK SMILES IDX 40 67 43 68 41 69 67 70 68 71 76 72 69 73 70 74 74 75 77 76
REMARK SMILES IDX 71 77 72 78 75 79 73 80 52 81 53 82 61 83 54 84 55 85 59 86
REMARK SMILES IDX 62 87 56 88 57 89 60 90 58 91
REMARK H PARENT 12 13 82 44 50 55
REMARK Flexibility Score: inf
ROOT
ATOM      1  C   UNL A   1      40.781  20.054  26.618  1.00  0.00     0.275 C 
ENDROOT
BRANCH   1   2
ATOM      2  O   UNL A   1      41.883  20.104  25.698  1.00  0.00    -0.458 OA
BRANCH   2   3
ATOM      3  C   UNL A   1      42.749  19.046  25.682  1.00  0.00     0.341 C 
ATOM      4  O   UNL A   1      42.408  17.872  25.758  1.00  0.00    -0.246 OA
BRANCH   3   5
ATOM      5  C   UNL A   1      44.121  19.445  25.360  1.00  0.00     0.094 A 
ATOM      6  C   UNL A   1      44.659  20.709  25.468  1.00  0.00     0.110 A 
ATOM      7  S   UNL A   1      46.132  20.886  24.631  1.00  0.00    -0.126 S 
ATOM      8  C   UNL A   1      46.233  19.203  24.354  1.00  0.00     0.068 A 
ATOM      9  C   UNL A   1      45.111  18.548  24.812  1.00  0.00     0.029 A 
BRANCH   6  10
ATOM     10  N   UNL A   1      44.275  21.867  26.103  1.00  0.00    -0.317 N 
ATOM     11  O   UNL A   1      43.308  22.882  24.249  1.00  0.00    -0.274 OA
ATOM     12  C   UNL A   1      43.642  22.899  25.432  1.00  0.00     0.229 C 
ATOM     13  H   UNL A   1      44.457  21.965  27.065  1.00  0.00     0.170 HD
BRANCH  12  14
ATOM     14  C   UNL A   1      43.310  24.074  26.333  1.00  0.00     0.139 C 
BRANCH  14  15
ATOM     15  C   UNL A   1      44.341  25.174  26.272  1.00  0.00    -0.003 A 
ATOM     16  C   UNL A   1      45.527  25.105  27.022  1.00  0.00     0.010 A 
ATOM     17  C   UNL A   1      44.140  26.287  25.445  1.00  0.00     0.129 A 
ATOM     18  C   UNL A   1      46.473  26.128  26.941  1.00  0.00     0.040 A 
ATOM     19  C   UNL A   1      45.083  27.305  25.354  1.00  0.00     0.078 A 
ATOM     20  F   UNL A   1      43.028  26.376  24.704  1.00  0.00    -0.207 F 
ATOM     21  C   UNL A   1      46.243  27.215  26.106  1.00  0.00     0.126 A 
ATOM     22  F   UNL A   1      47.162  28.185  26.025  1.00  0.00    -0.207 F 
ENDBRANCH  14  15
ENDBRANCH  12  14
ENDBRANCH   6  10
ENDBRANCH   3   5
ENDBRANCH   2   3
ENDBRANCH   1   2
BRANCH   1  23
ATOM     23  C   UNL A   1      40.486  21.453  27.165  1.00  0.00     0.275 C 
BRANCH  23  24
ATOM     24  O   UNL A   1      40.212  22.368  26.088  1.00  0.00    -0.458 OA
BRANCH  24  25
ATOM     25  C   UNL A   1      39.063  23.072  26.205  1.00  0.00     0.338 C 
ATOM     26  O   UNL A   1      37.932  22.707  25.936  1.00  0.00    -0.246 OA
BRANCH  25  27
ATOM     27  C   UNL A   1      39.358  24.329  26.910  1.00  0.00     0.060 A 
ATOM     28  C   UNL A   1      40.083  25.295  26.212  1.00  0.00     0.016 A 
ATOM     29  C   UNL A   1      38.959  24.556  28.228  1.00  0.00     0.016 A 
ATOM     30  C   UNL A   1      40.402  26.506  26.814  1.00  0.00     0.010 A 
ATOM     31  C   UNL A   1      39.294  25.769  28.842  1.00  0.00     0.010 A 
ATOM     32  C   UNL A   1      40.019  26.747  28.138  1.00  0.00    -0.014 A 
BRANCH  32  33
ATOM     33  C   UNL A   1      40.449  28.001  28.799  1.00  0.00     0.031 A 
ATOM     34  C   UNL A   1      41.889  28.182  29.173  1.00  0.00     0.074 A 
ATOM     35  C   UNL A   1      39.564  28.990  29.012  1.00  0.00     0.049 A 
ATOM     36  N   UNL A   1      42.459  29.164  29.822  1.00  0.00    -0.248 NA
ATOM     37  C   UNL A   1      42.813  27.115  28.757  1.00  0.00     0.031 C 
ATOM     38  C   UNL A   1      38.153  28.955  28.630  1.00  0.00     0.029 A 
ATOM     39  N   UNL A   1      39.724  30.222  29.596  1.00  0.00    -0.354 N 
ATOM     40  C   UNL A   1      43.800  28.821  29.919  1.00  0.00     0.074 A 
ATOM     41  C   UNL A   1      43.961  27.542  29.262  1.00  0.00     0.031 C 
ATOM     42  C   UNL A   1      37.577  30.117  28.981  1.00  0.00     0.029 A 
ATOM     43  C   UNL A   1      38.567  30.957  29.652  1.00  0.00     0.049 A 
ATOM     44  H   UNL A   1      40.588  30.546  29.941  1.00  0.00     0.167 HD
ATOM     45  C   UNL A   1      44.802  29.514  30.507  1.00  0.00     0.037 A 
ATOM     46  C   UNL A   1      38.328  32.161  30.207  1.00  0.00     0.037 A 
ATOM     47  C   UNL A   1      44.642  30.799  31.134  1.00  0.00     0.049 A 
ATOM     48  C   UNL A   1      39.449  32.892  30.893  1.00  0.00     0.074 A 
ATOM     49  C   UNL A   1      45.601  31.583  31.751  1.00  0.00     0.029 A 
ATOM     50  N   UNL A   1      43.444  31.492  31.215  1.00  0.00    -0.354 N 
ATOM     51  N   UNL A   1      40.707  32.544  31.019  1.00  0.00    -0.248 NA
ATOM     52  C   UNL A   1      39.117  34.175  31.530  1.00  0.00     0.031 C 
ATOM     53  C   UNL A   1      44.975  32.737  32.236  1.00  0.00     0.029 A 
ATOM     54  C   UNL A   1      43.634  32.687  31.888  1.00  0.00     0.049 A 
ATOM     55  H   UNL A   1      42.584  31.181  30.849  1.00  0.00     0.167 HD
ATOM     56  C   UNL A   1      41.315  33.558  31.744  1.00  0.00     0.074 A 
ATOM     57  C   UNL A   1      40.293  34.549  32.015  1.00  0.00     0.031 C 
ATOM     58  C   UNL A   1      42.602  33.656  32.155  1.00  0.00     0.037 A 
BRANCH  45  59
ATOM     59  C   UNL A   1      46.158  28.880  30.532  1.00  0.00     0.064 A 
ATOM     60  C   UNL A   1      47.028  29.036  29.443  1.00  0.00     0.173 A 
ATOM     61  C   UNL A   1      46.584  28.091  31.609  1.00  0.00     0.173 A 
ATOM     62  F   UNL A   1      46.665  29.782  28.388  1.00  0.00    -0.203 F 
ATOM     63  C   UNL A   1      48.275  28.419  29.429  1.00  0.00     0.198 A 
ATOM     64  C   UNL A   1      47.840  27.491  31.601  1.00  0.00     0.198 A 
ATOM     65  F   UNL A   1      45.793  27.927  32.680  1.00  0.00    -0.203 F 
ATOM     66  F   UNL A   1      49.084  28.567  28.371  1.00  0.00    -0.200 F 
ATOM     67  C   UNL A   1      48.682  27.649  30.510  1.00  0.00     0.200 A 
ATOM     68  F   UNL A   1      48.243  26.768  32.655  1.00  0.00    -0.200 F 
ATOM     69  F   UNL A   1      49.889  27.067  30.501  1.00  0.00    -0.200 F 
ENDBRANCH  45  59
BRANCH  46  70
ATOM     70  C   UNL A   1      36.960  32.733  30.152  1.00  0.00     0.064 A 
ATOM     71  C   UNL A   1      36.529  33.479  29.044  1.00  0.00     0.173 A 
ATOM     72  C   UNL A   1      36.066  32.569  31.217  1.00  0.00     0.173 A 
ATOM     73  F   UNL A   1      37.348  33.657  27.997  1.00  0.00    -0.203 F 
ATOM     74  C   UNL A   1      35.264  34.061  29.016  1.00  0.00     0.198 A 
ATOM     75  C   UNL A   1      34.792  33.133  31.180  1.00  0.00     0.198 A 
ATOM     76  F   UNL A   1      36.424  31.841  32.285  1.00  0.00    -0.203 F 
ATOM     77  F   UNL A   1      34.888  34.794  27.960  1.00  0.00    -0.200 F 
ATOM     78  C   UNL A   1      34.396  33.886  30.083  1.00  0.00     0.200 A 
ATOM     79  F   UNL A   1      33.947  32.943  32.201  1.00  0.00    -0.200 F 
ATOM     80  F   UNL A   1      33.176  34.440  30.054  1.00  0.00    -0.200 F 
ENDBRANCH  46  70
BRANCH  58  81
ATOM     81  C   UNL A   1      42.986  34.871  32.943  1.00  0.00     0.064 A 
ATOM     82  C   UNL A   1      42.889  34.874  34.342  1.00  0.00     0.173 A 
ATOM     83  C   UNL A   1      43.376  36.057  32.305  1.00  0.00     0.173 A 
ATOM     84  F   UNL A   1      42.513  33.765  34.996  1.00  0.00    -0.203 F 
ATOM     85  C   UNL A   1      43.157  36.028  35.074  1.00  0.00     0.198 A 
ATOM     86  C   UNL A   1      43.662  37.203  33.041  1.00  0.00     0.198 A 
ATOM     87  F   UNL A   1      43.493  36.096  30.969  1.00  0.00    -0.203 F 
ATOM     88  F   UNL A   1      43.032  36.017  36.408  1.00  0.00    -0.200 F 
ATOM     89  C   UNL A   1      43.545  37.190  34.423  1.00  0.00     0.200 A 
ATOM     90  F   UNL A   1      44.054  38.319  32.413  1.00  0.00    -0.200 F 
ATOM     91  F   UNL A   1      43.806  38.298  35.129  1.00  0.00    -0.200 F 
ENDBRANCH  58  81
ENDBRANCH  32  33
ENDBRANCH  25  27
ENDBRANCH  24  25
ENDBRANCH  23  24
ENDBRANCH   1  23
TORSDOF 14
ENDMDL
MODEL 3
REMARK VINA RESULT:     -10.8      5.274     10.093
REMARK SMILES O=C(Cc1ccc(F)cc1F)Nc1sccc1C(=O)OCCOC(=O)c1ccc(-c2c3nc(c(-c4c(F)c(F)c(F)c(F)c4F)c4ccc([nH]4)c(-c4c(F)c(F)c(F)c(F)c4F)c4nc(c(-c5c(F)c(F)c(F)c(F)c5F)c5ccc2[nH]5)C=C4)C=C3)cc1
REMARK SMILES IDX 21 1 20 2 18 3 19 4 17 5 13 6 14 7 15 8 16 9 12 10 1 11 2 12
REMARK SMILES IDX 3 14 4 15 5 16 10 17 6 18 9 19 11 20 7 21 8 22 22 23 23 24
REMARK SMILES IDX 24 25 25 26 26 27 27 28 88 29 28 30 87 31 29 32 30 33 31 34
REMARK SMILES IDX 81 35 32 36 86 37 80 38 82 39 33 40 85 41 79 42 78 43 34 45
REMARK SMILES IDX 66 46 46 47 65 48 47 49 50 50 64 51 83 52 48 53 49 54 63 56
REMARK SMILES IDX 84 57 51 58 35 59 36 60 44 61 37 62 38 63 42 64 45 65 39 66
REMARK SMILES IDX 40 67 43 68 41 69 67 70 68 71 76 72 69 73 70 74 74 75 77 76
REMARK SMILES IDX 71 77 72 78 75 79 73 80 52 81 53 82 61 83 54 84 55 85 59 86
REMARK SMILES IDX 62 87 56 88 57 89 60 90 58 91
REMARK H PARENT 12 13 82 44 50 55
REMARK Flexibility Score: inf
ROOT
ATOM      1  C   UNL A   1      31.688  28.585  25.600  1.00  0.00     0.275 C 
ENDROOT
BRANCH   1   2
ATOM      2  O   UNL A   1      31.991  27.500  26.492  1.00  0.00    -0.458 OA
BRANCH   2   3
ATOM      3  C   UNL A   1      32.860  26.539  26.054  1.00  0.00     0.341 C 
ATOM      4  O   UNL A   1      34.038  26.740  25.790  1.00  0.00    -0.246 OA
BRANCH   3   5
ATOM      5  C   UNL A   1      32.291  25.192  26.122  1.00  0.00     0.094 A 
ATOM      6  C   UNL A   1      30.962  24.849  25.984  1.00  0.00     0.110 A 
ATOM      7  S   UNL A   1      30.616  23.271  26.525  1.00  0.00    -0.126 S 
ATOM      8  C   UNL A   1      32.278  22.907  26.679  1.00  0.00     0.068 A 
ATOM      9  C   UNL A   1      33.063  24.007  26.412  1.00  0.00     0.029 A 
BRANCH   6  10
ATOM     10  N   UNL A   1      29.848  25.495  25.505  1.00  0.00    -0.317 N 
ATOM     11  O   UNL A   1      30.508  25.557  23.277  1.00  0.00    -0.274 OA
ATOM     12  C   UNL A   1      29.710  25.834  24.169  1.00  0.00     0.229 C 
ATOM     13  H   UNL A   1      29.125  25.726  26.132  1.00  0.00     0.170 HD
BRANCH  12  14
ATOM     14  C   UNL A   1      28.399  26.538  23.871  1.00  0.00     0.139 C 
BRANCH  14  15
ATOM     15  C   UNL A   1      28.590  27.896  23.242  1.00  0.00    -0.003 A 
ATOM     16  C   UNL A   1      29.840  28.301  22.746  1.00  0.00     0.010 A 
ATOM     17  C   UNL A   1      27.509  28.781  23.126  1.00  0.00     0.129 A 
ATOM     18  C   UNL A   1      29.992  29.558  22.156  1.00  0.00     0.040 A 
ATOM     19  C   UNL A   1      27.653  30.030  22.533  1.00  0.00     0.078 A 
ATOM     20  F   UNL A   1      26.300  28.420  23.575  1.00  0.00    -0.207 F 
ATOM     21  C   UNL A   1      28.897  30.408  22.053  1.00  0.00     0.126 A 
ATOM     22  F   UNL A   1      29.049  31.605  21.475  1.00  0.00    -0.207 F 
ENDBRANCH  14  15
ENDBRANCH  12  14
ENDBRANCH   6  10
ENDBRANCH   3   5
ENDBRANCH   2   3
ENDBRANCH   1   2
BRANCH   1  23
ATOM     23  C   UNL A   1      31.784  29.920  26.342  1.00  0.00     0.275 C 
BRANCH  23  24
ATOM     24  O   UNL A   1      33.100  30.486  26.193  1.00  0.00    -0.458 OA
BRANCH  24  25
ATOM     25  C   UNL A   1      33.380  31.526  27.011  1.00  0.00     0.338 C 
ATOM     26  O   UNL A   1      32.683  32.495  27.253  1.00  0.00    -0.246 OA
BRANCH  25  27
ATOM     27  C   UNL A   1      34.616  31.219  27.747  1.00  0.00     0.060 A 
ATOM     28  C   UNL A   1      34.773  29.913  28.212  1.00  0.00     0.016 A 
ATOM     29  C   UNL A   1      35.591  32.185  28.000  1.00  0.00     0.016 A 
ATOM     30  C   UNL A   1      35.914  29.551  28.918  1.00  0.00     0.010 A 
ATOM     31  C   UNL A   1      36.734  31.826  28.725  1.00  0.00     0.010 A 
ATOM     32  C   UNL A   1      36.898  30.509  29.190  1.00  0.00    -0.014 A 
BRANCH  32  33
ATOM     33  C   UNL A   1      38.062  30.133  30.026  1.00  0.00     0.031 A 
ATOM     34  C   UNL A   1      39.125  29.245  29.454  1.00  0.00     0.074 A 
ATOM     35  C   UNL A   1      38.189  30.630  31.269  1.00  0.00     0.049 A 
ATOM     36  N   UNL A   1      40.181  28.738  30.035  1.00  0.00    -0.248 NA
ATOM     37  C   UNL A   1      38.982  28.881  28.035  1.00  0.00     0.031 C 
ATOM     38  C   UNL A   1      37.255  31.556  31.906  1.00  0.00     0.029 A 
ATOM     39  N   UNL A   1      39.163  30.431  32.215  1.00  0.00    -0.354 N 
ATOM     40  C   UNL A   1      40.811  27.972  29.066  1.00  0.00     0.074 A 
ATOM     41  C   UNL A   1      40.023  28.081  27.857  1.00  0.00     0.031 C 
ATOM     42  C   UNL A   1      37.705  31.853  33.136  1.00  0.00     0.029 A 
ATOM     43  C   UNL A   1      38.934  31.103  33.389  1.00  0.00     0.049 A 
ATOM     44  H   UNL A   1      39.951  29.859  32.064  1.00  0.00     0.167 HD
ATOM     45  C   UNL A   1      41.947  27.244  29.179  1.00  0.00     0.037 A 
ATOM     46  C   UNL A   1      39.624  31.093  34.545  1.00  0.00     0.037 A 
ATOM     47  C   UNL A   1      42.742  27.162  30.374  1.00  0.00     0.049 A 
ATOM     48  C   UNL A   1      40.858  30.240  34.661  1.00  0.00     0.074 A 
ATOM     49  C   UNL A   1      43.914  26.454  30.583  1.00  0.00     0.029 A 
ATOM     50  N   UNL A   1      42.452  27.819  31.560  1.00  0.00    -0.354 N 
ATOM     51  N   UNL A   1      41.426  29.485  33.753  1.00  0.00    -0.248 NA
ATOM     52  C   UNL A   1      41.537  30.225  35.964  1.00  0.00     0.031 C 
ATOM     53  C   UNL A   1      44.314  26.657  31.909  1.00  0.00     0.029 A 
ATOM     54  C   UNL A   1      43.413  27.519  32.512  1.00  0.00     0.049 A 
ATOM     55  H   UNL A   1      41.679  28.410  31.705  1.00  0.00     0.167 HD
ATOM     56  C   UNL A   1      42.526  28.906  34.370  1.00  0.00     0.074 A 
ATOM     57  C   UNL A   1      42.559  29.413  35.727  1.00  0.00     0.031 C 
ATOM     58  C   UNL A   1      43.423  28.028  33.860  1.00  0.00     0.037 A 
BRANCH  45  59
ATOM     59  C   UNL A   1      42.376  26.446  27.987  1.00  0.00     0.064 A 
ATOM     60  C   UNL A   1      43.247  27.007  27.041  1.00  0.00     0.173 A 
ATOM     61  C   UNL A   1      41.904  25.146  27.759  1.00  0.00     0.173 A 
ATOM     62  F   UNL A   1      43.726  28.249  27.215  1.00  0.00    -0.203 F 
ATOM     63  C   UNL A   1      43.624  26.298  25.905  1.00  0.00     0.198 A 
ATOM     64  C   UNL A   1      42.299  24.431  26.632  1.00  0.00     0.198 A 
ATOM     65  F   UNL A   1      41.083  24.561  28.644  1.00  0.00    -0.203 F 
ATOM     66  F   UNL A   1      44.443  26.860  25.005  1.00  0.00    -0.200 F 
ATOM     67  C   UNL A   1      43.152  25.008  25.703  1.00  0.00     0.200 A 
ATOM     68  F   UNL A   1      41.862  23.177  26.449  1.00  0.00    -0.200 F 
ATOM     69  F   UNL A   1      43.527  24.321  24.615  1.00  0.00    -0.200 F 
ENDBRANCH  45  59
BRANCH  46  70
ATOM     70  C   UNL A   1      39.141  31.903  35.691  1.00  0.00     0.064 A 
ATOM     71  C   UNL A   1      39.557  33.231  35.867  1.00  0.00     0.173 A 
ATOM     72  C   UNL A   1      38.278  31.356  36.648  1.00  0.00     0.173 A 
ATOM     73  F   UNL A   1      40.379  33.801  34.972  1.00  0.00    -0.203 F 
ATOM     74  C   UNL A   1      39.147  33.974  36.972  1.00  0.00     0.198 A 
ATOM     75  C   UNL A   1      37.851  32.106  37.743  1.00  0.00     0.198 A 
ATOM     76  F   UNL A   1      37.832  30.099  36.508  1.00  0.00    -0.203 F 
ATOM     77  F   UNL A   1      39.583  35.230  37.132  1.00  0.00    -0.200 F 
ATOM     78  C   UNL A   1      38.293  33.411  37.908  1.00  0.00     0.200 A 
ATOM     79  F   UNL A   1      37.006  31.568  38.632  1.00  0.00    -0.200 F 
ATOM     80  F   UNL A   1      37.893  34.128  38.967  1.00  0.00    -0.200 F 
ENDBRANCH  46  70
BRANCH  58  81
ATOM     81  C   UNL A   1      44.517  27.552  34.767  1.00  0.00     0.064 A 
ATOM     82  C   UNL A   1      44.331  26.424  35.579  1.00  0.00     0.173 A 
ATOM     83  C   UNL A   1      45.720  28.262  34.886  1.00  0.00     0.173 A 
ATOM     84  F   UNL A   1      43.193  25.718  35.504  1.00  0.00    -0.203 F 
ATOM     85  C   UNL A   1      45.308  26.031  36.489  1.00  0.00     0.198 A 
ATOM     86  C   UNL A   1      46.703  27.854  35.783  1.00  0.00     0.198 A 
ATOM     87  F   UNL A   1      45.946  29.341  34.121  1.00  0.00    -0.203 F 
ATOM     88  F   UNL A   1      45.099  24.966  37.275  1.00  0.00    -0.200 F 
ATOM     89  C   UNL A   1      46.493  26.744  36.589  1.00  0.00     0.200 A 
ATOM     90  F   UNL A   1      47.855  28.534  35.866  1.00  0.00    -0.200 F 
ATOM     91  F   UNL A   1      47.435  26.362  37.463  1.00  0.00    -0.200 F 
ENDBRANCH  58  81
ENDBRANCH  32  33
ENDBRANCH  25  27
ENDBRANCH  24  25
ENDBRANCH  23  24
ENDBRANCH   1  23
TORSDOF 14
ENDMDL
