MODEL 1
REMARK VINA RESULT:     -12.8      0.000      0.000
REMARK SMILES COc1ccc2c(c1)c(CC(=O)OCCOC(=O)c1ccc(-c3c4nc(c(-c5c(F)c(F)c(F)c(F)c5F)c5ccc([nH]5)c(-c5c(F)c(F)c(F)c(F)c5F)c5nc(c(-c6c(F)c(F)c(F)c(F)c6F)c6ccc3[nH]6)C=C5)C=C4)cc1)c(C)n2C(=O)c1ccc(Cl)cc1
REMARK SMILES IDX 14 1 13 2 11 3 12 4 10 5 9 6 3 7 4 8 8 9 5 10 7 11 6 12
REMARK SMILES IDX 84 13 82 14 83 15 2 16 1 17 85 18 86 19 87 20 88 21 93 22
REMARK SMILES IDX 89 23 92 24 90 25 91 26 15 27 16 28 17 29 18 30 19 31 20 32
REMARK SMILES IDX 81 33 21 34 80 35 22 36 23 37 24 38 74 39 25 40 79 41 73 42
REMARK SMILES IDX 75 43 26 44 78 45 72 46 71 47 27 49 59 50 39 51 58 52 40 53
REMARK SMILES IDX 43 54 57 55 76 56 41 57 42 58 56 60 77 61 44 62 28 63 29 64
REMARK SMILES IDX 37 65 30 66 31 67 35 68 38 69 32 70 33 71 36 72 34 73 60 74
REMARK SMILES IDX 61 75 69 76 62 77 63 78 67 79 70 80 64 81 65 82 68 83 66 84
REMARK SMILES IDX 45 85 46 86 54 87 47 88 48 89 52 90 55 91 49 92 50 93 53 94
REMARK SMILES IDX 51 95
REMARK H PARENT 75 48 43 59
REMARK Flexibility Score: inf
ROOT
ATOM      1  C   UNL A   1      37.534  21.915  25.551  1.00  0.00     0.274 C 
ENDROOT
BRANCH   1   2
ATOM      2  O   UNL A   1      37.178  21.521  24.207  1.00  0.00    -0.462 OA
BRANCH   2   3
ATOM      3  C   UNL A   1      36.325  22.353  23.567  1.00  0.00     0.310 C 
ATOM      4  O   UNL A   1      36.678  23.233  22.783  1.00  0.00    -0.252 OA
BRANCH   3   5
ATOM      5  C   UNL A   1      34.880  22.206  23.940  1.00  0.00     0.160 C 
BRANCH   5   6
ATOM      6  C   UNL A   1      33.951  23.385  24.055  1.00  0.00    -0.008 A 
ATOM      7  C   UNL A   1      32.815  25.315  20.898  1.00  0.00     0.119 A 
ATOM      8  C   UNL A   1      32.310  26.408  21.573  1.00  0.00     0.048 A 
ATOM      9  C   UNL A   1      33.290  24.217  21.638  1.00  0.00     0.057 A 
ATOM     10  C   UNL A   1      32.285  26.420  22.969  1.00  0.00     0.031 A 
ATOM     11  C   UNL A   1      33.358  24.226  23.053  1.00  0.00     0.008 A 
ATOM     12  C   UNL A   1      32.792  25.326  23.710  1.00  0.00     0.057 A 
ATOM     13  N   UNL A   1      32.838  25.068  25.089  1.00  0.00    -0.280 N 
ATOM     14  C   UNL A   1      33.720  24.008  25.279  1.00  0.00     0.028 A 
ATOM     15  C   UNL A   1      34.310  23.610  26.599  1.00  0.00     0.065 C 
BRANCH   7  16
ATOM     16  O   UNL A   1      32.911  25.199  19.538  1.00  0.00    -0.497 OA
ATOM     17  C   UNL A   1      31.778  25.578  18.759  1.00  0.00     0.278 C 
ENDBRANCH   7  16
BRANCH  13  18
ATOM     18  C   UNL A   1      32.130  25.766  26.103  1.00  0.00     0.262 C 
ATOM     19  O   UNL A   1      31.152  25.245  26.635  1.00  0.00    -0.268 OA
BRANCH  18  20
ATOM     20  C   UNL A   1      32.469  27.116  26.562  1.00  0.00     0.040 A 
ATOM     21  C   UNL A   1      31.456  27.989  26.972  1.00  0.00     0.015 A 
ATOM     22  C   UNL A   1      33.804  27.523  26.498  1.00  0.00     0.015 A 
ATOM     23  C   UNL A   1      31.781  29.313  27.258  1.00  0.00     0.021 A 
ATOM     24  C   UNL A   1      34.121  28.849  26.788  1.00  0.00     0.021 A 
ATOM     25  C   UNL A   1      33.108  29.740  27.153  1.00  0.00     0.041 A 
ATOM     26  Cl  UNL A   1      33.494  31.390  27.444  1.00  0.00    -0.084 Cl
ENDBRANCH  18  20
ENDBRANCH  13  18
ENDBRANCH   5   6
ENDBRANCH   3   5
ENDBRANCH   2   3
ENDBRANCH   1   2
BRANCH   1  27
ATOM     27  C   UNL A   1      38.997  21.567  25.845  1.00  0.00     0.275 C 
BRANCH  27  28
ATOM     28  O   UNL A   1      39.554  22.591  26.683  1.00  0.00    -0.458 OA
BRANCH  28  29
ATOM     29  C   UNL A   1      40.898  22.759  26.643  1.00  0.00     0.338 C 
ATOM     30  O   UNL A   1      41.730  22.002  26.174  1.00  0.00    -0.246 OA
BRANCH  29  31
ATOM     31  C   UNL A   1      41.113  24.186  26.934  1.00  0.00     0.060 A 
ATOM     32  C   UNL A   1      41.935  24.579  27.991  1.00  0.00     0.016 A 
ATOM     33  C   UNL A   1      40.259  25.100  26.316  1.00  0.00     0.016 A 
ATOM     34  C   UNL A   1      41.777  25.851  28.525  1.00  0.00     0.010 A 
ATOM     35  C   UNL A   1      40.053  26.338  26.890  1.00  0.00     0.010 A 
ATOM     36  C   UNL A   1      40.771  26.690  28.027  1.00  0.00    -0.014 A 
BRANCH  36  37
ATOM     37  C   UNL A   1      40.645  28.044  28.534  1.00  0.00     0.031 A 
ATOM     38  C   UNL A   1      41.714  28.934  28.034  1.00  0.00     0.074 A 
ATOM     39  C   UNL A   1      39.629  28.560  29.248  1.00  0.00     0.049 A 
ATOM     40  N   UNL A   1      42.742  29.352  28.691  1.00  0.00    -0.248 NA
ATOM     41  C   UNL A   1      41.718  29.285  26.606  1.00  0.00     0.031 C 
ATOM     42  C   UNL A   1      38.316  27.992  29.541  1.00  0.00     0.029 A 
ATOM     43  N   UNL A   1      39.570  29.798  29.820  1.00  0.00    -0.354 N 
ATOM     44  C   UNL A   1      43.458  30.137  27.802  1.00  0.00     0.074 A 
ATOM     45  C   UNL A   1      42.878  29.930  26.500  1.00  0.00     0.031 C 
ATOM     46  C   UNL A   1      37.527  28.952  30.088  1.00  0.00     0.029 A 
ATOM     47  C   UNL A   1      38.325  30.147  30.319  1.00  0.00     0.049 A 
ATOM     48  H   UNL A   1      40.351  30.395  29.876  1.00  0.00     0.167 HD
ATOM     49  C   UNL A   1      44.342  31.071  28.237  1.00  0.00     0.037 A 
ATOM     50  C   UNL A   1      37.995  31.352  30.847  1.00  0.00     0.037 A 
ATOM     51  C   UNL A   1      44.641  30.913  29.634  1.00  0.00     0.049 A 
ATOM     52  C   UNL A   1      39.255  32.004  31.285  1.00  0.00     0.074 A 
ATOM     53  C   UNL A   1      45.243  29.931  30.394  1.00  0.00     0.029 A 
ATOM     54  N   UNL A   1      43.936  31.700  30.509  1.00  0.00    -0.354 N 
ATOM     55  N   UNL A   1      39.991  31.595  32.281  1.00  0.00    -0.248 NA
ATOM     56  C   UNL A   1      39.896  32.956  30.390  1.00  0.00     0.031 C 
ATOM     57  C   UNL A   1      44.539  29.929  31.635  1.00  0.00     0.029 A 
ATOM     58  C   UNL A   1      43.566  30.929  31.583  1.00  0.00     0.049 A 
ATOM     59  H   UNL A   1      43.730  32.655  30.388  1.00  0.00     0.167 HD
ATOM     60  C   UNL A   1      41.290  31.889  31.900  1.00  0.00     0.074 A 
ATOM     61  C   UNL A   1      41.157  32.852  30.816  1.00  0.00     0.031 C 
ATOM     62  C   UNL A   1      42.330  31.110  32.314  1.00  0.00     0.037 A 
BRANCH  49  63
ATOM     63  C   UNL A   1      44.653  32.326  27.482  1.00  0.00     0.064 A 
ATOM     64  C   UNL A   1      45.886  32.456  26.824  1.00  0.00     0.173 A 
ATOM     65  C   UNL A   1      43.884  33.504  27.599  1.00  0.00     0.173 A 
ATOM     66  F   UNL A   1      46.711  31.404  26.708  1.00  0.00    -0.203 F 
ATOM     67  C   UNL A   1      46.328  33.688  26.336  1.00  0.00     0.198 A 
ATOM     68  C   UNL A   1      44.300  34.718  27.061  1.00  0.00     0.198 A 
ATOM     69  F   UNL A   1      42.763  33.544  28.333  1.00  0.00    -0.203 F 
ATOM     70  F   UNL A   1      47.553  33.792  25.804  1.00  0.00    -0.200 F 
ATOM     71  C   UNL A   1      45.532  34.815  26.449  1.00  0.00     0.200 A 
ATOM     72  F   UNL A   1      43.527  35.804  27.207  1.00  0.00    -0.200 F 
ATOM     73  F   UNL A   1      45.971  36.004  26.017  1.00  0.00    -0.200 F 
ENDBRANCH  49  63
BRANCH  50  74
ATOM     74  C   UNL A   1      36.722  32.110  30.771  1.00  0.00     0.064 A 
ATOM     75  C   UNL A   1      36.031  32.466  31.946  1.00  0.00     0.173 A 
ATOM     76  C   UNL A   1      36.336  32.776  29.595  1.00  0.00     0.173 A 
ATOM     77  F   UNL A   1      36.352  31.898  33.118  1.00  0.00    -0.203 F 
ATOM     78  C   UNL A   1      35.064  33.474  31.954  1.00  0.00     0.198 A 
ATOM     79  C   UNL A   1      35.362  33.778  29.602  1.00  0.00     0.198 A 
ATOM     80  F   UNL A   1      36.967  32.545  28.435  1.00  0.00    -0.203 F 
ATOM     81  F   UNL A   1      34.495  33.848  33.109  1.00  0.00    -0.200 F 
ATOM     82  C   UNL A   1      34.744  34.143  30.784  1.00  0.00     0.200 A 
ATOM     83  F   UNL A   1      35.082  34.440  28.471  1.00  0.00    -0.200 F 
ATOM     84  F   UNL A   1      33.878  35.166  30.804  1.00  0.00    -0.200 F 
ENDBRANCH  50  74
BRANCH  62  85
ATOM     85  C   UNL A   1      42.092  30.200  33.487  1.00  0.00     0.064 A 
ATOM     86  C   UNL A   1      41.666  28.864  33.386  1.00  0.00     0.173 A 
ATOM     87  C   UNL A   1      42.423  30.677  34.763  1.00  0.00     0.173 A 
ATOM     88  F   UNL A   1      41.417  28.305  32.196  1.00  0.00    -0.203 F 
ATOM     89  C   UNL A   1      41.539  28.061  34.520  1.00  0.00     0.198 A 
ATOM     90  C   UNL A   1      42.336  29.861  35.887  1.00  0.00     0.198 A 
ATOM     91  F   UNL A   1      42.878  31.931  34.915  1.00  0.00    -0.203 F 
ATOM     92  F   UNL A   1      41.113  26.795  34.403  1.00  0.00    -0.200 F 
ATOM     93  C   UNL A   1      41.884  28.557  35.766  1.00  0.00     0.200 A 
ATOM     94  F   UNL A   1      42.713  30.332  37.084  1.00  0.00    -0.200 F 
ATOM     95  F   UNL A   1      41.804  27.772  36.850  1.00  0.00    -0.200 F 
ENDBRANCH  62  85
ENDBRANCH  36  37
ENDBRANCH  29  31
ENDBRANCH  28  29
ENDBRANCH  27  28
ENDBRANCH   1  27
TORSDOF 15
ENDMDL
MODEL 2
REMARK VINA RESULT:     -12.7      1.769      3.073
REMARK SMILES COc1ccc2c(c1)c(CC(=O)OCCOC(=O)c1ccc(-c3c4nc(c(-c5c(F)c(F)c(F)c(F)c5F)c5ccc([nH]5)c(-c5c(F)c(F)c(F)c(F)c5F)c5nc(c(-c6c(F)c(F)c(F)c(F)c6F)c6ccc3[nH]6)C=C5)C=C4)cc1)c(C)n2C(=O)c1ccc(Cl)cc1
REMARK SMILES IDX 14 1 13 2 11 3 12 4 10 5 9 6 3 7 4 8 8 9 5 10 7 11 6 12
REMARK SMILES IDX 84 13 82 14 83 15 2 16 1 17 85 18 86 19 87 20 88 21 93 22
REMARK SMILES IDX 89 23 92 24 90 25 91 26 15 27 16 28 17 29 18 30 19 31 20 32
REMARK SMILES IDX 81 33 21 34 80 35 22 36 23 37 24 38 74 39 25 40 79 41 73 42
REMARK SMILES IDX 75 43 26 44 78 45 72 46 71 47 27 49 59 50 39 51 58 52 40 53
REMARK SMILES IDX 43 54 57 55 76 56 41 57 42 58 56 60 77 61 44 62 28 63 29 64
REMARK SMILES IDX 37 65 30 66 31 67 35 68 38 69 32 70 33 71 36 72 34 73 60 74
REMARK SMILES IDX 61 75 69 76 62 77 63 78 67 79 70 80 64 81 65 82 68 83 66 84
REMARK SMILES IDX 45 85 46 86 54 87 47 88 48 89 52 90 55 91 49 92 50 93 53 94
REMARK SMILES IDX 51 95
REMARK H PARENT 75 48 43 59
REMARK Flexibility Score: inf
ROOT
ATOM      1  C   UNL A   1      36.536  22.048  25.563  1.00  0.00     0.274 C 
ENDROOT
BRANCH   1   2
ATOM      2  O   UNL A   1      36.241  23.446  25.776  1.00  0.00    -0.462 OA
BRANCH   2   3
ATOM      3  C   UNL A   1      34.932  23.779  25.711  1.00  0.00     0.310 C 
ATOM      4  O   UNL A   1      34.066  23.318  26.454  1.00  0.00    -0.252 OA
BRANCH   3   5
ATOM      5  C   UNL A   1      34.556  24.702  24.591  1.00  0.00     0.160 C 
BRANCH   5   6
ATOM      6  C   UNL A   1      33.410  25.672  24.693  1.00  0.00    -0.008 A 
ATOM      7  C   UNL A   1      33.624  28.738  27.046  1.00  0.00     0.119 A 
ATOM      8  C   UNL A   1      32.279  29.044  27.004  1.00  0.00     0.048 A 
ATOM      9  C   UNL A   1      34.112  27.698  26.234  1.00  0.00     0.057 A 
ATOM     10  C   UNL A   1      31.420  28.320  26.174  1.00  0.00     0.031 A 
ATOM     11  C   UNL A   1      33.260  26.887  25.444  1.00  0.00     0.008 A 
ATOM     12  C   UNL A   1      31.910  27.254  25.382  1.00  0.00     0.057 A 
ATOM     13  N   UNL A   1      31.283  26.418  24.444  1.00  0.00    -0.280 N 
ATOM     14  C   UNL A   1      32.145  25.351  24.206  1.00  0.00     0.028 A 
ATOM     15  C   UNL A   1      31.758  24.073  23.525  1.00  0.00     0.065 C 
BRANCH   7  16
ATOM     16  O   UNL A   1      34.554  29.361  27.833  1.00  0.00    -0.497 OA
ATOM     17  C   UNL A   1      34.705  30.771  27.691  1.00  0.00     0.278 C 
ENDBRANCH   7  16
BRANCH  13  18
ATOM     18  C   UNL A   1      30.005  26.614  23.859  1.00  0.00     0.262 C 
ATOM     19  O   UNL A   1      29.156  25.729  23.933  1.00  0.00    -0.268 OA
BRANCH  18  20
ATOM     20  C   UNL A   1      29.613  27.821  23.125  1.00  0.00     0.040 A 
ATOM     21  C   UNL A   1      30.585  28.589  22.474  1.00  0.00     0.015 A 
ATOM     22  C   UNL A   1      28.275  28.219  23.168  1.00  0.00     0.015 A 
ATOM     23  C   UNL A   1      30.217  29.810  21.914  1.00  0.00     0.021 A 
ATOM     24  C   UNL A   1      27.914  29.441  22.602  1.00  0.00     0.021 A 
ATOM     25  C   UNL A   1      28.887  30.236  21.992  1.00  0.00     0.041 A 
ATOM     26  Cl  UNL A   1      28.451  31.772  21.356  1.00  0.00    -0.084 Cl
ENDBRANCH  18  20
ENDBRANCH  13  18
ENDBRANCH   5   6
ENDBRANCH   3   5
ENDBRANCH   2   3
ENDBRANCH   1   2
BRANCH   1  27
ATOM     27  C   UNL A   1      38.048  21.804  25.599  1.00  0.00     0.275 C 
BRANCH  27  28
ATOM     28  O   UNL A   1      38.641  22.732  26.520  1.00  0.00    -0.458 OA
BRANCH  28  29
ATOM     29  C   UNL A   1      39.985  22.666  26.684  1.00  0.00     0.338 C 
ATOM     30  O   UNL A   1      40.730  21.754  26.373  1.00  0.00    -0.246 OA
BRANCH  29  31
ATOM     31  C   UNL A   1      40.404  24.051  26.959  1.00  0.00     0.060 A 
ATOM     32  C   UNL A   1      41.333  24.326  27.963  1.00  0.00     0.016 A 
ATOM     33  C   UNL A   1      39.640  25.074  26.394  1.00  0.00     0.016 A 
ATOM     34  C   UNL A   1      41.377  25.604  28.504  1.00  0.00     0.010 A 
ATOM     35  C   UNL A   1      39.635  26.324  26.979  1.00  0.00     0.010 A 
ATOM     36  C   UNL A   1      40.462  26.571  28.068  1.00  0.00    -0.014 A 
BRANCH  36  37
ATOM     37  C   UNL A   1      40.546  27.926  28.580  1.00  0.00     0.031 A 
ATOM     38  C   UNL A   1      41.724  28.652  28.061  1.00  0.00     0.074 A 
ATOM     39  C   UNL A   1      39.631  28.582  29.316  1.00  0.00     0.049 A 
ATOM     40  N   UNL A   1      42.815  28.910  28.698  1.00  0.00    -0.248 NA
ATOM     41  C   UNL A   1      41.752  29.005  26.634  1.00  0.00     0.031 C 
ATOM     42  C   UNL A   1      38.255  28.212  29.635  1.00  0.00     0.029 A 
ATOM     43  N   UNL A   1      39.767  29.812  29.892  1.00  0.00    -0.354 N 
ATOM     44  C   UNL A   1      43.621  29.586  27.796  1.00  0.00     0.074 A 
ATOM     45  C   UNL A   1      42.992  29.474  26.506  1.00  0.00     0.031 C 
ATOM     46  C   UNL A   1      37.627  29.274  30.199  1.00  0.00     0.029 A 
ATOM     47  C   UNL A   1      38.596  30.338  30.417  1.00  0.00     0.049 A 
ATOM     48  H   UNL A   1      40.627  30.288  29.933  1.00  0.00     0.167 HD
ATOM     49  C   UNL A   1      44.642  30.378  28.215  1.00  0.00     0.037 A 
ATOM     50  C   UNL A   1      38.457  31.576  30.954  1.00  0.00     0.037 A 
ATOM     51  C   UNL A   1      44.942  30.170  29.605  1.00  0.00     0.049 A 
ATOM     52  C   UNL A   1      39.808  32.033  31.368  1.00  0.00     0.074 A 
ATOM     53  C   UNL A   1      45.407  29.107  30.351  1.00  0.00     0.029 A 
ATOM     54  N   UNL A   1      44.377  31.048  30.496  1.00  0.00    -0.354 N 
ATOM     55  N   UNL A   1      40.496  31.515  32.347  1.00  0.00    -0.248 NA
ATOM     56  C   UNL A   1      40.565  32.885  30.461  1.00  0.00     0.031 C 
ATOM     57  C   UNL A   1      44.735  29.202  31.605  1.00  0.00     0.029 A 
ATOM     58  C   UNL A   1      43.920  30.335  31.575  1.00  0.00     0.049 A 
ATOM     59  H   UNL A   1      44.312  32.024  30.381  1.00  0.00     0.167 HD
ATOM     60  C   UNL A   1      41.817  31.617  31.941  1.00  0.00     0.074 A 
ATOM     61  C   UNL A   1      41.805  32.595  30.861  1.00  0.00     0.031 C 
ATOM     62  C   UNL A   1      42.738  30.691  32.332  1.00  0.00     0.037 A 
BRANCH  49  63
ATOM     63  C   UNL A   1      45.119  31.577  27.456  1.00  0.00     0.064 A 
ATOM     64  C   UNL A   1      46.444  31.630  26.996  1.00  0.00     0.173 A 
ATOM     65  C   UNL A   1      44.390  32.785  27.390  1.00  0.00     0.173 A 
ATOM     66  F   UNL A   1      47.233  30.546  27.067  1.00  0.00    -0.203 F 
ATOM     67  C   UNL A   1      47.007  32.817  26.524  1.00  0.00     0.198 A 
ATOM     68  C   UNL A   1      44.935  33.952  26.864  1.00  0.00     0.198 A 
ATOM     69  F   UNL A   1      43.170  32.902  27.933  1.00  0.00    -0.203 F 
ATOM     70  F   UNL A   1      48.304  32.851  26.189  1.00  0.00    -0.200 F 
ATOM     71  C   UNL A   1      46.250  33.974  26.452  1.00  0.00     0.200 A 
ATOM     72  F   UNL A   1      44.195  35.069  26.830  1.00  0.00    -0.200 F 
ATOM     73  F   UNL A   1      46.801  35.122  26.035  1.00  0.00    -0.200 F 
ENDBRANCH  49  63
BRANCH  50  74
ATOM     74  C   UNL A   1      37.309  32.513  30.906  1.00  0.00     0.064 A 
ATOM     75  C   UNL A   1      37.030  33.241  29.733  1.00  0.00     0.173 A 
ATOM     76  C   UNL A   1      36.285  32.467  31.868  1.00  0.00     0.173 A 
ATOM     77  F   UNL A   1      37.940  33.316  28.750  1.00  0.00    -0.203 F 
ATOM     78  C   UNL A   1      35.781  33.826  29.510  1.00  0.00     0.198 A 
ATOM     79  C   UNL A   1      35.040  33.060  31.648  1.00  0.00     0.198 A 
ATOM     80  F   UNL A   1      36.433  31.757  32.996  1.00  0.00    -0.203 F 
ATOM     81  F   UNL A   1      35.524  34.432  28.341  1.00  0.00    -0.200 F 
ATOM     82  C   UNL A   1      34.780  33.719  30.460  1.00  0.00     0.200 A 
ATOM     83  F   UNL A   1      34.069  32.924  32.562  1.00  0.00    -0.200 F 
ATOM     84  F   UNL A   1      33.556  34.208  30.214  1.00  0.00    -0.200 F 
ENDBRANCH  50  74
BRANCH  62  85
ATOM     85  C   UNL A   1      42.392  29.821  33.508  1.00  0.00     0.064 A 
ATOM     86  C   UNL A   1      41.796  28.551  33.411  1.00  0.00     0.173 A 
ATOM     87  C   UNL A   1      42.790  30.251  34.781  1.00  0.00     0.173 A 
ATOM     88  F   UNL A   1      41.470  28.028  32.223  1.00  0.00    -0.203 F 
ATOM     89  C   UNL A   1      41.575  27.771  34.547  1.00  0.00     0.198 A 
ATOM     90  C   UNL A   1      42.605  29.454  35.906  1.00  0.00     0.198 A 
ATOM     91  F   UNL A   1      43.405  31.436  34.928  1.00  0.00    -0.203 F 
ATOM     92  F   UNL A   1      40.988  26.571  34.434  1.00  0.00    -0.200 F 
ATOM     93  C   UNL A   1      41.989  28.219  35.790  1.00  0.00     0.200 A 
ATOM     94  F   UNL A   1      43.048  29.873  37.100  1.00  0.00    -0.200 F 
ATOM     95  F   UNL A   1      41.815  27.452  36.875  1.00  0.00    -0.200 F 
ENDBRANCH  62  85
ENDBRANCH  36  37
ENDBRANCH  29  31
ENDBRANCH  28  29
ENDBRANCH  27  28
ENDBRANCH   1  27
TORSDOF 15
ENDMDL
MODEL 3
REMARK VINA RESULT:     -12.7      1.998      2.964
REMARK SMILES COc1ccc2c(c1)c(CC(=O)OCCOC(=O)c1ccc(-c3c4nc(c(-c5c(F)c(F)c(F)c(F)c5F)c5ccc([nH]5)c(-c5c(F)c(F)c(F)c(F)c5F)c5nc(c(-c6c(F)c(F)c(F)c(F)c6F)c6ccc3[nH]6)C=C5)C=C4)cc1)c(C)n2C(=O)c1ccc(Cl)cc1
REMARK SMILES IDX 14 1 13 2 11 3 12 4 10 5 9 6 3 7 4 8 8 9 5 10 7 11 6 12
REMARK SMILES IDX 84 13 82 14 83 15 2 16 1 17 85 18 86 19 87 20 88 21 93 22
REMARK SMILES IDX 89 23 92 24 90 25 91 26 15 27 16 28 17 29 18 30 19 31 20 32
REMARK SMILES IDX 81 33 21 34 80 35 22 36 23 37 24 38 74 39 25 40 79 41 73 42
REMARK SMILES IDX 75 43 26 44 78 45 72 46 71 47 27 49 59 50 39 51 58 52 40 53
REMARK SMILES IDX 43 54 57 55 76 56 41 57 42 58 56 60 77 61 44 62 28 63 29 64
REMARK SMILES IDX 37 65 30 66 31 67 35 68 38 69 32 70 33 71 36 72 34 73 60 74
REMARK SMILES IDX 61 75 69 76 62 77 63 78 67 79 70 80 64 81 65 82 68 83 66 84
REMARK SMILES IDX 45 85 46 86 54 87 47 88 48 89 52 90 55 91 49 92 50 93 53 94
REMARK SMILES IDX 51 95
REMARK H PARENT 75 48 43 59
REMARK Flexibility Score: inf
ROOT
ATOM      1  C   UNL A   1      40.020  21.479  26.782  1.00  0.00     0.274 C 
ENDROOT
BRANCH   1   2
ATOM      2  O   UNL A   1      39.026  21.281  25.751  1.00  0.00    -0.462 OA
BRANCH   2   3
ATOM      3  C   UNL A   1      38.131  22.285  25.610  1.00  0.00     0.310 C 
ATOM      4  O   UNL A   1      38.139  23.316  26.281  1.00  0.00    -0.252 OA
BRANCH   3   5
ATOM      5  C   UNL A   1      37.032  22.034  24.621  1.00  0.00     0.160 C 
BRANCH   5   6
ATOM      6  C   UNL A   1      35.607  21.794  25.041  1.00  0.00    -0.008 A 
ATOM      7  C   UNL A   1      33.930  18.355  24.452  1.00  0.00     0.119 A 
ATOM      8  C   UNL A   1      32.639  18.784  24.685  1.00  0.00     0.048 A 
ATOM      9  C   UNL A   1      34.992  19.257  24.644  1.00  0.00     0.057 A 
ATOM     10  C   UNL A   1      32.399  20.098  25.093  1.00  0.00     0.031 A 
ATOM     11  C   UNL A   1      34.784  20.618  24.976  1.00  0.00     0.008 A 
ATOM     12  C   UNL A   1      33.469  21.011  25.255  1.00  0.00     0.057 A 
ATOM     13  N   UNL A   1      33.506  22.343  25.695  1.00  0.00    -0.280 N 
ATOM     14  C   UNL A   1      34.758  22.851  25.358  1.00  0.00     0.028 A 
ATOM     15  C   UNL A   1      35.118  24.307  25.351  1.00  0.00     0.065 C 
BRANCH   7  16
ATOM     16  O   UNL A   1      34.284  17.103  24.030  1.00  0.00    -0.497 OA
ATOM     17  C   UNL A   1      34.806  16.199  25.001  1.00  0.00     0.278 C 
ENDBRANCH   7  16
BRANCH  13  18
ATOM     18  C   UNL A   1      32.460  23.047  26.348  1.00  0.00     0.262 C 
ATOM     19  O   UNL A   1      32.268  22.879  27.551  1.00  0.00    -0.268 OA
BRANCH  18  20
ATOM     20  C   UNL A   1      31.543  23.969  25.673  1.00  0.00     0.040 A 
ATOM     21  C   UNL A   1      31.195  23.753  24.336  1.00  0.00     0.015 A 
ATOM     22  C   UNL A   1      31.102  25.096  26.370  1.00  0.00     0.015 A 
ATOM     23  C   UNL A   1      30.447  24.721  23.668  1.00  0.00     0.021 A 
ATOM     24  C   UNL A   1      30.351  26.058  25.696  1.00  0.00     0.021 A 
ATOM     25  C   UNL A   1      30.040  25.873  24.347  1.00  0.00     0.041 A 
ATOM     26  Cl  UNL A   1      29.173  27.093  23.501  1.00  0.00    -0.084 Cl
ENDBRANCH  18  20
ENDBRANCH  13  18
ENDBRANCH   5   6
ENDBRANCH   3   5
ENDBRANCH   2   3
ENDBRANCH   1   2
BRANCH   1  27
ATOM     27  C   UNL A   1      41.428  21.260  26.222  1.00  0.00     0.275 C 
BRANCH  27  28
ATOM     28  O   UNL A   1      42.325  22.180  26.863  1.00  0.00    -0.458 OA
BRANCH  28  29
ATOM     29  C   UNL A   1      42.697  23.275  26.157  1.00  0.00     0.338 C 
ATOM     30  O   UNL A   1      43.203  23.311  25.049  1.00  0.00    -0.246 OA
BRANCH  29  31
ATOM     31  C   UNL A   1      42.028  24.405  26.824  1.00  0.00     0.060 A 
ATOM     32  C   UNL A   1      41.131  25.214  26.125  1.00  0.00     0.016 A 
ATOM     33  C   UNL A   1      42.531  24.802  28.064  1.00  0.00     0.016 A 
ATOM     34  C   UNL A   1      40.868  26.490  26.602  1.00  0.00     0.010 A 
ATOM     35  C   UNL A   1      42.324  26.096  28.501  1.00  0.00     0.010 A 
ATOM     36  C   UNL A   1      41.539  26.955  27.741  1.00  0.00    -0.014 A 
BRANCH  36  37
ATOM     37  C   UNL A   1      41.220  28.262  28.284  1.00  0.00     0.031 A 
ATOM     38  C   UNL A   1      42.219  29.285  27.912  1.00  0.00     0.074 A 
ATOM     39  C   UNL A   1      40.097  28.631  28.925  1.00  0.00     0.049 A 
ATOM     40  N   UNL A   1      43.136  29.782  28.670  1.00  0.00    -0.248 NA
ATOM     41  C   UNL A   1      42.302  29.699  26.503  1.00  0.00     0.031 C 
ATOM     42  C   UNL A   1      38.836  27.910  29.082  1.00  0.00     0.029 A 
ATOM     43  N   UNL A   1      39.852  29.828  29.534  1.00  0.00    -0.354 N 
ATOM     44  C   UNL A   1      43.830  30.680  27.876  1.00  0.00     0.074 A 
ATOM     45  C   UNL A   1      43.387  30.471  26.522  1.00  0.00     0.031 C 
ATOM     46  C   UNL A   1      37.902  28.753  29.592  1.00  0.00     0.029 A 
ATOM     47  C   UNL A   1      38.538  30.016  29.934  1.00  0.00     0.049 A 
ATOM     48  H   UNL A   1      40.553  30.504  29.679  1.00  0.00     0.167 HD
ATOM     49  C   UNL A   1      44.565  31.684  28.419  1.00  0.00     0.037 A 
ATOM     50  C   UNL A   1      38.032  31.153  30.475  1.00  0.00     0.037 A 
ATOM     51  C   UNL A   1      44.763  31.497  29.830  1.00  0.00     0.049 A 
ATOM     52  C   UNL A   1      39.171  31.917  31.044  1.00  0.00     0.074 A 
ATOM     53  C   UNL A   1      45.407  30.552  30.604  1.00  0.00     0.029 A 
ATOM     54  N   UNL A   1      43.904  32.161  30.668  1.00  0.00    -0.354 N 
ATOM     55  N   UNL A   1      39.863  31.547  32.085  1.00  0.00    -0.248 NA
ATOM     56  C   UNL A   1      39.772  32.974  30.243  1.00  0.00     0.031 C 
ATOM     57  C   UNL A   1      44.607  30.417  31.778  1.00  0.00     0.029 A 
ATOM     58  C   UNL A   1      43.536  31.307  31.677  1.00  0.00     0.049 A 
ATOM     59  H   UNL A   1      43.603  33.093  30.564  1.00  0.00     0.167 HD
ATOM     60  C   UNL A   1      41.148  31.998  31.830  1.00  0.00     0.074 A 
ATOM     61  C   UNL A   1      40.998  32.989  30.773  1.00  0.00     0.031 C 
ATOM     62  C   UNL A   1      42.232  31.318  32.304  1.00  0.00     0.037 A 
BRANCH  49  63
ATOM     63  C   UNL A   1      44.794  32.999  27.740  1.00  0.00     0.064 A 
ATOM     64  C   UNL A   1      46.068  33.314  27.244  1.00  0.00     0.173 A 
ATOM     65  C   UNL A   1      43.866  34.062  27.789  1.00  0.00     0.173 A 
ATOM     66  F   UNL A   1      47.035  32.384  27.206  1.00  0.00    -0.203 F 
ATOM     67  C   UNL A   1      46.397  34.612  26.845  1.00  0.00     0.198 A 
ATOM     68  C   UNL A   1      44.178  35.340  27.336  1.00  0.00     0.198 A 
ATOM     69  F   UNL A   1      42.669  33.925  28.377  1.00  0.00    -0.203 F 
ATOM     70  F   UNL A   1      47.652  34.895  26.473  1.00  0.00    -0.200 F 
ATOM     71  C   UNL A   1      45.450  35.621  26.886  1.00  0.00     0.200 A 
ATOM     72  F   UNL A   1      43.255  36.310  27.411  1.00  0.00    -0.200 F 
ATOM     73  F   UNL A   1      45.775  36.873  26.541  1.00  0.00    -0.200 F 
ENDBRANCH  49  63
BRANCH  50  74
ATOM     74  C   UNL A   1      36.693  31.770  30.316  1.00  0.00     0.064 A 
ATOM     75  C   UNL A   1      35.852  31.949  31.431  1.00  0.00     0.173 A 
ATOM     76  C   UNL A   1      36.350  32.485  29.155  1.00  0.00     0.173 A 
ATOM     77  F   UNL A   1      36.119  31.325  32.588  1.00  0.00    -0.203 F 
ATOM     78  C   UNL A   1      34.777  32.842  31.406  1.00  0.00     0.198 A 
ATOM     79  C   UNL A   1      35.269  33.370  29.128  1.00  0.00     0.198 A 
ATOM     80  F   UNL A   1      37.115  32.422  28.057  1.00  0.00    -0.203 F 
ATOM     81  F   UNL A   1      34.056  33.053  32.517  1.00  0.00    -0.200 F 
ATOM     82  C   UNL A   1      34.497  33.565  30.259  1.00  0.00     0.200 A 
ATOM     83  F   UNL A   1      35.027  34.088  28.023  1.00  0.00    -0.200 F 
ATOM     84  F   UNL A   1      33.519  34.482  30.258  1.00  0.00    -0.200 F 
ENDBRANCH  50  74
BRANCH  62  85
ATOM     85  C   UNL A   1      42.001  30.336  33.419  1.00  0.00     0.064 A 
ATOM     86  C   UNL A   1      41.652  28.987  33.232  1.00  0.00     0.173 A 
ATOM     87  C   UNL A   1      42.259  30.760  34.729  1.00  0.00     0.173 A 
ATOM     88  F   UNL A   1      41.478  28.480  32.006  1.00  0.00    -0.203 F 
ATOM     89  C   UNL A   1      41.529  28.118  34.317  1.00  0.00     0.198 A 
ATOM     90  C   UNL A   1      42.176  29.882  35.805  1.00  0.00     0.198 A 
ATOM     91  F   UNL A   1      42.639  32.027  34.964  1.00  0.00    -0.203 F 
ATOM     92  F   UNL A   1      41.178  26.839  34.119  1.00  0.00    -0.200 F 
ATOM     93  C   UNL A   1      41.801  28.564  35.600  1.00  0.00     0.200 A 
ATOM     94  F   UNL A   1      42.484  30.307  37.039  1.00  0.00    -0.200 F 
ATOM     95  F   UNL A   1      41.725  27.719  36.638  1.00  0.00    -0.200 F 
ENDBRANCH  62  85
ENDBRANCH  36  37
ENDBRANCH  29  31
ENDBRANCH  28  29
ENDBRANCH  27  28
ENDBRANCH   1  27
TORSDOF 15
ENDMDL
