MODEL 1
REMARK VINA RESULT:     -11.0      0.000      0.000
REMARK SMILES COCC[C@H](NC(=O)c1ccc(Br)nc1)C(=O)OCCOC(=O)c1ccc(-c2c3nc(c(-c4c(F)c(F)c(F)c(F)c4F)c4ccc([nH]4)c(-c4c(F)c(F)c(F)c(F)c4F)c4nc(c(-c5c(F)c(F)c(F)c(F)c5F)c5ccc2[nH]5)C=C4)C=C3)cc1
REMARK SMILES IDX 19 1 18 2 16 3 17 4 5 5 4 6 3 7 2 8 1 9 6 10 7 11 8 13 9 14
REMARK SMILES IDX 10 15 15 16 11 17 14 18 12 19 13 20 20 21 21 22 22 23 23 24
REMARK SMILES IDX 24 25 25 26 86 27 26 28 85 29 27 30 28 31 29 32 79 33 30 34
REMARK SMILES IDX 84 35 78 36 80 37 31 38 83 39 77 40 76 41 32 43 64 44 44 45
REMARK SMILES IDX 63 46 45 47 48 48 62 49 81 50 46 51 47 52 61 54 82 55 49 56
REMARK SMILES IDX 33 57 34 58 42 59 35 60 36 61 40 62 43 63 37 64 38 65 41 66
REMARK SMILES IDX 39 67 65 68 66 69 74 70 67 71 68 72 72 73 75 74 69 75 70 76
REMARK SMILES IDX 73 77 71 78 50 79 51 80 59 81 52 82 53 83 57 84 60 85 54 86
REMARK SMILES IDX 55 87 58 88 56 89
REMARK H PARENT 6 12 80 42 48 53
REMARK Flexibility Score: inf
ROOT
ATOM      1  C   UNL A   1      31.732  29.479  25.246  1.00  0.00     0.274 C 
ENDROOT
BRANCH   1   2
ATOM      2  O   UNL A   1      32.399  28.432  25.980  1.00  0.00    -0.461 OA
BRANCH   2   3
ATOM      3  C   UNL A   1      31.602  27.568  26.660  1.00  0.00     0.328 C 
ATOM      4  O   UNL A   1      31.028  27.831  27.712  1.00  0.00    -0.250 OA
BRANCH   3   5
ATOM      5  C   UNL A   1      31.396  26.227  25.920  1.00  0.00     0.194 C 
BRANCH   5   6
ATOM      6  C   UNL A   1      30.409  26.383  24.754  1.00  0.00     0.065 C 
BRANCH   6   7
ATOM      7  C   UNL A   1      30.992  25.945  23.402  1.00  0.00     0.162 C 
BRANCH   7   8
ATOM      8  O   UNL A   1      32.112  26.750  23.030  1.00  0.00    -0.385 OA
ATOM      9  C   UNL A   1      33.250  26.004  22.624  1.00  0.00     0.194 C 
ENDBRANCH   7   8
ENDBRANCH   6   7
ENDBRANCH   5   6
BRANCH   5  10
ATOM     10  N   UNL A   1      31.189  25.028  26.744  1.00  0.00    -0.338 N 
ATOM     11  C   UNL A   1      31.895  23.867  26.862  1.00  0.00     0.253 C 
ATOM     12  H   UNL A   1      30.392  25.071  27.319  1.00  0.00     0.164 HD
ATOM     13  O   UNL A   1      31.533  22.981  27.626  1.00  0.00    -0.269 OA
BRANCH  11  14
ATOM     14  C   UNL A   1      33.071  23.648  26.028  1.00  0.00     0.058 A 
ATOM     15  C   UNL A   1      34.336  24.082  26.409  1.00  0.00     0.018 A 
ATOM     16  C   UNL A   1      32.925  22.953  24.839  1.00  0.00     0.126 A 
ATOM     17  C   UNL A   1      35.402  23.874  25.538  1.00  0.00     0.037 A 
ATOM     18  N   UNL A   1      33.944  22.739  23.976  1.00  0.00    -0.249 NA
ATOM     19  C   UNL A   1      35.159  23.210  24.340  1.00  0.00     0.106 A 
ATOM     20  Br  UNL A   1      36.596  22.953  23.131  1.00  0.00    -0.029 Br
ENDBRANCH  11  14
ENDBRANCH   5  10
ENDBRANCH   3   5
ENDBRANCH   2   3
ENDBRANCH   1   2
BRANCH   1  21
ATOM     21  C   UNL A   1      31.663  30.773  26.066  1.00  0.00     0.275 C 
BRANCH  21  22
ATOM     22  O   UNL A   1      32.535  30.742  27.216  1.00  0.00    -0.458 OA
BRANCH  22  23
ATOM     23  C   UNL A   1      33.312  31.833  27.369  1.00  0.00     0.338 C 
ATOM     24  O   UNL A   1      32.964  33.009  27.313  1.00  0.00    -0.246 OA
BRANCH  23  25
ATOM     25  C   UNL A   1      34.669  31.463  27.788  1.00  0.00     0.060 A 
ATOM     26  C   UNL A   1      34.881  30.129  28.132  1.00  0.00     0.016 A 
ATOM     27  C   UNL A   1      35.669  32.412  28.006  1.00  0.00     0.016 A 
ATOM     28  C   UNL A   1      36.052  29.742  28.761  1.00  0.00     0.010 A 
ATOM     29  C   UNL A   1      36.876  32.010  28.600  1.00  0.00     0.010 A 
ATOM     30  C   UNL A   1      37.062  30.678  29.010  1.00  0.00    -0.014 A 
BRANCH  30  31
ATOM     31  C   UNL A   1      38.263  30.226  29.757  1.00  0.00     0.031 A 
ATOM     32  C   UNL A   1      38.466  30.644  31.187  1.00  0.00     0.074 A 
ATOM     33  C   UNL A   1      39.108  29.344  29.189  1.00  0.00     0.049 A 
ATOM     34  N   UNL A   1      39.452  30.358  32.001  1.00  0.00    -0.248 NA
ATOM     35  C   UNL A   1      37.421  31.488  31.785  1.00  0.00     0.031 C 
ATOM     36  C   UNL A   1      38.978  28.808  27.834  1.00  0.00     0.029 A 
ATOM     37  N   UNL A   1      40.221  28.719  29.690  1.00  0.00    -0.354 N 
ATOM     38  C   UNL A   1      39.166  31.016  33.189  1.00  0.00     0.074 A 
ATOM     39  C   UNL A   1      37.916  31.718  32.993  1.00  0.00     0.031 C 
ATOM     40  C   UNL A   1      39.947  27.904  27.624  1.00  0.00     0.029 A 
ATOM     41  C   UNL A   1      40.804  27.845  28.805  1.00  0.00     0.049 A 
ATOM     42  H   UNL A   1      40.570  28.880  30.596  1.00  0.00     0.167 HD
ATOM     43  C   UNL A   1      39.883  31.030  34.338  1.00  0.00     0.037 A 
ATOM     44  C   UNL A   1      41.916  27.095  28.923  1.00  0.00     0.037 A 
ATOM     45  C   UNL A   1      41.107  30.301  34.544  1.00  0.00     0.049 A 
ATOM     46  C   UNL A   1      42.710  27.159  30.196  1.00  0.00     0.074 A 
ATOM     47  C   UNL A   1      41.911  30.262  35.670  1.00  0.00     0.029 A 
ATOM     48  N   UNL A   1      41.697  29.470  33.603  1.00  0.00    -0.354 N 
ATOM     49  N   UNL A   1      42.458  27.827  31.296  1.00  0.00    -0.248 NA
ATOM     50  C   UNL A   1      43.952  26.374  30.241  1.00  0.00     0.031 C 
ATOM     51  C   UNL A   1      43.005  29.431  35.400  1.00  0.00     0.029 A 
ATOM     52  C   UNL A   1      42.861  28.922  34.120  1.00  0.00     0.049 A 
ATOM     53  H   UNL A   1      41.343  29.295  32.702  1.00  0.00     0.167 HD
ATOM     54  C   UNL A   1      43.502  27.539  32.164  1.00  0.00     0.074 A 
ATOM     55  C   UNL A   1      44.377  26.615  31.473  1.00  0.00     0.031 C 
ATOM     56  C   UNL A   1      43.720  28.006  33.418  1.00  0.00     0.037 A 
BRANCH  43  57
ATOM     57  C   UNL A   1      39.379  31.895  35.454  1.00  0.00     0.064 A 
ATOM     58  C   UNL A   1      39.733  33.248  35.563  1.00  0.00     0.173 A 
ATOM     59  C   UNL A   1      38.501  31.367  36.414  1.00  0.00     0.173 A 
ATOM     60  F   UNL A   1      40.584  33.795  34.681  1.00  0.00    -0.203 F 
ATOM     61  C   UNL A   1      39.243  34.033  36.603  1.00  0.00     0.198 A 
ATOM     62  C   UNL A   1      37.995  32.161  37.438  1.00  0.00     0.198 A 
ATOM     63  F   UNL A   1      38.130  30.078  36.353  1.00  0.00    -0.203 F 
ATOM     64  F   UNL A   1      39.627  35.314  36.711  1.00  0.00    -0.200 F 
ATOM     65  C   UNL A   1      38.370  33.492  37.535  1.00  0.00     0.200 A 
ATOM     66  F   UNL A   1      37.145  31.638  38.333  1.00  0.00    -0.200 F 
ATOM     67  F   UNL A   1      37.897  34.252  38.533  1.00  0.00    -0.200 F 
ENDBRANCH  43  57
BRANCH  44  68
ATOM     68  C   UNL A   1      42.359  26.244  27.789  1.00  0.00     0.064 A 
ATOM     69  C   UNL A   1      43.310  26.703  26.868  1.00  0.00     0.173 A 
ATOM     70  C   UNL A   1      41.839  24.953  27.605  1.00  0.00     0.173 A 
ATOM     71  F   UNL A   1      43.815  27.938  26.988  1.00  0.00    -0.203 F 
ATOM     72  C   UNL A   1      43.716  25.906  25.799  1.00  0.00     0.198 A 
ATOM     73  C   UNL A   1      42.267  24.148  26.554  1.00  0.00     0.198 A 
ATOM     74  F   UNL A   1      40.925  24.470  28.459  1.00  0.00    -0.203 F 
ATOM     75  F   UNL A   1      44.597  26.383  24.909  1.00  0.00    -0.200 F 
ATOM     76  C   UNL A   1      43.201  24.628  25.646  1.00  0.00     0.200 A 
ATOM     77  F   UNL A   1      41.775  22.910  26.417  1.00  0.00    -0.200 F 
ATOM     78  F   UNL A   1      43.598  23.860  24.623  1.00  0.00    -0.200 F 
ENDBRANCH  44  68
BRANCH  56  79
ATOM     79  C   UNL A   1      44.946  27.507  34.123  1.00  0.00     0.064 A 
ATOM     80  C   UNL A   1      44.923  26.329  34.883  1.00  0.00     0.173 A 
ATOM     81  C   UNL A   1      46.158  28.205  34.021  1.00  0.00     0.173 A 
ATOM     82  F   UNL A   1      43.782  25.638  35.023  1.00  0.00    -0.203 F 
ATOM     83  C   UNL A   1      46.067  25.880  35.538  1.00  0.00     0.198 A 
ATOM     84  C   UNL A   1      47.306  27.740  34.657  1.00  0.00     0.198 A 
ATOM     85  F   UNL A   1      46.230  29.335  33.302  1.00  0.00    -0.203 F 
ATOM     86  F   UNL A   1      46.013  24.777  36.296  1.00  0.00    -0.200 F 
ATOM     87  C   UNL A   1      47.258  26.583  35.421  1.00  0.00     0.200 A 
ATOM     88  F   UNL A   1      48.457  28.414  34.537  1.00  0.00    -0.200 F 
ATOM     89  F   UNL A   1      48.358  26.150  36.052  1.00  0.00    -0.200 F 
ENDBRANCH  56  79
ENDBRANCH  30  31
ENDBRANCH  23  25
ENDBRANCH  22  23
ENDBRANCH  21  22
ENDBRANCH   1  21
TORSDOF 16
ENDMDL
MODEL 2
REMARK VINA RESULT:     -10.9      0.997      2.025
REMARK SMILES COCC[C@H](NC(=O)c1ccc(Br)nc1)C(=O)OCCOC(=O)c1ccc(-c2c3nc(c(-c4c(F)c(F)c(F)c(F)c4F)c4ccc([nH]4)c(-c4c(F)c(F)c(F)c(F)c4F)c4nc(c(-c5c(F)c(F)c(F)c(F)c5F)c5ccc2[nH]5)C=C4)C=C3)cc1
REMARK SMILES IDX 19 1 18 2 16 3 17 4 5 5 4 6 3 7 2 8 1 9 6 10 7 11 8 13 9 14
REMARK SMILES IDX 10 15 15 16 11 17 14 18 12 19 13 20 20 21 21 22 22 23 23 24
REMARK SMILES IDX 24 25 25 26 86 27 26 28 85 29 27 30 28 31 29 32 79 33 30 34
REMARK SMILES IDX 84 35 78 36 80 37 31 38 83 39 77 40 76 41 32 43 64 44 44 45
REMARK SMILES IDX 63 46 45 47 48 48 62 49 81 50 46 51 47 52 61 54 82 55 49 56
REMARK SMILES IDX 33 57 34 58 42 59 35 60 36 61 40 62 43 63 37 64 38 65 41 66
REMARK SMILES IDX 39 67 65 68 66 69 74 70 67 71 68 72 72 73 75 74 69 75 70 76
REMARK SMILES IDX 73 77 71 78 50 79 51 80 59 81 52 82 53 83 57 84 60 85 54 86
REMARK SMILES IDX 55 87 58 88 56 89
REMARK H PARENT 6 12 80 42 48 53
REMARK Flexibility Score: inf
ROOT
ATOM      1  C   UNL A   1      31.012  30.821  25.473  1.00  0.00     0.274 C 
ENDROOT
BRANCH   1   2
ATOM      2  O   UNL A   1      31.447  29.508  25.881  1.00  0.00    -0.461 OA
BRANCH   2   3
ATOM      3  C   UNL A   1      32.126  28.781  24.957  1.00  0.00     0.328 C 
ATOM      4  O   UNL A   1      33.271  29.020  24.589  1.00  0.00    -0.250 OA
BRANCH   3   5
ATOM      5  C   UNL A   1      31.346  27.536  24.476  1.00  0.00     0.194 C 
BRANCH   5   6
ATOM      6  C   UNL A   1      30.329  27.907  23.386  1.00  0.00     0.065 C 
BRANCH   6   7
ATOM      7  C   UNL A   1      30.869  28.929  22.375  1.00  0.00     0.162 C 
BRANCH   7   8
ATOM      8  O   UNL A   1      29.812  29.529  21.624  1.00  0.00    -0.385 OA
ATOM      9  C   UNL A   1      28.669  29.860  22.398  1.00  0.00     0.194 C 
ENDBRANCH   7   8
ENDBRANCH   6   7
ENDBRANCH   5   6
BRANCH   5  10
ATOM     10  N   UNL A   1      30.836  26.622  25.507  1.00  0.00    -0.338 N 
ATOM     11  C   UNL A   1      31.312  25.442  25.999  1.00  0.00     0.253 C 
ATOM     12  H   UNL A   1      29.993  26.915  25.920  1.00  0.00     0.164 HD
ATOM     13  O   UNL A   1      30.712  24.833  26.876  1.00  0.00    -0.269 OA
BRANCH  11  14
ATOM     14  C   UNL A   1      32.528  24.863  25.439  1.00  0.00     0.058 A 
ATOM     15  C   UNL A   1      33.793  25.313  25.800  1.00  0.00     0.018 A 
ATOM     16  C   UNL A   1      32.415  23.808  24.549  1.00  0.00     0.126 A 
ATOM     17  C   UNL A   1      34.904  24.739  25.186  1.00  0.00     0.037 A 
ATOM     18  N   UNL A   1      33.477  23.234  23.940  1.00  0.00    -0.249 NA
ATOM     19  C   UNL A   1      34.698  23.716  24.266  1.00  0.00     0.106 A 
ATOM     20  Br  UNL A   1      36.202  22.953  23.401  1.00  0.00    -0.029 Br
ENDBRANCH  11  14
ENDBRANCH   5  10
ENDBRANCH   3   5
ENDBRANCH   2   3
ENDBRANCH   1   2
BRANCH   1  21
ATOM     21  C   UNL A   1      31.418  31.883  26.501  1.00  0.00     0.275 C 
BRANCH  21  22
ATOM     22  O   UNL A   1      32.596  31.505  27.246  1.00  0.00    -0.458 OA
BRANCH  22  23
ATOM     23  C   UNL A   1      33.415  32.526  27.569  1.00  0.00     0.338 C 
ATOM     24  O   UNL A   1      33.124  33.716  27.657  1.00  0.00    -0.246 OA
BRANCH  23  25
ATOM     25  C   UNL A   1      34.736  32.036  27.981  1.00  0.00     0.060 A 
ATOM     26  C   UNL A   1      34.819  30.699  28.367  1.00  0.00     0.016 A 
ATOM     27  C   UNL A   1      35.828  32.886  28.153  1.00  0.00     0.016 A 
ATOM     28  C   UNL A   1      35.957  30.217  28.993  1.00  0.00     0.010 A 
ATOM     29  C   UNL A   1      36.999  32.384  28.744  1.00  0.00     0.010 A 
ATOM     30  C   UNL A   1      37.059  31.055  29.196  1.00  0.00    -0.014 A 
BRANCH  30  31
ATOM     31  C   UNL A   1      38.222  30.509  29.942  1.00  0.00     0.031 A 
ATOM     32  C   UNL A   1      38.411  30.841  31.395  1.00  0.00     0.074 A 
ATOM     33  C   UNL A   1      39.038  29.620  29.343  1.00  0.00     0.049 A 
ATOM     34  N   UNL A   1      39.365  30.468  32.212  1.00  0.00    -0.248 NA
ATOM     35  C   UNL A   1      37.393  31.700  32.017  1.00  0.00     0.031 C 
ATOM     36  C   UNL A   1      38.914  29.163  27.959  1.00  0.00     0.029 A 
ATOM     37  N   UNL A   1      40.110  28.919  29.832  1.00  0.00    -0.354 N 
ATOM     38  C   UNL A   1      39.083  31.075  33.428  1.00  0.00     0.074 A 
ATOM     39  C   UNL A   1      37.870  31.843  33.245  1.00  0.00     0.031 C 
ATOM     40  C   UNL A   1      39.846  28.227  27.720  1.00  0.00     0.029 A 
ATOM     41  C   UNL A   1      40.673  28.066  28.913  1.00  0.00     0.049 A 
ATOM     42  H   UNL A   1      40.446  29.015  30.752  1.00  0.00     0.167 HD
ATOM     43  C   UNL A   1      39.774  30.995  34.590  1.00  0.00     0.037 A 
ATOM     44  C   UNL A   1      41.747  27.261  29.012  1.00  0.00     0.037 A 
ATOM     45  C   UNL A   1      40.959  30.200  34.781  1.00  0.00     0.049 A 
ATOM     46  C   UNL A   1      42.515  27.221  30.303  1.00  0.00     0.074 A 
ATOM     47  C   UNL A   1      41.736  30.065  35.918  1.00  0.00     0.029 A 
ATOM     48  N   UNL A   1      41.532  29.394  33.808  1.00  0.00    -0.354 N 
ATOM     49  N   UNL A   1      42.269  27.841  31.432  1.00  0.00    -0.248 NA
ATOM     50  C   UNL A   1      43.718  26.378  30.330  1.00  0.00     0.031 C 
ATOM     51  C   UNL A   1      42.796  29.200  35.626  1.00  0.00     0.029 A 
ATOM     52  C   UNL A   1      42.658  28.766  34.318  1.00  0.00     0.049 A 
ATOM     53  H   UNL A   1      41.190  29.283  32.893  1.00  0.00     0.167 HD
ATOM     54  C   UNL A   1      43.279  27.460  32.303  1.00  0.00     0.074 A 
ATOM     55  C   UNL A   1      44.127  26.534  31.581  1.00  0.00     0.031 C 
ATOM     56  C   UNL A   1      43.490  27.849  33.584  1.00  0.00     0.037 A 
BRANCH  43  57
ATOM     57  C   UNL A   1      39.285  31.823  35.741  1.00  0.00     0.064 A 
ATOM     58  C   UNL A   1      38.372  31.322  36.680  1.00  0.00     0.173 A 
ATOM     59  C   UNL A   1      39.765  33.130  35.922  1.00  0.00     0.173 A 
ATOM     60  F   UNL A   1      37.871  30.085  36.540  1.00  0.00    -0.203 F 
ATOM     61  C   UNL A   1      37.941  32.107  37.747  1.00  0.00     0.198 A 
ATOM     62  C   UNL A   1      39.350  33.902  37.003  1.00  0.00     0.198 A 
ATOM     63  F   UNL A   1      40.641  33.654  35.052  1.00  0.00    -0.203 F 
ATOM     64  F   UNL A   1      37.037  31.623  38.610  1.00  0.00    -0.200 F 
ATOM     65  C   UNL A   1      38.435  33.393  37.911  1.00  0.00     0.200 A 
ATOM     66  F   UNL A   1      39.834  35.142  37.164  1.00  0.00    -0.200 F 
ATOM     67  F   UNL A   1      38.021  34.144  38.941  1.00  0.00    -0.200 F 
ENDBRANCH  43  57
BRANCH  44  68
ATOM     68  C   UNL A   1      42.176  26.451  27.843  1.00  0.00     0.064 A 
ATOM     69  C   UNL A   1      43.154  26.921  26.957  1.00  0.00     0.173 A 
ATOM     70  C   UNL A   1      41.616  25.190  27.590  1.00  0.00     0.173 A 
ATOM     71  F   UNL A   1      43.699  28.131  27.144  1.00  0.00    -0.203 F 
ATOM     72  C   UNL A   1      43.548  26.164  25.855  1.00  0.00     0.198 A 
ATOM     73  C   UNL A   1      42.030  24.423  26.506  1.00  0.00     0.198 A 
ATOM     74  F   UNL A   1      40.674  24.697  28.409  1.00  0.00    -0.203 F 
ATOM     75  F   UNL A   1      44.455  26.654  25.000  1.00  0.00    -0.200 F 
ATOM     76  C   UNL A   1      42.991  24.913  25.634  1.00  0.00     0.200 A 
ATOM     77  F   UNL A   1      41.499  23.210  26.303  1.00  0.00    -0.200 F 
ATOM     78  F   UNL A   1      43.376  24.183  24.579  1.00  0.00    -0.200 F 
ENDBRANCH  44  68
BRANCH  56  79
ATOM     79  C   UNL A   1      44.676  27.258  34.286  1.00  0.00     0.064 A 
ATOM     80  C   UNL A   1      45.922  27.900  34.281  1.00  0.00     0.173 A 
ATOM     81  C   UNL A   1      44.558  26.049  34.987  1.00  0.00     0.173 A 
ATOM     82  F   UNL A   1      46.087  29.049  33.610  1.00  0.00    -0.203 F 
ATOM     83  C   UNL A   1      47.018  27.338  34.932  1.00  0.00     0.198 A 
ATOM     84  C   UNL A   1      45.649  25.502  35.658  1.00  0.00     0.198 A 
ATOM     85  F   UNL A   1      43.385  25.400  35.024  1.00  0.00    -0.203 F 
ATOM     86  F   UNL A   1      48.212  27.944  34.876  1.00  0.00    -0.200 F 
ATOM     87  C   UNL A   1      46.879  26.142  35.623  1.00  0.00     0.200 A 
ATOM     88  F   UNL A   1      45.512  24.352  36.331  1.00  0.00    -0.200 F 
ATOM     89  F   UNL A   1      47.934  25.603  36.249  1.00  0.00    -0.200 F 
ENDBRANCH  56  79
ENDBRANCH  30  31
ENDBRANCH  23  25
ENDBRANCH  22  23
ENDBRANCH  21  22
ENDBRANCH   1  21
TORSDOF 16
ENDMDL
MODEL 3
REMARK VINA RESULT:     -10.9      1.826      3.074
REMARK SMILES COCC[C@H](NC(=O)c1ccc(Br)nc1)C(=O)OCCOC(=O)c1ccc(-c2c3nc(c(-c4c(F)c(F)c(F)c(F)c4F)c4ccc([nH]4)c(-c4c(F)c(F)c(F)c(F)c4F)c4nc(c(-c5c(F)c(F)c(F)c(F)c5F)c5ccc2[nH]5)C=C4)C=C3)cc1
REMARK SMILES IDX 19 1 18 2 16 3 17 4 5 5 4 6 3 7 2 8 1 9 6 10 7 11 8 13 9 14
REMARK SMILES IDX 10 15 15 16 11 17 14 18 12 19 13 20 20 21 21 22 22 23 23 24
REMARK SMILES IDX 24 25 25 26 86 27 26 28 85 29 27 30 28 31 29 32 79 33 30 34
REMARK SMILES IDX 84 35 78 36 80 37 31 38 83 39 77 40 76 41 32 43 64 44 44 45
REMARK SMILES IDX 63 46 45 47 48 48 62 49 81 50 46 51 47 52 61 54 82 55 49 56
REMARK SMILES IDX 33 57 34 58 42 59 35 60 36 61 40 62 43 63 37 64 38 65 41 66
REMARK SMILES IDX 39 67 65 68 66 69 74 70 67 71 68 72 72 73 75 74 69 75 70 76
REMARK SMILES IDX 73 77 71 78 50 79 51 80 59 81 52 82 53 83 57 84 60 85 54 86
REMARK SMILES IDX 55 87 58 88 56 89
REMARK H PARENT 6 12 80 42 48 53
REMARK Flexibility Score: inf
ROOT
ATOM      1  C   UNL A   1      31.420  30.022  25.640  1.00  0.00     0.274 C 
ENDROOT
BRANCH   1   2
ATOM      2  O   UNL A   1      32.565  29.478  24.954  1.00  0.00    -0.461 OA
BRANCH   2   3
ATOM      3  C   UNL A   1      33.020  28.276  25.394  1.00  0.00     0.328 C 
ATOM      4  O   UNL A   1      34.121  28.092  25.901  1.00  0.00    -0.250 OA
BRANCH   3   5
ATOM      5  C   UNL A   1      31.960  27.155  25.290  1.00  0.00     0.194 C 
BRANCH   5   6
ATOM      6  C   UNL A   1      31.902  26.325  26.580  1.00  0.00     0.065 C 
BRANCH   6   7
ATOM      7  C   UNL A   1      32.020  24.813  26.336  1.00  0.00     0.162 C 
BRANCH   7   8
ATOM      8  O   UNL A   1      31.277  24.069  27.302  1.00  0.00    -0.385 OA
ATOM      9  C   UNL A   1      30.436  23.072  26.741  1.00  0.00     0.194 C 
ENDBRANCH   7   8
ENDBRANCH   6   7
ENDBRANCH   5   6
BRANCH   5  10
ATOM     10  N   UNL A   1      31.934  26.367  24.050  1.00  0.00    -0.338 N 
ATOM     11  C   UNL A   1      31.297  26.557  22.859  1.00  0.00     0.253 C 
ATOM     12  H   UNL A   1      32.480  25.549  24.085  1.00  0.00     0.164 HD
ATOM     13  O   UNL A   1      31.417  25.754  21.941  1.00  0.00    -0.269 OA
BRANCH  11  14
ATOM     14  C   UNL A   1      30.412  27.704  22.687  1.00  0.00     0.058 A 
ATOM     15  C   UNL A   1      29.117  27.718  23.192  1.00  0.00     0.018 A 
ATOM     16  C   UNL A   1      30.894  28.825  22.033  1.00  0.00     0.126 A 
ATOM     17  C   UNL A   1      28.318  28.833  22.948  1.00  0.00     0.037 A 
ATOM     18  N   UNL A   1      30.140  29.919  21.783  1.00  0.00    -0.249 NA
ATOM     19  C   UNL A   1      28.867  29.897  22.240  1.00  0.00     0.106 A 
ATOM     20  Br  UNL A   1      27.777  31.404  21.872  1.00  0.00    -0.029 Br
ENDBRANCH  11  14
ENDBRANCH   5  10
ENDBRANCH   3   5
ENDBRANCH   2   3
ENDBRANCH   1   2
BRANCH   1  21
ATOM     21  C   UNL A   1      31.738  31.393  26.248  1.00  0.00     0.275 C 
BRANCH  21  22
ATOM     22  O   UNL A   1      32.618  31.297  27.389  1.00  0.00    -0.458 OA
BRANCH  22  23
ATOM     23  C   UNL A   1      33.448  32.346  27.556  1.00  0.00     0.338 C 
ATOM     24  O   UNL A   1      33.155  33.539  27.530  1.00  0.00    -0.246 OA
BRANCH  23  25
ATOM     25  C   UNL A   1      34.790  31.904  27.950  1.00  0.00     0.060 A 
ATOM     26  C   UNL A   1      34.927  30.569  28.329  1.00  0.00     0.016 A 
ATOM     27  C   UNL A   1      35.853  32.793  28.111  1.00  0.00     0.016 A 
ATOM     28  C   UNL A   1      36.090  30.127  28.939  1.00  0.00     0.010 A 
ATOM     29  C   UNL A   1      37.049  32.333  28.685  1.00  0.00     0.010 A 
ATOM     30  C   UNL A   1      37.163  31.005  29.131  1.00  0.00    -0.014 A 
BRANCH  30  31
ATOM     31  C   UNL A   1      38.355  30.499  29.860  1.00  0.00     0.031 A 
ATOM     32  C   UNL A   1      38.578  30.878  31.297  1.00  0.00     0.074 A 
ATOM     33  C   UNL A   1      39.169  29.606  29.265  1.00  0.00     0.049 A 
ATOM     34  N   UNL A   1      39.561  30.543  32.097  1.00  0.00    -0.248 NA
ATOM     35  C   UNL A   1      37.563  31.738  31.922  1.00  0.00     0.031 C 
ATOM     36  C   UNL A   1      39.015  29.106  27.899  1.00  0.00     0.029 A 
ATOM     37  N   UNL A   1      40.266  28.937  29.744  1.00  0.00    -0.354 N 
ATOM     38  C   UNL A   1      39.302  31.181  33.303  1.00  0.00     0.074 A 
ATOM     39  C   UNL A   1      38.072  31.925  33.132  1.00  0.00     0.031 C 
ATOM     40  C   UNL A   1      39.955  28.179  27.662  1.00  0.00     0.029 A 
ATOM     41  C   UNL A   1      40.817  28.066  28.835  1.00  0.00     0.049 A 
ATOM     42  H   UNL A   1      40.625  29.065  30.652  1.00  0.00     0.167 HD
ATOM     43  C   UNL A   1      40.025  31.147  34.447  1.00  0.00     0.037 A 
ATOM     44  C   UNL A   1      41.907  27.281  28.928  1.00  0.00     0.037 A 
ATOM     45  C   UNL A   1      41.228  30.377  34.628  1.00  0.00     0.049 A 
ATOM     46  C   UNL A   1      42.710  27.291  30.197  1.00  0.00     0.074 A 
ATOM     47  C   UNL A   1      42.038  30.288  35.747  1.00  0.00     0.029 A 
ATOM     48  N   UNL A   1      41.788  29.551  33.664  1.00  0.00    -0.354 N 
ATOM     49  N   UNL A   1      42.485  27.940  31.314  1.00  0.00    -0.248 NA
ATOM     50  C   UNL A   1      43.927  26.468  30.216  1.00  0.00     0.031 C 
ATOM     51  C   UNL A   1      43.104  29.431  35.450  1.00  0.00     0.029 A 
ATOM     52  C   UNL A   1      42.937  28.957  34.160  1.00  0.00     0.049 A 
ATOM     53  H   UNL A   1      41.422  29.408  32.762  1.00  0.00     0.167 HD
ATOM     54  C   UNL A   1      43.524  27.601  32.168  1.00  0.00     0.074 A 
ATOM     55  C   UNL A   1      44.368  26.667  31.450  1.00  0.00     0.031 C 
ATOM     56  C   UNL A   1      43.764  28.031  33.431  1.00  0.00     0.037 A 
BRANCH  43  57
ATOM     57  C   UNL A   1      39.555  32.001  35.586  1.00  0.00     0.064 A 
ATOM     58  C   UNL A   1      40.018  33.311  35.773  1.00  0.00     0.173 A 
ATOM     59  C   UNL A   1      38.598  31.507  36.488  1.00  0.00     0.173 A 
ATOM     60  F   UNL A   1      40.946  33.822  34.949  1.00  0.00    -0.203 F 
ATOM     61  C   UNL A   1      39.557  34.087  36.833  1.00  0.00     0.198 A 
ATOM     62  C   UNL A   1      38.123  32.295  37.532  1.00  0.00     0.198 A 
ATOM     63  F   UNL A   1      38.121  30.260  36.351  1.00  0.00    -0.203 F 
ATOM     64  F   UNL A   1      40.044  35.323  37.018  1.00  0.00    -0.200 F 
ATOM     65  C   UNL A   1      38.606  33.582  37.707  1.00  0.00     0.200 A 
ATOM     66  F   UNL A   1      37.197  31.806  38.370  1.00  0.00    -0.200 F 
ATOM     67  F   UNL A   1      38.161  34.333  38.724  1.00  0.00    -0.200 F 
ENDBRANCH  43  57
BRANCH  44  68
ATOM     68  C   UNL A   1      42.317  26.443  27.772  1.00  0.00     0.064 A 
ATOM     69  C   UNL A   1      41.776  25.166  27.576  1.00  0.00     0.173 A 
ATOM     70  C   UNL A   1      43.257  26.906  26.839  1.00  0.00     0.173 A 
ATOM     71  F   UNL A   1      40.894  24.671  28.455  1.00  0.00    -0.203 F 
ATOM     72  C   UNL A   1      42.169  24.378  26.496  1.00  0.00     0.198 A 
ATOM     73  C   UNL A   1      43.627  26.130  25.745  1.00  0.00     0.198 A 
ATOM     74  F   UNL A   1      43.804  28.122  26.984  1.00  0.00    -0.203 F 
ATOM     75  F   UNL A   1      41.669  23.143  26.353  1.00  0.00    -0.200 F 
ATOM     76  C   UNL A   1      43.089  24.862  25.578  1.00  0.00     0.200 A 
ATOM     77  F   UNL A   1      44.506  26.607  24.854  1.00  0.00    -0.200 F 
ATOM     78  F   UNL A   1      43.460  24.107  24.536  1.00  0.00    -0.200 F 
ENDBRANCH  44  68
BRANCH  56  79
ATOM     79  C   UNL A   1      44.978  27.480  34.116  1.00  0.00     0.064 A 
ATOM     80  C   UNL A   1      44.927  26.283  34.843  1.00  0.00     0.173 A 
ATOM     81  C   UNL A   1      46.209  28.147  34.027  1.00  0.00     0.173 A 
ATOM     82  F   UNL A   1      43.768  25.620  34.971  1.00  0.00    -0.203 F 
ATOM     83  C   UNL A   1      46.060  25.784  35.480  1.00  0.00     0.198 A 
ATOM     84  C   UNL A   1      47.347  27.633  34.644  1.00  0.00     0.198 A 
ATOM     85  F   UNL A   1      46.310  29.293  33.339  1.00  0.00    -0.203 F 
ATOM     86  F   UNL A   1      45.978  24.662  36.209  1.00  0.00    -0.200 F 
ATOM     87  C   UNL A   1      47.269  26.457  35.376  1.00  0.00     0.200 A 
ATOM     88  F   UNL A   1      48.516  28.278  34.537  1.00  0.00    -0.200 F 
ATOM     89  F   UNL A   1      48.360  25.976  35.990  1.00  0.00    -0.200 F 
ENDBRANCH  56  79
ENDBRANCH  30  31
ENDBRANCH  23  25
ENDBRANCH  22  23
ENDBRANCH  21  22
ENDBRANCH   1  21
TORSDOF 16
ENDMDL
