MODEL 1
REMARK VINA RESULT:      -9.3      0.000      0.000
REMARK SMILES C[C@H](C(=O)OCCOC(=O)c1ccc(-c2c3nc(c(-c4c(F)c(F)c(F)c(F)c4F)c4ccc([nH]4)c(-c4c(F)c(F)c(F)c(F)c4F)c4nc(c(-c5c(F)c(F)c(F)c(F)c5F)c5ccc2[nH]5)C=C4)C=C3)cc1)c1cccc(C(=O)c2ccccc2)c1
REMARK SMILES IDX 6 1 5 2 3 3 4 4 2 5 1 6 74 7 75 8 87 9 76 10 78 11 77 12
REMARK SMILES IDX 79 13 80 14 81 15 82 16 86 17 83 18 85 19 84 20 7 21 8 22
REMARK SMILES IDX 9 23 10 24 11 25 12 26 73 27 13 28 72 29 14 30 15 31 16 32
REMARK SMILES IDX 66 33 17 34 71 35 65 36 67 37 18 38 70 39 64 40 63 41 19 43
REMARK SMILES IDX 51 44 31 45 50 46 32 47 35 48 49 49 68 50 33 51 34 52 48 54
REMARK SMILES IDX 69 55 36 56 20 57 21 58 29 59 22 60 23 61 27 62 30 63 24 64
REMARK SMILES IDX 25 65 28 66 26 67 52 68 53 69 61 70 54 71 55 72 59 73 62 74
REMARK SMILES IDX 56 75 57 76 60 77 58 78 37 79 38 80 46 81 39 82 40 83 44 84
REMARK SMILES IDX 47 85 41 86 42 87 45 88 43 89
REMARK H PARENT 67 42 35 53
REMARK Flexibility Score: inf
ROOT
ATOM      1  C   UNL A   1      41.264  20.100  26.238  1.00  0.00     0.274 C 
ENDROOT
BRANCH   1   2
ATOM      2  O   UNL A   1      42.396  20.692  26.899  1.00  0.00    -0.462 OA
BRANCH   2   3
ATOM      3  C   UNL A   1      43.041  21.685  26.227  1.00  0.00     0.313 C 
ATOM      4  O   UNL A   1      43.503  21.566  25.098  1.00  0.00    -0.252 OA
BRANCH   3   5
ATOM      5  C   UNL A   1      42.991  23.011  26.987  1.00  0.00     0.126 C 
ATOM      6  C   UNL A   1      42.622  22.875  28.466  1.00  0.00     0.025 C 
BRANCH   5   7
ATOM      7  C   UNL A   1      44.249  23.859  26.850  1.00  0.00    -0.033 A 
ATOM      8  C   UNL A   1      45.504  23.424  27.298  1.00  0.00     0.004 A 
ATOM      9  C   UNL A   1      44.135  25.160  26.323  1.00  0.00     0.016 A 
ATOM     10  C   UNL A   1      46.614  24.265  27.222  1.00  0.00     0.001 A 
ATOM     11  C   UNL A   1      45.233  26.032  26.299  1.00  0.00     0.023 A 
ATOM     12  C   UNL A   1      46.478  25.566  26.735  1.00  0.00     0.012 A 
BRANCH  11  13
ATOM     13  C   UNL A   1      45.137  27.436  25.800  1.00  0.00     0.193 C 
ATOM     14  O   UNL A   1      45.575  27.715  24.687  1.00  0.00    -0.289 OA
BRANCH  13  15
ATOM     15  C   UNL A   1      44.498  28.515  26.592  1.00  0.00     0.022 A 
ATOM     16  C   UNL A   1      45.282  29.185  27.540  1.00  0.00     0.012 A 
ATOM     17  C   UNL A   1      43.150  28.857  26.437  1.00  0.00     0.012 A 
ATOM     18  C   UNL A   1      44.735  30.230  28.285  1.00  0.00     0.001 A 
ATOM     19  C   UNL A   1      42.609  29.911  27.176  1.00  0.00     0.001 A 
ATOM     20  C   UNL A   1      43.403  30.600  28.093  1.00  0.00     0.000 A 
ENDBRANCH  13  15
ENDBRANCH  11  13
ENDBRANCH   5   7
ENDBRANCH   3   5
ENDBRANCH   2   3
ENDBRANCH   1   2
BRANCH   1  21
ATOM     21  C   UNL A   1      40.006  20.907  26.551  1.00  0.00     0.275 C 
BRANCH  21  22
ATOM     22  O   UNL A   1      40.033  22.170  25.857  1.00  0.00    -0.458 OA
BRANCH  22  23
ATOM     23  C   UNL A   1      38.926  22.934  25.995  1.00  0.00     0.338 C 
ATOM     24  O   UNL A   1      37.798  22.701  25.596  1.00  0.00    -0.246 OA
BRANCH  23  25
ATOM     25  C   UNL A   1      39.262  24.161  26.733  1.00  0.00     0.060 A 
ATOM     26  C   UNL A   1      40.073  25.134  26.146  1.00  0.00     0.016 A 
ATOM     27  C   UNL A   1      38.859  24.281  28.064  1.00  0.00     0.016 A 
ATOM     28  C   UNL A   1      40.531  26.207  26.910  1.00  0.00     0.010 A 
ATOM     29  C   UNL A   1      39.258  25.396  28.804  1.00  0.00     0.010 A 
ATOM     30  C   UNL A   1      40.117  26.357  28.243  1.00  0.00    -0.014 A 
BRANCH  30  31
ATOM     31  C   UNL A   1      40.578  27.509  29.060  1.00  0.00     0.031 A 
ATOM     32  C   UNL A   1      41.950  27.500  29.676  1.00  0.00     0.074 A 
ATOM     33  C   UNL A   1      39.754  28.551  29.281  1.00  0.00     0.049 A 
ATOM     34  N   UNL A   1      42.461  28.305  30.575  1.00  0.00    -0.248 NA
ATOM     35  C   UNL A   1      42.865  26.437  29.234  1.00  0.00     0.031 C 
ATOM     36  C   UNL A   1      38.412  28.703  28.719  1.00  0.00     0.029 A 
ATOM     37  N   UNL A   1      39.926  29.679  30.045  1.00  0.00    -0.354 N 
ATOM     38  C   UNL A   1      43.733  27.818  30.840  1.00  0.00     0.074 A 
ATOM     39  C   UNL A   1      43.921  26.649  30.007  1.00  0.00     0.031 C 
ATOM     40  C   UNL A   1      37.887  29.862  29.144  1.00  0.00     0.029 A 
ATOM     41  C   UNL A   1      38.826  30.501  30.060  1.00  0.00     0.049 A 
ATOM     42  H   UNL A   1      40.755  29.878  30.535  1.00  0.00     0.167 HD
ATOM     43  C   UNL A   1      44.655  28.300  31.707  1.00  0.00     0.037 A 
ATOM     44  C   UNL A   1      38.584  31.623  30.762  1.00  0.00     0.037 A 
ATOM     45  C   UNL A   1      44.488  29.490  32.499  1.00  0.00     0.049 A 
ATOM     46  C   UNL A   1      39.619  32.132  31.723  1.00  0.00     0.074 A 
ATOM     47  C   UNL A   1      45.377  30.071  33.387  1.00  0.00     0.029 A 
ATOM     48  N   UNL A   1      43.355  30.290  32.488  1.00  0.00    -0.354 N 
ATOM     49  N   UNL A   1      40.799  31.639  32.003  1.00  0.00    -0.248 NA
ATOM     50  C   UNL A   1      39.279  33.344  32.481  1.00  0.00     0.031 C 
ATOM     51  C   UNL A   1      44.775  31.211  33.931  1.00  0.00     0.029 A 
ATOM     52  C   UNL A   1      43.520  31.356  33.359  1.00  0.00     0.049 A 
ATOM     53  H   UNL A   1      42.552  30.126  31.943  1.00  0.00     0.167 HD
ATOM     54  C   UNL A   1      41.346  32.478  32.962  1.00  0.00     0.074 A 
ATOM     55  C   UNL A   1      40.375  33.525  33.205  1.00  0.00     0.031 C 
ATOM     56  C   UNL A   1      42.543  32.386  33.589  1.00  0.00     0.037 A 
BRANCH  43  57
ATOM     57  C   UNL A   1      45.929  27.525  31.867  1.00  0.00     0.064 A 
ATOM     58  C   UNL A   1      47.096  27.869  31.171  1.00  0.00     0.173 A 
ATOM     59  C   UNL A   1      45.989  26.448  32.765  1.00  0.00     0.173 A 
ATOM     60  F   UNL A   1      47.083  28.881  30.291  1.00  0.00    -0.203 F 
ATOM     61  C   UNL A   1      48.276  27.153  31.358  1.00  0.00     0.198 A 
ATOM     62  C   UNL A   1      47.175  25.748  32.964  1.00  0.00     0.198 A 
ATOM     63  F   UNL A   1      44.899  26.083  33.456  1.00  0.00    -0.203 F 
ATOM     64  F   UNL A   1      49.372  27.476  30.658  1.00  0.00    -0.200 F 
ATOM     65  C   UNL A   1      48.316  26.098  32.257  1.00  0.00     0.200 A 
ATOM     66  F   UNL A   1      47.214  24.733  33.839  1.00  0.00    -0.200 F 
ATOM     67  F   UNL A   1      49.454  25.414  32.440  1.00  0.00    -0.200 F 
ENDBRANCH  43  57
BRANCH  44  68
ATOM     68  C   UNL A   1      37.286  32.322  30.599  1.00  0.00     0.064 A 
ATOM     69  C   UNL A   1      36.232  32.094  31.494  1.00  0.00     0.173 A 
ATOM     70  C   UNL A   1      37.078  33.242  29.562  1.00  0.00     0.173 A 
ATOM     71  F   UNL A   1      36.377  31.202  32.485  1.00  0.00    -0.203 F 
ATOM     72  C   UNL A   1      35.016  32.759  31.356  1.00  0.00     0.198 A 
ATOM     73  C   UNL A   1      35.871  33.925  29.438  1.00  0.00     0.198 A 
ATOM     74  F   UNL A   1      38.057  33.492  28.681  1.00  0.00    -0.203 F 
ATOM     75  F   UNL A   1      34.014  32.503  32.207  1.00  0.00    -0.200 F 
ATOM     76  C   UNL A   1      34.839  33.681  30.333  1.00  0.00     0.200 A 
ATOM     77  F   UNL A   1      35.708  34.821  28.456  1.00  0.00    -0.200 F 
ATOM     78  F   UNL A   1      33.674  34.328  30.206  1.00  0.00    -0.200 F 
ENDBRANCH  44  68
BRANCH  56  79
ATOM     79  C   UNL A   1      42.872  33.454  34.586  1.00  0.00     0.064 A 
ATOM     80  C   UNL A   1      42.549  33.310  35.942  1.00  0.00     0.173 A 
ATOM     81  C   UNL A   1      43.540  34.620  34.184  1.00  0.00     0.173 A 
ATOM     82  F   UNL A   1      41.896  32.219  36.367  1.00  0.00    -0.203 F 
ATOM     83  C   UNL A   1      42.868  34.305  36.861  1.00  0.00     0.198 A 
ATOM     84  C   UNL A   1      43.874  35.605  35.109  1.00  0.00     0.198 A 
ATOM     85  F   UNL A   1      43.870  34.800  32.897  1.00  0.00    -0.203 F 
ATOM     86  F   UNL A   1      42.521  34.164  38.147  1.00  0.00    -0.200 F 
ATOM     87  C   UNL A   1      43.534  35.449  36.445  1.00  0.00     0.200 A 
ATOM     88  F   UNL A   1      44.521  36.708  34.707  1.00  0.00    -0.200 F 
ATOM     89  F   UNL A   1      43.841  36.407  37.331  1.00  0.00    -0.200 F 
ENDBRANCH  56  79
ENDBRANCH  30  31
ENDBRANCH  23  25
ENDBRANCH  22  23
ENDBRANCH  21  22
ENDBRANCH   1  21
TORSDOF 14
ENDMDL
MODEL 2
REMARK VINA RESULT:      -9.3      4.757      9.067
REMARK SMILES C[C@H](C(=O)OCCOC(=O)c1ccc(-c2c3nc(c(-c4c(F)c(F)c(F)c(F)c4F)c4ccc([nH]4)c(-c4c(F)c(F)c(F)c(F)c4F)c4nc(c(-c5c(F)c(F)c(F)c(F)c5F)c5ccc2[nH]5)C=C4)C=C3)cc1)c1cccc(C(=O)c2ccccc2)c1
REMARK SMILES IDX 6 1 5 2 3 3 4 4 2 5 1 6 74 7 75 8 87 9 76 10 78 11 77 12
REMARK SMILES IDX 79 13 80 14 81 15 82 16 86 17 83 18 85 19 84 20 7 21 8 22
REMARK SMILES IDX 9 23 10 24 11 25 12 26 73 27 13 28 72 29 14 30 15 31 16 32
REMARK SMILES IDX 66 33 17 34 71 35 65 36 67 37 18 38 70 39 64 40 63 41 19 43
REMARK SMILES IDX 51 44 31 45 50 46 32 47 35 48 49 49 68 50 33 51 34 52 48 54
REMARK SMILES IDX 69 55 36 56 20 57 21 58 29 59 22 60 23 61 27 62 30 63 24 64
REMARK SMILES IDX 25 65 28 66 26 67 52 68 53 69 61 70 54 71 55 72 59 73 62 74
REMARK SMILES IDX 56 75 57 76 60 77 58 78 37 79 38 80 46 81 39 82 40 83 44 84
REMARK SMILES IDX 47 85 41 86 42 87 45 88 43 89
REMARK H PARENT 67 42 35 53
REMARK Flexibility Score: inf
ROOT
ATOM      1  C   UNL A   1      31.540  28.845  24.822  1.00  0.00     0.274 C 
ENDROOT
BRANCH   1   2
ATOM      2  O   UNL A   1      31.332  27.616  25.539  1.00  0.00    -0.462 OA
BRANCH   2   3
ATOM      3  C   UNL A   1      31.381  26.470  24.807  1.00  0.00     0.313 C 
ATOM      4  O   UNL A   1      30.400  25.935  24.299  1.00  0.00    -0.252 OA
BRANCH   3   5
ATOM      5  C   UNL A   1      32.818  26.008  24.566  1.00  0.00     0.126 C 
ATOM      6  C   UNL A   1      33.687  25.975  25.826  1.00  0.00     0.025 C 
BRANCH   5   7
ATOM      7  C   UNL A   1      32.935  24.680  23.829  1.00  0.00    -0.033 A 
ATOM      8  C   UNL A   1      33.217  24.601  22.459  1.00  0.00     0.004 A 
ATOM      9  C   UNL A   1      32.674  23.489  24.534  1.00  0.00     0.016 A 
ATOM     10  C   UNL A   1      33.238  23.367  21.810  1.00  0.00     0.001 A 
ATOM     11  C   UNL A   1      32.634  22.252  23.876  1.00  0.00     0.023 A 
ATOM     12  C   UNL A   1      32.937  22.199  22.512  1.00  0.00     0.012 A 
BRANCH  11  13
ATOM     13  C   UNL A   1      32.305  20.976  24.579  1.00  0.00     0.193 C 
ATOM     14  O   UNL A   1      31.480  20.980  25.490  1.00  0.00    -0.289 OA
BRANCH  13  15
ATOM     15  C   UNL A   1      32.920  19.681  24.197  1.00  0.00     0.022 A 
ATOM     16  C   UNL A   1      32.245  18.884  23.265  1.00  0.00     0.012 A 
ATOM     17  C   UNL A   1      34.123  19.232  24.755  1.00  0.00     0.012 A 
ATOM     18  C   UNL A   1      32.800  17.673  22.850  1.00  0.00     0.001 A 
ATOM     19  C   UNL A   1      34.681  18.025  24.330  1.00  0.00     0.001 A 
ATOM     20  C   UNL A   1      34.023  17.252  23.373  1.00  0.00     0.000 A 
ENDBRANCH  13  15
ENDBRANCH  11  13
ENDBRANCH   5   7
ENDBRANCH   3   5
ENDBRANCH   2   3
ENDBRANCH   1   2
BRANCH   1  21
ATOM     21  C   UNL A   1      31.685  29.999  25.813  1.00  0.00     0.275 C 
BRANCH  21  22
ATOM     22  O   UNL A   1      33.074  30.346  25.982  1.00  0.00    -0.458 OA
BRANCH  22  23
ATOM     23  C   UNL A   1      33.333  31.259  26.946  1.00  0.00     0.338 C 
ATOM     24  O   UNL A   1      32.645  32.205  27.287  1.00  0.00    -0.246 OA
BRANCH  23  25
ATOM     25  C   UNL A   1      34.626  30.957  27.576  1.00  0.00     0.060 A 
ATOM     26  C   UNL A   1      34.942  29.646  27.938  1.00  0.00     0.016 A 
ATOM     27  C   UNL A   1      35.477  32.011  27.913  1.00  0.00     0.016 A 
ATOM     28  C   UNL A   1      36.089  29.393  28.691  1.00  0.00     0.010 A 
ATOM     29  C   UNL A   1      36.661  31.744  28.602  1.00  0.00     0.010 A 
ATOM     30  C   UNL A   1      36.968  30.437  29.019  1.00  0.00    -0.014 A 
BRANCH  30  31
ATOM     31  C   UNL A   1      38.206  30.177  29.799  1.00  0.00     0.031 A 
ATOM     32  C   UNL A   1      39.283  29.292  29.237  1.00  0.00     0.074 A 
ATOM     33  C   UNL A   1      38.351  30.707  31.028  1.00  0.00     0.049 A 
ATOM     34  N   UNL A   1      40.335  28.785  29.832  1.00  0.00    -0.248 NA
ATOM     35  C   UNL A   1      39.154  28.914  27.821  1.00  0.00     0.031 C 
ATOM     36  C   UNL A   1      37.400  31.606  31.680  1.00  0.00     0.029 A 
ATOM     37  N   UNL A   1      39.356  30.557  31.952  1.00  0.00    -0.354 N 
ATOM     38  C   UNL A   1      40.963  27.993  28.880  1.00  0.00     0.074 A 
ATOM     39  C   UNL A   1      40.179  28.086  27.667  1.00  0.00     0.031 C 
ATOM     40  C   UNL A   1      37.871  31.940  32.891  1.00  0.00     0.029 A 
ATOM     41  C   UNL A   1      39.121  31.227  33.127  1.00  0.00     0.049 A 
ATOM     42  H   UNL A   1      40.164  30.020  31.789  1.00  0.00     0.167 HD
ATOM     43  C   UNL A   1      42.088  27.251  29.014  1.00  0.00     0.037 A 
ATOM     44  C   UNL A   1      39.815  31.237  34.280  1.00  0.00     0.037 A 
ATOM     45  C   UNL A   1      42.895  27.197  30.204  1.00  0.00     0.049 A 
ATOM     46  C   UNL A   1      41.054  30.398  34.405  1.00  0.00     0.074 A 
ATOM     47  C   UNL A   1      44.066  26.493  30.425  1.00  0.00     0.029 A 
ATOM     48  N   UNL A   1      42.618  27.888  31.375  1.00  0.00    -0.354 N 
ATOM     49  N   UNL A   1      41.614  29.615  33.518  1.00  0.00    -0.248 NA
ATOM     50  C   UNL A   1      41.746  30.429  35.702  1.00  0.00     0.031 C 
ATOM     51  C   UNL A   1      44.487  26.739  31.736  1.00  0.00     0.029 A 
ATOM     52  C   UNL A   1      43.593  27.620  32.323  1.00  0.00     0.049 A 
ATOM     53  H   UNL A   1      41.844  28.480  31.512  1.00  0.00     0.167 HD
ATOM     54  C   UNL A   1      42.723  29.065  34.141  1.00  0.00     0.074 A 
ATOM     55  C   UNL A   1      42.770  29.617  35.479  1.00  0.00     0.031 C 
ATOM     56  C   UNL A   1      43.621  28.177  33.649  1.00  0.00     0.037 A 
BRANCH  43  57
ATOM     57  C   UNL A   1      42.506  26.410  27.845  1.00  0.00     0.064 A 
ATOM     58  C   UNL A   1      41.996  25.120  27.643  1.00  0.00     0.173 A 
ATOM     59  C   UNL A   1      43.399  26.924  26.891  1.00  0.00     0.173 A 
ATOM     60  F   UNL A   1      41.154  24.580  28.535  1.00  0.00    -0.203 F 
ATOM     61  C   UNL A   1      42.377  24.368  26.534  1.00  0.00     0.198 A 
ATOM     62  C   UNL A   1      43.760  26.177  25.774  1.00  0.00     0.198 A 
ATOM     63  F   UNL A   1      43.911  28.154  27.039  1.00  0.00    -0.203 F 
ATOM     64  F   UNL A   1      41.904  23.124  26.376  1.00  0.00    -0.200 F 
ATOM     65  C   UNL A   1      43.252  24.898  25.598  1.00  0.00     0.200 A 
ATOM     66  F   UNL A   1      44.600  26.694  24.866  1.00  0.00    -0.200 F 
ATOM     67  F   UNL A   1      43.611  24.175  24.529  1.00  0.00    -0.200 F 
ENDBRANCH  43  57
BRANCH  44  68
ATOM     68  C   UNL A   1      39.326  32.051  35.420  1.00  0.00     0.064 A 
ATOM     69  C   UNL A   1      38.482  31.493  36.389  1.00  0.00     0.173 A 
ATOM     70  C   UNL A   1      39.707  33.391  35.575  1.00  0.00     0.173 A 
ATOM     71  F   UNL A   1      38.071  30.222  36.266  1.00  0.00    -0.203 F 
ATOM     72  C   UNL A   1      38.034  32.248  37.471  1.00  0.00     0.198 A 
ATOM     73  C   UNL A   1      39.279  34.138  36.670  1.00  0.00     0.198 A 
ATOM     74  F   UNL A   1      40.514  33.968  34.673  1.00  0.00    -0.203 F 
ATOM     75  F   UNL A   1      37.204  31.701  38.369  1.00  0.00    -0.200 F 
ATOM     76  C   UNL A   1      38.439  33.567  37.615  1.00  0.00     0.200 A 
ATOM     77  F   UNL A   1      39.681  35.408  36.810  1.00  0.00    -0.200 F 
ATOM     78  F   UNL A   1      38.017  34.290  38.660  1.00  0.00    -0.200 F 
ENDBRANCH  44  68
BRANCH  56  79
ATOM     79  C   UNL A   1      44.735  27.763  34.560  1.00  0.00     0.064 A 
ATOM     80  C   UNL A   1      45.939  28.478  34.613  1.00  0.00     0.173 A 
ATOM     81  C   UNL A   1      44.586  26.656  35.409  1.00  0.00     0.173 A 
ATOM     82  F   UNL A   1      46.131  29.534  33.808  1.00  0.00    -0.203 F 
ATOM     83  C   UNL A   1      46.964  28.090  35.470  1.00  0.00     0.198 A 
ATOM     84  C   UNL A   1      45.605  26.281  36.278  1.00  0.00     0.198 A 
ATOM     85  F   UNL A   1      43.450  25.942  35.394  1.00  0.00    -0.203 F 
ATOM     86  F   UNL A   1      48.120  28.767  35.480  1.00  0.00    -0.200 F 
ATOM     87  C   UNL A   1      46.795  26.995  36.305  1.00  0.00     0.200 A 
ATOM     88  F   UNL A   1      45.439  25.226  37.088  1.00  0.00    -0.200 F 
ATOM     89  F   UNL A   1      47.782  26.622  37.131  1.00  0.00    -0.200 F 
ENDBRANCH  56  79
ENDBRANCH  30  31
ENDBRANCH  23  25
ENDBRANCH  22  23
ENDBRANCH  21  22
ENDBRANCH   1  21
TORSDOF 14
ENDMDL
MODEL 3
REMARK VINA RESULT:      -9.2      4.509      8.623
REMARK SMILES C[C@H](C(=O)OCCOC(=O)c1ccc(-c2c3nc(c(-c4c(F)c(F)c(F)c(F)c4F)c4ccc([nH]4)c(-c4c(F)c(F)c(F)c(F)c4F)c4nc(c(-c5c(F)c(F)c(F)c(F)c5F)c5ccc2[nH]5)C=C4)C=C3)cc1)c1cccc(C(=O)c2ccccc2)c1
REMARK SMILES IDX 6 1 5 2 3 3 4 4 2 5 1 6 74 7 75 8 87 9 76 10 78 11 77 12
REMARK SMILES IDX 79 13 80 14 81 15 82 16 86 17 83 18 85 19 84 20 7 21 8 22
REMARK SMILES IDX 9 23 10 24 11 25 12 26 73 27 13 28 72 29 14 30 15 31 16 32
REMARK SMILES IDX 66 33 17 34 71 35 65 36 67 37 18 38 70 39 64 40 63 41 19 43
REMARK SMILES IDX 51 44 31 45 50 46 32 47 35 48 49 49 68 50 33 51 34 52 48 54
REMARK SMILES IDX 69 55 36 56 20 57 21 58 29 59 22 60 23 61 27 62 30 63 24 64
REMARK SMILES IDX 25 65 28 66 26 67 52 68 53 69 61 70 54 71 55 72 59 73 62 74
REMARK SMILES IDX 56 75 57 76 60 77 58 78 37 79 38 80 46 81 39 82 40 83 44 84
REMARK SMILES IDX 47 85 41 86 42 87 45 88 43 89
REMARK H PARENT 67 42 35 53
REMARK Flexibility Score: inf
ROOT
ATOM      1  C   UNL A   1      32.596  28.584  25.194  1.00  0.00     0.274 C 
ENDROOT
BRANCH   1   2
ATOM      2  O   UNL A   1      31.301  27.960  25.143  1.00  0.00    -0.462 OA
BRANCH   2   3
ATOM      3  C   UNL A   1      31.058  26.987  26.064  1.00  0.00     0.313 C 
ATOM      4  O   UNL A   1      31.345  27.077  27.253  1.00  0.00    -0.252 OA
BRANCH   3   5
ATOM      5  C   UNL A   1      30.254  25.830  25.470  1.00  0.00     0.126 C 
ATOM      6  C   UNL A   1      29.552  26.163  24.152  1.00  0.00     0.025 C 
BRANCH   5   7
ATOM      7  C   UNL A   1      31.039  24.534  25.318  1.00  0.00    -0.033 A 
ATOM      8  C   UNL A   1      30.652  23.341  25.943  1.00  0.00     0.004 A 
ATOM      9  C   UNL A   1      32.242  24.552  24.585  1.00  0.00     0.016 A 
ATOM     10  C   UNL A   1      31.444  22.197  25.839  1.00  0.00     0.001 A 
ATOM     11  C   UNL A   1      33.072  23.424  24.527  1.00  0.00     0.023 A 
ATOM     12  C   UNL A   1      32.653  22.241  25.144  1.00  0.00     0.012 A 
BRANCH  11  13
ATOM     13  C   UNL A   1      34.381  23.423  23.807  1.00  0.00     0.193 C 
ATOM     14  O   UNL A   1      34.421  23.747  22.622  1.00  0.00    -0.289 OA
BRANCH  13  15
ATOM     15  C   UNL A   1      35.655  23.072  24.481  1.00  0.00     0.022 A 
ATOM     16  C   UNL A   1      36.205  24.003  25.370  1.00  0.00     0.012 A 
ATOM     17  C   UNL A   1      36.321  21.866  24.235  1.00  0.00     0.012 A 
ATOM     18  C   UNL A   1      37.385  23.704  26.052  1.00  0.00     0.001 A 
ATOM     19  C   UNL A   1      37.495  21.565  24.928  1.00  0.00     0.001 A 
ATOM     20  C   UNL A   1      38.020  22.480  25.841  1.00  0.00     0.000 A 
ENDBRANCH  13  15
ENDBRANCH  11  13
ENDBRANCH   5   7
ENDBRANCH   3   5
ENDBRANCH   2   3
ENDBRANCH   1   2
BRANCH   1  21
ATOM     21  C   UNL A   1      32.435  30.079  25.464  1.00  0.00     0.275 C 
BRANCH  21  22
ATOM     22  O   UNL A   1      32.486  30.342  26.880  1.00  0.00    -0.458 OA
BRANCH  22  23
ATOM     23  C   UNL A   1      33.142  31.469  27.239  1.00  0.00     0.338 C 
ATOM     24  O   UNL A   1      32.770  32.623  27.121  1.00  0.00    -0.246 OA
BRANCH  23  25
ATOM     25  C   UNL A   1      34.442  31.117  27.829  1.00  0.00     0.060 A 
ATOM     26  C   UNL A   1      34.701  29.803  28.222  1.00  0.00     0.016 A 
ATOM     27  C   UNL A   1      35.360  32.133  28.099  1.00  0.00     0.016 A 
ATOM     28  C   UNL A   1      35.862  29.511  28.939  1.00  0.00     0.010 A 
ATOM     29  C   UNL A   1      36.555  31.823  28.750  1.00  0.00     0.010 A 
ATOM     30  C   UNL A   1      36.808  30.514  29.198  1.00  0.00    -0.014 A 
BRANCH  30  31
ATOM     31  C   UNL A   1      38.060  30.212  29.939  1.00  0.00     0.031 A 
ATOM     32  C   UNL A   1      39.094  29.300  29.337  1.00  0.00     0.074 A 
ATOM     33  C   UNL A   1      38.258  30.726  31.167  1.00  0.00     0.049 A 
ATOM     34  N   UNL A   1      40.147  28.757  29.896  1.00  0.00    -0.248 NA
ATOM     35  C   UNL A   1      38.912  28.938  27.924  1.00  0.00     0.031 C 
ATOM     36  C   UNL A   1      37.353  31.648  31.854  1.00  0.00     0.029 A 
ATOM     37  N   UNL A   1      39.285  30.539  32.059  1.00  0.00    -0.354 N 
ATOM     38  C   UNL A   1      40.723  27.955  28.921  1.00  0.00     0.074 A 
ATOM     39  C   UNL A   1      39.906  28.082  27.732  1.00  0.00     0.031 C 
ATOM     40  C   UNL A   1      37.871  31.957  33.053  1.00  0.00     0.029 A 
ATOM     41  C   UNL A   1      39.106  31.206  33.246  1.00  0.00     0.049 A 
ATOM     42  H   UNL A   1      40.071  29.980  31.867  1.00  0.00     0.167 HD
ATOM     43  C   UNL A   1      41.829  27.179  29.014  1.00  0.00     0.037 A 
ATOM     44  C   UNL A   1      39.834  31.185  34.377  1.00  0.00     0.037 A 
ATOM     45  C   UNL A   1      42.669  27.092  30.180  1.00  0.00     0.049 A 
ATOM     46  C   UNL A   1      41.051  30.309  34.459  1.00  0.00     0.074 A 
ATOM     47  C   UNL A   1      43.825  26.351  30.359  1.00  0.00     0.029 A 
ATOM     48  N   UNL A   1      42.448  27.780  31.363  1.00  0.00    -0.354 N 
ATOM     49  N   UNL A   1      41.560  29.518  33.548  1.00  0.00    -0.248 NA
ATOM     50  C   UNL A   1      41.782  30.309  35.734  1.00  0.00     0.031 C 
ATOM     51  C   UNL A   1      44.292  26.574  31.659  1.00  0.00     0.029 A 
ATOM     52  C   UNL A   1      43.442  27.476  32.280  1.00  0.00     0.049 A 
ATOM     53  H   UNL A   1      41.697  28.394  31.528  1.00  0.00     0.167 HD
ATOM     54  C   UNL A   1      42.671  28.930  34.133  1.00  0.00     0.074 A 
ATOM     55  C   UNL A   1      42.774  29.469  35.474  1.00  0.00     0.031 C 
ATOM     56  C   UNL A   1      43.527  28.021  33.608  1.00  0.00     0.037 A 
BRANCH  43  57
ATOM     57  C   UNL A   1      42.187  26.336  27.827  1.00  0.00     0.064 A 
ATOM     58  C   UNL A   1      43.184  26.721  26.920  1.00  0.00     0.173 A 
ATOM     59  C   UNL A   1      41.549  25.103  27.621  1.00  0.00     0.173 A 
ATOM     60  F   UNL A   1      43.811  27.898  27.066  1.00  0.00    -0.203 F 
ATOM     61  C   UNL A   1      43.520  25.908  25.841  1.00  0.00     0.198 A 
ATOM     62  C   UNL A   1      41.902  24.284  26.553  1.00  0.00     0.198 A 
ATOM     63  F   UNL A   1      40.590  24.690  28.463  1.00  0.00    -0.203 F 
ATOM     64  F   UNL A   1      44.453  26.310  24.966  1.00  0.00    -0.200 F 
ATOM     65  C   UNL A   1      42.884  24.689  25.662  1.00  0.00     0.200 A 
ATOM     66  F   UNL A   1      41.291  23.102  26.386  1.00  0.00    -0.200 F 
ATOM     67  F   UNL A   1      43.213  23.905  24.626  1.00  0.00    -0.200 F 
ENDBRANCH  43  57
BRANCH  44  68
ATOM     68  C   UNL A   1      39.404  32.003  35.538  1.00  0.00     0.064 A 
ATOM     69  C   UNL A   1      39.854  33.320  35.693  1.00  0.00     0.173 A 
ATOM     70  C   UNL A   1      38.522  31.493  36.502  1.00  0.00     0.173 A 
ATOM     71  F   UNL A   1      40.719  33.840  34.810  1.00  0.00    -0.203 F 
ATOM     72  C   UNL A   1      39.439  34.099  36.772  1.00  0.00     0.198 A 
ATOM     73  C   UNL A   1      38.089  32.279  37.567  1.00  0.00     0.198 A 
ATOM     74  F   UNL A   1      38.065  30.237  36.395  1.00  0.00    -0.203 F 
ATOM     75  F   UNL A   1      39.906  35.346  36.914  1.00  0.00    -0.200 F 
ATOM     76  C   UNL A   1      38.551  33.580  37.703  1.00  0.00     0.200 A 
ATOM     77  F   UNL A   1      37.224  31.778  38.459  1.00  0.00    -0.200 F 
ATOM     78  F   UNL A   1      38.145  34.330  38.735  1.00  0.00    -0.200 F 
ENDBRANCH  44  68
BRANCH  56  79
ATOM     79  C   UNL A   1      44.655  27.565  34.482  1.00  0.00     0.064 A 
ATOM     80  C   UNL A   1      45.871  28.261  34.524  1.00  0.00     0.173 A 
ATOM     81  C   UNL A   1      44.507  26.440  35.306  1.00  0.00     0.173 A 
ATOM     82  F   UNL A   1      46.061  29.334  33.742  1.00  0.00    -0.203 F 
ATOM     83  C   UNL A   1      46.909  27.835  35.347  1.00  0.00     0.198 A 
ATOM     84  C   UNL A   1      45.541  26.027  36.141  1.00  0.00     0.198 A 
ATOM     85  F   UNL A   1      43.360  25.744  35.300  1.00  0.00    -0.203 F 
ATOM     86  F   UNL A   1      48.075  28.493  35.348  1.00  0.00    -0.200 F 
ATOM     87  C   UNL A   1      46.742  26.722  36.158  1.00  0.00     0.200 A 
ATOM     88  F   UNL A   1      45.376  24.954  36.928  1.00  0.00    -0.200 F 
ATOM     89  F   UNL A   1      47.742  26.313  36.951  1.00  0.00    -0.200 F 
ENDBRANCH  56  79
ENDBRANCH  30  31
ENDBRANCH  23  25
ENDBRANCH  22  23
ENDBRANCH  21  22
ENDBRANCH   1  21
TORSDOF 14
ENDMDL
