MODEL 1
REMARK VINA RESULT:     -11.3      0.000      0.000
REMARK SMILES C[C@@H](C[N@H+](C)[C@H]1CSCC(C)(C)C1)C(=O)OCCOC(=O)c1ccc(-c2c3nc(c(-c4c(F)c(F)c(F)c(F)c4F)c4ccc([nH]4)c(-c4c(F)c(F)c(F)c(F)c4F)c4nc(c(-c5c(F)c(F)c(F)c(F)c5F)c5ccc2[nH]5)C=C4)C=C3)cc1
REMARK SMILES IDX 17 1 16 2 14 3 15 4 2 5 1 6 3 7 4 8 5 9 6 11 7 12 13 13 8 14
REMARK SMILES IDX 10 15 9 16 11 17 12 18 18 19 19 20 20 21 21 22 22 23 23 24
REMARK SMILES IDX 84 25 24 26 83 27 25 28 26 29 27 30 77 31 28 32 82 33 76 34
REMARK SMILES IDX 78 35 29 36 81 37 75 38 74 39 30 41 62 42 42 43 61 44 43 45
REMARK SMILES IDX 46 46 60 47 79 48 44 49 45 50 59 52 80 53 47 54 31 55 32 56
REMARK SMILES IDX 40 57 33 58 34 59 38 60 41 61 35 62 36 63 39 64 37 65 63 66
REMARK SMILES IDX 64 67 72 68 65 69 66 70 70 71 73 72 67 73 68 74 71 75 69 76
REMARK SMILES IDX 48 77 49 78 57 79 50 80 51 81 55 82 58 83 52 84 53 85 56 86
REMARK SMILES IDX 54 87
REMARK H PARENT 4 10 78 40 46 51
REMARK Flexibility Score: inf
ROOT
ATOM      1  C   UNL A   1      31.474  31.154  26.142  1.00  0.00     0.274 C 
ENDROOT
BRANCH   1   2
ATOM      2  O   UNL A   1      32.477  30.116  26.139  1.00  0.00    -0.462 OA
BRANCH   2   3
ATOM      3  C   UNL A   1      32.074  28.861  26.480  1.00  0.00     0.314 C 
ATOM      4  O   UNL A   1      31.565  28.569  27.558  1.00  0.00    -0.252 OA
BRANCH   3   5
ATOM      5  C   UNL A   1      32.360  27.814  25.418  1.00  0.00     0.151 C 
ATOM      6  C   UNL A   1      33.184  26.631  25.910  1.00  0.00     0.026 C 
BRANCH   5   7
ATOM      7  C   UNL A   1      31.115  27.412  24.580  1.00  0.00     0.277 C 
BRANCH   7   8
ATOM      8  N   UNL A   1      31.031  27.865  23.174  1.00  0.00    -0.334 N 
ATOM      9  C   UNL A   1      32.230  28.637  22.810  1.00  0.00     0.333 C 
ATOM     10  H   UNL A   1      30.961  26.976  22.678  1.00  0.00     0.348 HD
BRANCH   8  11
ATOM     11  C   UNL A   1      29.806  28.600  22.709  1.00  0.00     0.194 C 
ATOM     12  C   UNL A   1      28.615  27.952  23.446  1.00  0.00     0.134 C 
ATOM     13  C   UNL A   1      29.858  30.133  22.835  1.00  0.00     0.073 C 
ATOM     14  S   UNL A   1      27.000  28.701  23.081  1.00  0.00    -0.155 SA
ATOM     15  C   UNL A   1      28.580  30.969  22.617  1.00  0.00    -0.021 C 
ATOM     16  C   UNL A   1      27.417  30.423  23.464  1.00  0.00     0.076 C 
ATOM     17  C   UNL A   1      28.206  31.046  21.129  1.00  0.00     0.012 C 
ATOM     18  C   UNL A   1      28.892  32.415  23.081  1.00  0.00     0.012 C 
ENDBRANCH   8  11
ENDBRANCH   7   8
ENDBRANCH   5   7
ENDBRANCH   3   5
ENDBRANCH   2   3
ENDBRANCH   1   2
BRANCH   1  19
ATOM     19  C   UNL A   1      31.849  32.442  26.877  1.00  0.00     0.275 C 
BRANCH  19  20
ATOM     20  O   UNL A   1      32.830  32.201  27.895  1.00  0.00    -0.458 OA
BRANCH  20  21
ATOM     21  C   UNL A   1      33.763  33.171  27.975  1.00  0.00     0.338 C 
ATOM     22  O   UNL A   1      33.567  34.380  28.033  1.00  0.00    -0.246 OA
BRANCH  21  23
ATOM     23  C   UNL A   1      35.097  32.590  28.165  1.00  0.00     0.060 A 
ATOM     24  C   UNL A   1      35.148  31.201  28.323  1.00  0.00     0.016 A 
ATOM     25  C   UNL A   1      36.247  33.373  28.287  1.00  0.00     0.016 A 
ATOM     26  C   UNL A   1      36.337  30.585  28.668  1.00  0.00     0.010 A 
ATOM     27  C   UNL A   1      37.442  32.758  28.664  1.00  0.00     0.010 A 
ATOM     28  C   UNL A   1      37.467  31.374  28.906  1.00  0.00    -0.014 A 
BRANCH  28  29
ATOM     29  C   UNL A   1      38.574  30.750  29.653  1.00  0.00     0.031 A 
ATOM     30  C   UNL A   1      38.741  31.126  31.098  1.00  0.00     0.074 A 
ATOM     31  C   UNL A   1      39.311  29.784  29.086  1.00  0.00     0.049 A 
ATOM     32  N   UNL A   1      39.608  30.695  31.976  1.00  0.00    -0.248 NA
ATOM     33  C   UNL A   1      37.788  32.116  31.631  1.00  0.00     0.031 C 
ATOM     34  C   UNL A   1      39.157  29.305  27.713  1.00  0.00     0.029 A 
ATOM     35  N   UNL A   1      40.326  29.025  29.600  1.00  0.00    -0.354 N 
ATOM     36  C   UNL A   1      39.303  31.357  33.158  1.00  0.00     0.074 A 
ATOM     37  C   UNL A   1      38.192  32.240  32.886  1.00  0.00     0.031 C 
ATOM     38  C   UNL A   1      40.060  28.336  27.488  1.00  0.00     0.029 A 
ATOM     39  C   UNL A   1      40.867  28.152  28.691  1.00  0.00     0.049 A 
ATOM     40  H   UNL A   1      40.638  29.098  30.531  1.00  0.00     0.167 HD
ATOM     41  C   UNL A   1      39.897  31.228  34.367  1.00  0.00     0.037 A 
ATOM     42  C   UNL A   1      41.916  27.318  28.824  1.00  0.00     0.037 A 
ATOM     43  C   UNL A   1      41.012  30.353  34.610  1.00  0.00     0.049 A 
ATOM     44  C   UNL A   1      42.605  27.245  30.161  1.00  0.00     0.074 A 
ATOM     45  C   UNL A   1      41.734  30.169  35.775  1.00  0.00     0.029 A 
ATOM     46  N   UNL A   1      41.567  29.512  33.655  1.00  0.00    -0.354 N 
ATOM     47  N   UNL A   1      42.335  27.894  31.269  1.00  0.00    -0.248 NA
ATOM     48  C   UNL A   1      43.738  26.318  30.269  1.00  0.00     0.031 C 
ATOM     49  C   UNL A   1      42.749  29.242  35.513  1.00  0.00     0.029 A 
ATOM     50  C   UNL A   1      42.629  28.812  34.199  1.00  0.00     0.049 A 
ATOM     51  H   UNL A   1      41.251  29.425  32.727  1.00  0.00     0.167 HD
ATOM     52  C   UNL A   1      43.254  27.449  32.209  1.00  0.00     0.074 A 
ATOM     53  C   UNL A   1      44.068  26.449  31.545  1.00  0.00     0.031 C 
ATOM     54  C   UNL A   1      43.421  27.832  33.500  1.00  0.00     0.037 A 
BRANCH  41  55
ATOM     55  C   UNL A   1      39.374  32.075  35.489  1.00  0.00     0.064 A 
ATOM     56  C   UNL A   1      38.484  31.564  36.447  1.00  0.00     0.173 A 
ATOM     57  C   UNL A   1      39.767  33.415  35.612  1.00  0.00     0.173 A 
ATOM     58  F   UNL A   1      38.056  30.296  36.360  1.00  0.00    -0.203 F 
ATOM     59  C   UNL A   1      37.993  32.369  37.471  1.00  0.00     0.198 A 
ATOM     60  C   UNL A   1      39.295  34.211  36.653  1.00  0.00     0.198 A 
ATOM     61  F   UNL A   1      40.611  33.957  34.720  1.00  0.00    -0.203 F 
ATOM     62  F   UNL A   1      37.107  31.873  38.347  1.00  0.00    -0.200 F 
ATOM     63  C   UNL A   1      38.404  33.690  37.578  1.00  0.00     0.200 A 
ATOM     64  F   UNL A   1      39.698  35.485  36.757  1.00  0.00    -0.200 F 
ATOM     65  F   UNL A   1      37.934  34.462  38.567  1.00  0.00    -0.200 F 
ENDBRANCH  41  55
BRANCH  42  66
ATOM     66  C   UNL A   1      42.383  26.522  27.660  1.00  0.00     0.064 A 
ATOM     67  C   UNL A   1      43.380  27.000  26.799  1.00  0.00     0.173 A 
ATOM     68  C   UNL A   1      41.831  25.261  27.382  1.00  0.00     0.173 A 
ATOM     69  F   UNL A   1      43.925  28.206  27.009  1.00  0.00    -0.203 F 
ATOM     70  C   UNL A   1      43.794  26.256  25.694  1.00  0.00     0.198 A 
ATOM     71  C   UNL A   1      42.267  24.506  26.296  1.00  0.00     0.198 A 
ATOM     72  F   UNL A   1      40.874  24.758  28.174  1.00  0.00    -0.203 F 
ATOM     73  F   UNL A   1      44.716  26.755  24.861  1.00  0.00    -0.200 F 
ATOM     74  C   UNL A   1      43.242  25.007  25.448  1.00  0.00     0.200 A 
ATOM     75  F   UNL A   1      41.741  23.295  26.071  1.00  0.00    -0.200 F 
ATOM     76  F   UNL A   1      43.645  24.291  24.389  1.00  0.00    -0.200 F 
ENDBRANCH  42  66
BRANCH  54  77
ATOM     77  C   UNL A   1      44.517  27.150  34.264  1.00  0.00     0.064 A 
ATOM     78  C   UNL A   1      44.292  25.949  34.953  1.00  0.00     0.173 A 
ATOM     79  C   UNL A   1      45.807  27.700  34.297  1.00  0.00     0.173 A 
ATOM     80  F   UNL A   1      43.071  25.394  34.960  1.00  0.00    -0.203 F 
ATOM     81  C   UNL A   1      45.312  25.344  35.681  1.00  0.00     0.198 A 
ATOM     82  C   UNL A   1      46.831  27.074  35.000  1.00  0.00     0.198 A 
ATOM     83  F   UNL A   1      46.073  28.842  33.646  1.00  0.00    -0.203 F 
ATOM     84  F   UNL A   1      45.060  24.231  36.383  1.00  0.00    -0.200 F 
ATOM     85  C   UNL A   1      46.580  25.904  35.701  1.00  0.00     0.200 A 
ATOM     86  F   UNL A   1      48.061  27.609  35.007  1.00  0.00    -0.200 F 
ATOM     87  F   UNL A   1      47.559  25.321  36.406  1.00  0.00    -0.200 F 
ENDBRANCH  54  77
ENDBRANCH  28  29
ENDBRANCH  21  23
ENDBRANCH  20  21
ENDBRANCH  19  20
ENDBRANCH   1  19
TORSDOF 14
ENDMDL
MODEL 2
REMARK VINA RESULT:     -11.2      1.775      3.797
REMARK SMILES C[C@@H](C[N@H+](C)[C@H]1CSCC(C)(C)C1)C(=O)OCCOC(=O)c1ccc(-c2c3nc(c(-c4c(F)c(F)c(F)c(F)c4F)c4ccc([nH]4)c(-c4c(F)c(F)c(F)c(F)c4F)c4nc(c(-c5c(F)c(F)c(F)c(F)c5F)c5ccc2[nH]5)C=C4)C=C3)cc1
REMARK SMILES IDX 17 1 16 2 14 3 15 4 2 5 1 6 3 7 4 8 5 9 6 11 7 12 13 13 8 14
REMARK SMILES IDX 10 15 9 16 11 17 12 18 18 19 19 20 20 21 21 22 22 23 23 24
REMARK SMILES IDX 84 25 24 26 83 27 25 28 26 29 27 30 77 31 28 32 82 33 76 34
REMARK SMILES IDX 78 35 29 36 81 37 75 38 74 39 30 41 62 42 42 43 61 44 43 45
REMARK SMILES IDX 46 46 60 47 79 48 44 49 45 50 59 52 80 53 47 54 31 55 32 56
REMARK SMILES IDX 40 57 33 58 34 59 38 60 41 61 35 62 36 63 39 64 37 65 63 66
REMARK SMILES IDX 64 67 72 68 65 69 66 70 70 71 73 72 67 73 68 74 71 75 69 76
REMARK SMILES IDX 48 77 49 78 57 79 50 80 51 81 55 82 58 83 52 84 53 85 56 86
REMARK SMILES IDX 54 87
REMARK H PARENT 4 10 78 40 46 51
REMARK Flexibility Score: inf
ROOT
ATOM      1  C   UNL A   1      31.311  30.703  25.564  1.00  0.00     0.274 C 
ENDROOT
BRANCH   1   2
ATOM      2  O   UNL A   1      32.212  29.588  25.399  1.00  0.00    -0.462 OA
BRANCH   2   3
ATOM      3  C   UNL A   1      32.026  28.795  24.307  1.00  0.00     0.314 C 
ATOM      4  O   UNL A   1      32.540  29.001  23.211  1.00  0.00    -0.252 OA
BRANCH   3   5
ATOM      5  C   UNL A   1      31.069  27.641  24.541  1.00  0.00     0.151 C 
ATOM      6  C   UNL A   1      29.941  27.545  23.522  1.00  0.00     0.026 C 
BRANCH   5   7
ATOM      7  C   UNL A   1      31.776  26.287  24.830  1.00  0.00     0.277 C 
BRANCH   7   8
ATOM      8  N   UNL A   1      33.161  26.094  24.346  1.00  0.00    -0.334 N 
ATOM      9  C   UNL A   1      33.160  25.707  22.926  1.00  0.00     0.333 C 
ATOM     10  H   UNL A   1      33.563  27.018  24.509  1.00  0.00     0.348 HD
BRANCH   8  11
ATOM     11  C   UNL A   1      34.088  25.191  25.108  1.00  0.00     0.194 C 
ATOM     12  C   UNL A   1      33.185  24.292  25.981  1.00  0.00     0.134 C 
ATOM     13  C   UNL A   1      35.110  24.413  24.260  1.00  0.00     0.073 C 
ATOM     14  S   UNL A   1      34.078  23.066  26.980  1.00  0.00    -0.155 SA
ATOM     15  C   UNL A   1      35.944  23.284  24.900  1.00  0.00    -0.021 C 
ATOM     16  C   UNL A   1      35.038  22.292  25.651  1.00  0.00     0.076 C 
ATOM     17  C   UNL A   1      37.043  23.847  25.813  1.00  0.00     0.012 C 
ATOM     18  C   UNL A   1      36.654  22.528  23.748  1.00  0.00     0.012 C 
ENDBRANCH   8  11
ENDBRANCH   7   8
ENDBRANCH   5   7
ENDBRANCH   3   5
ENDBRANCH   2   3
ENDBRANCH   1   2
BRANCH   1  19
ATOM     19  C   UNL A   1      31.680  31.702  26.663  1.00  0.00     0.275 C 
BRANCH  19  20
ATOM     20  O   UNL A   1      32.875  31.311  27.350  1.00  0.00    -0.458 OA
BRANCH  20  21
ATOM     21  C   UNL A   1      33.650  32.354  27.708  1.00  0.00     0.338 C 
ATOM     22  O   UNL A   1      33.278  33.492  27.972  1.00  0.00    -0.246 OA
BRANCH  21  23
ATOM     23  C   UNL A   1      35.036  31.920  27.921  1.00  0.00     0.060 A 
ATOM     24  C   UNL A   1      35.246  30.539  27.992  1.00  0.00     0.016 A 
ATOM     25  C   UNL A   1      36.079  32.822  28.146  1.00  0.00     0.016 A 
ATOM     26  C   UNL A   1      36.485  30.044  28.351  1.00  0.00     0.010 A 
ATOM     27  C   UNL A   1      37.323  32.326  28.538  1.00  0.00     0.010 A 
ATOM     28  C   UNL A   1      37.504  30.940  28.691  1.00  0.00    -0.014 A 
BRANCH  28  29
ATOM     29  C   UNL A   1      38.647  30.398  29.447  1.00  0.00     0.031 A 
ATOM     30  C   UNL A   1      38.804  30.827  30.878  1.00  0.00     0.074 A 
ATOM     31  C   UNL A   1      39.430  29.456  28.903  1.00  0.00     0.049 A 
ATOM     32  N   UNL A   1      39.699  30.470  31.762  1.00  0.00    -0.248 NA
ATOM     33  C   UNL A   1      37.803  31.781  31.390  1.00  0.00     0.031 C 
ATOM     34  C   UNL A   1      39.292  28.927  27.546  1.00  0.00     0.029 A 
ATOM     35  N   UNL A   1      40.488  28.768  29.431  1.00  0.00    -0.354 N 
ATOM     36  C   UNL A   1      39.368  31.150  32.926  1.00  0.00     0.074 A 
ATOM     37  C   UNL A   1      38.209  31.964  32.637  1.00  0.00     0.031 C 
ATOM     38  C   UNL A   1      40.244  28.001  27.343  1.00  0.00     0.029 A 
ATOM     39  C   UNL A   1      41.068  27.897  28.544  1.00  0.00     0.049 A 
ATOM     40  H   UNL A   1      40.802  28.885  30.356  1.00  0.00     0.167 HD
ATOM     41  C   UNL A   1      39.977  31.090  34.133  1.00  0.00     0.037 A 
ATOM     42  C   UNL A   1      42.160  27.124  28.693  1.00  0.00     0.037 A 
ATOM     43  C   UNL A   1      41.138  30.282  34.393  1.00  0.00     0.049 A 
ATOM     44  C   UNL A   1      42.862  27.129  30.025  1.00  0.00     0.074 A 
ATOM     45  C   UNL A   1      41.877  30.172  35.556  1.00  0.00     0.029 A 
ATOM     46  N   UNL A   1      41.730  29.443  33.458  1.00  0.00    -0.354 N 
ATOM     47  N   UNL A   1      42.566  27.797  31.115  1.00  0.00    -0.248 NA
ATOM     48  C   UNL A   1      44.044  26.267  30.151  1.00  0.00     0.031 C 
ATOM     49  C   UNL A   1      42.938  29.293  35.313  1.00  0.00     0.029 A 
ATOM     50  C   UNL A   1      42.831  28.818  34.014  1.00  0.00     0.049 A 
ATOM     51  H   UNL A   1      41.412  29.311  32.536  1.00  0.00     0.167 HD
ATOM     52  C   UNL A   1      43.514  27.429  32.060  1.00  0.00     0.074 A 
ATOM     53  C   UNL A   1      44.375  26.454  31.420  1.00  0.00     0.031 C 
ATOM     54  C   UNL A   1      43.670  27.860  33.338  1.00  0.00     0.037 A 
BRANCH  41  55
ATOM     55  C   UNL A   1      39.417  31.942  35.234  1.00  0.00     0.064 A 
ATOM     56  C   UNL A   1      39.739  33.304  35.349  1.00  0.00     0.173 A 
ATOM     57  C   UNL A   1      38.547  31.393  36.186  1.00  0.00     0.173 A 
ATOM     58  F   UNL A   1      40.587  33.872  34.478  1.00  0.00    -0.203 F 
ATOM     59  C   UNL A   1      39.226  34.077  36.387  1.00  0.00     0.198 A 
ATOM     60  C   UNL A   1      38.015  32.175  37.209  1.00  0.00     0.198 A 
ATOM     61  F   UNL A   1      38.212  30.095  36.127  1.00  0.00    -0.203 F 
ATOM     62  F   UNL A   1      39.584  35.363  36.505  1.00  0.00    -0.200 F 
ATOM     63  C   UNL A   1      38.359  33.514  37.312  1.00  0.00     0.200 A 
ATOM     64  F   UNL A   1      37.173  31.630  38.097  1.00  0.00    -0.200 F 
ATOM     65  F   UNL A   1      37.863  34.259  38.309  1.00  0.00    -0.200 F 
ENDBRANCH  41  55
BRANCH  42  66
ATOM     66  C   UNL A   1      42.661  26.319  27.549  1.00  0.00     0.064 A 
ATOM     67  C   UNL A   1      42.165  25.037  27.282  1.00  0.00     0.173 A 
ATOM     68  C   UNL A   1      43.660  26.821  26.699  1.00  0.00     0.173 A 
ATOM     69  F   UNL A   1      41.224  24.504  28.075  1.00  0.00    -0.203 F 
ATOM     70  C   UNL A   1      42.659  24.280  26.220  1.00  0.00     0.198 A 
ATOM     71  C   UNL A   1      44.132  26.076  25.621  1.00  0.00     0.198 A 
ATOM     72  F   UNL A   1      44.171  28.043  26.910  1.00  0.00    -0.203 F 
ATOM     73  F   UNL A   1      42.200  23.038  26.014  1.00  0.00    -0.200 F 
ATOM     74  C   UNL A   1      43.638  24.803  25.388  1.00  0.00     0.200 A 
ATOM     75  F   UNL A   1      45.067  26.592  24.811  1.00  0.00    -0.200 F 
ATOM     76  F   UNL A   1      44.109  24.076  24.365  1.00  0.00    -0.200 F 
ENDBRANCH  42  66
BRANCH  54  77
ATOM     77  C   UNL A   1      44.806  27.261  34.113  1.00  0.00     0.064 A 
ATOM     78  C   UNL A   1      46.072  27.863  34.138  1.00  0.00     0.173 A 
ATOM     79  C   UNL A   1      44.620  26.080  34.846  1.00  0.00     0.173 A 
ATOM     80  F   UNL A   1      46.299  28.987  33.441  1.00  0.00    -0.203 F 
ATOM     81  C   UNL A   1      47.124  27.281  34.838  1.00  0.00     0.198 A 
ATOM     82  C   UNL A   1      45.667  25.518  35.570  1.00  0.00     0.198 A 
ATOM     83  F   UNL A   1      43.424  25.473  34.861  1.00  0.00    -0.203 F 
ATOM     84  F   UNL A   1      48.342  27.838  34.797  1.00  0.00    -0.200 F 
ATOM     85  C   UNL A   1      46.920  26.112  35.556  1.00  0.00     0.200 A 
ATOM     86  F   UNL A   1      45.465  24.396  36.276  1.00  0.00    -0.200 F 
ATOM     87  F   UNL A   1      47.935  25.551  36.226  1.00  0.00    -0.200 F 
ENDBRANCH  54  77
ENDBRANCH  28  29
ENDBRANCH  21  23
ENDBRANCH  20  21
ENDBRANCH  19  20
ENDBRANCH   1  19
TORSDOF 14
ENDMDL
MODEL 3
REMARK VINA RESULT:     -11.2      4.914      7.659
REMARK SMILES C[C@@H](C[N@H+](C)[C@H]1CSCC(C)(C)C1)C(=O)OCCOC(=O)c1ccc(-c2c3nc(c(-c4c(F)c(F)c(F)c(F)c4F)c4ccc([nH]4)c(-c4c(F)c(F)c(F)c(F)c4F)c4nc(c(-c5c(F)c(F)c(F)c(F)c5F)c5ccc2[nH]5)C=C4)C=C3)cc1
REMARK SMILES IDX 17 1 16 2 14 3 15 4 2 5 1 6 3 7 4 8 5 9 6 11 7 12 13 13 8 14
REMARK SMILES IDX 10 15 9 16 11 17 12 18 18 19 19 20 20 21 21 22 22 23 23 24
REMARK SMILES IDX 84 25 24 26 83 27 25 28 26 29 27 30 77 31 28 32 82 33 76 34
REMARK SMILES IDX 78 35 29 36 81 37 75 38 74 39 30 41 62 42 42 43 61 44 43 45
REMARK SMILES IDX 46 46 60 47 79 48 44 49 45 50 59 52 80 53 47 54 31 55 32 56
REMARK SMILES IDX 40 57 33 58 34 59 38 60 41 61 35 62 36 63 39 64 37 65 63 66
REMARK SMILES IDX 64 67 72 68 65 69 66 70 70 71 73 72 67 73 68 74 71 75 69 76
REMARK SMILES IDX 48 77 49 78 57 79 50 80 51 81 55 82 58 83 52 84 53 85 56 86
REMARK SMILES IDX 54 87
REMARK H PARENT 4 10 78 40 46 51
REMARK Flexibility Score: inf
ROOT
ATOM      1  C   UNL A   1      36.069  20.527  25.002  1.00  0.00     0.274 C 
ENDROOT
BRANCH   1   2
ATOM      2  O   UNL A   1      35.530  21.417  26.002  1.00  0.00    -0.462 OA
BRANCH   2   3
ATOM      3  C   UNL A   1      34.178  21.424  26.165  1.00  0.00     0.314 C 
ATOM      4  O   UNL A   1      33.616  21.432  27.257  1.00  0.00    -0.252 OA
BRANCH   3   5
ATOM      5  C   UNL A   1      33.401  21.363  24.862  1.00  0.00     0.151 C 
ATOM      6  C   UNL A   1      32.475  20.160  24.740  1.00  0.00     0.026 C 
BRANCH   5   7
ATOM      7  C   UNL A   1      32.743  22.712  24.460  1.00  0.00     0.277 C 
BRANCH   7   8
ATOM      8  N   UNL A   1      32.386  23.672  25.527  1.00  0.00    -0.334 N 
ATOM      9  C   UNL A   1      30.988  23.481  25.945  1.00  0.00     0.333 C 
ATOM     10  H   UNL A   1      33.059  23.425  26.254  1.00  0.00     0.348 HD
BRANCH   8  11
ATOM     11  C   UNL A   1      32.648  25.136  25.318  1.00  0.00     0.194 C 
ATOM     12  C   UNL A   1      31.949  25.508  23.993  1.00  0.00     0.134 C 
ATOM     13  C   UNL A   1      32.282  26.055  26.497  1.00  0.00     0.073 C 
ATOM     14  S   UNL A   1      32.084  27.261  23.532  1.00  0.00    -0.155 SA
ATOM     15  C   UNL A   1      32.280  27.587  26.309  1.00  0.00    -0.021 C 
ATOM     16  C   UNL A   1      31.458  27.986  25.071  1.00  0.00     0.076 C 
ATOM     17  C   UNL A   1      33.709  28.146  26.242  1.00  0.00     0.012 C 
ATOM     18  C   UNL A   1      31.611  28.202  27.565  1.00  0.00     0.012 C 
ENDBRANCH   8  11
ENDBRANCH   7   8
ENDBRANCH   5   7
ENDBRANCH   3   5
ENDBRANCH   2   3
ENDBRANCH   1   2
BRANCH   1  19
ATOM     19  C   UNL A   1      37.592  20.371  24.999  1.00  0.00     0.275 C 
BRANCH  19  20
ATOM     20  O   UNL A   1      38.245  21.579  25.411  1.00  0.00    -0.458 OA
BRANCH  20  21
ATOM     21  C   UNL A   1      39.366  21.359  26.127  1.00  0.00     0.338 C 
ATOM     22  O   UNL A   1      40.047  20.340  26.139  1.00  0.00    -0.246 OA
BRANCH  21  23
ATOM     23  C   UNL A   1      39.800  22.591  26.797  1.00  0.00     0.060 A 
ATOM     24  C   UNL A   1      39.165  23.770  26.394  1.00  0.00     0.016 A 
ATOM     25  C   UNL A   1      40.857  22.617  27.711  1.00  0.00     0.016 A 
ATOM     26  C   UNL A   1      39.619  24.993  26.849  1.00  0.00     0.010 A 
ATOM     27  C   UNL A   1      41.337  23.852  28.148  1.00  0.00     0.010 A 
ATOM     28  C   UNL A   1      40.749  25.036  27.672  1.00  0.00    -0.014 A 
BRANCH  28  29
ATOM     29  C   UNL A   1      41.437  26.334  27.797  1.00  0.00     0.031 A 
ATOM     30  C   UNL A   1      40.724  27.434  28.530  1.00  0.00     0.074 A 
ATOM     31  C   UNL A   1      42.706  26.468  27.384  1.00  0.00     0.049 A 
ATOM     32  N   UNL A   1      41.124  28.648  28.805  1.00  0.00    -0.248 NA
ATOM     33  C   UNL A   1      39.377  27.117  29.038  1.00  0.00     0.031 C 
ATOM     34  C   UNL A   1      43.495  25.421  26.736  1.00  0.00     0.029 A 
ATOM     35  N   UNL A   1      43.555  27.538  27.460  1.00  0.00    -0.354 N 
ATOM     36  C   UNL A   1      40.084  29.233  29.515  1.00  0.00     0.074 A 
ATOM     37  C   UNL A   1      39.021  28.258  29.608  1.00  0.00     0.031 C 
ATOM     38  C   UNL A   1      44.717  25.907  26.460  1.00  0.00     0.029 A 
ATOM     39  C   UNL A   1      44.779  27.302  26.889  1.00  0.00     0.049 A 
ATOM     40  H   UNL A   1      43.312  28.392  27.885  1.00  0.00     0.167 HD
ATOM     41  C   UNL A   1      40.029  30.475  30.049  1.00  0.00     0.037 A 
ATOM     42  C   UNL A   1      45.819  28.139  26.716  1.00  0.00     0.037 A 
ATOM     43  C   UNL A   1      41.094  31.434  29.931  1.00  0.00     0.049 A 
ATOM     44  C   UNL A   1      45.705  29.540  27.258  1.00  0.00     0.074 A 
ATOM     45  C   UNL A   1      41.142  32.739  30.383  1.00  0.00     0.029 A 
ATOM     46  N   UNL A   1      42.308  31.178  29.305  1.00  0.00    -0.354 N 
ATOM     47  N   UNL A   1      44.709  30.101  27.901  1.00  0.00    -0.248 NA
ATOM     48  C   UNL A   1      46.863  30.420  27.058  1.00  0.00     0.031 C 
ATOM     49  C   UNL A   1      42.372  33.285  29.998  1.00  0.00     0.029 A 
ATOM     50  C   UNL A   1      43.109  32.305  29.350  1.00  0.00     0.049 A 
ATOM     51  H   UNL A   1      42.561  30.322  28.891  1.00  0.00     0.167 HD
ATOM     52  C   UNL A   1      45.120  31.394  28.194  1.00  0.00     0.074 A 
ATOM     53  C   UNL A   1      46.472  31.520  27.684  1.00  0.00     0.031 C 
ATOM     54  C   UNL A   1      44.446  32.392  28.819  1.00  0.00     0.037 A 
BRANCH  41  55
ATOM     55  C   UNL A   1      38.771  30.864  30.768  1.00  0.00     0.064 A 
ATOM     56  C   UNL A   1      37.674  31.418  30.088  1.00  0.00     0.173 A 
ATOM     57  C   UNL A   1      38.658  30.682  32.153  1.00  0.00     0.173 A 
ATOM     58  F   UNL A   1      37.741  31.637  28.766  1.00  0.00    -0.203 F 
ATOM     59  C   UNL A   1      36.521  31.792  30.773  1.00  0.00     0.198 A 
ATOM     60  C   UNL A   1      37.493  31.032  32.831  1.00  0.00     0.198 A 
ATOM     61  F   UNL A   1      39.679  30.163  32.853  1.00  0.00    -0.203 F 
ATOM     62  F   UNL A   1      35.503  32.361  30.111  1.00  0.00    -0.200 F 
ATOM     63  C   UNL A   1      36.428  31.592  32.143  1.00  0.00     0.200 A 
ATOM     64  F   UNL A   1      37.404  30.833  34.154  1.00  0.00    -0.200 F 
ATOM     65  F   UNL A   1      35.316  31.948  32.800  1.00  0.00    -0.200 F 
ENDBRANCH  41  55
BRANCH  42  66
ATOM     66  C   UNL A   1      47.026  27.683  25.979  1.00  0.00     0.064 A 
ATOM     67  C   UNL A   1      47.095  27.739  24.581  1.00  0.00     0.173 A 
ATOM     68  C   UNL A   1      48.138  27.171  26.667  1.00  0.00     0.173 A 
ATOM     69  F   UNL A   1      46.052  28.200  23.876  1.00  0.00    -0.203 F 
ATOM     70  C   UNL A   1      48.223  27.284  23.898  1.00  0.00     0.198 A 
ATOM     71  C   UNL A   1      49.275  26.745  25.985  1.00  0.00     0.198 A 
ATOM     72  F   UNL A   1      48.123  27.094  28.005  1.00  0.00    -0.203 F 
ATOM     73  F   UNL A   1      48.246  27.306  22.558  1.00  0.00    -0.200 F 
ATOM     74  C   UNL A   1      49.314  26.794  24.601  1.00  0.00     0.200 A 
ATOM     75  F   UNL A   1      50.332  26.287  26.669  1.00  0.00    -0.200 F 
ATOM     76  F   UNL A   1      50.399  26.362  23.943  1.00  0.00    -0.200 F 
ENDBRANCH  42  66
BRANCH  54  77
ATOM     77  C   UNL A   1      45.177  33.691  28.987  1.00  0.00     0.064 A 
ATOM     78  C   UNL A   1      45.972  33.944  30.115  1.00  0.00     0.173 A 
ATOM     79  C   UNL A   1      45.090  34.687  28.003  1.00  0.00     0.173 A 
ATOM     80  F   UNL A   1      46.075  33.025  31.087  1.00  0.00    -0.203 F 
ATOM     81  C   UNL A   1      46.622  35.164  30.270  1.00  0.00     0.198 A 
ATOM     82  C   UNL A   1      45.767  35.894  28.147  1.00  0.00     0.198 A 
ATOM     83  F   UNL A   1      44.350  34.488  26.902  1.00  0.00    -0.203 F 
ATOM     84  F   UNL A   1      47.324  35.409  31.384  1.00  0.00    -0.200 F 
ATOM     85  C   UNL A   1      46.522  36.136  29.285  1.00  0.00     0.200 A 
ATOM     86  F   UNL A   1      45.681  36.827  27.189  1.00  0.00    -0.200 F 
ATOM     87  F   UNL A   1      47.145  37.312  29.439  1.00  0.00    -0.200 F 
ENDBRANCH  54  77
ENDBRANCH  28  29
ENDBRANCH  21  23
ENDBRANCH  20  21
ENDBRANCH  19  20
ENDBRANCH   1  19
TORSDOF 14
ENDMDL
