MODEL 1
REMARK VINA RESULT:     -13.3      0.000      0.000
REMARK SMILES COc1cc(/C=C2/S/C(=[NH+]\C(C)=O)NC2=O)cc(Br)c1OCC(=O)OCCOC(=O)c1ccc(-c2c3nc(c(-c4c(F)c(F)c(F)c(F)c4F)c4ccc([nH]4)c(-c4c(F)c(F)c(F)c(F)c4F)c4nc(c(-c5c(F)c(F)c(F)c(F)c5F)c5ccc2[nH]5)C=C4)C=C3)cc1
REMARK SMILES IDX 26 1 25 2 23 3 24 4 22 5 21 6 20 7 3 8 4 9 5 10 18 11 17 12
REMARK SMILES IDX 19 13 2 14 1 15 6 16 7 17 8 18 15 19 9 20 14 21 16 22 10 23
REMARK SMILES IDX 11 25 12 27 13 28 27 29 28 30 29 31 30 32 31 33 32 34 93 35
REMARK SMILES IDX 33 36 92 37 34 38 35 39 36 40 86 41 37 42 91 43 85 44 87 45
REMARK SMILES IDX 38 46 90 47 84 48 83 49 39 51 71 52 51 53 70 54 52 55 55 56
REMARK SMILES IDX 69 57 88 58 53 59 54 60 68 62 89 63 56 64 40 65 41 66 49 67
REMARK SMILES IDX 42 68 43 69 47 70 50 71 44 72 45 73 48 74 46 75 72 76 73 77
REMARK SMILES IDX 81 78 74 79 75 80 79 81 82 82 76 83 77 84 80 85 78 86 57 87
REMARK SMILES IDX 58 88 66 89 59 90 60 91 64 92 67 93 61 94 62 95 65 96 63 97
REMARK H PARENT 14 24 10 26 87 50 55 61
REMARK Flexibility Score: inf
ROOT
ATOM      1  C   UNL A   1      31.121  29.308  24.746  1.00  0.00     0.274 C 
ENDROOT
BRANCH   1   2
ATOM      2  O   UNL A   1      30.255  29.835  23.711  1.00  0.00    -0.460 OA
BRANCH   2   3
ATOM      3  C   UNL A   1      30.295  29.177  22.528  1.00  0.00     0.344 C 
ATOM      4  O   UNL A   1      30.035  29.703  21.445  1.00  0.00    -0.248 OA
BRANCH   3   5
ATOM      5  C   UNL A   1      30.643  27.678  22.607  1.00  0.00     0.352 C 
BRANCH   5   6
ATOM      6  O   UNL A   1      31.881  27.059  22.892  1.00  0.00    -0.477 OA
BRANCH   6   7
ATOM      7  C   UNL A   1      31.883  25.722  23.187  1.00  0.00     0.176 A 
ATOM      8  C   UNL A   1      32.553  24.897  22.261  1.00  0.00     0.162 A 
ATOM      9  C   UNL A   1      32.536  23.502  22.408  1.00  0.00     0.058 A 
ATOM     10  C   UNL A   1      31.902  22.915  23.506  1.00  0.00    -0.019 A 
ATOM     11  C   UNL A   1      31.420  25.137  24.372  1.00  0.00     0.064 A 
ATOM     12  C   UNL A   1      31.389  23.740  24.511  1.00  0.00     0.028 A 
ATOM     13  Br  UNL A   1      31.040  26.136  25.946  1.00  0.00    -0.047 Br
BRANCH   8  14
ATOM     14  O   UNL A   1      33.214  25.544  21.243  1.00  0.00    -0.493 OA
ATOM     15  C   UNL A   1      32.554  25.573  19.982  1.00  0.00     0.278 C 
ENDBRANCH   8  14
BRANCH  10  16
ATOM     16  C   UNL A   1      31.852  21.457  23.662  1.00  0.00     0.032 C 
ATOM     17  C   UNL A   1      32.809  20.677  24.187  1.00  0.00     0.110 C 
ATOM     18  S   UNL A   1      32.682  18.944  24.222  1.00  0.00     0.007 SA
ATOM     19  C   UNL A   1      34.125  21.062  24.769  1.00  0.00     0.346 C 
ATOM     20  C   UNL A   1      34.321  18.722  24.743  1.00  0.00     0.324 C 
ATOM     21  N   UNL A   1      34.889  19.941  24.932  1.00  0.00    -0.199 N 
ATOM     22  O   UNL A   1      34.472  22.165  25.146  1.00  0.00    -0.240 OA
ATOM     23  N   UNL A   1      35.049  17.701  24.989  1.00  0.00    -0.204 N 
ATOM     24  H   UNL A   1      35.838  20.016  25.184  1.00  0.00     0.316 HD
ATOM     25  C   UNL A   1      34.778  16.360  24.970  1.00  0.00     0.304 C 
ATOM     26  H   UNL A   1      35.975  17.920  25.238  1.00  0.00     0.316 HD
ATOM     27  C   UNL A   1      33.550  15.748  24.362  1.00  0.00     0.144 C 
ATOM     28  O   UNL A   1      35.606  15.581  25.447  1.00  0.00    -0.247 OA
ENDBRANCH  10  16
ENDBRANCH   6   7
ENDBRANCH   5   6
ENDBRANCH   3   5
ENDBRANCH   2   3
ENDBRANCH   1   2
BRANCH   1  29
ATOM     29  C   UNL A   1      31.561  30.372  25.758  1.00  0.00     0.275 C 
BRANCH  29  30
ATOM     30  O   UNL A   1      32.967  30.282  26.066  1.00  0.00    -0.458 OA
BRANCH  30  31
ATOM     31  C   UNL A   1      33.383  31.243  26.915  1.00  0.00     0.338 C 
ATOM     32  O   UNL A   1      32.772  32.233  27.266  1.00  0.00    -0.246 OA
BRANCH  31  33
ATOM     33  C   UNL A   1      34.688  30.947  27.499  1.00  0.00     0.060 A 
ATOM     34  C   UNL A   1      34.898  29.674  28.020  1.00  0.00     0.016 A 
ATOM     35  C   UNL A   1      35.585  31.983  27.759  1.00  0.00     0.016 A 
ATOM     36  C   UNL A   1      35.994  29.439  28.841  1.00  0.00     0.010 A 
ATOM     37  C   UNL A   1      36.730  31.723  28.517  1.00  0.00     0.010 A 
ATOM     38  C   UNL A   1      36.940  30.448  29.070  1.00  0.00    -0.014 A 
BRANCH  38  39
ATOM     39  C   UNL A   1      38.185  30.133  29.812  1.00  0.00     0.031 A 
ATOM     40  C   UNL A   1      39.225  29.212  29.244  1.00  0.00     0.074 A 
ATOM     41  C   UNL A   1      38.356  30.675  31.034  1.00  0.00     0.049 A 
ATOM     42  N   UNL A   1      40.271  28.687  29.832  1.00  0.00    -0.248 NA
ATOM     43  C   UNL A   1      39.072  28.825  27.834  1.00  0.00     0.031 C 
ATOM     44  C   UNL A   1      37.435  31.617  31.674  1.00  0.00     0.029 A 
ATOM     45  N   UNL A   1      39.356  30.508  31.959  1.00  0.00    -0.354 N 
ATOM     46  C   UNL A   1      40.883  27.883  28.879  1.00  0.00     0.074 A 
ATOM     47  C   UNL A   1      40.087  27.984  27.673  1.00  0.00     0.031 C 
ATOM     48  C   UNL A   1      37.919  31.959  32.874  1.00  0.00     0.029 A 
ATOM     49  C   UNL A   1      39.125  31.185  33.131  1.00  0.00     0.049 A 
ATOM     50  H   UNL A   1      40.156  29.959  31.799  1.00  0.00     0.167 HD
ATOM     51  C   UNL A   1      42.003  27.131  29.012  1.00  0.00     0.037 A 
ATOM     52  C   UNL A   1      39.772  31.142  34.309  1.00  0.00     0.037 A 
ATOM     53  C   UNL A   1      42.800  27.067  30.213  1.00  0.00     0.049 A 
ATOM     54  C   UNL A   1      40.957  30.236  34.453  1.00  0.00     0.074 A 
ATOM     55  C   UNL A   1      43.973  26.366  30.435  1.00  0.00     0.029 A 
ATOM     56  N   UNL A   1      42.502  27.729  31.397  1.00  0.00    -0.354 N 
ATOM     57  N   UNL A   1      41.517  29.462  33.557  1.00  0.00    -0.248 NA
ATOM     58  C   UNL A   1      41.588  30.182  35.778  1.00  0.00     0.031 C 
ATOM     59  C   UNL A   1      44.354  26.558  31.767  1.00  0.00     0.029 A 
ATOM     60  C   UNL A   1      43.450  27.421  32.362  1.00  0.00     0.049 A 
ATOM     61  H   UNL A   1      41.734  28.328  31.532  1.00  0.00     0.167 HD
ATOM     62  C   UNL A   1      42.571  28.834  34.203  1.00  0.00     0.074 A 
ATOM     63  C   UNL A   1      42.585  29.336  35.562  1.00  0.00     0.031 C 
ATOM     64  C   UNL A   1      43.443  27.920  33.714  1.00  0.00     0.037 A 
BRANCH  51  65
ATOM     65  C   UNL A   1      42.427  26.285  27.846  1.00  0.00     0.064 A 
ATOM     66  C   UNL A   1      41.853  25.033  27.586  1.00  0.00     0.173 A 
ATOM     67  C   UNL A   1      43.378  26.771  26.932  1.00  0.00     0.173 A 
ATOM     68  F   UNL A   1      40.946  24.518  28.430  1.00  0.00    -0.203 F 
ATOM     69  C   UNL A   1      42.226  24.290  26.467  1.00  0.00     0.198 A 
ATOM     70  C   UNL A   1      43.729  26.039  25.801  1.00  0.00     0.198 A 
ATOM     71  F   UNL A   1      43.954  27.966  27.127  1.00  0.00    -0.203 F 
ATOM     72  F   UNL A   1      41.691  23.079  26.259  1.00  0.00    -0.200 F 
ATOM     73  C   UNL A   1      43.157  24.796  25.572  1.00  0.00     0.200 A 
ATOM     74  F   UNL A   1      44.618  26.536  24.930  1.00  0.00    -0.200 F 
ATOM     75  F   UNL A   1      43.507  24.085  24.491  1.00  0.00    -0.200 F 
ENDBRANCH  51  65
BRANCH  52  76
ATOM     76  C   UNL A   1      39.261  31.940  35.452  1.00  0.00     0.064 A 
ATOM     77  C   UNL A   1      39.591  33.294  35.589  1.00  0.00     0.173 A 
ATOM     78  C   UNL A   1      38.407  31.373  36.411  1.00  0.00     0.173 A 
ATOM     79  F   UNL A   1      40.421  33.873  34.709  1.00  0.00    -0.203 F 
ATOM     80  C   UNL A   1      39.090  34.050  36.646  1.00  0.00     0.198 A 
ATOM     81  C   UNL A   1      37.880  32.138  37.448  1.00  0.00     0.198 A 
ATOM     82  F   UNL A   1      38.058  30.081  36.321  1.00  0.00    -0.203 F 
ATOM     83  F   UNL A   1      39.449  35.334  36.776  1.00  0.00    -0.200 F 
ATOM     84  C   UNL A   1      38.227  33.475  37.568  1.00  0.00     0.200 A 
ATOM     85  F   UNL A   1      37.031  31.582  38.323  1.00  0.00    -0.200 F 
ATOM     86  F   UNL A   1      37.734  34.208  38.575  1.00  0.00    -0.200 F 
ENDBRANCH  52  76
BRANCH  64  87
ATOM     87  C   UNL A   1      44.495  27.415  34.656  1.00  0.00     0.064 A 
ATOM     88  C   UNL A   1      45.712  28.093  34.824  1.00  0.00     0.173 A 
ATOM     89  C   UNL A   1      44.274  26.259  35.420  1.00  0.00     0.173 A 
ATOM     90  F   UNL A   1      45.978  29.191  34.101  1.00  0.00    -0.203 F 
ATOM     91  C   UNL A   1      46.678  27.619  35.707  1.00  0.00     0.198 A 
ATOM     92  C   UNL A   1      45.231  25.804  36.322  1.00  0.00     0.198 A 
ATOM     93  F   UNL A   1      43.126  25.576  35.296  1.00  0.00    -0.203 F 
ATOM     94  F   UNL A   1      47.852  28.255  35.817  1.00  0.00    -0.200 F 
ATOM     95  C   UNL A   1      46.433  26.479  36.461  1.00  0.00     0.200 A 
ATOM     96  F   UNL A   1      44.989  24.710  37.057  1.00  0.00    -0.200 F 
ATOM     97  F   UNL A   1      47.362  26.029  37.315  1.00  0.00    -0.200 F 
ENDBRANCH  64  87
ENDBRANCH  38  39
ENDBRANCH  31  33
ENDBRANCH  30  31
ENDBRANCH  29  30
ENDBRANCH   1  29
TORSDOF 15
ENDMDL
MODEL 2
REMARK VINA RESULT:     -13.2      4.641     10.366
REMARK SMILES COc1cc(/C=C2/S/C(=[NH+]\C(C)=O)NC2=O)cc(Br)c1OCC(=O)OCCOC(=O)c1ccc(-c2c3nc(c(-c4c(F)c(F)c(F)c(F)c4F)c4ccc([nH]4)c(-c4c(F)c(F)c(F)c(F)c4F)c4nc(c(-c5c(F)c(F)c(F)c(F)c5F)c5ccc2[nH]5)C=C4)C=C3)cc1
REMARK SMILES IDX 26 1 25 2 23 3 24 4 22 5 21 6 20 7 3 8 4 9 5 10 18 11 17 12
REMARK SMILES IDX 19 13 2 14 1 15 6 16 7 17 8 18 15 19 9 20 14 21 16 22 10 23
REMARK SMILES IDX 11 25 12 27 13 28 27 29 28 30 29 31 30 32 31 33 32 34 93 35
REMARK SMILES IDX 33 36 92 37 34 38 35 39 36 40 86 41 37 42 91 43 85 44 87 45
REMARK SMILES IDX 38 46 90 47 84 48 83 49 39 51 71 52 51 53 70 54 52 55 55 56
REMARK SMILES IDX 69 57 88 58 53 59 54 60 68 62 89 63 56 64 40 65 41 66 49 67
REMARK SMILES IDX 42 68 43 69 47 70 50 71 44 72 45 73 48 74 46 75 72 76 73 77
REMARK SMILES IDX 81 78 74 79 75 80 79 81 82 82 76 83 77 84 80 85 78 86 57 87
REMARK SMILES IDX 58 88 66 89 59 90 60 91 64 92 67 93 61 94 62 95 65 96 63 97
REMARK H PARENT 14 24 10 26 87 50 55 61
REMARK Flexibility Score: inf
ROOT
ATOM      1  C   UNL A   1      35.140  20.761  25.439  1.00  0.00     0.274 C 
ENDROOT
BRANCH   1   2
ATOM      2  O   UNL A   1      34.259  19.810  24.794  1.00  0.00    -0.460 OA
BRANCH   2   3
ATOM      3  C   UNL A   1      33.001  19.750  25.294  1.00  0.00     0.344 C 
ATOM      4  O   UNL A   1      32.514  18.737  25.797  1.00  0.00    -0.248 OA
BRANCH   3   5
ATOM      5  C   UNL A   1      32.164  21.036  25.154  1.00  0.00     0.352 C 
BRANCH   5   6
ATOM      6  O   UNL A   1      32.383  22.314  25.716  1.00  0.00    -0.477 OA
BRANCH   6   7
ATOM      7  C   UNL A   1      31.880  23.405  25.059  1.00  0.00     0.176 A 
ATOM      8  C   UNL A   1      30.902  24.139  25.759  1.00  0.00     0.162 A 
ATOM      9  C   UNL A   1      30.247  25.217  25.146  1.00  0.00     0.058 A 
ATOM     10  C   UNL A   1      30.596  25.613  23.852  1.00  0.00    -0.019 A 
ATOM     11  C   UNL A   1      32.349  23.925  23.846  1.00  0.00     0.064 A 
ATOM     12  C   UNL A   1      31.682  24.995  23.226  1.00  0.00     0.028 A 
ATOM     13  Br  UNL A   1      34.015  23.427  23.075  1.00  0.00    -0.047 Br
BRANCH   8  14
ATOM     14  O   UNL A   1      30.657  23.738  27.052  1.00  0.00    -0.493 OA
ATOM     15  C   UNL A   1      29.495  22.942  27.254  1.00  0.00     0.278 C 
ENDBRANCH   8  14
BRANCH  10  16
ATOM     16  C   UNL A   1      29.903  26.721  23.186  1.00  0.00     0.032 C 
ATOM     17  C   UNL A   1      30.092  28.030  23.410  1.00  0.00     0.110 C 
ATOM     18  S   UNL A   1      29.133  29.255  22.634  1.00  0.00     0.007 SA
ATOM     19  C   UNL A   1      31.046  28.700  24.337  1.00  0.00     0.346 C 
ATOM     20  C   UNL A   1      29.769  30.534  23.617  1.00  0.00     0.324 C 
ATOM     21  N   UNL A   1      30.714  30.021  24.446  1.00  0.00    -0.199 N 
ATOM     22  O   UNL A   1      32.033  28.217  24.858  1.00  0.00    -0.240 OA
ATOM     23  N   UNL A   1      29.552  31.791  23.697  1.00  0.00    -0.204 N 
ATOM     24  H   UNL A   1      31.155  30.593  25.115  1.00  0.00     0.316 HD
ATOM     25  C   UNL A   1      28.738  32.625  22.981  1.00  0.00     0.304 C 
ATOM     26  H   UNL A   1      30.066  32.242  24.404  1.00  0.00     0.316 HD
ATOM     27  C   UNL A   1      27.654  32.163  22.049  1.00  0.00     0.144 C 
ATOM     28  O   UNL A   1      28.861  33.843  23.124  1.00  0.00    -0.247 OA
ENDBRANCH  10  16
ENDBRANCH   6   7
ENDBRANCH   5   6
ENDBRANCH   3   5
ENDBRANCH   2   3
ENDBRANCH   1   2
BRANCH   1  29
ATOM     29  C   UNL A   1      36.599  20.628  24.988  1.00  0.00     0.275 C 
BRANCH  29  30
ATOM     30  O   UNL A   1      37.377  21.798  25.313  1.00  0.00    -0.458 OA
BRANCH  30  31
ATOM     31  C   UNL A   1      38.562  21.500  25.883  1.00  0.00     0.338 C 
ATOM     32  O   UNL A   1      39.142  20.433  25.865  1.00  0.00    -0.246 OA
BRANCH  31  33
ATOM     33  C   UNL A   1      39.196  22.663  26.499  1.00  0.00     0.060 A 
ATOM     34  C   UNL A   1      38.696  23.923  26.184  1.00  0.00     0.016 A 
ATOM     35  C   UNL A   1      40.415  22.521  27.162  1.00  0.00     0.016 A 
ATOM     36  C   UNL A   1      39.437  25.055  26.499  1.00  0.00     0.010 A 
ATOM     37  C   UNL A   1      41.118  23.664  27.551  1.00  0.00     0.010 A 
ATOM     38  C   UNL A   1      40.637  24.942  27.216  1.00  0.00    -0.014 A 
BRANCH  38  39
ATOM     39  C   UNL A   1      41.330  26.166  27.686  1.00  0.00     0.031 A 
ATOM     40  C   UNL A   1      40.610  27.220  28.475  1.00  0.00     0.074 A 
ATOM     41  C   UNL A   1      42.628  26.330  27.365  1.00  0.00     0.049 A 
ATOM     42  N   UNL A   1      41.011  28.425  28.799  1.00  0.00    -0.248 NA
ATOM     43  C   UNL A   1      39.264  26.884  28.963  1.00  0.00     0.031 C 
ATOM     44  C   UNL A   1      43.446  25.355  26.639  1.00  0.00     0.029 A 
ATOM     45  N   UNL A   1      43.487  27.374  27.599  1.00  0.00    -0.354 N 
ATOM     46  C   UNL A   1      39.959  29.004  29.497  1.00  0.00     0.074 A 
ATOM     47  C   UNL A   1      38.897  28.019  29.547  1.00  0.00     0.031 C 
ATOM     48  C   UNL A   1      44.687  25.836  26.503  1.00  0.00     0.029 A 
ATOM     49  C   UNL A   1      44.727  27.190  27.038  1.00  0.00     0.049 A 
ATOM     50  H   UNL A   1      43.240  28.174  28.117  1.00  0.00     0.167 HD
ATOM     51  C   UNL A   1      39.895  30.244  30.040  1.00  0.00     0.037 A 
ATOM     52  C   UNL A   1      45.764  28.035  26.908  1.00  0.00     0.037 A 
ATOM     53  C   UNL A   1      40.975  31.201  30.006  1.00  0.00     0.049 A 
ATOM     54  C   UNL A   1      45.634  29.430  27.441  1.00  0.00     0.074 A 
ATOM     55  C   UNL A   1      41.023  32.469  30.560  1.00  0.00     0.029 A 
ATOM     56  N   UNL A   1      42.198  30.994  29.382  1.00  0.00    -0.354 N 
ATOM     57  N   UNL A   1      44.630  29.978  28.080  1.00  0.00    -0.248 NA
ATOM     58  C   UNL A   1      46.772  30.330  27.218  1.00  0.00     0.031 C 
ATOM     59  C   UNL A   1      42.250  33.049  30.224  1.00  0.00     0.029 A 
ATOM     60  C   UNL A   1      42.991  32.125  29.506  1.00  0.00     0.049 A 
ATOM     61  H   UNL A   1      42.463  30.166  28.920  1.00  0.00     0.167 HD
ATOM     62  C   UNL A   1      45.015  31.284  28.344  1.00  0.00     0.074 A 
ATOM     63  C   UNL A   1      46.355  31.438  27.815  1.00  0.00     0.031 C 
ATOM     64  C   UNL A   1      44.318  32.266  28.963  1.00  0.00     0.037 A 
BRANCH  51  65
ATOM     65  C   UNL A   1      38.608  30.666  30.689  1.00  0.00     0.064 A 
ATOM     66  C   UNL A   1      38.433  30.644  32.079  1.00  0.00     0.173 A 
ATOM     67  C   UNL A   1      37.556  31.168  29.904  1.00  0.00     0.173 A 
ATOM     68  F   UNL A   1      39.401  30.168  32.875  1.00  0.00    -0.203 F 
ATOM     69  C   UNL A   1      37.246  31.091  32.660  1.00  0.00     0.198 A 
ATOM     70  C   UNL A   1      36.384  31.639  30.489  1.00  0.00     0.198 A 
ATOM     71  F   UNL A   1      37.673  31.220  28.569  1.00  0.00    -0.203 F 
ATOM     72  F   UNL A   1      37.087  31.026  33.989  1.00  0.00    -0.200 F 
ATOM     73  C   UNL A   1      36.226  31.595  31.866  1.00  0.00     0.200 A 
ATOM     74  F   UNL A   1      35.405  32.139  29.721  1.00  0.00    -0.200 F 
ATOM     75  F   UNL A   1      35.091  32.034  32.427  1.00  0.00    -0.200 F 
ENDBRANCH  51  65
BRANCH  52  76
ATOM     76  C   UNL A   1      46.983  27.591  26.187  1.00  0.00     0.064 A 
ATOM     77  C   UNL A   1      48.070  27.046  26.879  1.00  0.00     0.173 A 
ATOM     78  C   UNL A   1      47.070  27.672  24.788  1.00  0.00     0.173 A 
ATOM     79  F   UNL A   1      48.041  26.968  28.218  1.00  0.00    -0.203 F 
ATOM     80  C   UNL A   1      49.203  26.603  26.200  1.00  0.00     0.198 A 
ATOM     81  C   UNL A   1      48.189  27.198  24.108  1.00  0.00     0.198 A 
ATOM     82  F   UNL A   1      46.052  28.182  24.079  1.00  0.00    -0.203 F 
ATOM     83  F   UNL A   1      50.246  26.119  26.888  1.00  0.00    -0.200 F 
ATOM     84  C   UNL A   1      49.257  26.670  24.815  1.00  0.00     0.200 A 
ATOM     85  F   UNL A   1      48.226  27.247  22.769  1.00  0.00    -0.200 F 
ATOM     86  F   UNL A   1      50.341  26.229  24.163  1.00  0.00    -0.200 F 
ENDBRANCH  52  76
BRANCH  64  87
ATOM     87  C   UNL A   1      45.003  33.593  29.113  1.00  0.00     0.064 A 
ATOM     88  C   UNL A   1      45.837  33.865  30.207  1.00  0.00     0.173 A 
ATOM     89  C   UNL A   1      44.845  34.590  28.139  1.00  0.00     0.173 A 
ATOM     90  F   UNL A   1      46.002  32.950  31.173  1.00  0.00    -0.203 F 
ATOM     91  C   UNL A   1      46.473  35.097  30.331  1.00  0.00     0.198 A 
ATOM     92  C   UNL A   1      45.504  35.810  28.252  1.00  0.00     0.198 A 
ATOM     93  F   UNL A   1      44.058  34.378  27.073  1.00  0.00    -0.203 F 
ATOM     94  F   UNL A   1      47.228  35.353  31.407  1.00  0.00    -0.200 F 
ATOM     95  C   UNL A   1      46.312  36.066  29.350  1.00  0.00     0.200 A 
ATOM     96  F   UNL A   1      45.357  36.741  27.299  1.00  0.00    -0.200 F 
ATOM     97  F   UNL A   1      46.931  37.249  29.468  1.00  0.00    -0.200 F 
ENDBRANCH  64  87
ENDBRANCH  38  39
ENDBRANCH  31  33
ENDBRANCH  30  31
ENDBRANCH  29  30
ENDBRANCH   1  29
TORSDOF 15
ENDMDL
MODEL 3
REMARK VINA RESULT:     -13.2      4.701     10.441
REMARK SMILES COc1cc(/C=C2/S/C(=[NH+]\C(C)=O)NC2=O)cc(Br)c1OCC(=O)OCCOC(=O)c1ccc(-c2c3nc(c(-c4c(F)c(F)c(F)c(F)c4F)c4ccc([nH]4)c(-c4c(F)c(F)c(F)c(F)c4F)c4nc(c(-c5c(F)c(F)c(F)c(F)c5F)c5ccc2[nH]5)C=C4)C=C3)cc1
REMARK SMILES IDX 26 1 25 2 23 3 24 4 22 5 21 6 20 7 3 8 4 9 5 10 18 11 17 12
REMARK SMILES IDX 19 13 2 14 1 15 6 16 7 17 8 18 15 19 9 20 14 21 16 22 10 23
REMARK SMILES IDX 11 25 12 27 13 28 27 29 28 30 29 31 30 32 31 33 32 34 93 35
REMARK SMILES IDX 33 36 92 37 34 38 35 39 36 40 86 41 37 42 91 43 85 44 87 45
REMARK SMILES IDX 38 46 90 47 84 48 83 49 39 51 71 52 51 53 70 54 52 55 55 56
REMARK SMILES IDX 69 57 88 58 53 59 54 60 68 62 89 63 56 64 40 65 41 66 49 67
REMARK SMILES IDX 42 68 43 69 47 70 50 71 44 72 45 73 48 74 46 75 72 76 73 77
REMARK SMILES IDX 81 78 74 79 75 80 79 81 82 82 76 83 77 84 80 85 78 86 57 87
REMARK SMILES IDX 58 88 66 89 59 90 60 91 64 92 67 93 61 94 62 95 65 96 63 97
REMARK H PARENT 14 24 10 26 87 50 55 61
REMARK Flexibility Score: inf
ROOT
ATOM      1  C   UNL A   1      35.322  20.825  25.479  1.00  0.00     0.274 C 
ENDROOT
BRANCH   1   2
ATOM      2  O   UNL A   1      34.439  19.837  24.896  1.00  0.00    -0.460 OA
BRANCH   2   3
ATOM      3  C   UNL A   1      33.167  19.846  25.361  1.00  0.00     0.344 C 
ATOM      4  O   UNL A   1      32.650  18.901  25.958  1.00  0.00    -0.248 OA
BRANCH   3   5
ATOM      5  C   UNL A   1      32.352  21.118  25.055  1.00  0.00     0.352 C 
BRANCH   5   6
ATOM      6  O   UNL A   1      32.342  22.360  25.728  1.00  0.00    -0.477 OA
BRANCH   6   7
ATOM      7  C   UNL A   1      31.861  23.454  25.060  1.00  0.00     0.176 A 
ATOM      8  C   UNL A   1      30.870  24.193  25.738  1.00  0.00     0.162 A 
ATOM      9  C   UNL A   1      30.236  25.275  25.111  1.00  0.00     0.058 A 
ATOM     10  C   UNL A   1      30.618  25.671  23.826  1.00  0.00    -0.019 A 
ATOM     11  C   UNL A   1      32.361  23.974  23.860  1.00  0.00     0.064 A 
ATOM     12  C   UNL A   1      31.715  25.048  23.226  1.00  0.00     0.028 A 
ATOM     13  Br  UNL A   1      34.043  23.468  23.128  1.00  0.00    -0.047 Br
BRANCH   8  14
ATOM     14  O   UNL A   1      30.592  23.792  27.024  1.00  0.00    -0.493 OA
ATOM     15  C   UNL A   1      29.482  22.916  27.184  1.00  0.00     0.278 C 
ENDBRANCH   8  14
BRANCH  10  16
ATOM     16  C   UNL A   1      29.947  26.783  23.145  1.00  0.00     0.032 C 
ATOM     17  C   UNL A   1      30.121  28.091  23.391  1.00  0.00     0.110 C 
ATOM     18  S   UNL A   1      29.188  29.320  22.591  1.00  0.00     0.007 SA
ATOM     19  C   UNL A   1      31.034  28.754  24.363  1.00  0.00     0.346 C 
ATOM     20  C   UNL A   1      29.778  30.591  23.613  1.00  0.00     0.324 C 
ATOM     21  N   UNL A   1      30.692  30.073  24.473  1.00  0.00    -0.199 N 
ATOM     22  O   UNL A   1      32.002  28.269  24.917  1.00  0.00    -0.240 OA
ATOM     23  N   UNL A   1      29.552  31.846  23.697  1.00  0.00    -0.204 N 
ATOM     24  H   UNL A   1      31.103  30.639  25.165  1.00  0.00     0.316 HD
ATOM     25  C   UNL A   1      28.764  32.684  22.958  1.00  0.00     0.304 C 
ATOM     26  H   UNL A   1      30.036  32.291  24.429  1.00  0.00     0.316 HD
ATOM     27  C   UNL A   1      27.721  32.229  21.979  1.00  0.00     0.144 C 
ATOM     28  O   UNL A   1      28.876  33.901  23.120  1.00  0.00    -0.247 OA
ENDBRANCH  10  16
ENDBRANCH   6   7
ENDBRANCH   5   6
ENDBRANCH   3   5
ENDBRANCH   2   3
ENDBRANCH   1   2
BRANCH   1  29
ATOM     29  C   UNL A   1      36.772  20.691  25.000  1.00  0.00     0.275 C 
BRANCH  29  30
ATOM     30  O   UNL A   1      37.565  21.848  25.336  1.00  0.00    -0.458 OA
BRANCH  30  31
ATOM     31  C   UNL A   1      38.709  21.534  25.977  1.00  0.00     0.338 C 
ATOM     32  O   UNL A   1      39.242  20.443  26.045  1.00  0.00    -0.246 OA
BRANCH  31  33
ATOM     33  C   UNL A   1      39.363  22.701  26.560  1.00  0.00     0.060 A 
ATOM     34  C   UNL A   1      38.986  23.959  26.100  1.00  0.00     0.016 A 
ATOM     35  C   UNL A   1      40.503  22.539  27.348  1.00  0.00     0.016 A 
ATOM     36  C   UNL A   1      39.774  25.065  26.398  1.00  0.00     0.010 A 
ATOM     37  C   UNL A   1      41.247  23.664  27.714  1.00  0.00     0.010 A 
ATOM     38  C   UNL A   1      40.891  24.936  27.236  1.00  0.00    -0.014 A 
BRANCH  38  39
ATOM     39  C   UNL A   1      41.623  26.150  27.675  1.00  0.00     0.031 A 
ATOM     40  C   UNL A   1      40.959  27.208  28.507  1.00  0.00     0.074 A 
ATOM     41  C   UNL A   1      42.904  26.300  27.286  1.00  0.00     0.049 A 
ATOM     42  N   UNL A   1      41.391  28.406  28.815  1.00  0.00    -0.248 NA
ATOM     43  C   UNL A   1      39.637  26.885  29.064  1.00  0.00     0.031 C 
ATOM     44  C   UNL A   1      43.670  25.320  26.511  1.00  0.00     0.029 A 
ATOM     45  N   UNL A   1      43.787  27.332  27.479  1.00  0.00    -0.354 N 
ATOM     46  C   UNL A   1      40.385  28.992  29.571  1.00  0.00     0.074 A 
ATOM     47  C   UNL A   1      39.316  28.020  29.672  1.00  0.00     0.031 C 
ATOM     48  C   UNL A   1      44.908  25.787  26.312  1.00  0.00     0.029 A 
ATOM     49  C   UNL A   1      44.993  27.136  26.852  1.00  0.00     0.049 A 
ATOM     50  H   UNL A   1      43.577  28.132  28.013  1.00  0.00     0.167 HD
ATOM     51  C   UNL A   1      40.366  30.231  30.123  1.00  0.00     0.037 A 
ATOM     52  C   UNL A   1      46.031  27.970  26.671  1.00  0.00     0.037 A 
ATOM     53  C   UNL A   1      41.454  31.174  30.037  1.00  0.00     0.049 A 
ATOM     54  C   UNL A   1      45.947  29.364  27.218  1.00  0.00     0.074 A 
ATOM     55  C   UNL A   1      41.547  32.439  30.594  1.00  0.00     0.029 A 
ATOM     56  N   UNL A   1      42.639  30.956  29.347  1.00  0.00    -0.354 N 
ATOM     57  N   UNL A   1      44.986  29.920  27.912  1.00  0.00    -0.248 NA
ATOM     58  C   UNL A   1      47.083  30.251  26.939  1.00  0.00     0.031 C 
ATOM     59  C   UNL A   1      42.761  33.006  30.196  1.00  0.00     0.029 A 
ATOM     60  C   UNL A   1      43.451  32.077  29.435  1.00  0.00     0.049 A 
ATOM     61  H   UNL A   1      42.869  30.129  28.867  1.00  0.00     0.167 HD
ATOM     62  C   UNL A   1      45.400  31.219  28.161  1.00  0.00     0.074 A 
ATOM     63  C   UNL A   1      46.712  31.360  27.563  1.00  0.00     0.031 C 
ATOM     64  C   UNL A   1      44.750  32.206  28.822  1.00  0.00     0.037 A 
BRANCH  51  65
ATOM     65  C   UNL A   1      39.120  30.664  30.842  1.00  0.00     0.064 A 
ATOM     66  C   UNL A   1      38.014  31.192  30.164  1.00  0.00     0.173 A 
ATOM     67  C   UNL A   1      39.009  30.478  32.231  1.00  0.00     0.173 A 
ATOM     68  F   UNL A   1      38.068  31.398  28.839  1.00  0.00    -0.203 F 
ATOM     69  C   UNL A   1      36.850  31.537  30.849  1.00  0.00     0.198 A 
ATOM     70  C   UNL A   1      37.836  30.798  32.908  1.00  0.00     0.198 A 
ATOM     71  F   UNL A   1      40.035  29.968  32.929  1.00  0.00    -0.203 F 
ATOM     72  F   UNL A   1      35.818  32.076  30.185  1.00  0.00    -0.200 F 
ATOM     73  C   UNL A   1      36.758  31.333  32.218  1.00  0.00     0.200 A 
ATOM     74  F   UNL A   1      37.745  30.586  34.229  1.00  0.00    -0.200 F 
ATOM     75  F   UNL A   1      35.635  31.655  32.873  1.00  0.00    -0.200 F 
ENDBRANCH  51  65
BRANCH  52  76
ATOM     76  C   UNL A   1      47.205  27.516  25.883  1.00  0.00     0.064 A 
ATOM     77  C   UNL A   1      47.252  27.691  24.495  1.00  0.00     0.173 A 
ATOM     78  C   UNL A   1      48.316  26.927  26.507  1.00  0.00     0.173 A 
ATOM     79  F   UNL A   1      46.205  28.230  23.853  1.00  0.00    -0.203 F 
ATOM     80  C   UNL A   1      48.364  27.291  23.759  1.00  0.00     0.198 A 
ATOM     81  C   UNL A   1      49.441  26.557  25.776  1.00  0.00     0.198 A 
ATOM     82  F   UNL A   1      48.321  26.741  27.836  1.00  0.00    -0.203 F 
ATOM     83  F   UNL A   1      48.371  27.436  22.428  1.00  0.00    -0.200 F 
ATOM     84  C   UNL A   1      49.461  26.733  24.401  1.00  0.00     0.200 A 
ATOM     85  F   UNL A   1      50.505  26.039  26.403  1.00  0.00    -0.200 F 
ATOM     86  F   UNL A   1      50.537  26.363  23.694  1.00  0.00    -0.200 F 
ENDBRANCH  52  76
BRANCH  64  87
ATOM     87  C   UNL A   1      45.457  33.523  28.942  1.00  0.00     0.064 A 
ATOM     88  C   UNL A   1      45.257  34.548  28.005  1.00  0.00     0.173 A 
ATOM     89  C   UNL A   1      46.322  33.773  30.018  1.00  0.00     0.173 A 
ATOM     90  F   UNL A   1      44.455  34.349  26.948  1.00  0.00    -0.203 F 
ATOM     91  C   UNL A   1      45.913  35.769  28.131  1.00  0.00     0.198 A 
ATOM     92  C   UNL A   1      46.954  35.005  30.156  1.00  0.00     0.198 A 
ATOM     93  F   UNL A   1      46.545  32.826  30.941  1.00  0.00    -0.203 F 
ATOM     94  F   UNL A   1      45.743  36.717  27.200  1.00  0.00    -0.200 F 
ATOM     95  C   UNL A   1      46.755  35.999  29.210  1.00  0.00     0.200 A 
ATOM     96  F   UNL A   1      47.759  35.230  31.204  1.00  0.00    -0.200 F 
ATOM     97  F   UNL A   1      47.380  37.178  29.332  1.00  0.00    -0.200 F 
ENDBRANCH  64  87
ENDBRANCH  38  39
ENDBRANCH  31  33
ENDBRANCH  30  31
ENDBRANCH  29  30
ENDBRANCH   1  29
TORSDOF 15
ENDMDL
