MODEL 1
REMARK VINA RESULT:     -13.7      0.000      0.000
REMARK SMILES O=C(OCCOC(=O)c1ccc(-n2cc(CSc3nc4ccccc4c(=O)n3-c3ccccc3)nn2)cc1)c1ccc(-c2c3nc(c(-c4c(F)c(F)c(F)c(F)c4F)c4ccc([nH]4)c(-c4c(F)c(F)c(F)c(F)c4F)c4nc(c(-c5c(F)c(F)c(F)c(F)c5F)c5ccc2[nH]5)C=C4)C=C3)cc1
REMARK SMILES IDX 6 1 5 2 4 3 3 4 2 5 1 6 39 7 40 8 101 9 41 10 100 11 42 12
REMARK SMILES IDX 43 13 44 14 94 15 45 16 99 17 93 18 95 19 46 20 98 21 92 22
REMARK SMILES IDX 91 23 47 25 79 26 59 27 78 28 60 29 63 30 77 31 96 32 61 33
REMARK SMILES IDX 62 34 76 36 97 37 64 38 48 39 49 40 57 41 50 42 51 43 55 44
REMARK SMILES IDX 58 45 52 46 53 47 56 48 54 49 80 50 81 51 89 52 82 53 83 54
REMARK SMILES IDX 87 55 90 56 84 57 85 58 88 59 86 60 65 61 66 62 74 63 67 64
REMARK SMILES IDX 68 65 72 66 75 67 69 68 70 69 73 70 71 71 7 72 8 73 9 74
REMARK SMILES IDX 10 75 38 76 11 77 37 78 12 79 13 80 14 81 36 82 15 83 35 84
REMARK SMILES IDX 16 85 17 86 18 87 19 88 28 89 20 90 26 91 21 92 25 93 27 94
REMARK SMILES IDX 22 95 24 96 23 97 29 98 30 99 34 100 31 101 33 102 32 103
REMARK H PARENT 95 24 63 35
REMARK Flexibility Score: inf
ROOT
ATOM      1  O   UNL A   1      44.067  18.646  25.127  1.00  0.00    -0.458 OA
ENDROOT
BRANCH   1   2
ATOM      2  C   UNL A   1      45.464  18.476  25.431  1.00  0.00     0.275 C 
BRANCH   2   3
ATOM      3  C   UNL A   1      46.296  19.532  24.704  1.00  0.00     0.275 C 
BRANCH   3   4
ATOM      4  O   UNL A   1      46.170  20.900  25.145  1.00  0.00    -0.458 OA
BRANCH   4   5
ATOM      5  C   UNL A   1      45.316  21.719  24.495  1.00  0.00     0.338 C 
ATOM      6  O   UNL A   1      44.684  21.407  23.498  1.00  0.00    -0.246 OA
BRANCH   5   7
ATOM      7  C   UNL A   1      45.078  22.977  25.239  1.00  0.00     0.060 A 
ATOM      8  C   UNL A   1      45.696  23.251  26.464  1.00  0.00     0.016 A 
ATOM      9  C   UNL A   1      44.212  23.917  24.665  1.00  0.00     0.016 A 
ATOM     10  C   UNL A   1      45.397  24.420  27.143  1.00  0.00     0.010 A 
ATOM     11  C   UNL A   1      43.940  25.104  25.325  1.00  0.00     0.010 A 
ATOM     12  C   UNL A   1      44.486  25.323  26.590  1.00  0.00    -0.014 A 
BRANCH  12  13
ATOM     13  C   UNL A   1      44.129  26.498  27.374  1.00  0.00     0.031 A 
ATOM     14  C   UNL A   1      45.031  27.675  27.241  1.00  0.00     0.074 A 
ATOM     15  C   UNL A   1      42.988  26.552  28.089  1.00  0.00     0.049 A 
ATOM     16  N   UNL A   1      45.723  28.271  28.159  1.00  0.00    -0.248 NA
ATOM     17  C   UNL A   1      45.254  28.206  25.891  1.00  0.00     0.031 C 
ATOM     18  C   UNL A   1      41.880  25.592  28.094  1.00  0.00     0.029 A 
ATOM     19  N   UNL A   1      42.530  27.549  28.895  1.00  0.00    -0.354 N 
ATOM     20  C   UNL A   1      46.338  29.362  27.537  1.00  0.00     0.074 A 
ATOM     21  C   UNL A   1      46.127  29.187  26.124  1.00  0.00     0.031 C 
ATOM     22  C   UNL A   1      40.797  26.165  28.665  1.00  0.00     0.029 A 
ATOM     23  C   UNL A   1      41.179  27.462  29.193  1.00  0.00     0.049 A 
ATOM     24  H   UNL A   1      43.108  28.270  29.235  1.00  0.00     0.167 HD
ATOM     25  C   UNL A   1      46.777  30.433  28.258  1.00  0.00     0.037 A 
ATOM     26  C   UNL A   1      40.416  28.418  29.776  1.00  0.00     0.037 A 
ATOM     27  C   UNL A   1      46.957  30.084  29.645  1.00  0.00     0.049 A 
ATOM     28  C   UNL A   1      41.329  29.359  30.470  1.00  0.00     0.074 A 
ATOM     29  C   UNL A   1      47.737  29.174  30.332  1.00  0.00     0.029 A 
ATOM     30  N   UNL A   1      46.011  30.502  30.548  1.00  0.00    -0.354 N 
ATOM     31  N   UNL A   1      42.029  29.049  31.526  1.00  0.00    -0.248 NA
ATOM     32  C   UNL A   1      41.799  30.518  29.726  1.00  0.00     0.031 C 
ATOM     33  C   UNL A   1      46.920  28.729  31.413  1.00  0.00     0.029 A 
ATOM     34  C   UNL A   1      45.719  29.434  31.350  1.00  0.00     0.049 A 
ATOM     35  H   UNL A   1      45.618  31.404  30.608  1.00  0.00     0.167 HD
ATOM     36  C   UNL A   1      43.248  29.682  31.335  1.00  0.00     0.074 A 
ATOM     37  C   UNL A   1      43.014  30.648  30.265  1.00  0.00     0.031 C 
ATOM     38  C   UNL A   1      44.397  29.165  31.861  1.00  0.00     0.037 A 
BRANCH  25  39
ATOM     39  C   UNL A   1      46.664  31.881  27.811  1.00  0.00     0.064 A 
ATOM     40  C   UNL A   1      45.409  32.354  27.364  1.00  0.00     0.173 A 
ATOM     41  C   UNL A   1      47.763  32.702  27.483  1.00  0.00     0.173 A 
ATOM     42  F   UNL A   1      44.283  31.678  27.637  1.00  0.00    -0.203 F 
ATOM     43  C   UNL A   1      45.291  33.469  26.530  1.00  0.00     0.198 A 
ATOM     44  C   UNL A   1      47.634  33.845  26.693  1.00  0.00     0.198 A 
ATOM     45  F   UNL A   1      49.018  32.390  27.816  1.00  0.00    -0.203 F 
ATOM     46  F   UNL A   1      44.099  33.781  26.002  1.00  0.00    -0.200 F 
ATOM     47  C   UNL A   1      46.406  34.202  26.178  1.00  0.00     0.200 A 
ATOM     48  F   UNL A   1      48.728  34.545  26.364  1.00  0.00    -0.200 F 
ATOM     49  F   UNL A   1      46.309  35.220  25.314  1.00  0.00    -0.200 F 
ENDBRANCH  25  39
BRANCH  26  50
ATOM     50  C   UNL A   1      38.995  28.733  29.507  1.00  0.00     0.064 A 
ATOM     51  C   UNL A   1      38.082  28.917  30.557  1.00  0.00     0.173 A 
ATOM     52  C   UNL A   1      38.563  29.125  28.225  1.00  0.00     0.173 A 
ATOM     53  F   UNL A   1      38.431  28.612  31.816  1.00  0.00    -0.203 F 
ATOM     54  C   UNL A   1      36.820  29.480  30.340  1.00  0.00     0.198 A 
ATOM     55  C   UNL A   1      37.302  29.679  28.008  1.00  0.00     0.198 A 
ATOM     56  F   UNL A   1      39.391  29.066  27.172  1.00  0.00    -0.203 F 
ATOM     57  F   UNL A   1      35.997  29.696  31.376  1.00  0.00    -0.200 F 
ATOM     58  C   UNL A   1      36.435  29.869  29.067  1.00  0.00     0.200 A 
ATOM     59  F   UNL A   1      36.956  30.082  26.777  1.00  0.00    -0.200 F 
ATOM     60  F   UNL A   1      35.250  30.463  28.868  1.00  0.00    -0.200 F 
ENDBRANCH  26  50
BRANCH  38  61
ATOM     61  C   UNL A   1      44.276  28.058  32.867  1.00  0.00     0.064 A 
ATOM     62  C   UNL A   1      44.209  26.695  32.526  1.00  0.00     0.173 A 
ATOM     63  C   UNL A   1      44.383  28.379  34.226  1.00  0.00     0.173 A 
ATOM     64  F   UNL A   1      44.210  26.303  31.247  1.00  0.00    -0.203 F 
ATOM     65  C   UNL A   1      44.204  25.706  33.506  1.00  0.00     0.198 A 
ATOM     66  C   UNL A   1      44.417  27.387  35.201  1.00  0.00     0.198 A 
ATOM     67  F   UNL A   1      44.511  29.661  34.605  1.00  0.00    -0.203 F 
ATOM     68  F   UNL A   1      44.130  24.413  33.157  1.00  0.00    -0.200 F 
ATOM     69  C   UNL A   1      44.316  26.052  34.843  1.00  0.00     0.200 A 
ATOM     70  F   UNL A   1      44.577  27.724  36.488  1.00  0.00    -0.200 F 
ATOM     71  F   UNL A   1      44.357  25.099  35.784  1.00  0.00    -0.200 F 
ENDBRANCH  38  61
ENDBRANCH  12  13
ENDBRANCH   5   7
ENDBRANCH   4   5
ENDBRANCH   3   4
ENDBRANCH   2   3
ENDBRANCH   1   2
BRANCH   1  72
ATOM     72  C   UNL A   1      43.211  18.324  26.124  1.00  0.00     0.338 C 
ATOM     73  O   UNL A   1      43.260  17.358  26.878  1.00  0.00    -0.246 OA
BRANCH  72  74
ATOM     74  C   UNL A   1      42.192  19.375  26.212  1.00  0.00     0.060 A 
ATOM     75  C   UNL A   1      40.851  19.038  25.998  1.00  0.00     0.018 A 
ATOM     76  C   UNL A   1      42.569  20.696  26.462  1.00  0.00     0.018 A 
ATOM     77  C   UNL A   1      39.861  20.010  26.113  1.00  0.00     0.029 A 
ATOM     78  C   UNL A   1      41.590  21.692  26.481  1.00  0.00     0.029 A 
ATOM     79  C   UNL A   1      40.240  21.336  26.331  1.00  0.00     0.066 A 
BRANCH  79  80
ATOM     80  N   UNL A   1      39.264  22.329  26.164  1.00  0.00    -0.220 N 
ATOM     81  C   UNL A   1      37.986  22.098  25.746  1.00  0.00     0.141 A 
ATOM     82  N   UNL A   1      39.386  23.603  26.587  1.00  0.00    -0.062 NA
ATOM     83  C   UNL A   1      37.307  23.275  25.961  1.00  0.00     0.093 A 
ATOM     84  N   UNL A   1      38.215  24.209  26.399  1.00  0.00    -0.134 NA
BRANCH  83  85
ATOM     85  C   UNL A   1      35.926  23.637  25.569  1.00  0.00     0.138 C 
BRANCH  85  86
ATOM     86  S   UNL A   1      35.326  23.606  23.880  1.00  0.00    -0.081 SA
BRANCH  86  87
ATOM     87  C   UNL A   1      33.654  24.067  23.701  1.00  0.00     0.176 A 
ATOM     88  N   UNL A   1      33.523  25.276  23.232  1.00  0.00    -0.223 NA
ATOM     89  N   UNL A   1      32.549  23.293  24.013  1.00  0.00    -0.255 N 
ATOM     90  C   UNL A   1      32.236  25.827  23.161  1.00  0.00     0.079 A 
ATOM     91  C   UNL A   1      31.502  24.021  24.589  1.00  0.00     0.266 A 
ATOM     92  C   UNL A   1      31.965  26.948  22.376  1.00  0.00     0.029 A 
ATOM     93  C   UNL A   1      31.226  25.321  23.966  1.00  0.00     0.066 A 
ATOM     94  O   UNL A   1      30.824  23.671  25.554  1.00  0.00    -0.268 OA
ATOM     95  C   UNL A   1      30.716  27.576  22.453  1.00  0.00     0.002 A 
ATOM     96  C   UNL A   1      29.993  25.965  24.098  1.00  0.00     0.016 A 
ATOM     97  C   UNL A   1      29.742  27.107  23.340  1.00  0.00     0.001 A 
BRANCH  89  98
ATOM     98  C   UNL A   1      32.377  21.870  23.819  1.00  0.00     0.051 A 
ATOM     99  C   UNL A   1      32.563  20.986  24.903  1.00  0.00     0.027 A 
ATOM    100  C   UNL A   1      32.018  21.275  22.603  1.00  0.00     0.027 A 
ATOM    101  C   UNL A   1      32.625  19.600  24.733  1.00  0.00     0.002 A 
ATOM    102  C   UNL A   1      32.139  19.890  22.409  1.00  0.00     0.002 A 
ATOM    103  C   UNL A   1      32.478  19.057  23.468  1.00  0.00     0.000 A 
ENDBRANCH  89  98
ENDBRANCH  86  87
ENDBRANCH  85  86
ENDBRANCH  83  85
ENDBRANCH  79  80
ENDBRANCH  72  74
ENDBRANCH   1  72
TORSDOF 16
ENDMDL
MODEL 2
REMARK VINA RESULT:     -13.5      3.387      9.417
REMARK SMILES O=C(OCCOC(=O)c1ccc(-n2cc(CSc3nc4ccccc4c(=O)n3-c3ccccc3)nn2)cc1)c1ccc(-c2c3nc(c(-c4c(F)c(F)c(F)c(F)c4F)c4ccc([nH]4)c(-c4c(F)c(F)c(F)c(F)c4F)c4nc(c(-c5c(F)c(F)c(F)c(F)c5F)c5ccc2[nH]5)C=C4)C=C3)cc1
REMARK SMILES IDX 6 1 5 2 4 3 3 4 2 5 1 6 39 7 40 8 101 9 41 10 100 11 42 12
REMARK SMILES IDX 43 13 44 14 94 15 45 16 99 17 93 18 95 19 46 20 98 21 92 22
REMARK SMILES IDX 91 23 47 25 79 26 59 27 78 28 60 29 63 30 77 31 96 32 61 33
REMARK SMILES IDX 62 34 76 36 97 37 64 38 48 39 49 40 57 41 50 42 51 43 55 44
REMARK SMILES IDX 58 45 52 46 53 47 56 48 54 49 80 50 81 51 89 52 82 53 83 54
REMARK SMILES IDX 87 55 90 56 84 57 85 58 88 59 86 60 65 61 66 62 74 63 67 64
REMARK SMILES IDX 68 65 72 66 75 67 69 68 70 69 73 70 71 71 7 72 8 73 9 74
REMARK SMILES IDX 10 75 38 76 11 77 37 78 12 79 13 80 14 81 36 82 15 83 35 84
REMARK SMILES IDX 16 85 17 86 18 87 19 88 28 89 20 90 26 91 21 92 25 93 27 94
REMARK SMILES IDX 22 95 24 96 23 97 29 98 30 99 34 100 31 101 33 102 32 103
REMARK H PARENT 95 24 63 35
REMARK Flexibility Score: inf
ROOT
ATOM      1  O   UNL A   1      33.526  32.166  28.175  1.00  0.00    -0.458 OA
ENDROOT
BRANCH   1   2
ATOM      2  C   UNL A   1      33.831  33.573  28.135  1.00  0.00     0.275 C 
BRANCH   2   3
ATOM      3  C   UNL A   1      34.025  34.113  29.551  1.00  0.00     0.275 C 
BRANCH   3   4
ATOM      4  O   UNL A   1      35.247  33.766  30.237  1.00  0.00    -0.458 OA
BRANCH   4   5
ATOM      5  C   UNL A   1      35.257  32.685  31.044  1.00  0.00     0.338 C 
ATOM      6  O   UNL A   1      34.318  32.333  31.740  1.00  0.00    -0.246 OA
BRANCH   5   7
ATOM      7  C   UNL A   1      36.467  31.854  30.843  1.00  0.00     0.060 A 
ATOM      8  C   UNL A   1      36.437  30.457  30.921  1.00  0.00     0.016 A 
ATOM      9  C   UNL A   1      37.667  32.514  30.549  1.00  0.00     0.016 A 
ATOM     10  C   UNL A   1      37.608  29.732  30.777  1.00  0.00     0.010 A 
ATOM     11  C   UNL A   1      38.833  31.787  30.368  1.00  0.00     0.010 A 
ATOM     12  C   UNL A   1      38.809  30.404  30.544  1.00  0.00    -0.014 A 
BRANCH  12  13
ATOM     13  C   UNL A   1      40.033  29.614  30.487  1.00  0.00     0.031 A 
ATOM     14  C   UNL A   1      40.752  29.425  31.777  1.00  0.00     0.074 A 
ATOM     15  C   UNL A   1      40.427  29.000  29.355  1.00  0.00     0.049 A 
ATOM     16  N   UNL A   1      41.956  29.784  32.091  1.00  0.00    -0.248 NA
ATOM     17  C   UNL A   1      40.001  28.831  32.889  1.00  0.00     0.031 C 
ATOM     18  C   UNL A   1      39.688  28.865  28.096  1.00  0.00     0.029 A 
ATOM     19  N   UNL A   1      41.550  28.265  29.128  1.00  0.00    -0.354 N 
ATOM     20  C   UNL A   1      42.179  29.308  33.387  1.00  0.00     0.074 A 
ATOM     21  C   UNL A   1      40.901  28.860  33.873  1.00  0.00     0.031 C 
ATOM     22  C   UNL A   1      40.267  27.907  27.340  1.00  0.00     0.029 A 
ATOM     23  C   UNL A   1      41.490  27.475  27.990  1.00  0.00     0.049 A 
ATOM     24  H   UNL A   1      42.336  28.291  29.720  1.00  0.00     0.167 HD
ATOM     25  C   UNL A   1      43.442  29.120  33.866  1.00  0.00     0.037 A 
ATOM     26  C   UNL A   1      42.353  26.489  27.643  1.00  0.00     0.037 A 
ATOM     27  C   UNL A   1      44.401  29.884  33.107  1.00  0.00     0.049 A 
ATOM     28  C   UNL A   1      43.610  26.708  28.399  1.00  0.00     0.074 A 
ATOM     29  C   UNL A   1      44.593  31.226  32.841  1.00  0.00     0.029 A 
ATOM     30  N   UNL A   1      45.188  29.221  32.198  1.00  0.00    -0.354 N 
ATOM     31  N   UNL A   1      44.421  27.708  28.192  1.00  0.00    -0.248 NA
ATOM     32  C   UNL A   1      43.745  26.050  29.690  1.00  0.00     0.031 C 
ATOM     33  C   UNL A   1      45.065  31.273  31.496  1.00  0.00     0.029 A 
ATOM     34  C   UNL A   1      45.183  29.958  31.046  1.00  0.00     0.049 A 
ATOM     35  H   UNL A   1      45.667  28.373  32.348  1.00  0.00     0.167 HD
ATOM     36  C   UNL A   1      44.848  28.080  29.458  1.00  0.00     0.074 A 
ATOM     37  C   UNL A   1      44.481  26.965  30.328  1.00  0.00     0.031 C 
ATOM     38  C   UNL A   1      45.199  29.371  29.729  1.00  0.00     0.037 A 
BRANCH  25  39
ATOM     39  C   UNL A   1      43.870  27.957  34.744  1.00  0.00     0.064 A 
ATOM     40  C   UNL A   1      43.636  26.641  34.285  1.00  0.00     0.173 A 
ATOM     41  C   UNL A   1      44.172  28.065  36.118  1.00  0.00     0.173 A 
ATOM     42  F   UNL A   1      43.367  26.402  32.992  1.00  0.00    -0.203 F 
ATOM     43  C   UNL A   1      43.559  25.553  35.158  1.00  0.00     0.198 A 
ATOM     44  C   UNL A   1      44.145  26.967  36.978  1.00  0.00     0.198 A 
ATOM     45  F   UNL A   1      44.402  29.239  36.714  1.00  0.00    -0.203 F 
ATOM     46  F   UNL A   1      43.175  24.355  34.695  1.00  0.00    -0.200 F 
ATOM     47  C   UNL A   1      43.793  25.720  36.508  1.00  0.00     0.200 A 
ATOM     48  F   UNL A   1      44.377  27.149  38.286  1.00  0.00    -0.200 F 
ATOM     49  F   UNL A   1      43.639  24.698  37.360  1.00  0.00    -0.200 F 
ENDBRANCH  25  39
BRANCH  26  50
ATOM     50  C   UNL A   1      42.047  25.218  26.949  1.00  0.00     0.064 A 
ATOM     51  C   UNL A   1      42.824  24.777  25.867  1.00  0.00     0.173 A 
ATOM     52  C   UNL A   1      41.152  24.280  27.502  1.00  0.00     0.173 A 
ATOM     53  F   UNL A   1      43.733  25.593  25.312  1.00  0.00    -0.203 F 
ATOM     54  C   UNL A   1      42.729  23.468  25.382  1.00  0.00     0.198 A 
ATOM     55  C   UNL A   1      41.052  22.979  27.012  1.00  0.00     0.198 A 
ATOM     56  F   UNL A   1      40.426  24.580  28.589  1.00  0.00    -0.203 F 
ATOM     57  F   UNL A   1      43.530  23.064  24.387  1.00  0.00    -0.200 F 
ATOM     58  C   UNL A   1      41.850  22.568  25.962  1.00  0.00     0.200 A 
ATOM     59  F   UNL A   1      40.221  22.109  27.605  1.00  0.00    -0.200 F 
ATOM     60  F   UNL A   1      41.800  21.298  25.536  1.00  0.00    -0.200 F 
ENDBRANCH  26  50
BRANCH  38  61
ATOM     61  C   UNL A   1      45.369  30.312  28.573  1.00  0.00     0.064 A 
ATOM     62  C   UNL A   1      44.319  31.062  28.013  1.00  0.00     0.173 A 
ATOM     63  C   UNL A   1      46.667  30.578  28.117  1.00  0.00     0.173 A 
ATOM     64  F   UNL A   1      43.067  30.943  28.469  1.00  0.00    -0.203 F 
ATOM     65  C   UNL A   1      44.556  31.999  27.011  1.00  0.00     0.198 A 
ATOM     66  C   UNL A   1      46.905  31.541  27.142  1.00  0.00     0.198 A 
ATOM     67  F   UNL A   1      47.714  29.935  28.659  1.00  0.00    -0.203 F 
ATOM     68  F   UNL A   1      43.537  32.696  26.485  1.00  0.00    -0.200 F 
ATOM     69  C   UNL A   1      45.851  32.244  26.581  1.00  0.00     0.200 A 
ATOM     70  F   UNL A   1      48.163  31.811  26.768  1.00  0.00    -0.200 F 
ATOM     71  F   UNL A   1      46.085  33.178  25.649  1.00  0.00    -0.200 F 
ENDBRANCH  38  61
ENDBRANCH  12  13
ENDBRANCH   5   7
ENDBRANCH   4   5
ENDBRANCH   3   4
ENDBRANCH   2   3
ENDBRANCH   1   2
BRANCH   1  72
ATOM     72  C   UNL A   1      34.472  31.350  27.656  1.00  0.00     0.338 C 
ATOM     73  O   UNL A   1      35.684  31.533  27.611  1.00  0.00    -0.246 OA
BRANCH  72  74
ATOM     74  C   UNL A   1      33.814  30.132  27.175  1.00  0.00     0.060 A 
ATOM     75  C   UNL A   1      32.418  30.057  27.210  1.00  0.00     0.018 A 
ATOM     76  C   UNL A   1      34.580  29.051  26.733  1.00  0.00     0.018 A 
ATOM     77  C   UNL A   1      31.767  28.926  26.725  1.00  0.00     0.029 A 
ATOM     78  C   UNL A   1      33.936  27.876  26.336  1.00  0.00     0.029 A 
ATOM     79  C   UNL A   1      32.533  27.833  26.312  1.00  0.00     0.066 A 
BRANCH  79  80
ATOM     80  N   UNL A   1      31.869  26.617  26.096  1.00  0.00    -0.220 N 
ATOM     81  C   UNL A   1      32.358  25.393  26.448  1.00  0.00     0.141 A 
ATOM     82  N   UNL A   1      30.584  26.504  25.706  1.00  0.00    -0.062 NA
ATOM     83  C   UNL A   1      31.310  24.516  26.295  1.00  0.00     0.093 A 
ATOM     84  N   UNL A   1      30.255  25.213  25.755  1.00  0.00    -0.134 NA
BRANCH  83  85
ATOM     85  C   UNL A   1      31.308  23.039  26.406  1.00  0.00     0.138 C 
BRANCH  85  86
ATOM     86  S   UNL A   1      31.851  21.938  25.102  1.00  0.00    -0.081 SA
BRANCH  86  87
ATOM     87  C   UNL A   1      33.563  21.992  24.779  1.00  0.00     0.176 A 
ATOM     88  N   UNL A   1      34.152  20.859  25.041  1.00  0.00    -0.223 NA
ATOM     89  N   UNL A   1      34.277  23.082  24.311  1.00  0.00    -0.255 N 
ATOM     90  C   UNL A   1      35.549  20.799  24.954  1.00  0.00     0.079 A 
ATOM     91  C   UNL A   1      35.541  23.214  24.895  1.00  0.00     0.266 A 
ATOM     92  C   UNL A   1      36.223  19.579  24.880  1.00  0.00     0.029 A 
ATOM     93  C   UNL A   1      36.296  21.964  25.048  1.00  0.00     0.066 A 
ATOM     94  O   UNL A   1      36.049  24.263  25.290  1.00  0.00    -0.268 OA
ATOM     95  C   UNL A   1      37.621  19.541  24.963  1.00  0.00     0.002 A 
ATOM     96  C   UNL A   1      37.685  21.943  25.188  1.00  0.00     0.016 A 
ATOM     97  C   UNL A   1      38.350  20.718  25.152  1.00  0.00     0.001 A 
BRANCH  89  98
ATOM     98  C   UNL A   1      33.866  24.059  23.326  1.00  0.00     0.051 A 
ATOM     99  C   UNL A   1      34.013  25.435  23.599  1.00  0.00     0.027 A 
ATOM    100  C   UNL A   1      33.323  23.741  22.075  1.00  0.00     0.027 A 
ATOM    101  C   UNL A   1      33.440  26.422  22.791  1.00  0.00     0.002 A 
ATOM    102  C   UNL A   1      32.691  24.717  21.289  1.00  0.00     0.002 A 
ATOM    103  C   UNL A   1      32.720  26.054  21.667  1.00  0.00     0.000 A 
ENDBRANCH  89  98
ENDBRANCH  86  87
ENDBRANCH  85  86
ENDBRANCH  83  85
ENDBRANCH  79  80
ENDBRANCH  72  74
ENDBRANCH   1  72
TORSDOF 16
ENDMDL
MODEL 3
REMARK VINA RESULT:     -13.3      3.479      9.490
REMARK SMILES O=C(OCCOC(=O)c1ccc(-n2cc(CSc3nc4ccccc4c(=O)n3-c3ccccc3)nn2)cc1)c1ccc(-c2c3nc(c(-c4c(F)c(F)c(F)c(F)c4F)c4ccc([nH]4)c(-c4c(F)c(F)c(F)c(F)c4F)c4nc(c(-c5c(F)c(F)c(F)c(F)c5F)c5ccc2[nH]5)C=C4)C=C3)cc1
REMARK SMILES IDX 6 1 5 2 4 3 3 4 2 5 1 6 39 7 40 8 101 9 41 10 100 11 42 12
REMARK SMILES IDX 43 13 44 14 94 15 45 16 99 17 93 18 95 19 46 20 98 21 92 22
REMARK SMILES IDX 91 23 47 25 79 26 59 27 78 28 60 29 63 30 77 31 96 32 61 33
REMARK SMILES IDX 62 34 76 36 97 37 64 38 48 39 49 40 57 41 50 42 51 43 55 44
REMARK SMILES IDX 58 45 52 46 53 47 56 48 54 49 80 50 81 51 89 52 82 53 83 54
REMARK SMILES IDX 87 55 90 56 84 57 85 58 88 59 86 60 65 61 66 62 74 63 67 64
REMARK SMILES IDX 68 65 72 66 75 67 69 68 70 69 73 70 71 71 7 72 8 73 9 74
REMARK SMILES IDX 10 75 38 76 11 77 37 78 12 79 13 80 14 81 36 82 15 83 35 84
REMARK SMILES IDX 16 85 17 86 18 87 19 88 28 89 20 90 26 91 21 92 25 93 27 94
REMARK SMILES IDX 22 95 24 96 23 97 29 98 30 99 34 100 31 101 33 102 32 103
REMARK H PARENT 95 24 63 35
REMARK Flexibility Score: inf
ROOT
ATOM      1  O   UNL A   1      33.461  32.258  28.104  1.00  0.00    -0.458 OA
ENDROOT
BRANCH   1   2
ATOM      2  C   UNL A   1      33.763  33.665  28.131  1.00  0.00     0.275 C 
BRANCH   2   3
ATOM      3  C   UNL A   1      33.916  34.146  29.574  1.00  0.00     0.275 C 
BRANCH   3   4
ATOM      4  O   UNL A   1      35.145  33.824  30.258  1.00  0.00    -0.458 OA
BRANCH   4   5
ATOM      5  C   UNL A   1      35.171  32.759  31.087  1.00  0.00     0.338 C 
ATOM      6  O   UNL A   1      34.244  32.420  31.804  1.00  0.00    -0.246 OA
BRANCH   5   7
ATOM      7  C   UNL A   1      36.379  31.927  30.884  1.00  0.00     0.060 A 
ATOM      8  C   UNL A   1      36.356  30.533  31.003  1.00  0.00     0.016 A 
ATOM      9  C   UNL A   1      37.570  32.582  30.544  1.00  0.00     0.016 A 
ATOM     10  C   UNL A   1      37.527  29.807  30.855  1.00  0.00     0.010 A 
ATOM     11  C   UNL A   1      38.734  31.854  30.359  1.00  0.00     0.010 A 
ATOM     12  C   UNL A   1      38.720  30.477  30.576  1.00  0.00    -0.014 A 
BRANCH  12  13
ATOM     13  C   UNL A   1      39.946  29.690  30.515  1.00  0.00     0.031 A 
ATOM     14  C   UNL A   1      40.669  29.501  31.803  1.00  0.00     0.074 A 
ATOM     15  C   UNL A   1      40.338  29.077  29.381  1.00  0.00     0.049 A 
ATOM     16  N   UNL A   1      41.873  29.863  32.114  1.00  0.00    -0.248 NA
ATOM     17  C   UNL A   1      39.922  28.906  32.917  1.00  0.00     0.031 C 
ATOM     18  C   UNL A   1      39.595  28.941  28.125  1.00  0.00     0.029 A 
ATOM     19  N   UNL A   1      41.462  28.344  29.150  1.00  0.00    -0.354 N 
ATOM     20  C   UNL A   1      42.101  29.387  33.408  1.00  0.00     0.074 A 
ATOM     21  C   UNL A   1      40.825  28.936  33.898  1.00  0.00     0.031 C 
ATOM     22  C   UNL A   1      40.174  27.984  27.366  1.00  0.00     0.029 A 
ATOM     23  C   UNL A   1      41.400  27.555  28.012  1.00  0.00     0.049 A 
ATOM     24  H   UNL A   1      42.250  28.372  29.740  1.00  0.00     0.167 HD
ATOM     25  C   UNL A   1      43.366  29.202  33.883  1.00  0.00     0.037 A 
ATOM     26  C   UNL A   1      42.264  26.571  27.663  1.00  0.00     0.037 A 
ATOM     27  C   UNL A   1      44.321  29.969  33.122  1.00  0.00     0.049 A 
ATOM     28  C   UNL A   1      43.524  26.792  28.415  1.00  0.00     0.074 A 
ATOM     29  C   UNL A   1      44.509  31.311  32.857  1.00  0.00     0.029 A 
ATOM     30  N   UNL A   1      45.106  29.307  32.211  1.00  0.00    -0.354 N 
ATOM     31  N   UNL A   1      44.331  27.795  28.206  1.00  0.00    -0.248 NA
ATOM     32  C   UNL A   1      43.664  26.135  29.706  1.00  0.00     0.031 C 
ATOM     33  C   UNL A   1      44.976  31.359  31.510  1.00  0.00     0.029 A 
ATOM     34  C   UNL A   1      45.097  30.045  31.059  1.00  0.00     0.049 A 
ATOM     35  H   UNL A   1      45.588  28.460  32.359  1.00  0.00     0.167 HD
ATOM     36  C   UNL A   1      44.761  28.167  29.471  1.00  0.00     0.074 A 
ATOM     37  C   UNL A   1      44.399  27.051  30.341  1.00  0.00     0.031 C 
ATOM     38  C   UNL A   1      45.110  29.458  29.742  1.00  0.00     0.037 A 
BRANCH  25  39
ATOM     39  C   UNL A   1      43.799  28.039  34.760  1.00  0.00     0.064 A 
ATOM     40  C   UNL A   1      43.497  26.725  34.338  1.00  0.00     0.173 A 
ATOM     41  C   UNL A   1      44.174  28.159  36.115  1.00  0.00     0.173 A 
ATOM     42  F   UNL A   1      43.154  26.474  33.065  1.00  0.00    -0.203 F 
ATOM     43  C   UNL A   1      43.428  25.655  35.234  1.00  0.00     0.198 A 
ATOM     44  C   UNL A   1      44.155  27.078  36.995  1.00  0.00     0.198 A 
ATOM     45  F   UNL A   1      44.474  29.334  36.676  1.00  0.00    -0.203 F 
ATOM     46  F   UNL A   1      42.980  24.464  34.813  1.00  0.00    -0.200 F 
ATOM     47  C   UNL A   1      43.737  25.836  36.567  1.00  0.00     0.200 A 
ATOM     48  F   UNL A   1      44.461  27.273  38.286  1.00  0.00    -0.200 F 
ATOM     49  F   UNL A   1      43.592  24.835  37.444  1.00  0.00    -0.200 F 
ENDBRANCH  25  39
BRANCH  26  50
ATOM     50  C   UNL A   1      41.959  25.300  26.969  1.00  0.00     0.064 A 
ATOM     51  C   UNL A   1      42.767  24.834  25.919  1.00  0.00     0.173 A 
ATOM     52  C   UNL A   1      41.028  24.384  27.497  1.00  0.00     0.173 A 
ATOM     53  F   UNL A   1      43.710  25.628  25.391  1.00  0.00    -0.203 F 
ATOM     54  C   UNL A   1      42.664  23.523  25.443  1.00  0.00     0.198 A 
ATOM     55  C   UNL A   1      40.920  23.080  27.016  1.00  0.00     0.198 A 
ATOM     56  F   UNL A   1      40.269  24.707  28.554  1.00  0.00    -0.203 F 
ATOM     57  F   UNL A   1      43.492  23.095  24.481  1.00  0.00    -0.200 F 
ATOM     58  C   UNL A   1      41.747  22.645  25.998  1.00  0.00     0.200 A 
ATOM     59  F   UNL A   1      40.052  22.231  27.585  1.00  0.00    -0.200 F 
ATOM     60  F   UNL A   1      41.689  21.372  25.581  1.00  0.00    -0.200 F 
ENDBRANCH  26  50
BRANCH  38  61
ATOM     61  C   UNL A   1      45.275  30.401  28.586  1.00  0.00     0.064 A 
ATOM     62  C   UNL A   1      44.229  31.176  28.053  1.00  0.00     0.173 A 
ATOM     63  C   UNL A   1      46.567  30.639  28.101  1.00  0.00     0.173 A 
ATOM     64  F   UNL A   1      42.985  31.083  28.537  1.00  0.00    -0.203 F 
ATOM     65  C   UNL A   1      44.464  32.112  27.049  1.00  0.00     0.198 A 
ATOM     66  C   UNL A   1      46.805  31.601  27.125  1.00  0.00     0.198 A 
ATOM     67  F   UNL A   1      47.611  29.971  28.616  1.00  0.00    -0.203 F 
ATOM     68  F   UNL A   1      43.450  32.833  26.550  1.00  0.00    -0.200 F 
ATOM     69  C   UNL A   1      45.754  32.329  26.591  1.00  0.00     0.200 A 
ATOM     70  F   UNL A   1      48.059  31.845  26.722  1.00  0.00    -0.200 F 
ATOM     71  F   UNL A   1      45.987  33.262  25.657  1.00  0.00    -0.200 F 
ENDBRANCH  38  61
ENDBRANCH  12  13
ENDBRANCH   5   7
ENDBRANCH   4   5
ENDBRANCH   3   4
ENDBRANCH   2   3
ENDBRANCH   1   2
BRANCH   1  72
ATOM     72  C   UNL A   1      34.429  31.465  27.588  1.00  0.00     0.338 C 
ATOM     73  O   UNL A   1      35.643  31.569  27.727  1.00  0.00    -0.246 OA
BRANCH  72  74
ATOM     74  C   UNL A   1      33.784  30.380  26.843  1.00  0.00     0.060 A 
ATOM     75  C   UNL A   1      32.572  30.632  26.191  1.00  0.00     0.018 A 
ATOM     76  C   UNL A   1      34.356  29.106  26.827  1.00  0.00     0.018 A 
ATOM     77  C   UNL A   1      31.959  29.629  25.446  1.00  0.00     0.029 A 
ATOM     78  C   UNL A   1      33.695  28.071  26.162  1.00  0.00     0.029 A 
ATOM     79  C   UNL A   1      32.513  28.348  25.456  1.00  0.00     0.066 A 
BRANCH  79  80
ATOM     80  N   UNL A   1      31.739  27.298  24.938  1.00  0.00    -0.220 N 
ATOM     81  C   UNL A   1      32.145  25.998  24.865  1.00  0.00     0.141 A 
ATOM     82  N   UNL A   1      30.429  27.389  24.638  1.00  0.00    -0.062 NA
ATOM     83  C   UNL A   1      31.021  25.275  24.541  1.00  0.00     0.093 A 
ATOM     84  N   UNL A   1      29.998  26.168  24.324  1.00  0.00    -0.134 NA
BRANCH  83  85
ATOM     85  C   UNL A   1      30.903  23.839  24.203  1.00  0.00     0.138 C 
BRANCH  85  86
ATOM     86  S   UNL A   1      31.975  22.994  23.042  1.00  0.00    -0.081 SA
BRANCH  86  87
ATOM     87  C   UNL A   1      32.714  21.544  23.668  1.00  0.00     0.176 A 
ATOM     88  N   UNL A   1      32.230  20.466  23.118  1.00  0.00    -0.223 NA
ATOM     89  N   UNL A   1      33.695  21.475  24.642  1.00  0.00    -0.255 N 
ATOM     90  C   UNL A   1      32.637  19.222  23.619  1.00  0.00     0.079 A 
ATOM     91  C   UNL A   1      33.529  20.405  25.528  1.00  0.00     0.266 A 
ATOM     92  C   UNL A   1      32.447  18.046  22.892  1.00  0.00     0.029 A 
ATOM     93  C   UNL A   1      33.144  19.132  24.907  1.00  0.00     0.066 A 
ATOM     94  O   UNL A   1      33.664  20.450  26.750  1.00  0.00    -0.268 OA
ATOM     95  C   UNL A   1      32.709  16.803  23.484  1.00  0.00     0.002 A 
ATOM     96  C   UNL A   1      33.358  17.901  25.532  1.00  0.00     0.016 A 
ATOM     97  C   UNL A   1      33.130  16.729  24.814  1.00  0.00     0.001 A 
BRANCH  89  98
ATOM     98  C   UNL A   1      34.821  22.362  24.834  1.00  0.00     0.051 A 
ATOM     99  C   UNL A   1      36.055  22.075  24.212  1.00  0.00     0.027 A 
ATOM    100  C   UNL A   1      34.787  23.530  25.606  1.00  0.00     0.027 A 
ATOM    101  C   UNL A   1      37.229  22.764  24.529  1.00  0.00     0.002 A 
ATOM    102  C   UNL A   1      35.969  24.188  25.980  1.00  0.00     0.002 A 
ATOM    103  C   UNL A   1      37.195  23.782  25.467  1.00  0.00     0.000 A 
ENDBRANCH  89  98
ENDBRANCH  86  87
ENDBRANCH  85  86
ENDBRANCH  83  85
ENDBRANCH  79  80
ENDBRANCH  72  74
ENDBRANCH   1  72
TORSDOF 16
ENDMDL
