MODEL 1
REMARK VINA RESULT:     -12.6      0.000      0.000
REMARK SMILES Cn1cc(C(=O)OCCOC(=O)c2ccc(-c3c4nc(c(-c5c(F)c(F)c(F)c(F)c5F)c5ccc([nH]5)c(-c5c(F)c(F)c(F)c(F)c5F)c5nc(c(-c6c(F)c(F)c(F)c(F)c6F)c6ccc3[nH]6)C=C5)C=C4)cc2)c(C(=O)Nc2ccc(-n3cncn3)cc2)n1
REMARK SMILES IDX 8 1 7 2 5 3 6 4 4 5 1 6 2 7 3 8 91 9 76 10 77 11 78 12 79 13
REMARK SMILES IDX 80 15 81 16 90 17 82 18 89 19 83 20 84 21 85 22 88 23 86 24
REMARK SMILES IDX 87 25 9 26 10 27 11 28 12 29 13 30 14 31 75 32 15 33 74 34
REMARK SMILES IDX 16 35 17 36 18 37 68 38 19 39 73 40 67 41 69 42 20 43 72 44
REMARK SMILES IDX 66 45 65 46 21 48 53 49 33 50 52 51 34 52 37 53 51 54 70 55
REMARK SMILES IDX 35 56 36 57 50 59 71 60 38 61 22 62 23 63 31 64 24 65 25 66
REMARK SMILES IDX 29 67 32 68 26 69 27 70 30 71 28 72 54 73 55 74 63 75 56 76
REMARK SMILES IDX 57 77 61 78 64 79 58 80 59 81 62 82 60 83 39 84 40 85 48 86
REMARK SMILES IDX 41 87 42 88 46 89 49 90 43 91 44 92 47 93 45 94
REMARK H PARENT 79 14 69 47 37 58
REMARK Flexibility Score: inf
ROOT
ATOM      1  C   UNL A   1      31.638  29.255  25.575  1.00  0.00     0.275 C 
ENDROOT
BRANCH   1   2
ATOM      2  O   UNL A   1      32.546  28.161  25.749  1.00  0.00    -0.458 OA
BRANCH   2   3
ATOM      3  C   UNL A   1      32.180  27.105  26.529  1.00  0.00     0.342 C 
ATOM      4  O   UNL A   1      31.489  27.169  27.533  1.00  0.00    -0.246 OA
BRANCH   3   5
ATOM      5  C   UNL A   1      32.798  25.908  26.018  1.00  0.00     0.111 A 
ATOM      6  C   UNL A   1      35.808  24.079  25.276  1.00  0.00     0.173 C 
ATOM      7  N   UNL A   1      34.486  24.621  25.473  1.00  0.00    -0.274 N 
ATOM      8  C   UNL A   1      34.174  25.757  26.124  1.00  0.00     0.125 A 
ATOM      9  N   UNL A   1      33.426  24.013  24.943  1.00  0.00    -0.167 NA
ATOM     10  C   UNL A   1      32.341  24.757  25.287  1.00  0.00     0.165 A 
BRANCH  10  11
ATOM     11  C   UNL A   1      31.028  24.197  24.832  1.00  0.00     0.277 C 
ATOM     12  O   UNL A   1      30.819  22.976  24.868  1.00  0.00    -0.267 OA
ATOM     13  N   UNL A   1      29.903  24.942  24.568  1.00  0.00    -0.321 N 
ATOM     14  H   UNL A   1      29.090  24.576  24.985  1.00  0.00     0.170 HD
BRANCH  13  15
ATOM     15  C   UNL A   1      29.667  26.102  23.839  1.00  0.00     0.041 A 
ATOM     16  C   UNL A   1      28.384  26.647  23.876  1.00  0.00     0.028 A 
ATOM     17  C   UNL A   1      30.628  26.691  23.034  1.00  0.00     0.028 A 
ATOM     18  C   UNL A   1      28.150  27.912  23.334  1.00  0.00     0.030 A 
ATOM     19  C   UNL A   1      30.386  27.925  22.424  1.00  0.00     0.030 A 
ATOM     20  C   UNL A   1      29.188  28.594  22.691  1.00  0.00     0.067 A 
BRANCH  20  21
ATOM     21  N   UNL A   1      29.087  29.995  22.502  1.00  0.00    -0.221 N 
ATOM     22  C   UNL A   1      29.048  30.993  23.447  1.00  0.00     0.225 A 
ATOM     23  N   UNL A   1      28.785  30.528  21.291  1.00  0.00    -0.155 NA
ATOM     24  N   UNL A   1      28.604  32.111  22.920  1.00  0.00    -0.223 NA
ATOM     25  C   UNL A   1      28.430  31.771  21.612  1.00  0.00     0.246 A 
ENDBRANCH  20  21
ENDBRANCH  13  15
ENDBRANCH  10  11
ENDBRANCH   3   5
ENDBRANCH   2   3
ENDBRANCH   1   2
BRANCH   1  26
ATOM     26  C   UNL A   1      32.412  30.559  25.814  1.00  0.00     0.275 C 
BRANCH  26  27
ATOM     27  O   UNL A   1      32.618  30.781  27.229  1.00  0.00    -0.458 OA
BRANCH  27  28
ATOM     28  C   UNL A   1      33.390  31.857  27.543  1.00  0.00     0.338 C 
ATOM     29  O   UNL A   1      33.018  33.015  27.626  1.00  0.00    -0.246 OA
BRANCH  28  30
ATOM     30  C   UNL A   1      34.759  31.428  27.930  1.00  0.00     0.060 A 
ATOM     31  C   UNL A   1      34.964  30.064  28.176  1.00  0.00     0.016 A 
ATOM     32  C   UNL A   1      35.840  32.317  28.023  1.00  0.00     0.016 A 
ATOM     33  C   UNL A   1      36.227  29.592  28.545  1.00  0.00     0.010 A 
ATOM     34  C   UNL A   1      37.106  31.843  28.405  1.00  0.00     0.010 A 
ATOM     35  C   UNL A   1      37.300  30.482  28.703  1.00  0.00    -0.014 A 
BRANCH  35  36
ATOM     36  C   UNL A   1      38.527  30.009  29.398  1.00  0.00     0.031 A 
ATOM     37  C   UNL A   1      38.804  30.536  30.781  1.00  0.00     0.074 A 
ATOM     38  C   UNL A   1      39.356  29.088  28.871  1.00  0.00     0.049 A 
ATOM     39  N   UNL A   1      39.720  30.175  31.646  1.00  0.00    -0.248 NA
ATOM     40  C   UNL A   1      37.915  31.608  31.259  1.00  0.00     0.031 C 
ATOM     41  C   UNL A   1      39.210  28.461  27.562  1.00  0.00     0.029 A 
ATOM     42  N   UNL A   1      40.489  28.512  29.398  1.00  0.00    -0.354 N 
ATOM     43  C   UNL A   1      39.485  30.938  32.780  1.00  0.00     0.074 A 
ATOM     44  C   UNL A   1      38.381  31.823  32.479  1.00  0.00     0.031 C 
ATOM     45  C   UNL A   1      40.219  27.585  27.386  1.00  0.00     0.029 A 
ATOM     46  C   UNL A   1      41.079  27.590  28.570  1.00  0.00     0.049 A 
ATOM     47  H   UNL A   1      40.845  28.742  30.288  1.00  0.00     0.167 HD
ATOM     48  C   UNL A   1      40.111  30.894  33.979  1.00  0.00     0.037 A 
ATOM     49  C   UNL A   1      42.178  26.830  28.753  1.00  0.00     0.037 A 
ATOM     50  C   UNL A   1      41.236  30.057  34.292  1.00  0.00     0.049 A 
ATOM     51  C   UNL A   1      42.940  26.895  30.056  1.00  0.00     0.074 A 
ATOM     52  C   UNL A   1      41.929  29.953  35.485  1.00  0.00     0.029 A 
ATOM     53  N   UNL A   1      41.847  29.196  33.396  1.00  0.00    -0.354 N 
ATOM     54  N   UNL A   1      42.662  27.560  31.151  1.00  0.00    -0.248 NA
ATOM     55  C   UNL A   1      44.173  26.094  30.146  1.00  0.00     0.031 C 
ATOM     56  C   UNL A   1      42.992  29.064  35.298  1.00  0.00     0.029 A 
ATOM     57  C   UNL A   1      42.937  28.587  33.998  1.00  0.00     0.049 A 
ATOM     58  H   UNL A   1      41.553  29.040  32.470  1.00  0.00     0.167 HD
ATOM     59  C   UNL A   1      43.657  27.229  32.064  1.00  0.00     0.074 A 
ATOM     60  C   UNL A   1      44.547  26.303  31.400  1.00  0.00     0.031 C 
ATOM     61  C   UNL A   1      43.814  27.656  33.340  1.00  0.00     0.037 A 
BRANCH  48  62
ATOM     62  C   UNL A   1      39.587  31.798  35.049  1.00  0.00     0.064 A 
ATOM     63  C   UNL A   1      38.657  31.337  35.993  1.00  0.00     0.173 A 
ATOM     64  C   UNL A   1      40.025  33.125  35.141  1.00  0.00     0.173 A 
ATOM     65  F   UNL A   1      38.198  30.078  35.930  1.00  0.00    -0.203 F 
ATOM     66  C   UNL A   1      38.171  32.183  36.985  1.00  0.00     0.198 A 
ATOM     67  C   UNL A   1      39.550  33.963  36.145  1.00  0.00     0.198 A 
ATOM     68  F   UNL A   1      40.911  33.608  34.257  1.00  0.00    -0.203 F 
ATOM     69  F   UNL A   1      37.256  31.736  37.856  1.00  0.00    -0.200 F 
ATOM     70  C   UNL A   1      38.620  33.492  37.063  1.00  0.00     0.200 A 
ATOM     71  F   UNL A   1      39.986  35.228  36.223  1.00  0.00    -0.200 F 
ATOM     72  F   UNL A   1      38.151  34.308  38.018  1.00  0.00    -0.200 F 
ENDBRANCH  48  62
BRANCH  49  73
ATOM     73  C   UNL A   1      42.650  25.920  27.677  1.00  0.00     0.064 A 
ATOM     74  C   UNL A   1      43.605  26.341  26.741  1.00  0.00     0.173 A 
ATOM     75  C   UNL A   1      42.095  24.643  27.517  1.00  0.00     0.173 A 
ATOM     76  F   UNL A   1      44.133  27.571  26.829  1.00  0.00    -0.203 F 
ATOM     77  C   UNL A   1      43.970  25.526  25.671  1.00  0.00     0.198 A 
ATOM     78  C   UNL A   1      42.476  23.821  26.458  1.00  0.00     0.198 A 
ATOM     79  F   UNL A   1      41.165  24.202  28.376  1.00  0.00    -0.203 F 
ATOM     80  F   UNL A   1      44.840  25.974  24.756  1.00  0.00    -0.200 F 
ATOM     81  C   UNL A   1      43.407  24.267  25.531  1.00  0.00     0.200 A 
ATOM     82  F   UNL A   1      41.927  22.606  26.324  1.00  0.00    -0.200 F 
ATOM     83  F   UNL A   1      43.744  23.491  24.493  1.00  0.00    -0.200 F 
ENDBRANCH  49  73
BRANCH  61  84
ATOM     84  C   UNL A   1      44.974  27.115  34.124  1.00  0.00     0.064 A 
ATOM     85  C   UNL A   1      44.875  25.918  34.847  1.00  0.00     0.173 A 
ATOM     86  C   UNL A   1      46.217  27.767  34.098  1.00  0.00     0.173 A 
ATOM     87  F   UNL A   1      43.706  25.265  34.913  1.00  0.00    -0.203 F 
ATOM     88  C   UNL A   1      45.975  25.400  35.527  1.00  0.00     0.198 A 
ATOM     89  C   UNL A   1      47.321  27.232  34.759  1.00  0.00     0.198 A 
ATOM     90  F   UNL A   1      46.368  28.911  33.415  1.00  0.00    -0.203 F 
ATOM     91  F   UNL A   1      45.849  24.269  36.237  1.00  0.00    -0.200 F 
ATOM     92  C   UNL A   1      47.198  26.051  35.476  1.00  0.00     0.200 A 
ATOM     93  F   UNL A   1      48.505  27.857  34.698  1.00  0.00    -0.200 F 
ATOM     94  F   UNL A   1      48.258  25.543  36.119  1.00  0.00    -0.200 F 
ENDBRANCH  61  84
ENDBRANCH  35  36
ENDBRANCH  28  30
ENDBRANCH  27  28
ENDBRANCH  26  27
ENDBRANCH   1  26
TORSDOF 14
ENDMDL
MODEL 2
REMARK VINA RESULT:     -12.3      1.086      3.710
REMARK SMILES Cn1cc(C(=O)OCCOC(=O)c2ccc(-c3c4nc(c(-c5c(F)c(F)c(F)c(F)c5F)c5ccc([nH]5)c(-c5c(F)c(F)c(F)c(F)c5F)c5nc(c(-c6c(F)c(F)c(F)c(F)c6F)c6ccc3[nH]6)C=C5)C=C4)cc2)c(C(=O)Nc2ccc(-n3cncn3)cc2)n1
REMARK SMILES IDX 8 1 7 2 5 3 6 4 4 5 1 6 2 7 3 8 91 9 76 10 77 11 78 12 79 13
REMARK SMILES IDX 80 15 81 16 90 17 82 18 89 19 83 20 84 21 85 22 88 23 86 24
REMARK SMILES IDX 87 25 9 26 10 27 11 28 12 29 13 30 14 31 75 32 15 33 74 34
REMARK SMILES IDX 16 35 17 36 18 37 68 38 19 39 73 40 67 41 69 42 20 43 72 44
REMARK SMILES IDX 66 45 65 46 21 48 53 49 33 50 52 51 34 52 37 53 51 54 70 55
REMARK SMILES IDX 35 56 36 57 50 59 71 60 38 61 22 62 23 63 31 64 24 65 25 66
REMARK SMILES IDX 29 67 32 68 26 69 27 70 30 71 28 72 54 73 55 74 63 75 56 76
REMARK SMILES IDX 57 77 61 78 64 79 58 80 59 81 62 82 60 83 39 84 40 85 48 86
REMARK SMILES IDX 41 87 42 88 46 89 49 90 43 91 44 92 47 93 45 94
REMARK H PARENT 79 14 69 47 37 58
REMARK Flexibility Score: inf
ROOT
ATOM      1  C   UNL A   1      32.191  29.532  25.415  1.00  0.00     0.275 C 
ENDROOT
BRANCH   1   2
ATOM      2  O   UNL A   1      31.006  29.205  24.679  1.00  0.00    -0.458 OA
BRANCH   2   3
ATOM      3  C   UNL A   1      31.100  28.940  23.345  1.00  0.00     0.342 C 
ATOM      4  O   UNL A   1      32.104  28.562  22.764  1.00  0.00    -0.246 OA
BRANCH   3   5
ATOM      5  C   UNL A   1      29.839  29.245  22.717  1.00  0.00     0.111 A 
ATOM      6  C   UNL A   1      27.915  31.408  20.578  1.00  0.00     0.173 C 
ATOM      7  N   UNL A   1      28.476  30.420  21.468  1.00  0.00    -0.274 N 
ATOM      8  C   UNL A   1      29.773  30.287  21.802  1.00  0.00     0.125 A 
ATOM      9  N   UNL A   1      27.682  29.552  22.092  1.00  0.00    -0.167 NA
ATOM     10  C   UNL A   1      28.490  28.770  22.857  1.00  0.00     0.165 A 
BRANCH  10  11
ATOM     11  C   UNL A   1      27.783  27.677  23.598  1.00  0.00     0.277 C 
ATOM     12  O   UNL A   1      26.593  27.803  23.922  1.00  0.00    -0.267 OA
ATOM     13  N   UNL A   1      28.271  26.404  23.778  1.00  0.00    -0.321 N 
ATOM     14  H   UNL A   1      27.610  25.703  23.575  1.00  0.00     0.170 HD
BRANCH  13  15
ATOM     15  C   UNL A   1      29.499  25.893  24.185  1.00  0.00     0.041 A 
ATOM     16  C   UNL A   1      29.860  26.051  25.522  1.00  0.00     0.028 A 
ATOM     17  C   UNL A   1      30.393  25.301  23.308  1.00  0.00     0.028 A 
ATOM     18  C   UNL A   1      30.978  25.382  26.024  1.00  0.00     0.030 A 
ATOM     19  C   UNL A   1      31.554  24.688  23.785  1.00  0.00     0.030 A 
ATOM     20  C   UNL A   1      31.771  24.615  25.163  1.00  0.00     0.067 A 
BRANCH  20  21
ATOM     21  N   UNL A   1      32.640  23.636  25.707  1.00  0.00    -0.221 N 
ATOM     22  C   UNL A   1      33.880  23.804  26.277  1.00  0.00     0.225 A 
ATOM     23  N   UNL A   1      32.420  22.310  25.521  1.00  0.00    -0.155 NA
ATOM     24  N   UNL A   1      34.518  22.658  26.342  1.00  0.00    -0.223 NA
ATOM     25  C   UNL A   1      33.601  21.782  25.842  1.00  0.00     0.246 A 
ENDBRANCH  20  21
ENDBRANCH  13  15
ENDBRANCH  10  11
ENDBRANCH   3   5
ENDBRANCH   2   3
ENDBRANCH   1   2
BRANCH   1  26
ATOM     26  C   UNL A   1      31.952  30.868  26.133  1.00  0.00     0.275 C 
BRANCH  26  27
ATOM     27  O   UNL A   1      32.646  30.899  27.403  1.00  0.00    -0.458 OA
BRANCH  27  28
ATOM     28  C   UNL A   1      33.433  31.990  27.609  1.00  0.00     0.338 C 
ATOM     29  O   UNL A   1      33.071  33.154  27.606  1.00  0.00    -0.246 OA
BRANCH  28  30
ATOM     30  C   UNL A   1      34.807  31.580  28.000  1.00  0.00     0.060 A 
ATOM     31  C   UNL A   1      35.046  30.213  28.189  1.00  0.00     0.016 A 
ATOM     32  C   UNL A   1      35.861  32.493  28.150  1.00  0.00     0.016 A 
ATOM     33  C   UNL A   1      36.316  29.759  28.558  1.00  0.00     0.010 A 
ATOM     34  C   UNL A   1      37.134  32.037  28.531  1.00  0.00     0.010 A 
ATOM     35  C   UNL A   1      37.361  30.670  28.772  1.00  0.00    -0.014 A 
BRANCH  35  36
ATOM     36  C   UNL A   1      38.590  30.200  29.466  1.00  0.00     0.031 A 
ATOM     37  C   UNL A   1      38.854  30.708  30.859  1.00  0.00     0.074 A 
ATOM     38  C   UNL A   1      39.432  29.298  28.929  1.00  0.00     0.049 A 
ATOM     39  N   UNL A   1      39.769  30.344  31.723  1.00  0.00    -0.248 NA
ATOM     40  C   UNL A   1      37.950  31.762  31.349  1.00  0.00     0.031 C 
ATOM     41  C   UNL A   1      39.300  28.690  27.609  1.00  0.00     0.029 A 
ATOM     42  N   UNL A   1      40.570  28.727  29.452  1.00  0.00    -0.354 N 
ATOM     43  C   UNL A   1      39.520  31.085  32.868  1.00  0.00     0.074 A 
ATOM     44  C   UNL A   1      38.407  31.962  32.576  1.00  0.00     0.031 C 
ATOM     45  C   UNL A   1      40.320  27.829  27.424  1.00  0.00     0.029 A 
ATOM     46  C   UNL A   1      41.174  27.825  28.613  1.00  0.00     0.049 A 
ATOM     47  H   UNL A   1      40.918  28.946  30.348  1.00  0.00     0.167 HD
ATOM     48  C   UNL A   1      40.141  31.029  34.070  1.00  0.00     0.037 A 
ATOM     49  C   UNL A   1      42.281  27.075  28.790  1.00  0.00     0.037 A 
ATOM     50  C   UNL A   1      41.273  30.200  34.374  1.00  0.00     0.049 A 
ATOM     51  C   UNL A   1      43.036  27.128  30.097  1.00  0.00     0.074 A 
ATOM     52  C   UNL A   1      41.961  30.085  35.569  1.00  0.00     0.029 A 
ATOM     53  N   UNL A   1      41.899  29.361  33.468  1.00  0.00    -0.354 N 
ATOM     54  N   UNL A   1      42.744  27.771  31.201  1.00  0.00    -0.248 NA
ATOM     55  C   UNL A   1      44.278  26.339  30.180  1.00  0.00     0.031 C 
ATOM     56  C   UNL A   1      43.036  29.212  35.374  1.00  0.00     0.029 A 
ATOM     57  C   UNL A   1      42.993  28.756  34.066  1.00  0.00     0.049 A 
ATOM     58  H   UNL A   1      41.612  29.217  32.538  1.00  0.00     0.167 HD
ATOM     59  C   UNL A   1      43.738  27.437  32.113  1.00  0.00     0.074 A 
ATOM     60  C   UNL A   1      44.643  26.532  31.440  1.00  0.00     0.031 C 
ATOM     61  C   UNL A   1      43.884  27.845  33.398  1.00  0.00     0.037 A 
BRANCH  48  62
ATOM     62  C   UNL A   1      39.600  31.909  35.151  1.00  0.00     0.064 A 
ATOM     63  C   UNL A   1      38.655  31.429  36.070  1.00  0.00     0.173 A 
ATOM     64  C   UNL A   1      40.038  33.234  35.280  1.00  0.00     0.173 A 
ATOM     65  F   UNL A   1      38.196  30.172  35.971  1.00  0.00    -0.203 F 
ATOM     66  C   UNL A   1      38.154  32.253  37.072  1.00  0.00     0.198 A 
ATOM     67  C   UNL A   1      39.548  34.049  36.295  1.00  0.00     0.198 A 
ATOM     68  F   UNL A   1      40.938  33.736  34.421  1.00  0.00    -0.203 F 
ATOM     69  F   UNL A   1      37.226  31.787  37.919  1.00  0.00    -0.200 F 
ATOM     70  C   UNL A   1      38.604  33.560  37.187  1.00  0.00     0.200 A 
ATOM     71  F   UNL A   1      39.984  35.312  36.408  1.00  0.00    -0.200 F 
ATOM     72  F   UNL A   1      38.120  34.354  38.152  1.00  0.00    -0.200 F 
ENDBRANCH  48  62
BRANCH  49  73
ATOM     73  C   UNL A   1      42.769  26.188  27.702  1.00  0.00     0.064 A 
ATOM     74  C   UNL A   1      43.725  26.635  26.778  1.00  0.00     0.173 A 
ATOM     75  C   UNL A   1      42.228  24.908  27.516  1.00  0.00     0.173 A 
ATOM     76  F   UNL A   1      44.240  27.868  26.891  1.00  0.00    -0.203 F 
ATOM     77  C   UNL A   1      44.105  25.841  25.697  1.00  0.00     0.198 A 
ATOM     78  C   UNL A   1      42.624  24.108  26.446  1.00  0.00     0.198 A 
ATOM     79  F   UNL A   1      41.297  24.443  28.361  1.00  0.00    -0.203 F 
ATOM     80  F   UNL A   1      44.977  26.314  24.795  1.00  0.00    -0.200 F 
ATOM     81  C   UNL A   1      43.556  24.579  25.532  1.00  0.00     0.200 A 
ATOM     82  F   UNL A   1      42.088  22.890  26.288  1.00  0.00    -0.200 F 
ATOM     83  F   UNL A   1      43.908  23.824  24.484  1.00  0.00    -0.200 F 
ENDBRANCH  49  73
BRANCH  61  84
ATOM     84  C   UNL A   1      45.047  27.305  34.179  1.00  0.00     0.064 A 
ATOM     85  C   UNL A   1      46.264  27.997  34.253  1.00  0.00     0.173 A 
ATOM     86  C   UNL A   1      44.920  26.117  34.915  1.00  0.00     0.173 A 
ATOM     87  F   UNL A   1      46.439  29.130  33.557  1.00  0.00    -0.203 F 
ATOM     88  C   UNL A   1      47.317  27.511  35.025  1.00  0.00     0.198 A 
ATOM     89  C   UNL A   1      45.966  25.648  35.705  1.00  0.00     0.198 A 
ATOM     90  F   UNL A   1      43.773  25.422  34.885  1.00  0.00    -0.203 F 
ATOM     91  F   UNL A   1      48.483  28.173  35.056  1.00  0.00    -0.200 F 
ATOM     92  C   UNL A   1      47.166  26.343  35.756  1.00  0.00     0.200 A 
ATOM     93  F   UNL A   1      45.814  24.526  36.421  1.00  0.00    -0.200 F 
ATOM     94  F   UNL A   1      48.175  25.885  36.509  1.00  0.00    -0.200 F 
ENDBRANCH  61  84
ENDBRANCH  35  36
ENDBRANCH  28  30
ENDBRANCH  27  28
ENDBRANCH  26  27
ENDBRANCH   1  26
TORSDOF 14
ENDMDL
MODEL 3
REMARK VINA RESULT:     -12.3      4.320      9.333
REMARK SMILES Cn1cc(C(=O)OCCOC(=O)c2ccc(-c3c4nc(c(-c5c(F)c(F)c(F)c(F)c5F)c5ccc([nH]5)c(-c5c(F)c(F)c(F)c(F)c5F)c5nc(c(-c6c(F)c(F)c(F)c(F)c6F)c6ccc3[nH]6)C=C5)C=C4)cc2)c(C(=O)Nc2ccc(-n3cncn3)cc2)n1
REMARK SMILES IDX 8 1 7 2 5 3 6 4 4 5 1 6 2 7 3 8 91 9 76 10 77 11 78 12 79 13
REMARK SMILES IDX 80 15 81 16 90 17 82 18 89 19 83 20 84 21 85 22 88 23 86 24
REMARK SMILES IDX 87 25 9 26 10 27 11 28 12 29 13 30 14 31 75 32 15 33 74 34
REMARK SMILES IDX 16 35 17 36 18 37 68 38 19 39 73 40 67 41 69 42 20 43 72 44
REMARK SMILES IDX 66 45 65 46 21 48 53 49 33 50 52 51 34 52 37 53 51 54 70 55
REMARK SMILES IDX 35 56 36 57 50 59 71 60 38 61 22 62 23 63 31 64 24 65 25 66
REMARK SMILES IDX 29 67 32 68 26 69 27 70 30 71 28 72 54 73 55 74 63 75 56 76
REMARK SMILES IDX 57 77 61 78 64 79 58 80 59 81 62 82 60 83 39 84 40 85 48 86
REMARK SMILES IDX 41 87 42 88 46 89 49 90 43 91 44 92 47 93 45 94
REMARK H PARENT 79 14 69 47 37 58
REMARK Flexibility Score: inf
ROOT
ATOM      1  C   UNL A   1      36.664  20.551  24.869  1.00  0.00     0.275 C 
ENDROOT
BRANCH   1   2
ATOM      2  O   UNL A   1      36.740  21.982  24.872  1.00  0.00    -0.458 OA
BRANCH   2   3
ATOM      3  C   UNL A   1      36.093  22.688  23.903  1.00  0.00     0.342 C 
ATOM      4  O   UNL A   1      36.576  23.045  22.840  1.00  0.00    -0.246 OA
BRANCH   3   5
ATOM      5  C   UNL A   1      34.765  23.009  24.364  1.00  0.00     0.111 A 
ATOM      6  C   UNL A   1      32.365  23.032  27.046  1.00  0.00     0.173 C 
ATOM      7  N   UNL A   1      33.144  23.111  25.834  1.00  0.00    -0.274 N 
ATOM      8  C   UNL A   1      34.460  22.857  25.709  1.00  0.00     0.125 A 
ATOM      9  N   UNL A   1      32.557  23.416  24.678  1.00  0.00    -0.167 NA
ATOM     10  C   UNL A   1      33.535  23.402  23.732  1.00  0.00     0.165 A 
BRANCH  10  11
ATOM     11  C   UNL A   1      33.081  23.786  22.358  1.00  0.00     0.277 C 
ATOM     12  O   UNL A   1      33.651  23.330  21.356  1.00  0.00    -0.267 OA
ATOM     13  N   UNL A   1      31.912  24.452  22.072  1.00  0.00    -0.321 N 
ATOM     14  H   UNL A   1      31.402  24.040  21.338  1.00  0.00     0.170 HD
BRANCH  13  15
ATOM     15  C   UNL A   1      31.296  25.582  22.597  1.00  0.00     0.041 A 
ATOM     16  C   UNL A   1      31.809  26.829  22.244  1.00  0.00     0.028 A 
ATOM     17  C   UNL A   1      30.247  25.514  23.500  1.00  0.00     0.028 A 
ATOM     18  C   UNL A   1      31.106  27.989  22.574  1.00  0.00     0.030 A 
ATOM     19  C   UNL A   1      29.576  26.673  23.899  1.00  0.00     0.030 A 
ATOM     20  C   UNL A   1      29.928  27.897  23.323  1.00  0.00     0.067 A 
BRANCH  20  21
ATOM     21  N   UNL A   1      29.016  28.982  23.322  1.00  0.00    -0.221 N 
ATOM     22  C   UNL A   1      27.693  28.995  22.949  1.00  0.00     0.225 A 
ATOM     23  N   UNL A   1      29.434  30.261  23.500  1.00  0.00    -0.155 NA
ATOM     24  N   UNL A   1      27.281  30.227  22.751  1.00  0.00    -0.223 NA
ATOM     25  C   UNL A   1      28.384  30.961  23.069  1.00  0.00     0.246 A 
ENDBRANCH  20  21
ENDBRANCH  13  15
ENDBRANCH  10  11
ENDBRANCH   3   5
ENDBRANCH   2   3
ENDBRANCH   1   2
BRANCH   1  26
ATOM     26  C   UNL A   1      38.086  19.998  25.039  1.00  0.00     0.275 C 
BRANCH  26  27
ATOM     27  O   UNL A   1      39.032  21.073  25.253  1.00  0.00    -0.458 OA
BRANCH  27  28
ATOM     28  C   UNL A   1      39.914  20.877  26.271  1.00  0.00     0.338 C 
ATOM     29  O   UNL A   1      40.439  19.820  26.579  1.00  0.00    -0.246 OA
BRANCH  28  30
ATOM     30  C   UNL A   1      40.292  22.171  26.896  1.00  0.00     0.060 A 
ATOM     31  C   UNL A   1      39.580  23.311  26.504  1.00  0.00     0.016 A 
ATOM     32  C   UNL A   1      41.295  22.282  27.870  1.00  0.00     0.016 A 
ATOM     33  C   UNL A   1      39.885  24.561  27.052  1.00  0.00     0.010 A 
ATOM     34  C   UNL A   1      41.608  23.541  28.412  1.00  0.00     0.010 A 
ATOM     35  C   UNL A   1      40.928  24.694  27.980  1.00  0.00    -0.014 A 
BRANCH  35  36
ATOM     36  C   UNL A   1      41.436  26.056  28.297  1.00  0.00     0.031 A 
ATOM     37  C   UNL A   1      42.822  26.419  27.832  1.00  0.00     0.074 A 
ATOM     38  C   UNL A   1      40.690  26.988  28.917  1.00  0.00     0.049 A 
ATOM     39  N   UNL A   1      43.436  27.577  27.856  1.00  0.00    -0.248 NA
ATOM     40  C   UNL A   1      43.619  25.328  27.247  1.00  0.00     0.031 C 
ATOM     41  C   UNL A   1      39.325  26.804  29.399  1.00  0.00     0.029 A 
ATOM     42  N   UNL A   1      40.987  28.294  29.234  1.00  0.00    -0.354 N 
ATOM     43  C   UNL A   1      44.664  27.362  27.248  1.00  0.00     0.074 A 
ATOM     44  C   UNL A   1      44.737  25.955  26.917  1.00  0.00     0.031 C 
ATOM     45  C   UNL A   1      38.901  27.957  29.953  1.00  0.00     0.029 A 
ATOM     46  C   UNL A   1      39.964  28.959  29.862  1.00  0.00     0.049 A 
ATOM     47  H   UNL A   1      41.855  28.713  29.028  1.00  0.00     0.167 HD
ATOM     48  C   UNL A   1      45.640  28.256  26.963  1.00  0.00     0.037 A 
ATOM     49  C   UNL A   1      39.891  30.232  30.302  1.00  0.00     0.037 A 
ATOM     50  C   UNL A   1      45.612  29.647  27.318  1.00  0.00     0.049 A 
ATOM     51  C   UNL A   1      41.049  31.179  30.088  1.00  0.00     0.074 A 
ATOM     52  C   UNL A   1      46.562  30.621  27.065  1.00  0.00     0.029 A 
ATOM     53  N   UNL A   1      44.589  30.258  28.023  1.00  0.00    -0.354 N 
ATOM     54  N   UNL A   1      42.172  30.987  29.440  1.00  0.00    -0.248 NA
ATOM     55  C   UNL A   1      40.921  32.527  30.668  1.00  0.00     0.031 C 
ATOM     56  C   UNL A   1      46.137  31.813  27.660  1.00  0.00     0.029 A 
ATOM     57  C   UNL A   1      44.904  31.588  28.252  1.00  0.00     0.049 A 
ATOM     58  H   UNL A   1      43.762  29.814  28.319  1.00  0.00     0.167 HD
ATOM     59  C   UNL A   1      42.861  32.193  29.502  1.00  0.00     0.074 A 
ATOM     60  C   UNL A   1      42.033  33.114  30.249  1.00  0.00     0.031 C 
ATOM     61  C   UNL A   1      44.073  32.506  28.983  1.00  0.00     0.037 A 
BRANCH  48  62
ATOM     62  C   UNL A   1      46.836  27.739  26.229  1.00  0.00     0.064 A 
ATOM     63  C   UNL A   1      46.884  27.749  24.827  1.00  0.00     0.173 A 
ATOM     64  C   UNL A   1      47.945  27.246  26.928  1.00  0.00     0.173 A 
ATOM     65  F   UNL A   1      45.836  28.196  24.118  1.00  0.00    -0.203 F 
ATOM     66  C   UNL A   1      47.999  27.265  24.150  1.00  0.00     0.198 A 
ATOM     67  C   UNL A   1      49.065  26.779  26.248  1.00  0.00     0.198 A 
ATOM     68  F   UNL A   1      47.940  27.214  28.269  1.00  0.00    -0.203 F 
ATOM     69  F   UNL A   1      48.012  27.249  22.810  1.00  0.00    -0.200 F 
ATOM     70  C   UNL A   1      49.089  26.785  24.860  1.00  0.00     0.200 A 
ATOM     71  F   UNL A   1      50.120  26.317  26.933  1.00  0.00    -0.200 F 
ATOM     72  F   UNL A   1      50.162  26.318  24.207  1.00  0.00    -0.200 F 
ENDBRANCH  48  62
BRANCH  49  73
ATOM     73  C   UNL A   1      38.672  30.717  30.999  1.00  0.00     0.064 A 
ATOM     74  C   UNL A   1      37.618  31.308  30.287  1.00  0.00     0.173 A 
ATOM     75  C   UNL A   1      38.574  30.673  32.397  1.00  0.00     0.173 A 
ATOM     76  F   UNL A   1      37.686  31.411  28.952  1.00  0.00    -0.203 F 
ATOM     77  C   UNL A   1      36.522  31.857  30.951  1.00  0.00     0.198 A 
ATOM     78  C   UNL A   1      37.468  31.203  33.057  1.00  0.00     0.198 A 
ATOM     79  F   UNL A   1      39.563  30.134  33.123  1.00  0.00    -0.203 F 
ATOM     80  F   UNL A   1      35.556  32.469  30.252  1.00  0.00    -0.200 F 
ATOM     81  C   UNL A   1      36.447  31.803  32.334  1.00  0.00     0.200 A 
ATOM     82  F   UNL A   1      37.400  31.152  34.395  1.00  0.00    -0.200 F 
ATOM     83  F   UNL A   1      35.402  32.346  32.972  1.00  0.00    -0.200 F 
ENDBRANCH  49  73
BRANCH  61  84
ATOM     84  C   UNL A   1      44.579  33.906  29.175  1.00  0.00     0.064 A 
ATOM     85  C   UNL A   1      44.253  34.932  28.277  1.00  0.00     0.173 A 
ATOM     86  C   UNL A   1      45.343  34.239  30.304  1.00  0.00     0.173 A 
ATOM     87  F   UNL A   1      43.536  34.663  27.176  1.00  0.00    -0.203 F 
ATOM     88  C   UNL A   1      44.685  36.239  28.496  1.00  0.00     0.198 A 
ATOM     89  C   UNL A   1      45.752  35.551  30.532  1.00  0.00     0.198 A 
ATOM     90  F   UNL A   1      45.676  33.296  31.199  1.00  0.00    -0.203 F 
ATOM     91  F   UNL A   1      44.387  37.198  27.608  1.00  0.00    -0.200 F 
ATOM     92  C   UNL A   1      45.427  36.549  29.626  1.00  0.00     0.200 A 
ATOM     93  F   UNL A   1      46.459  35.851  31.630  1.00  0.00    -0.200 F 
ATOM     94  F   UNL A   1      45.829  37.808  29.841  1.00  0.00    -0.200 F 
ENDBRANCH  61  84
ENDBRANCH  35  36
ENDBRANCH  28  30
ENDBRANCH  27  28
ENDBRANCH  26  27
ENDBRANCH   1  26
TORSDOF 14
ENDMDL
