MODEL 1
REMARK VINA RESULT:     -11.9      0.000      0.000
REMARK SMILES O=C(OCCOC(=O)c1cc([N+](=O)[O-])c(NCCC2=CCCCC2)c([N+](=O)[O-])c1)c1ccc(-c2c3nc(c(-c4c(F)c(F)c(F)c(F)c4F)c4ccc([nH]4)c(-c4c(F)c(F)c(F)c(F)c4F)c4nc(c(-c5c(F)c(F)c(F)c(F)c5F)c5ccc2[nH]5)C=C4)C=C3)cc1
REMARK SMILES IDX 5 1 4 2 3 3 2 4 1 5 30 6 31 7 92 8 32 9 91 10 33 11 34 12
REMARK SMILES IDX 35 13 85 14 36 15 90 16 84 17 86 18 37 19 89 20 83 21 82 22
REMARK SMILES IDX 38 24 70 25 50 26 69 27 51 28 54 29 68 30 87 31 52 32 53 33
REMARK SMILES IDX 67 35 88 36 55 37 39 38 40 39 48 40 41 41 42 42 46 43 49 44
REMARK SMILES IDX 43 45 44 46 47 47 45 48 71 49 72 50 80 51 73 52 74 53 78 54
REMARK SMILES IDX 81 55 75 56 76 57 79 58 77 59 56 60 57 61 65 62 58 63 59 64
REMARK SMILES IDX 63 65 66 66 60 67 61 68 64 69 62 70 6 71 7 72 8 73 9 74
REMARK SMILES IDX 10 75 29 76 11 77 25 78 15 79 12 80 13 81 14 82 26 83 27 84
REMARK SMILES IDX 28 85 16 86 17 88 18 89 19 90 20 91 24 92 21 93 23 94 22 95
REMARK H PARENT 86 23 54 34 16 87
REMARK Flexibility Score: inf
ROOT
ATOM      1  C   UNL A   1      32.578  31.358  26.915  1.00  0.00     0.275 C 
ENDROOT
BRANCH   1   2
ATOM      2  C   UNL A   1      31.640  32.564  27.062  1.00  0.00     0.275 C 
BRANCH   2   3
ATOM      3  O   UNL A   1      32.302  33.829  27.232  1.00  0.00    -0.458 OA
BRANCH   3   4
ATOM      4  C   UNL A   1      32.932  34.357  28.305  1.00  0.00     0.338 C 
ATOM      5  O   UNL A   1      32.526  35.427  28.756  1.00  0.00    -0.246 OA
BRANCH   4   6
ATOM      6  C   UNL A   1      34.192  33.798  28.895  1.00  0.00     0.060 A 
ATOM      7  C   UNL A   1      35.497  34.162  28.559  1.00  0.00     0.016 A 
ATOM      8  C   UNL A   1      34.028  32.835  29.909  1.00  0.00     0.016 A 
ATOM      9  C   UNL A   1      36.595  33.679  29.275  1.00  0.00     0.010 A 
ATOM     10  C   UNL A   1      35.121  32.351  30.635  1.00  0.00     0.010 A 
ATOM     11  C   UNL A   1      36.415  32.788  30.330  1.00  0.00    -0.014 A 
BRANCH  11  12
ATOM     12  C   UNL A   1      37.585  32.194  31.011  1.00  0.00     0.031 A 
ATOM     13  C   UNL A   1      38.262  31.026  30.364  1.00  0.00     0.074 A 
ATOM     14  C   UNL A   1      38.067  32.708  32.159  1.00  0.00     0.049 A 
ATOM     15  N   UNL A   1      39.270  30.317  30.795  1.00  0.00    -0.248 NA
ATOM     16  C   UNL A   1      37.777  30.639  29.028  1.00  0.00     0.031 C 
ATOM     17  C   UNL A   1      37.616  33.942  32.797  1.00  0.00     0.029 A 
ATOM     18  N   UNL A   1      39.028  32.232  33.017  1.00  0.00    -0.354 N 
ATOM     19  C   UNL A   1      39.576  29.445  29.763  1.00  0.00     0.074 A 
ATOM     20  C   UNL A   1      38.603  29.652  28.716  1.00  0.00     0.031 C 
ATOM     21  C   UNL A   1      38.206  34.058  34.001  1.00  0.00     0.029 A 
ATOM     22  C   UNL A   1      39.064  32.905  34.217  1.00  0.00     0.049 A 
ATOM     23  H   UNL A   1      39.629  31.484  32.796  1.00  0.00     0.167 HD
ATOM     24  C   UNL A   1      40.615  28.585  29.686  1.00  0.00     0.037 A 
ATOM     25  C   UNL A   1      39.690  32.594  35.367  1.00  0.00     0.037 A 
ATOM     26  C   UNL A   1      41.569  28.389  30.742  1.00  0.00     0.049 A 
ATOM     27  C   UNL A   1      40.673  31.465  35.350  1.00  0.00     0.074 A 
ATOM     28  C   UNL A   1      42.678  27.566  30.761  1.00  0.00     0.029 A 
ATOM     29  N   UNL A   1      41.507  29.011  31.981  1.00  0.00    -0.354 N 
ATOM     30  N   UNL A   1      41.014  30.693  34.348  1.00  0.00    -0.248 NA
ATOM     31  C   UNL A   1      41.405  31.206  36.594  1.00  0.00     0.031 C 
ATOM     32  C   UNL A   1      43.247  27.634  32.036  1.00  0.00     0.029 A 
ATOM     33  C   UNL A   1      42.525  28.542  32.795  1.00  0.00     0.049 A 
ATOM     34  H   UNL A   1      40.839  29.685  32.243  1.00  0.00     0.167 HD
ATOM     35  C   UNL A   1      42.037  29.891  34.822  1.00  0.00     0.074 A 
ATOM     36  C   UNL A   1      42.259  30.270  36.204  1.00  0.00     0.031 C 
ATOM     37  C   UNL A   1      42.737  28.937  34.163  1.00  0.00     0.037 A 
BRANCH  24  38
ATOM     38  C   UNL A   1      40.762  27.792  28.426  1.00  0.00     0.064 A 
ATOM     39  C   UNL A   1      41.543  28.249  27.353  1.00  0.00     0.173 A 
ATOM     40  C   UNL A   1      40.141  26.540  28.304  1.00  0.00     0.173 A 
ATOM     41  F   UNL A   1      42.136  29.450  27.413  1.00  0.00    -0.203 F 
ATOM     42  C   UNL A   1      41.688  27.485  26.200  1.00  0.00     0.198 A 
ATOM     43  C   UNL A   1      40.309  25.769  27.158  1.00  0.00     0.198 A 
ATOM     44  F   UNL A   1      39.378  26.066  29.299  1.00  0.00    -0.203 F 
ATOM     45  F   UNL A   1      42.410  27.955  25.172  1.00  0.00    -0.200 F 
ATOM     46  C   UNL A   1      41.079  26.242  26.106  1.00  0.00     0.200 A 
ATOM     47  F   UNL A   1      39.723  24.567  27.071  1.00  0.00    -0.200 F 
ATOM     48  F   UNL A   1      41.229  25.503  24.999  1.00  0.00    -0.200 F 
ENDBRANCH  24  38
BRANCH  25  49
ATOM     49  C   UNL A   1      39.403  33.321  36.628  1.00  0.00     0.064 A 
ATOM     50  C   UNL A   1      40.150  34.434  37.028  1.00  0.00     0.173 A 
ATOM     51  C   UNL A   1      38.420  32.846  37.510  1.00  0.00     0.173 A 
ATOM     52  F   UNL A   1      41.154  34.875  36.257  1.00  0.00    -0.203 F 
ATOM     53  C   UNL A   1      39.915  35.053  38.256  1.00  0.00     0.198 A 
ATOM     54  C   UNL A   1      38.156  33.489  38.718  1.00  0.00     0.198 A 
ATOM     55  F   UNL A   1      37.767  31.712  37.228  1.00  0.00    -0.203 F 
ATOM     56  F   UNL A   1      40.688  36.076  38.645  1.00  0.00    -0.200 F 
ATOM     57  C   UNL A   1      38.908  34.591  39.092  1.00  0.00     0.200 A 
ATOM     58  F   UNL A   1      37.205  33.018  39.537  1.00  0.00    -0.200 F 
ATOM     59  F   UNL A   1      38.692  35.183  40.276  1.00  0.00    -0.200 F 
ENDBRANCH  25  49
BRANCH  37  60
ATOM     60  C   UNL A   1      43.840  28.267  34.919  1.00  0.00     0.064 A 
ATOM     61  C   UNL A   1      45.134  28.803  34.954  1.00  0.00     0.173 A 
ATOM     62  C   UNL A   1      43.588  27.092  35.640  1.00  0.00     0.173 A 
ATOM     63  F   UNL A   1      45.426  29.912  34.257  1.00  0.00    -0.203 F 
ATOM     64  C   UNL A   1      46.145  28.171  35.670  1.00  0.00     0.198 A 
ATOM     65  C   UNL A   1      44.591  26.483  36.385  1.00  0.00     0.198 A 
ATOM     66  F   UNL A   1      42.363  26.544  35.636  1.00  0.00    -0.203 F 
ATOM     67  F   UNL A   1      47.388  28.669  35.650  1.00  0.00    -0.200 F 
ATOM     68  C   UNL A   1      45.871  27.018  36.393  1.00  0.00     0.200 A 
ATOM     69  F   UNL A   1      44.321  25.379  37.093  1.00  0.00    -0.200 F 
ATOM     70  F   UNL A   1      46.843  26.418  37.092  1.00  0.00    -0.200 F 
ENDBRANCH  37  60
ENDBRANCH  11  12
ENDBRANCH   4   6
ENDBRANCH   3   4
ENDBRANCH   2   3
ENDBRANCH   1   2
BRANCH   1  71
ATOM     71  O   UNL A   1      31.946  30.085  27.148  1.00  0.00    -0.458 OA
BRANCH  71  72
ATOM     72  C   UNL A   1      32.714  28.998  26.872  1.00  0.00     0.338 C 
ATOM     73  O   UNL A   1      33.863  28.803  27.212  1.00  0.00    -0.246 OA
BRANCH  72  74
ATOM     74  C   UNL A   1      31.886  27.976  26.194  1.00  0.00     0.073 A 
ATOM     75  C   UNL A   1      31.235  28.305  25.012  1.00  0.00     0.104 A 
ATOM     76  C   UNL A   1      31.696  26.711  26.731  1.00  0.00     0.104 A 
ATOM     77  C   UNL A   1      30.551  27.304  24.283  1.00  0.00     0.300 A 
ATOM     78  C   UNL A   1      30.941  25.748  26.015  1.00  0.00     0.300 A 
ATOM     79  C   UNL A   1      30.467  25.954  24.686  1.00  0.00     0.192 A 
BRANCH  77  80
ATOM     80  N   UNL A   1      29.875  27.787  23.102  1.00  0.00     0.065 N 
ATOM     81  O   UNL A   1      28.638  27.802  23.129  1.00  0.00    -0.258 OA
ATOM     82  O   UNL A   1      30.587  28.114  22.144  1.00  0.00    -0.258 OA
ENDBRANCH  77  80
BRANCH  78  83
ATOM     83  N   UNL A   1      30.538  24.550  26.774  1.00  0.00     0.065 N 
ATOM     84  O   UNL A   1      31.418  23.824  27.247  1.00  0.00    -0.258 OA
ATOM     85  O   UNL A   1      29.323  24.317  26.880  1.00  0.00    -0.258 OA
ENDBRANCH  78  83
BRANCH  79  86
ATOM     86  N   UNL A   1      30.120  24.868  23.886  1.00  0.00    -0.374 N 
ATOM     87  H   UNL A   1      29.154  24.782  23.717  1.00  0.00     0.161 HD
BRANCH  86  88
ATOM     88  C   UNL A   1      30.936  23.831  23.253  1.00  0.00     0.118 C 
BRANCH  88  89
ATOM     89  C   UNL A   1      32.279  24.368  22.712  1.00  0.00     0.052 C 
BRANCH  89  90
ATOM     90  C   UNL A   1      33.548  24.084  23.490  1.00  0.00    -0.072 C 
ATOM     91  C   UNL A   1      33.945  24.843  24.530  1.00  0.00    -0.028 C 
ATOM     92  C   UNL A   1      34.281  22.809  23.127  1.00  0.00     0.031 C 
ATOM     93  C   UNL A   1      35.158  24.547  25.371  1.00  0.00     0.027 C 
ATOM     94  C   UNL A   1      35.248  22.326  24.212  1.00  0.00     0.005 C 
ATOM     95  C   UNL A   1      36.070  23.480  24.765  1.00  0.00     0.004 C 
ENDBRANCH  89  90
ENDBRANCH  88  89
ENDBRANCH  86  88
ENDBRANCH  79  86
ENDBRANCH  72  74
ENDBRANCH  71  72
ENDBRANCH   1  71
TORSDOF 17
ENDMDL
MODEL 2
REMARK VINA RESULT:     -11.7      5.244     10.413
REMARK SMILES O=C(OCCOC(=O)c1cc([N+](=O)[O-])c(NCCC2=CCCCC2)c([N+](=O)[O-])c1)c1ccc(-c2c3nc(c(-c4c(F)c(F)c(F)c(F)c4F)c4ccc([nH]4)c(-c4c(F)c(F)c(F)c(F)c4F)c4nc(c(-c5c(F)c(F)c(F)c(F)c5F)c5ccc2[nH]5)C=C4)C=C3)cc1
REMARK SMILES IDX 5 1 4 2 3 3 2 4 1 5 30 6 31 7 92 8 32 9 91 10 33 11 34 12
REMARK SMILES IDX 35 13 85 14 36 15 90 16 84 17 86 18 37 19 89 20 83 21 82 22
REMARK SMILES IDX 38 24 70 25 50 26 69 27 51 28 54 29 68 30 87 31 52 32 53 33
REMARK SMILES IDX 67 35 88 36 55 37 39 38 40 39 48 40 41 41 42 42 46 43 49 44
REMARK SMILES IDX 43 45 44 46 47 47 45 48 71 49 72 50 80 51 73 52 74 53 78 54
REMARK SMILES IDX 81 55 75 56 76 57 79 58 77 59 56 60 57 61 65 62 58 63 59 64
REMARK SMILES IDX 63 65 66 66 60 67 61 68 64 69 62 70 6 71 7 72 8 73 9 74
REMARK SMILES IDX 10 75 29 76 11 77 25 78 15 79 12 80 13 81 14 82 26 83 27 84
REMARK SMILES IDX 28 85 16 86 17 88 18 89 19 90 20 91 24 92 21 93 23 94 22 95
REMARK H PARENT 86 23 54 34 16 87
REMARK Flexibility Score: inf
ROOT
ATOM      1  C   UNL A   1      38.533  21.053  25.687  1.00  0.00     0.275 C 
ENDROOT
BRANCH   1   2
ATOM      2  C   UNL A   1      38.976  19.704  25.105  1.00  0.00     0.275 C 
BRANCH   2   3
ATOM      3  O   UNL A   1      40.040  19.054  25.821  1.00  0.00    -0.458 OA
BRANCH   3   4
ATOM      4  C   UNL A   1      41.331  19.413  25.998  1.00  0.00     0.338 C 
ATOM      5  O   UNL A   1      42.203  18.559  25.847  1.00  0.00    -0.246 OA
BRANCH   4   6
ATOM      6  C   UNL A   1      41.764  20.753  26.514  1.00  0.00     0.060 A 
ATOM      7  C   UNL A   1      41.804  21.152  27.852  1.00  0.00     0.016 A 
ATOM      8  C   UNL A   1      42.201  21.678  25.548  1.00  0.00     0.016 A 
ATOM      9  C   UNL A   1      42.362  22.376  28.230  1.00  0.00     0.010 A 
ATOM     10  C   UNL A   1      42.767  22.902  25.918  1.00  0.00     0.010 A 
ATOM     11  C   UNL A   1      42.866  23.250  27.269  1.00  0.00    -0.014 A 
BRANCH  11  12
ATOM     12  C   UNL A   1      43.352  24.589  27.664  1.00  0.00     0.031 A 
ATOM     13  C   UNL A   1      42.342  25.670  27.888  1.00  0.00     0.074 A 
ATOM     14  C   UNL A   1      44.662  24.832  27.865  1.00  0.00     0.049 A 
ATOM     15  N   UNL A   1      42.534  26.926  28.192  1.00  0.00    -0.248 NA
ATOM     16  C   UNL A   1      40.924  25.275  27.815  1.00  0.00     0.031 C 
ATOM     17  C   UNL A   1      45.726  23.830  27.856  1.00  0.00     0.029 A 
ATOM     18  N   UNL A   1      45.328  26.012  28.083  1.00  0.00    -0.354 N 
ATOM     19  C   UNL A   1      41.269  27.451  28.406  1.00  0.00     0.074 A 
ATOM     20  C   UNL A   1      40.311  26.408  28.120  1.00  0.00     0.031 C 
ATOM     21  C   UNL A   1      46.917  24.452  27.933  1.00  0.00     0.029 A 
ATOM     22  C   UNL A   1      46.696  25.888  27.986  1.00  0.00     0.049 A 
ATOM     23  H   UNL A   1      44.874  26.861  28.288  1.00  0.00     0.167 HD
ATOM     24  C   UNL A   1      40.950  28.685  28.852  1.00  0.00     0.037 A 
ATOM     25  C   UNL A   1      47.649  26.834  27.907  1.00  0.00     0.037 A 
ATOM     26  C   UNL A   1      41.918  29.711  29.123  1.00  0.00     0.049 A 
ATOM     27  C   UNL A   1      47.251  28.256  28.158  1.00  0.00     0.074 A 
ATOM     28  C   UNL A   1      41.709  30.988  29.607  1.00  0.00     0.029 A 
ATOM     29  N   UNL A   1      43.283  29.579  28.909  1.00  0.00    -0.354 N 
ATOM     30  N   UNL A   1      46.065  28.735  28.435  1.00  0.00    -0.248 NA
ATOM     31  C   UNL A   1      48.326  29.254  28.154  1.00  0.00     0.031 C 
ATOM     32  C   UNL A   1      42.939  31.654  29.617  1.00  0.00     0.029 A 
ATOM     33  C   UNL A   1      43.922  30.774  29.193  1.00  0.00     0.049 A 
ATOM     34  H   UNL A   1      43.730  28.759  28.601  1.00  0.00     0.167 HD
ATOM     35  C   UNL A   1      46.254  30.082  28.691  1.00  0.00     0.074 A 
ATOM     36  C   UNL A   1      47.671  30.343  28.532  1.00  0.00     0.031 C 
ATOM     37  C   UNL A   1      45.334  31.013  29.039  1.00  0.00     0.037 A 
BRANCH  24  38
ATOM     38  C   UNL A   1      39.500  28.990  29.060  1.00  0.00     0.064 A 
ATOM     39  C   UNL A   1      38.894  28.865  30.320  1.00  0.00     0.173 A 
ATOM     40  C   UNL A   1      38.714  29.447  27.992  1.00  0.00     0.173 A 
ATOM     41  F   UNL A   1      39.598  28.409  31.367  1.00  0.00    -0.203 F 
ATOM     42  C   UNL A   1      37.550  29.178  30.500  1.00  0.00     0.198 A 
ATOM     43  C   UNL A   1      37.377  29.781  28.182  1.00  0.00     0.198 A 
ATOM     44  F   UNL A   1      39.247  29.573  26.768  1.00  0.00    -0.203 F 
ATOM     45  F   UNL A   1      36.981  29.019  31.704  1.00  0.00    -0.200 F 
ATOM     46  C   UNL A   1      36.795  29.644  29.433  1.00  0.00     0.200 A 
ATOM     47  F   UNL A   1      36.650  30.234  27.152  1.00  0.00    -0.200 F 
ATOM     48  F   UNL A   1      35.504  29.955  29.610  1.00  0.00    -0.200 F 
ENDBRANCH  24  38
BRANCH  25  49
ATOM     49  C   UNL A   1      49.050  26.497  27.555  1.00  0.00     0.064 A 
ATOM     50  C   UNL A   1      50.033  26.301  28.531  1.00  0.00     0.173 A 
ATOM     51  C   UNL A   1      49.452  26.460  26.210  1.00  0.00     0.173 A 
ATOM     52  F   UNL A   1      49.714  26.408  29.828  1.00  0.00    -0.203 F 
ATOM     53  C   UNL A   1      51.361  26.064  28.175  1.00  0.00     0.198 A 
ATOM     54  C   UNL A   1      50.770  26.182  25.853  1.00  0.00     0.198 A 
ATOM     55  F   UNL A   1      48.575  26.766  25.246  1.00  0.00    -0.203 F 
ATOM     56  F   UNL A   1      52.295  25.945  29.129  1.00  0.00    -0.200 F 
ATOM     57  C   UNL A   1      51.726  25.989  26.838  1.00  0.00     0.200 A 
ATOM     58  F   UNL A   1      51.124  26.144  24.561  1.00  0.00    -0.200 F 
ATOM     59  F   UNL A   1      53.005  25.771  26.501  1.00  0.00    -0.200 F 
ENDBRANCH  25  49
BRANCH  37  60
ATOM     60  C   UNL A   1      45.841  32.392  29.316  1.00  0.00     0.064 A 
ATOM     61  C   UNL A   1      46.301  32.761  30.588  1.00  0.00     0.173 A 
ATOM     62  C   UNL A   1      45.896  33.344  28.288  1.00  0.00     0.173 A 
ATOM     63  F   UNL A   1      46.244  31.890  31.607  1.00  0.00    -0.203 F 
ATOM     64  C   UNL A   1      46.780  34.046  30.824  1.00  0.00     0.198 A 
ATOM     65  C   UNL A   1      46.408  34.615  28.519  1.00  0.00     0.198 A 
ATOM     66  F   UNL A   1      45.467  33.033  27.055  1.00  0.00    -0.203 F 
ATOM     67  F   UNL A   1      47.166  34.396  32.058  1.00  0.00    -0.200 F 
ATOM     68  C   UNL A   1      46.842  34.968  29.788  1.00  0.00     0.200 A 
ATOM     69  F   UNL A   1      46.481  35.498  27.515  1.00  0.00    -0.200 F 
ATOM     70  F   UNL A   1      47.314  36.200  30.016  1.00  0.00    -0.200 F 
ENDBRANCH  37  60
ENDBRANCH  11  12
ENDBRANCH   4   6
ENDBRANCH   3   4
ENDBRANCH   2   3
ENDBRANCH   1   2
BRANCH   1  71
ATOM     71  O   UNL A   1      37.365  21.614  25.059  1.00  0.00    -0.458 OA
BRANCH  71  72
ATOM     72  C   UNL A   1      36.906  22.767  25.614  1.00  0.00     0.338 C 
ATOM     73  O   UNL A   1      37.561  23.638  26.150  1.00  0.00    -0.246 OA
BRANCH  72  74
ATOM     74  C   UNL A   1      35.457  22.896  25.342  1.00  0.00     0.073 A 
ATOM     75  C   UNL A   1      34.569  22.953  26.409  1.00  0.00     0.104 A 
ATOM     76  C   UNL A   1      34.951  22.909  24.051  1.00  0.00     0.104 A 
ATOM     77  C   UNL A   1      33.198  23.211  26.170  1.00  0.00     0.300 A 
ATOM     78  C   UNL A   1      33.561  23.093  23.840  1.00  0.00     0.300 A 
ATOM     79  C   UNL A   1      32.645  23.408  24.886  1.00  0.00     0.192 A 
BRANCH  77  80
ATOM     80  N   UNL A   1      32.375  23.193  27.356  1.00  0.00     0.065 N 
ATOM     81  O   UNL A   1      32.694  22.398  28.249  1.00  0.00    -0.258 OA
ATOM     82  O   UNL A   1      31.395  23.949  27.368  1.00  0.00    -0.258 OA
ENDBRANCH  77  80
BRANCH  78  83
ATOM     83  N   UNL A   1      33.070  22.799  22.481  1.00  0.00     0.065 N 
ATOM     84  O   UNL A   1      33.525  23.447  21.533  1.00  0.00    -0.258 OA
ATOM     85  O   UNL A   1      32.199  21.922  22.361  1.00  0.00    -0.258 OA
ENDBRANCH  78  83
BRANCH  79  86
ATOM     86  N   UNL A   1      31.414  23.988  24.592  1.00  0.00    -0.374 N 
ATOM     87  H   UNL A   1      30.641  23.400  24.753  1.00  0.00     0.161 HD
BRANCH  86  88
ATOM     88  C   UNL A   1      31.064  25.316  24.084  1.00  0.00     0.118 C 
BRANCH  88  89
ATOM     89  C   UNL A   1      32.247  26.307  24.127  1.00  0.00     0.052 C 
BRANCH  89  90
ATOM     90  C   UNL A   1      32.338  27.289  25.278  1.00  0.00    -0.072 C 
ATOM     91  C   UNL A   1      31.525  27.226  26.350  1.00  0.00    -0.028 C 
ATOM     92  C   UNL A   1      33.493  28.269  25.227  1.00  0.00     0.031 C 
ATOM     93  C   UNL A   1      31.636  28.137  27.543  1.00  0.00     0.027 C 
ATOM     94  C   UNL A   1      33.824  28.896  26.584  1.00  0.00     0.005 C 
ATOM     95  C   UNL A   1      32.560  29.333  27.309  1.00  0.00     0.004 C 
ENDBRANCH  89  90
ENDBRANCH  88  89
ENDBRANCH  86  88
ENDBRANCH  79  86
ENDBRANCH  72  74
ENDBRANCH  71  72
ENDBRANCH   1  71
TORSDOF 17
ENDMDL
MODEL 3
REMARK VINA RESULT:     -11.5      1.338      2.626
REMARK SMILES O=C(OCCOC(=O)c1cc([N+](=O)[O-])c(NCCC2=CCCCC2)c([N+](=O)[O-])c1)c1ccc(-c2c3nc(c(-c4c(F)c(F)c(F)c(F)c4F)c4ccc([nH]4)c(-c4c(F)c(F)c(F)c(F)c4F)c4nc(c(-c5c(F)c(F)c(F)c(F)c5F)c5ccc2[nH]5)C=C4)C=C3)cc1
REMARK SMILES IDX 5 1 4 2 3 3 2 4 1 5 30 6 31 7 92 8 32 9 91 10 33 11 34 12
REMARK SMILES IDX 35 13 85 14 36 15 90 16 84 17 86 18 37 19 89 20 83 21 82 22
REMARK SMILES IDX 38 24 70 25 50 26 69 27 51 28 54 29 68 30 87 31 52 32 53 33
REMARK SMILES IDX 67 35 88 36 55 37 39 38 40 39 48 40 41 41 42 42 46 43 49 44
REMARK SMILES IDX 43 45 44 46 47 47 45 48 71 49 72 50 80 51 73 52 74 53 78 54
REMARK SMILES IDX 81 55 75 56 76 57 79 58 77 59 56 60 57 61 65 62 58 63 59 64
REMARK SMILES IDX 63 65 66 66 60 67 61 68 64 69 62 70 6 71 7 72 8 73 9 74
REMARK SMILES IDX 10 75 29 76 11 77 25 78 15 79 12 80 13 81 14 82 26 83 27 84
REMARK SMILES IDX 28 85 16 86 17 88 18 89 19 90 20 91 24 92 21 93 23 94 22 95
REMARK H PARENT 86 23 54 34 16 87
REMARK Flexibility Score: inf
ROOT
ATOM      1  C   UNL A   1      32.911  31.176  27.135  1.00  0.00     0.275 C 
ENDROOT
BRANCH   1   2
ATOM      2  C   UNL A   1      31.783  32.217  27.102  1.00  0.00     0.275 C 
BRANCH   2   3
ATOM      3  O   UNL A   1      32.214  33.581  27.248  1.00  0.00    -0.458 OA
BRANCH   3   4
ATOM      4  C   UNL A   1      32.896  34.188  28.245  1.00  0.00     0.338 C 
ATOM      5  O   UNL A   1      32.526  35.300  28.616  1.00  0.00    -0.246 OA
BRANCH   4   6
ATOM      6  C   UNL A   1      34.170  33.657  28.831  1.00  0.00     0.060 A 
ATOM      7  C   UNL A   1      35.464  33.914  28.372  1.00  0.00     0.016 A 
ATOM      8  C   UNL A   1      34.037  32.847  29.975  1.00  0.00     0.016 A 
ATOM      9  C   UNL A   1      36.587  33.483  29.082  1.00  0.00     0.010 A 
ATOM     10  C   UNL A   1      35.156  32.418  30.695  1.00  0.00     0.010 A 
ATOM     11  C   UNL A   1      36.443  32.751  30.258  1.00  0.00    -0.014 A 
BRANCH  11  12
ATOM     12  C   UNL A   1      37.632  32.202  30.944  1.00  0.00     0.031 A 
ATOM     13  C   UNL A   1      38.319  31.022  30.331  1.00  0.00     0.074 A 
ATOM     14  C   UNL A   1      38.121  32.767  32.065  1.00  0.00     0.049 A 
ATOM     15  N   UNL A   1      39.345  30.346  30.775  1.00  0.00    -0.248 NA
ATOM     16  C   UNL A   1      37.822  30.576  29.018  1.00  0.00     0.031 C 
ATOM     17  C   UNL A   1      37.658  34.018  32.661  1.00  0.00     0.029 A 
ATOM     18  N   UNL A   1      39.102  32.339  32.925  1.00  0.00    -0.354 N 
ATOM     19  C   UNL A   1      39.651  29.441  29.772  1.00  0.00     0.074 A 
ATOM     20  C   UNL A   1      38.660  29.592  28.732  1.00  0.00     0.031 C 
ATOM     21  C   UNL A   1      38.263  34.188  33.851  1.00  0.00     0.029 A 
ATOM     22  C   UNL A   1      39.143  33.059  34.098  1.00  0.00     0.049 A 
ATOM     23  H   UNL A   1      39.712  31.594  32.724  1.00  0.00     0.167 HD
ATOM     24  C   UNL A   1      40.703  28.596  29.712  1.00  0.00     0.037 A 
ATOM     25  C   UNL A   1      39.790  32.801  35.250  1.00  0.00     0.037 A 
ATOM     26  C   UNL A   1      41.674  28.455  30.761  1.00  0.00     0.049 A 
ATOM     27  C   UNL A   1      40.791  31.689  35.262  1.00  0.00     0.074 A 
ATOM     28  C   UNL A   1      42.797  27.651  30.795  1.00  0.00     0.029 A 
ATOM     29  N   UNL A   1      41.619  29.122  31.976  1.00  0.00    -0.354 N 
ATOM     30  N   UNL A   1      41.131  30.885  34.285  1.00  0.00    -0.248 NA
ATOM     31  C   UNL A   1      41.545  31.489  36.505  1.00  0.00     0.031 C 
ATOM     32  C   UNL A   1      43.383  27.777  32.058  1.00  0.00     0.029 A 
ATOM     33  C   UNL A   1      42.656  28.702  32.792  1.00  0.00     0.049 A 
ATOM     34  H   UNL A   1      40.944  29.795  32.223  1.00  0.00     0.167 HD
ATOM     35  C   UNL A   1      42.174  30.118  34.774  1.00  0.00     0.074 A 
ATOM     36  C   UNL A   1      42.408  30.552  36.137  1.00  0.00     0.031 C 
ATOM     37  C   UNL A   1      42.880  29.151  34.142  1.00  0.00     0.037 A 
BRANCH  24  38
ATOM     38  C   UNL A   1      40.846  27.757  28.481  1.00  0.00     0.064 A 
ATOM     39  C   UNL A   1      40.197  26.519  28.353  1.00  0.00     0.173 A 
ATOM     40  C   UNL A   1      41.613  28.215  27.400  1.00  0.00     0.173 A 
ATOM     41  F   UNL A   1      39.471  26.028  29.369  1.00  0.00    -0.203 F 
ATOM     42  C   UNL A   1      40.320  25.766  27.190  1.00  0.00     0.198 A 
ATOM     43  C   UNL A   1      41.714  27.469  26.230  1.00  0.00     0.198 A 
ATOM     44  F   UNL A   1      42.259  29.386  27.480  1.00  0.00    -0.203 F 
ATOM     45  F   UNL A   1      39.720  24.570  27.100  1.00  0.00    -0.200 F 
ATOM     46  C   UNL A   1      41.071  26.245  26.126  1.00  0.00     0.200 A 
ATOM     47  F   UNL A   1      42.437  27.934  25.203  1.00  0.00    -0.200 F 
ATOM     48  F   UNL A   1      41.180  25.522  25.003  1.00  0.00    -0.200 F 
ENDBRANCH  24  38
BRANCH  25  49
ATOM     49  C   UNL A   1      39.508  33.571  36.487  1.00  0.00     0.064 A 
ATOM     50  C   UNL A   1      40.195  34.749  36.799  1.00  0.00     0.173 A 
ATOM     51  C   UNL A   1      38.598  33.078  37.435  1.00  0.00     0.173 A 
ATOM     52  F   UNL A   1      41.132  35.216  35.962  1.00  0.00    -0.203 F 
ATOM     53  C   UNL A   1      39.970  35.414  38.005  1.00  0.00     0.198 A 
ATOM     54  C   UNL A   1      38.342  33.763  38.621  1.00  0.00     0.198 A 
ATOM     55  F   UNL A   1      38.012  31.891  37.238  1.00  0.00    -0.203 F 
ATOM     56  F   UNL A   1      40.688  36.503  38.309  1.00  0.00    -0.200 F 
ATOM     57  C   UNL A   1      39.034  34.929  38.908  1.00  0.00     0.200 A 
ATOM     58  F   UNL A   1      37.461  33.273  39.505  1.00  0.00    -0.200 F 
ATOM     59  F   UNL A   1      38.828  35.565  40.071  1.00  0.00    -0.200 F 
ENDBRANCH  25  49
BRANCH  37  60
ATOM     60  C   UNL A   1      44.005  28.528  34.906  1.00  0.00     0.064 A 
ATOM     61  C   UNL A   1      43.828  27.344  35.635  1.00  0.00     0.173 A 
ATOM     62  C   UNL A   1      45.281  29.109  34.882  1.00  0.00     0.173 A 
ATOM     63  F   UNL A   1      42.618  26.769  35.706  1.00  0.00    -0.203 F 
ATOM     64  C   UNL A   1      44.888  26.774  36.331  1.00  0.00     0.198 A 
ATOM     65  C   UNL A   1      46.347  28.517  35.549  1.00  0.00     0.198 A 
ATOM     66  F   UNL A   1      45.496  30.242  34.196  1.00  0.00    -0.203 F 
ATOM     67  F   UNL A   1      44.688  25.671  37.064  1.00  0.00    -0.200 F 
ATOM     68  C   UNL A   1      46.148  27.354  36.279  1.00  0.00     0.200 A 
ATOM     69  F   UNL A   1      47.565  29.070  35.485  1.00  0.00    -0.200 F 
ATOM     70  F   UNL A   1      47.170  26.797  36.940  1.00  0.00    -0.200 F 
ENDBRANCH  37  60
ENDBRANCH  11  12
ENDBRANCH   4   6
ENDBRANCH   3   4
ENDBRANCH   2   3
ENDBRANCH   1   2
BRANCH   1  71
ATOM     71  O   UNL A   1      32.631  29.978  26.385  1.00  0.00    -0.458 OA
BRANCH  71  72
ATOM     72  C   UNL A   1      33.590  29.016  26.453  1.00  0.00     0.338 C 
ATOM     73  O   UNL A   1      34.626  29.053  27.085  1.00  0.00    -0.246 OA
BRANCH  72  74
ATOM     74  C   UNL A   1      33.120  27.809  25.738  1.00  0.00     0.073 A 
ATOM     75  C   UNL A   1      32.336  26.883  26.415  1.00  0.00     0.104 A 
ATOM     76  C   UNL A   1      33.481  27.546  24.425  1.00  0.00     0.104 A 
ATOM     77  C   UNL A   1      31.768  25.795  25.711  1.00  0.00     0.300 A 
ATOM     78  C   UNL A   1      32.957  26.405  23.765  1.00  0.00     0.300 A 
ATOM     79  C   UNL A   1      31.953  25.565  24.331  1.00  0.00     0.192 A 
BRANCH  77  80
ATOM     80  N   UNL A   1      31.019  24.879  26.539  1.00  0.00     0.065 N 
ATOM     81  O   UNL A   1      31.670  24.102  27.249  1.00  0.00    -0.258 OA
ATOM     82  O   UNL A   1      29.786  24.920  26.445  1.00  0.00    -0.258 OA
ENDBRANCH  77  80
BRANCH  78  83
ATOM     83  N   UNL A   1      33.611  26.036  22.496  1.00  0.00     0.065 N 
ATOM     84  O   UNL A   1      33.653  26.871  21.587  1.00  0.00    -0.258 OA
ATOM     85  O   UNL A   1      34.071  24.887  22.399  1.00  0.00    -0.258 OA
ENDBRANCH  78  83
BRANCH  79  86
ATOM     86  N   UNL A   1      31.180  24.744  23.514  1.00  0.00    -0.374 N 
ATOM     87  H   UNL A   1      30.503  25.222  22.983  1.00  0.00     0.161 HD
BRANCH  86  88
ATOM     88  C   UNL A   1      31.194  23.295  23.306  1.00  0.00     0.118 C 
BRANCH  88  89
ATOM     89  C   UNL A   1      32.396  22.600  23.983  1.00  0.00     0.052 C 
BRANCH  89  90
ATOM     90  C   UNL A   1      32.472  21.087  23.964  1.00  0.00    -0.072 C 
ATOM     91  C   UNL A   1      32.154  20.359  22.876  1.00  0.00    -0.028 C 
ATOM     92  C   UNL A   1      33.066  20.435  25.197  1.00  0.00     0.031 C 
ATOM     93  C   UNL A   1      32.289  18.861  22.799  1.00  0.00     0.027 C 
ATOM     94  C   UNL A   1      33.555  19.004  24.958  1.00  0.00     0.005 C 
ATOM     95  C   UNL A   1      32.539  18.204  24.157  1.00  0.00     0.004 C 
ENDBRANCH  89  90
ENDBRANCH  88  89
ENDBRANCH  86  88
ENDBRANCH  79  86
ENDBRANCH  72  74
ENDBRANCH  71  72
ENDBRANCH   1  71
TORSDOF 17
ENDMDL
