MODEL 1
REMARK VINA RESULT:     -12.0      0.000      0.000
REMARK SMILES C[C@]1(CNC(=O)N2CCOC[C@H]2C(=O)OCCOC(=O)c2ccc(-c3c4nc(c(-c5c(F)c(F)c(F)c(F)c5F)c5ccc([nH]5)c(-c5c(F)c(F)c(F)c(F)c5F)c5nc(c(-c6c(F)c(F)c(F)c(F)c6F)c6ccc3[nH]6)C=C5)C=C4)cc2)CCCO1
REMARK SMILES IDX 16 1 15 2 13 3 14 4 12 5 7 6 8 7 9 8 11 9 10 10 5 11 4 12
REMARK SMILES IDX 6 14 3 15 2 16 1 17 84 18 87 19 85 20 86 21 17 22 18 23
REMARK SMILES IDX 19 24 20 25 21 26 22 27 83 28 23 29 82 30 24 31 25 32 26 33
REMARK SMILES IDX 76 34 27 35 81 36 75 37 77 38 28 39 80 40 74 41 73 42 29 44
REMARK SMILES IDX 61 45 41 46 60 47 42 48 45 49 59 50 78 51 43 52 44 53 58 55
REMARK SMILES IDX 79 56 46 57 30 58 31 59 39 60 32 61 33 62 37 63 40 64 34 65
REMARK SMILES IDX 35 66 38 67 36 68 62 69 63 70 71 71 64 72 65 73 69 74 72 75
REMARK SMILES IDX 66 76 67 77 70 78 68 79 47 80 48 81 56 82 49 83 50 84 54 85
REMARK SMILES IDX 57 86 51 87 52 88 55 89 53 90
REMARK H PARENT 4 13 77 43 45 54
REMARK Flexibility Score: inf
ROOT
ATOM      1  C   UNL A   1      31.780  28.391  26.807  1.00  0.00     0.274 C 
ENDROOT
BRANCH   1   2
ATOM      2  O   UNL A   1      31.308  27.801  25.579  1.00  0.00    -0.460 OA
BRANCH   2   3
ATOM      3  C   UNL A   1      30.875  26.515  25.630  1.00  0.00     0.331 C 
ATOM      4  O   UNL A   1      30.124  26.078  26.500  1.00  0.00    -0.250 OA
BRANCH   3   5
ATOM      5  C   UNL A   1      31.533  25.595  24.585  1.00  0.00     0.222 C 
ATOM      6  N   UNL A   1      32.409  26.156  23.533  1.00  0.00    -0.306 N 
ATOM      7  C   UNL A   1      33.701  26.646  24.012  1.00  0.00     0.151 C 
ATOM      8  C   UNL A   1      34.403  25.565  24.833  1.00  0.00     0.182 C 
ATOM      9  C   UNL A   1      32.323  24.534  25.366  1.00  0.00     0.197 C 
ATOM     10  O   UNL A   1      33.559  25.061  25.883  1.00  0.00    -0.377 OA
BRANCH   6  11
ATOM     11  C   UNL A   1      31.902  26.314  22.281  1.00  0.00     0.318 C 
ATOM     12  N   UNL A   1      31.029  27.303  22.000  1.00  0.00    -0.335 N 
ATOM     13  H   UNL A   1      30.315  27.054  21.370  1.00  0.00     0.165 HD
ATOM     14  O   UNL A   1      32.264  25.623  21.329  1.00  0.00    -0.249 OA
BRANCH  12  15
ATOM     15  C   UNL A   1      30.964  28.681  22.477  1.00  0.00     0.152 C 
BRANCH  15  16
ATOM     16  C   UNL A   1      29.534  29.255  22.666  1.00  0.00     0.083 C 
ATOM     17  C   UNL A   1      28.563  28.161  23.126  1.00  0.00     0.044 C 
ATOM     18  C   UNL A   1      29.456  30.490  23.566  1.00  0.00     0.039 C 
ATOM     19  O   UNL A   1      29.052  29.705  21.374  1.00  0.00    -0.373 OA
ATOM     20  C   UNL A   1      28.258  31.228  23.017  1.00  0.00     0.031 C 
ATOM     21  C   UNL A   1      28.384  30.967  21.532  1.00  0.00     0.161 C 
ENDBRANCH  15  16
ENDBRANCH  12  15
ENDBRANCH   6  11
ENDBRANCH   3   5
ENDBRANCH   2   3
ENDBRANCH   1   2
BRANCH   1  22
ATOM     22  C   UNL A   1      31.778  29.916  26.714  1.00  0.00     0.275 C 
BRANCH  22  23
ATOM     23  O   UNL A   1      33.091  30.401  26.392  1.00  0.00    -0.458 OA
BRANCH  23  24
ATOM     24  C   UNL A   1      33.493  31.468  27.123  1.00  0.00     0.338 C 
ATOM     25  O   UNL A   1      32.888  32.506  27.318  1.00  0.00    -0.246 OA
BRANCH  24  26
ATOM     26  C   UNL A   1      34.770  31.133  27.765  1.00  0.00     0.060 A 
ATOM     27  C   UNL A   1      34.973  29.819  28.184  1.00  0.00     0.016 A 
ATOM     28  C   UNL A   1      35.731  32.114  28.003  1.00  0.00     0.016 A 
ATOM     29  C   UNL A   1      36.125  29.478  28.884  1.00  0.00     0.010 A 
ATOM     30  C   UNL A   1      36.899  31.768  28.688  1.00  0.00     0.010 A 
ATOM     31  C   UNL A   1      37.092  30.453  29.147  1.00  0.00    -0.014 A 
BRANCH  31  32
ATOM     32  C   UNL A   1      38.280  30.108  29.960  1.00  0.00     0.031 A 
ATOM     33  C   UNL A   1      39.320  29.187  29.395  1.00  0.00     0.074 A 
ATOM     34  C   UNL A   1      38.430  30.633  31.188  1.00  0.00     0.049 A 
ATOM     35  N   UNL A   1      40.374  28.671  29.974  1.00  0.00    -0.248 NA
ATOM     36  C   UNL A   1      39.148  28.788  27.989  1.00  0.00     0.031 C 
ATOM     37  C   UNL A   1      37.510  31.581  31.816  1.00  0.00     0.029 A 
ATOM     38  N   UNL A   1      39.407  30.438  32.130  1.00  0.00    -0.354 N 
ATOM     39  C   UNL A   1      40.976  27.869  29.014  1.00  0.00     0.074 A 
ATOM     40  C   UNL A   1      40.163  27.953  27.820  1.00  0.00     0.031 C 
ATOM     41  C   UNL A   1      37.966  31.884  33.043  1.00  0.00     0.029 A 
ATOM     42  C   UNL A   1      39.179  31.114  33.302  1.00  0.00     0.049 A 
ATOM     43  H   UNL A   1      40.196  29.866  31.979  1.00  0.00     0.167 HD
ATOM     44  C   UNL A   1      42.107  27.133  29.125  1.00  0.00     0.037 A 
ATOM     45  C   UNL A   1      39.859  31.088  34.464  1.00  0.00     0.037 A 
ATOM     46  C   UNL A   1      42.921  27.073  30.311  1.00  0.00     0.049 A 
ATOM     47  C   UNL A   1      41.081  30.217  34.578  1.00  0.00     0.074 A 
ATOM     48  C   UNL A   1      44.093  26.368  30.521  1.00  0.00     0.029 A 
ATOM     49  N   UNL A   1      42.645  27.751  31.491  1.00  0.00    -0.354 N 
ATOM     50  N   UNL A   1      41.638  29.449  33.674  1.00  0.00    -0.248 NA
ATOM     51  C   UNL A   1      41.764  30.204  35.880  1.00  0.00     0.031 C 
ATOM     52  C   UNL A   1      44.503  26.586  31.841  1.00  0.00     0.029 A 
ATOM     53  C   UNL A   1      43.613  27.464  32.439  1.00  0.00     0.049 A 
ATOM     54  H   UNL A   1      41.874  28.347  31.633  1.00  0.00     0.167 HD
ATOM     55  C   UNL A   1      42.745  28.878  34.286  1.00  0.00     0.074 A 
ATOM     56  C   UNL A   1      42.790  29.401  35.636  1.00  0.00     0.031 C 
ATOM     57  C   UNL A   1      43.642  27.999  33.777  1.00  0.00     0.037 A 
BRANCH  44  58
ATOM     58  C   UNL A   1      42.512  26.305  27.941  1.00  0.00     0.064 A 
ATOM     59  C   UNL A   1      41.981  25.026  27.716  1.00  0.00     0.173 A 
ATOM     60  C   UNL A   1      43.428  26.810  27.006  1.00  0.00     0.173 A 
ATOM     61  F   UNL A   1      41.113  24.492  28.588  1.00  0.00    -0.203 F 
ATOM     62  C   UNL A   1      42.370  24.275  26.610  1.00  0.00     0.198 A 
ATOM     63  C   UNL A   1      43.794  26.067  25.888  1.00  0.00     0.198 A 
ATOM     64  F   UNL A   1      43.963  28.029  27.173  1.00  0.00    -0.203 F 
ATOM     65  F   UNL A   1      41.884  23.038  26.437  1.00  0.00    -0.200 F 
ATOM     66  C   UNL A   1      43.271  24.798  25.693  1.00  0.00     0.200 A 
ATOM     67  F   UNL A   1      44.656  26.579  24.998  1.00  0.00    -0.200 F 
ATOM     68  F   UNL A   1      43.641  24.074  24.627  1.00  0.00    -0.200 F 
ENDBRANCH  44  58
BRANCH  45  69
ATOM     69  C   UNL A   1      39.383  31.894  35.617  1.00  0.00     0.064 A 
ATOM     70  C   UNL A   1      39.840  33.202  35.819  1.00  0.00     0.173 A 
ATOM     71  C   UNL A   1      38.461  31.373  36.537  1.00  0.00     0.173 A 
ATOM     72  F   UNL A   1      40.740  33.735  34.980  1.00  0.00    -0.203 F 
ATOM     73  C   UNL A   1      39.403  33.956  36.908  1.00  0.00     0.198 A 
ATOM     74  C   UNL A   1      38.005  32.136  37.610  1.00  0.00     0.198 A 
ATOM     75  F   UNL A   1      37.997  30.124  36.389  1.00  0.00    -0.203 F 
ATOM     76  F   UNL A   1      39.887  35.190  37.103  1.00  0.00    -0.200 F 
ATOM     77  C   UNL A   1      38.481  33.424  37.797  1.00  0.00     0.200 A 
ATOM     78  F   UNL A   1      37.106  31.623  38.461  1.00  0.00    -0.200 F 
ATOM     79  F   UNL A   1      38.058  34.151  38.840  1.00  0.00    -0.200 F 
ENDBRANCH  45  69
BRANCH  57  80
ATOM     80  C   UNL A   1      44.765  27.571  34.675  1.00  0.00     0.064 A 
ATOM     81  C   UNL A   1      44.676  26.414  35.463  1.00  0.00     0.173 A 
ATOM     82  C   UNL A   1      45.958  28.308  34.718  1.00  0.00     0.173 A 
ATOM     83  F   UNL A   1      43.549  25.686  35.468  1.00  0.00    -0.203 F 
ATOM     84  C   UNL A   1      45.733  26.023  36.280  1.00  0.00     0.198 A 
ATOM     85  C   UNL A   1      47.024  27.898  35.516  1.00  0.00     0.198 A 
ATOM     86  F   UNL A   1      46.095  29.419  33.979  1.00  0.00    -0.203 F 
ATOM     87  F   UNL A   1      45.610  24.939  37.059  1.00  0.00    -0.200 F 
ATOM     88  C   UNL A   1      46.907  26.761  36.301  1.00  0.00     0.200 A 
ATOM     89  F   UNL A   1      48.162  28.606  35.526  1.00  0.00    -0.200 F 
ATOM     90  F   UNL A   1      47.926  26.380  37.084  1.00  0.00    -0.200 F 
ENDBRANCH  57  80
ENDBRANCH  31  32
ENDBRANCH  24  26
ENDBRANCH  23  24
ENDBRANCH  22  23
ENDBRANCH   1  22
TORSDOF 14
ENDMDL
MODEL 2
REMARK VINA RESULT:     -11.9      1.856      3.625
REMARK SMILES C[C@]1(CNC(=O)N2CCOC[C@H]2C(=O)OCCOC(=O)c2ccc(-c3c4nc(c(-c5c(F)c(F)c(F)c(F)c5F)c5ccc([nH]5)c(-c5c(F)c(F)c(F)c(F)c5F)c5nc(c(-c6c(F)c(F)c(F)c(F)c6F)c6ccc3[nH]6)C=C5)C=C4)cc2)CCCO1
REMARK SMILES IDX 16 1 15 2 13 3 14 4 12 5 7 6 8 7 9 8 11 9 10 10 5 11 4 12
REMARK SMILES IDX 6 14 3 15 2 16 1 17 84 18 87 19 85 20 86 21 17 22 18 23
REMARK SMILES IDX 19 24 20 25 21 26 22 27 83 28 23 29 82 30 24 31 25 32 26 33
REMARK SMILES IDX 76 34 27 35 81 36 75 37 77 38 28 39 80 40 74 41 73 42 29 44
REMARK SMILES IDX 61 45 41 46 60 47 42 48 45 49 59 50 78 51 43 52 44 53 58 55
REMARK SMILES IDX 79 56 46 57 30 58 31 59 39 60 32 61 33 62 37 63 40 64 34 65
REMARK SMILES IDX 35 66 38 67 36 68 62 69 63 70 71 71 64 72 65 73 69 74 72 75
REMARK SMILES IDX 66 76 67 77 70 78 68 79 47 80 48 81 56 82 49 83 50 84 54 85
REMARK SMILES IDX 57 86 51 87 52 88 55 89 53 90
REMARK H PARENT 4 13 77 43 45 54
REMARK Flexibility Score: inf
ROOT
ATOM      1  C   UNL A   1      31.538  28.657  25.214  1.00  0.00     0.274 C 
ENDROOT
BRANCH   1   2
ATOM      2  O   UNL A   1      32.203  27.608  25.948  1.00  0.00    -0.460 OA
BRANCH   2   3
ATOM      3  C   UNL A   1      31.512  26.456  26.154  1.00  0.00     0.331 C 
ATOM      4  O   UNL A   1      30.360  26.415  26.580  1.00  0.00    -0.250 OA
BRANCH   3   5
ATOM      5  C   UNL A   1      32.355  25.182  25.957  1.00  0.00     0.222 C 
ATOM      6  N   UNL A   1      31.717  23.916  25.536  1.00  0.00    -0.306 N 
ATOM      7  C   UNL A   1      31.248  23.899  24.151  1.00  0.00     0.151 C 
ATOM      8  C   UNL A   1      32.375  24.320  23.208  1.00  0.00     0.182 C 
ATOM      9  C   UNL A   1      33.459  25.535  24.948  1.00  0.00     0.197 C 
ATOM     10  O   UNL A   1      32.956  25.576  23.600  1.00  0.00    -0.377 OA
BRANCH   6  11
ATOM     11  C   UNL A   1      31.481  22.963  26.478  1.00  0.00     0.318 C 
ATOM     12  N   UNL A   1      31.930  21.701  26.323  1.00  0.00    -0.335 N 
ATOM     13  H   UNL A   1      31.315  21.003  26.644  1.00  0.00     0.165 HD
ATOM     14  O   UNL A   1      30.920  23.213  27.544  1.00  0.00    -0.249 OA
BRANCH  12  15
ATOM     15  C   UNL A   1      33.178  21.195  25.758  1.00  0.00     0.152 C 
BRANCH  15  16
ATOM     16  C   UNL A   1      33.034  19.975  24.808  1.00  0.00     0.083 C 
ATOM     17  C   UNL A   1      32.415  20.396  23.470  1.00  0.00     0.044 C 
ATOM     18  C   UNL A   1      34.319  19.170  24.605  1.00  0.00     0.039 C 
ATOM     19  O   UNL A   1      32.100  19.042  25.409  1.00  0.00    -0.373 OA
ATOM     20  C   UNL A   1      33.800  17.778  24.331  1.00  0.00     0.031 C 
ATOM     21  C   UNL A   1      32.600  17.705  25.250  1.00  0.00     0.161 C 
ENDBRANCH  15  16
ENDBRANCH  12  15
ENDBRANCH   6  11
ENDBRANCH   3   5
ENDBRANCH   2   3
ENDBRANCH   1   2
BRANCH   1  22
ATOM     22  C   UNL A   1      31.757  30.012  25.884  1.00  0.00     0.275 C 
BRANCH  22  23
ATOM     23  O   UNL A   1      33.154  30.222  26.147  1.00  0.00    -0.458 OA
BRANCH  23  24
ATOM     24  C   UNL A   1      33.419  31.233  27.008  1.00  0.00     0.338 C 
ATOM     25  O   UNL A   1      32.696  32.165  27.307  1.00  0.00    -0.246 OA
BRANCH  24  26
ATOM     26  C   UNL A   1      34.717  30.970  27.642  1.00  0.00     0.060 A 
ATOM     27  C   UNL A   1      35.020  29.659  28.009  1.00  0.00     0.016 A 
ATOM     28  C   UNL A   1      35.600  32.011  27.925  1.00  0.00     0.016 A 
ATOM     29  C   UNL A   1      36.193  29.379  28.700  1.00  0.00     0.010 A 
ATOM     30  C   UNL A   1      36.790  31.728  28.600  1.00  0.00     0.010 A 
ATOM     31  C   UNL A   1      37.083  30.413  29.007  1.00  0.00    -0.014 A 
BRANCH  31  32
ATOM     32  C   UNL A   1      38.293  30.126  29.810  1.00  0.00     0.031 A 
ATOM     33  C   UNL A   1      39.363  29.240  29.245  1.00  0.00     0.074 A 
ATOM     34  C   UNL A   1      38.435  30.674  31.029  1.00  0.00     0.049 A 
ATOM     35  N   UNL A   1      40.443  28.775  29.819  1.00  0.00    -0.248 NA
ATOM     36  C   UNL A   1      39.191  28.816  27.847  1.00  0.00     0.031 C 
ATOM     37  C   UNL A   1      37.485  31.593  31.656  1.00  0.00     0.029 A 
ATOM     38  N   UNL A   1      39.430  30.531  31.962  1.00  0.00    -0.354 N 
ATOM     39  C   UNL A   1      41.065  27.984  28.862  1.00  0.00     0.074 A 
ATOM     40  C   UNL A   1      40.236  28.019  27.677  1.00  0.00     0.031 C 
ATOM     41  C   UNL A   1      37.942  31.931  32.872  1.00  0.00     0.029 A 
ATOM     42  C   UNL A   1      39.188  31.213  33.128  1.00  0.00     0.049 A 
ATOM     43  H   UNL A   1      40.239  29.989  31.810  1.00  0.00     0.167 HD
ATOM     44  C   UNL A   1      42.226  27.295  28.970  1.00  0.00     0.037 A 
ATOM     45  C   UNL A   1      39.881  31.230  34.282  1.00  0.00     0.037 A 
ATOM     46  C   UNL A   1      43.055  27.284  30.148  1.00  0.00     0.049 A 
ATOM     47  C   UNL A   1      41.138  30.410  34.394  1.00  0.00     0.074 A 
ATOM     48  C   UNL A   1      44.256  26.629  30.353  1.00  0.00     0.029 A 
ATOM     49  N   UNL A   1      42.765  27.967  31.321  1.00  0.00    -0.354 N 
ATOM     50  N   UNL A   1      41.715  29.653  33.493  1.00  0.00    -0.248 NA
ATOM     51  C   UNL A   1      41.835  30.442  35.687  1.00  0.00     0.031 C 
ATOM     52  C   UNL A   1      44.672  26.881  31.665  1.00  0.00     0.029 A 
ATOM     53  C   UNL A   1      43.754  27.732  32.262  1.00  0.00     0.049 A 
ATOM     54  H   UNL A   1      41.972  28.533  31.464  1.00  0.00     0.167 HD
ATOM     55  C   UNL A   1      42.851  29.135  34.100  1.00  0.00     0.074 A 
ATOM     56  C   UNL A   1      42.890  29.678  35.442  1.00  0.00     0.031 C 
ATOM     57  C   UNL A   1      43.776  28.285  33.592  1.00  0.00     0.037 A 
BRANCH  44  58
ATOM     58  C   UNL A   1      42.651  26.468  27.793  1.00  0.00     0.064 A 
ATOM     59  C   UNL A   1      42.156  25.173  27.582  1.00  0.00     0.173 A 
ATOM     60  C   UNL A   1      43.549  26.991  26.849  1.00  0.00     0.173 A 
ATOM     61  F   UNL A   1      41.307  24.622  28.461  1.00  0.00    -0.203 F 
ATOM     62  C   UNL A   1      42.563  24.422  26.481  1.00  0.00     0.198 A 
ATOM     63  C   UNL A   1      43.933  26.248  25.737  1.00  0.00     0.198 A 
ATOM     64  F   UNL A   1      44.049  28.226  27.003  1.00  0.00    -0.203 F 
ATOM     65  F   UNL A   1      42.112  23.171  26.322  1.00  0.00    -0.200 F 
ATOM     66  C   UNL A   1      43.446  24.962  25.556  1.00  0.00     0.200 A 
ATOM     67  F   UNL A   1      44.776  26.776  24.839  1.00  0.00    -0.200 F 
ATOM     68  F   UNL A   1      43.833  24.240  24.496  1.00  0.00    -0.200 F 
ENDBRANCH  44  58
BRANCH  45  69
ATOM     69  C   UNL A   1      39.385  32.032  35.429  1.00  0.00     0.064 A 
ATOM     70  C   UNL A   1      39.784  33.364  35.604  1.00  0.00     0.173 A 
ATOM     71  C   UNL A   1      38.503  31.485  36.373  1.00  0.00     0.173 A 
ATOM     72  F   UNL A   1      40.646  33.923  34.742  1.00  0.00    -0.203 F 
ATOM     73  C   UNL A   1      39.330  34.114  36.687  1.00  0.00     0.198 A 
ATOM     74  C   UNL A   1      38.028  32.243  37.441  1.00  0.00     0.198 A 
ATOM     75  F   UNL A   1      38.095  30.213  36.252  1.00  0.00    -0.203 F 
ATOM     76  F   UNL A   1      39.759  35.372  36.855  1.00  0.00    -0.200 F 
ATOM     77  C   UNL A   1      38.447  33.555  37.600  1.00  0.00     0.200 A 
ATOM     78  F   UNL A   1      37.167  31.703  38.314  1.00  0.00    -0.200 F 
ATOM     79  F   UNL A   1      38.007  34.279  38.638  1.00  0.00    -0.200 F 
ENDBRANCH  45  69
BRANCH  57  80
ATOM     80  C   UNL A   1      44.926  27.914  34.483  1.00  0.00     0.064 A 
ATOM     81  C   UNL A   1      44.883  26.777  35.302  1.00  0.00     0.173 A 
ATOM     82  C   UNL A   1      46.097  28.687  34.487  1.00  0.00     0.173 A 
ATOM     83  F   UNL A   1      43.779  26.017  35.344  1.00  0.00    -0.203 F 
ATOM     84  C   UNL A   1      45.965  26.439  36.112  1.00  0.00     0.198 A 
ATOM     85  C   UNL A   1      47.186  28.331  35.278  1.00  0.00     0.198 A 
ATOM     86  F   UNL A   1      46.189  29.782  33.717  1.00  0.00    -0.203 F 
ATOM     87  F   UNL A   1      45.886  25.373  36.920  1.00  0.00    -0.200 F 
ATOM     88  C   UNL A   1      47.116  27.212  36.094  1.00  0.00     0.200 A 
ATOM     89  F   UNL A   1      48.302  29.072  35.250  1.00  0.00    -0.200 F 
ATOM     90  F   UNL A   1      48.157  26.882  36.870  1.00  0.00    -0.200 F 
ENDBRANCH  57  80
ENDBRANCH  31  32
ENDBRANCH  24  26
ENDBRANCH  23  24
ENDBRANCH  22  23
ENDBRANCH   1  22
TORSDOF 14
ENDMDL
MODEL 3
REMARK VINA RESULT:     -11.9      4.825     10.149
REMARK SMILES C[C@]1(CNC(=O)N2CCOC[C@H]2C(=O)OCCOC(=O)c2ccc(-c3c4nc(c(-c5c(F)c(F)c(F)c(F)c5F)c5ccc([nH]5)c(-c5c(F)c(F)c(F)c(F)c5F)c5nc(c(-c6c(F)c(F)c(F)c(F)c6F)c6ccc3[nH]6)C=C5)C=C4)cc2)CCCO1
REMARK SMILES IDX 16 1 15 2 13 3 14 4 12 5 7 6 8 7 9 8 11 9 10 10 5 11 4 12
REMARK SMILES IDX 6 14 3 15 2 16 1 17 84 18 87 19 85 20 86 21 17 22 18 23
REMARK SMILES IDX 19 24 20 25 21 26 22 27 83 28 23 29 82 30 24 31 25 32 26 33
REMARK SMILES IDX 76 34 27 35 81 36 75 37 77 38 28 39 80 40 74 41 73 42 29 44
REMARK SMILES IDX 61 45 41 46 60 47 42 48 45 49 59 50 78 51 43 52 44 53 58 55
REMARK SMILES IDX 79 56 46 57 30 58 31 59 39 60 32 61 33 62 37 63 40 64 34 65
REMARK SMILES IDX 35 66 38 67 36 68 62 69 63 70 71 71 64 72 65 73 69 74 72 75
REMARK SMILES IDX 66 76 67 77 70 78 68 79 47 80 48 81 56 82 49 83 50 84 54 85
REMARK SMILES IDX 57 86 51 87 52 88 55 89 53 90
REMARK H PARENT 4 13 77 43 45 54
REMARK Flexibility Score: inf
ROOT
ATOM      1  C   UNL A   1      35.631  22.333  26.106  1.00  0.00     0.274 C 
ENDROOT
BRANCH   1   2
ATOM      2  O   UNL A   1      34.729  21.786  27.089  1.00  0.00    -0.460 OA
BRANCH   2   3
ATOM      3  C   UNL A   1      33.566  22.453  27.308  1.00  0.00     0.331 C 
ATOM      4  O   UNL A   1      32.927  22.391  28.357  1.00  0.00    -0.250 OA
BRANCH   3   5
ATOM      5  C   UNL A   1      33.021  23.178  26.064  1.00  0.00     0.222 C 
ATOM      6  N   UNL A   1      31.930  22.582  25.262  1.00  0.00    -0.306 N 
ATOM      7  C   UNL A   1      30.622  22.580  25.915  1.00  0.00     0.151 C 
ATOM      8  C   UNL A   1      30.276  23.985  26.405  1.00  0.00     0.182 C 
ATOM      9  C   UNL A   1      32.581  24.576  26.526  1.00  0.00     0.197 C 
ATOM     10  O   UNL A   1      31.323  24.536  27.224  1.00  0.00    -0.377 OA
BRANCH   6  11
ATOM     11  C   UNL A   1      32.248  21.961  24.094  1.00  0.00     0.318 C 
ATOM     12  N   UNL A   1      32.930  20.797  24.084  1.00  0.00    -0.335 N 
ATOM     13  H   UNL A   1      33.586  20.712  23.355  1.00  0.00     0.165 HD
ATOM     14  O   UNL A   1      31.870  22.377  22.999  1.00  0.00    -0.249 OA
BRANCH  12  15
ATOM     15  C   UNL A   1      32.859  19.643  24.975  1.00  0.00     0.152 C 
BRANCH  15  16
ATOM     16  C   UNL A   1      32.940  18.257  24.279  1.00  0.00     0.083 C 
ATOM     17  C   UNL A   1      32.332  18.317  22.872  1.00  0.00     0.044 C 
ATOM     18  C   UNL A   1      34.336  17.632  24.261  1.00  0.00     0.039 C 
ATOM     19  O   UNL A   1      32.122  17.325  25.031  1.00  0.00    -0.373 OA
ATOM     20  C   UNL A   1      34.038  16.151  24.255  1.00  0.00     0.031 C 
ATOM     21  C   UNL A   1      32.819  16.073  25.147  1.00  0.00     0.161 C 
ENDBRANCH  15  16
ENDBRANCH  12  15
ENDBRANCH   6  11
ENDBRANCH   3   5
ENDBRANCH   2   3
ENDBRANCH   1   2
BRANCH   1  22
ATOM     22  C   UNL A   1      36.592  21.261  25.594  1.00  0.00     0.275 C 
BRANCH  22  23
ATOM     23  O   UNL A   1      37.869  21.840  25.281  1.00  0.00    -0.458 OA
BRANCH  23  24
ATOM     24  C   UNL A   1      38.873  21.470  26.111  1.00  0.00     0.338 C 
ATOM     25  O   UNL A   1      39.266  20.343  26.348  1.00  0.00    -0.246 OA
BRANCH  24  26
ATOM     26  C   UNL A   1      39.522  22.685  26.620  1.00  0.00     0.060 A 
ATOM     27  C   UNL A   1      39.093  23.918  26.129  1.00  0.00     0.016 A 
ATOM     28  C   UNL A   1      40.578  22.607  27.527  1.00  0.00     0.016 A 
ATOM     29  C   UNL A   1      39.743  25.087  26.508  1.00  0.00     0.010 A 
ATOM     30  C   UNL A   1      41.219  23.783  27.925  1.00  0.00     0.010 A 
ATOM     31  C   UNL A   1      40.816  25.026  27.403  1.00  0.00    -0.014 A 
BRANCH  31  32
ATOM     32  C   UNL A   1      41.558  26.261  27.745  1.00  0.00     0.031 A 
ATOM     33  C   UNL A   1      40.884  27.328  28.555  1.00  0.00     0.074 A 
ATOM     34  C   UNL A   1      42.832  26.411  27.345  1.00  0.00     0.049 A 
ATOM     35  N   UNL A   1      41.310  28.524  28.870  1.00  0.00    -0.248 NA
ATOM     36  C   UNL A   1      39.547  27.006  29.079  1.00  0.00     0.031 C 
ATOM     37  C   UNL A   1      43.604  25.417  26.600  1.00  0.00     0.029 A 
ATOM     38  N   UNL A   1      43.699  27.462  27.502  1.00  0.00    -0.354 N 
ATOM     39  C   UNL A   1      40.286  29.107  29.604  1.00  0.00     0.074 A 
ATOM     40  C   UNL A   1      39.212  28.141  29.676  1.00  0.00     0.031 C 
ATOM     41  C   UNL A   1      44.832  25.907  26.363  1.00  0.00     0.029 A 
ATOM     42  C   UNL A   1      44.913  27.264  26.894  1.00  0.00     0.049 A 
ATOM     43  H   UNL A   1      43.471  28.280  28.003  1.00  0.00     0.167 HD
ATOM     44  C   UNL A   1      40.254  30.338  30.167  1.00  0.00     0.037 A 
ATOM     45  C   UNL A   1      45.960  28.100  26.756  1.00  0.00     0.037 A 
ATOM     46  C   UNL A   1      41.337  31.285  30.107  1.00  0.00     0.049 A 
ATOM     47  C   UNL A   1      45.875  29.483  27.343  1.00  0.00     0.074 A 
ATOM     48  C   UNL A   1      41.408  32.553  30.656  1.00  0.00     0.029 A 
ATOM     49  N   UNL A   1      42.544  31.060  29.459  1.00  0.00    -0.354 N 
ATOM     50  N   UNL A   1      44.900  30.036  28.024  1.00  0.00    -0.248 NA
ATOM     51  C   UNL A   1      47.035  30.361  27.134  1.00  0.00     0.031 C 
ATOM     52  C   UNL A   1      42.642  33.112  30.304  1.00  0.00     0.029 A 
ATOM     53  C   UNL A   1      43.358  32.175  29.576  1.00  0.00     0.049 A 
ATOM     54  H   UNL A   1      42.785  30.232  28.984  1.00  0.00     0.167 HD
ATOM     55  C   UNL A   1      45.334  31.315  28.342  1.00  0.00     0.074 A 
ATOM     56  C   UNL A   1      46.667  31.452  27.793  1.00  0.00     0.031 C 
ATOM     57  C   UNL A   1      44.685  32.289  29.025  1.00  0.00     0.037 A 
BRANCH  44  58
ATOM     58  C   UNL A   1      38.991  30.745  30.868  1.00  0.00     0.064 A 
ATOM     59  C   UNL A   1      38.829  30.585  32.252  1.00  0.00     0.173 A 
ATOM     60  C   UNL A   1      37.937  31.324  30.145  1.00  0.00     0.173 A 
ATOM     61  F   UNL A   1      39.801  30.024  32.985  1.00  0.00    -0.203 F 
ATOM     62  C   UNL A   1      37.649  30.970  32.883  1.00  0.00     0.198 A 
ATOM     63  C   UNL A   1      36.769  31.731  30.783  1.00  0.00     0.198 A 
ATOM     64  F   UNL A   1      38.043  31.502  28.820  1.00  0.00    -0.203 F 
ATOM     65  F   UNL A   1      37.498  30.769  34.199  1.00  0.00    -0.200 F 
ATOM     66  C   UNL A   1      36.622  31.548  32.150  1.00  0.00     0.200 A 
ATOM     67  F   UNL A   1      35.784  32.300  30.075  1.00  0.00    -0.200 F 
ATOM     68  F   UNL A   1      35.489  31.921  32.760  1.00  0.00    -0.200 F 
ENDBRANCH  44  58
BRANCH  45  69
ATOM     69  C   UNL A   1      47.166  27.656  26.012  1.00  0.00     0.064 A 
ATOM     70  C   UNL A   1      48.297  27.183  26.688  1.00  0.00     0.173 A 
ATOM     71  C   UNL A   1      47.211  27.698  24.610  1.00  0.00     0.173 A 
ATOM     72  F   UNL A   1      48.311  27.148  28.029  1.00  0.00    -0.203 F 
ATOM     73  C   UNL A   1      49.434  26.778  25.991  1.00  0.00     0.198 A 
ATOM     74  C   UNL A   1      48.338  27.268  23.913  1.00  0.00     0.198 A 
ATOM     75  F   UNL A   1      46.155  28.147  23.917  1.00  0.00    -0.203 F 
ATOM     76  F   UNL A   1      50.518  26.368  26.662  1.00  0.00    -0.200 F 
ATOM     77  C   UNL A   1      49.450  26.815  24.604  1.00  0.00     0.200 A 
ATOM     78  F   UNL A   1      48.345  27.294  22.573  1.00  0.00    -0.200 F 
ATOM     79  F   UNL A   1      50.542  26.420  23.935  1.00  0.00    -0.200 F 
ENDBRANCH  45  69
BRANCH  57  80
ATOM     80  C   UNL A   1      45.422  33.579  29.243  1.00  0.00     0.064 A 
ATOM     81  C   UNL A   1      45.312  34.648  28.344  1.00  0.00     0.173 A 
ATOM     82  C   UNL A   1      46.217  33.755  30.385  1.00  0.00     0.173 A 
ATOM     83  F   UNL A   1      44.576  34.520  27.229  1.00  0.00    -0.203 F 
ATOM     84  C   UNL A   1      45.991  35.843  28.568  1.00  0.00     0.198 A 
ATOM     85  C   UNL A   1      46.873  34.961  30.620  1.00  0.00     0.198 A 
ATOM     86  F   UNL A   1      46.350  32.764  31.279  1.00  0.00    -0.203 F 
ATOM     87  F   UNL A   1      45.907  36.837  27.673  1.00  0.00    -0.200 F 
ATOM     88  C   UNL A   1      46.765  36.001  29.708  1.00  0.00     0.200 A 
ATOM     89  F   UNL A   1      47.611  35.115  31.728  1.00  0.00    -0.200 F 
ATOM     90  F   UNL A   1      47.413  37.153  29.925  1.00  0.00    -0.200 F 
ENDBRANCH  57  80
ENDBRANCH  31  32
ENDBRANCH  24  26
ENDBRANCH  23  24
ENDBRANCH  22  23
ENDBRANCH   1  22
TORSDOF 14
ENDMDL
