MODEL 1
REMARK VINA RESULT:     -11.4      0.000      0.000
REMARK SMILES Cc1nsc(N(C)C(=O)[C@@H](C)CCC[C@H](C)[NH3+])c1C(=O)OCCOC(=O)c1ccc(-c2c3nc(c(-c4c(F)c(F)c(F)c(F)c4F)c4ccc([nH]4)c(-c4c(F)c(F)c(F)c(F)c4F)c4nc(c(-c5c(F)c(F)c(F)c(F)c5F)c5ccc2[nH]5)C=C4)C=C3)cc1
REMARK SMILES IDX 1 1 2 2 3 3 4 4 5 5 18 6 19 7 20 8 21 9 22 10 23 11 24 12
REMARK SMILES IDX 25 13 26 14 27 15 28 16 89 17 29 18 88 19 30 20 31 21 32 22
REMARK SMILES IDX 82 23 33 24 87 25 81 26 83 27 34 28 86 29 80 30 79 31 35 33
REMARK SMILES IDX 67 34 47 35 66 36 48 37 51 38 65 39 84 40 49 41 50 42 64 44
REMARK SMILES IDX 85 45 52 46 36 47 37 48 45 49 38 50 39 51 43 52 46 53 40 54
REMARK SMILES IDX 41 55 44 56 42 57 68 58 69 59 77 60 70 61 71 62 75 63 78 64
REMARK SMILES IDX 72 65 73 66 76 67 74 68 53 69 54 70 62 71 55 72 56 73 60 74
REMARK SMILES IDX 63 75 57 76 58 77 61 78 59 79 6 80 7 81 8 82 9 83 10 84
REMARK SMILES IDX 11 85 12 86 13 87 14 88 15 89 16 90 17 91
REMARK H PARENT 83 32 51 43 17 92 17 93 17 94
REMARK Flexibility Score: inf
ROOT
ATOM      1  C   UNL A   1      29.564  29.016  23.701  1.00  0.00     0.069 C 
ATOM      2  C   UNL A   1      30.499  27.890  23.398  1.00  0.00     0.068 A 
ATOM      3  N   UNL A   1      30.764  27.653  22.118  1.00  0.00    -0.195 NA
ATOM      4  S   UNL A   1      31.744  26.350  22.016  1.00  0.00    -0.017 S 
ATOM      5  C   UNL A   1      31.864  26.011  23.709  1.00  0.00     0.133 A 
ATOM      6  C   UNL A   1      31.171  27.035  24.369  1.00  0.00     0.117 A 
ENDROOT
BRANCH   6   7
ATOM      7  C   UNL A   1      31.064  27.265  25.804  1.00  0.00     0.343 C 
ATOM      8  O   UNL A   1      30.670  26.427  26.611  1.00  0.00    -0.246 OA
BRANCH   7   9
ATOM      9  O   UNL A   1      31.532  28.499  26.142  1.00  0.00    -0.458 OA
BRANCH   9  10
ATOM     10  C   UNL A   1      32.947  28.672  26.281  1.00  0.00     0.275 C 
BRANCH  10  11
ATOM     11  C   UNL A   1      33.198  30.040  26.900  1.00  0.00     0.275 C 
BRANCH  11  12
ATOM     12  O   UNL A   1      34.573  30.391  26.782  1.00  0.00    -0.458 OA
BRANCH  12  13
ATOM     13  C   UNL A   1      35.041  31.346  27.619  1.00  0.00     0.338 C 
ATOM     14  O   UNL A   1      34.719  32.520  27.672  1.00  0.00    -0.246 OA
BRANCH  13  15
ATOM     15  C   UNL A   1      36.179  30.775  28.357  1.00  0.00     0.060 A 
ATOM     16  C   UNL A   1      37.181  31.637  28.816  1.00  0.00     0.016 A 
ATOM     17  C   UNL A   1      36.330  29.381  28.404  1.00  0.00     0.016 A 
ATOM     18  C   UNL A   1      38.403  31.101  29.170  1.00  0.00     0.010 A 
ATOM     19  C   UNL A   1      37.551  28.851  28.721  1.00  0.00     0.010 A 
ATOM     20  C   UNL A   1      38.589  29.722  29.038  1.00  0.00    -0.014 A 
BRANCH  20  21
ATOM     21  C   UNL A   1      39.896  29.155  29.269  1.00  0.00     0.031 A 
ATOM     22  C   UNL A   1      40.221  28.931  30.700  1.00  0.00     0.074 A 
ATOM     23  C   UNL A   1      40.633  28.705  28.236  1.00  0.00     0.049 A 
ATOM     24  N   UNL A   1      41.207  29.419  31.375  1.00  0.00    -0.248 NA
ATOM     25  C   UNL A   1      39.265  28.162  31.517  1.00  0.00     0.031 C 
ATOM     26  C   UNL A   1      40.257  28.593  26.822  1.00  0.00     0.029 A 
ATOM     27  N   UNL A   1      41.867  28.144  28.266  1.00  0.00    -0.354 N 
ATOM     28  C   UNL A   1      41.102  28.882  32.655  1.00  0.00     0.074 A 
ATOM     29  C   UNL A   1      39.818  28.238  32.726  1.00  0.00     0.031 C 
ATOM     30  C   UNL A   1      41.151  27.802  26.184  1.00  0.00     0.029 A 
ATOM     31  C   UNL A   1      42.221  27.467  27.107  1.00  0.00     0.049 A 
ATOM     32  H   UNL A   1      42.463  28.213  29.046  1.00  0.00     0.167 HD
ATOM     33  C   UNL A   1      42.181  28.828  33.484  1.00  0.00     0.037 A 
ATOM     34  C   UNL A   1      43.270  26.616  26.992  1.00  0.00     0.037 A 
ATOM     35  C   UNL A   1      43.191  29.771  33.076  1.00  0.00     0.049 A 
ATOM     36  C   UNL A   1      44.206  26.924  28.112  1.00  0.00     0.074 A 
ATOM     37  C   UNL A   1      43.214  31.147  32.935  1.00  0.00     0.029 A 
ATOM     38  N   UNL A   1      44.268  29.311  32.357  1.00  0.00    -0.354 N 
ATOM     39  N   UNL A   1      44.858  28.052  28.211  1.00  0.00    -0.248 NA
ATOM     40  C   UNL A   1      44.010  26.204  29.364  1.00  0.00     0.031 C 
ATOM     41  C   UNL A   1      43.951  31.376  31.736  1.00  0.00     0.029 A 
ATOM     42  C   UNL A   1      44.399  30.139  31.270  1.00  0.00     0.049 A 
ATOM     43  H   UNL A   1      44.834  28.537  32.578  1.00  0.00     0.167 HD
ATOM     44  C   UNL A   1      44.793  28.386  29.557  1.00  0.00     0.074 A 
ATOM     45  C   UNL A   1      44.298  27.183  30.226  1.00  0.00     0.031 C 
ATOM     46  C   UNL A   1      44.851  29.685  29.977  1.00  0.00     0.037 A 
BRANCH  33  47
ATOM     47  C   UNL A   1      42.470  27.686  34.425  1.00  0.00     0.064 A 
ATOM     48  C   UNL A   1      43.057  26.512  33.912  1.00  0.00     0.173 A 
ATOM     49  C   UNL A   1      41.920  27.573  35.721  1.00  0.00     0.173 A 
ATOM     50  F   UNL A   1      43.609  26.501  32.689  1.00  0.00    -0.203 F 
ATOM     51  C   UNL A   1      43.000  25.297  34.599  1.00  0.00     0.198 A 
ATOM     52  C   UNL A   1      41.911  26.371  36.425  1.00  0.00     0.198 A 
ATOM     53  F   UNL A   1      41.272  28.582  36.313  1.00  0.00    -0.203 F 
ATOM     54  F   UNL A   1      43.450  24.180  34.012  1.00  0.00    -0.200 F 
ATOM     55  C   UNL A   1      42.417  25.226  35.851  1.00  0.00     0.200 A 
ATOM     56  F   UNL A   1      41.329  26.320  37.631  1.00  0.00    -0.200 F 
ATOM     57  F   UNL A   1      42.298  24.050  36.481  1.00  0.00    -0.200 F 
ENDBRANCH  33  47
BRANCH  34  58
ATOM     58  C   UNL A   1      43.284  25.329  26.252  1.00  0.00     0.064 A 
ATOM     59  C   UNL A   1      44.322  25.005  25.365  1.00  0.00     0.173 A 
ATOM     60  C   UNL A   1      42.405  24.280  26.593  1.00  0.00     0.173 A 
ATOM     61  F   UNL A   1      45.235  25.928  25.032  1.00  0.00    -0.203 F 
ATOM     62  C   UNL A   1      44.472  23.708  24.853  1.00  0.00     0.198 A 
ATOM     63  C   UNL A   1      42.551  22.991  26.078  1.00  0.00     0.198 A 
ATOM     64  F   UNL A   1      41.439  24.459  27.506  1.00  0.00    -0.203 F 
ATOM     65  F   UNL A   1      45.503  23.422  24.047  1.00  0.00    -0.200 F 
ATOM     66  C   UNL A   1      43.590  22.702  25.215  1.00  0.00     0.200 A 
ATOM     67  F   UNL A   1      41.713  22.021  26.470  1.00  0.00    -0.200 F 
ATOM     68  F   UNL A   1      43.763  21.451  24.768  1.00  0.00    -0.200 F 
ENDBRANCH  34  58
BRANCH  46  69
ATOM     69  C   UNL A   1      45.172  30.751  28.964  1.00  0.00     0.064 A 
ATOM     70  C   UNL A   1      44.199  31.477  28.255  1.00  0.00     0.173 A 
ATOM     71  C   UNL A   1      46.501  31.177  28.844  1.00  0.00     0.173 A 
ATOM     72  F   UNL A   1      42.897  31.208  28.402  1.00  0.00    -0.203 F 
ATOM     73  C   UNL A   1      44.545  32.549  27.434  1.00  0.00     0.198 A 
ATOM     74  C   UNL A   1      46.842  32.272  28.053  1.00  0.00     0.198 A 
ATOM     75  F   UNL A   1      47.467  30.567  29.547  1.00  0.00    -0.203 F 
ATOM     76  F   UNL A   1      43.594  33.222  26.768  1.00  0.00    -0.200 F 
ATOM     77  C   UNL A   1      45.866  32.951  27.340  1.00  0.00     0.200 A 
ATOM     78  F   UNL A   1      48.113  32.690  28.010  1.00  0.00    -0.200 F 
ATOM     79  F   UNL A   1      46.197  34.011  26.589  1.00  0.00    -0.200 F 
ENDBRANCH  46  69
ENDBRANCH  20  21
ENDBRANCH  13  15
ENDBRANCH  12  13
ENDBRANCH  11  12
ENDBRANCH  10  11
ENDBRANCH   9  10
ENDBRANCH   7   9
ENDBRANCH   6   7
BRANCH   5  80
ATOM     80  N   UNL A   1      32.567  24.816  24.071  1.00  0.00    -0.305 N 
ATOM     81  C   UNL A   1      34.014  24.702  23.848  1.00  0.00     0.154 C 
BRANCH  80  82
ATOM     82  C   UNL A   1      31.818  23.687  24.420  1.00  0.00     0.230 C 
ATOM     83  O   UNL A   1      30.680  23.471  23.996  1.00  0.00    -0.274 OA
BRANCH  82  84
ATOM     84  C   UNL A   1      32.386  22.589  25.345  1.00  0.00     0.076 C 
ATOM     85  C   UNL A   1      32.387  22.923  26.837  1.00  0.00     0.018 C 
BRANCH  84  86
ATOM     86  C   UNL A   1      31.873  21.176  25.018  1.00  0.00     0.013 C 
BRANCH  86  87
ATOM     87  C   UNL A   1      32.615  20.464  23.871  1.00  0.00     0.007 C 
BRANCH  87  88
ATOM     88  C   UNL A   1      33.350  19.158  24.204  1.00  0.00     0.064 C 
BRANCH  88  89
ATOM     89  C   UNL A   1      32.865  17.853  23.541  1.00  0.00     0.177 C 
ATOM     90  C   UNL A   1      34.022  16.929  23.167  1.00  0.00     0.075 C 
BRANCH  89  91
ATOM     91  N   UNL A   1      32.005  18.038  22.374  1.00  0.00    -0.355 N 
ATOM     92  H   UNL A   1      31.381  18.828  22.533  1.00  0.00     0.344 HD
ATOM     93  H   UNL A   1      31.453  17.194  22.222  1.00  0.00     0.344 HD
ATOM     94  H   UNL A   1      32.582  18.219  21.553  1.00  0.00     0.344 HD
ENDBRANCH  89  91
ENDBRANCH  88  89
ENDBRANCH  87  88
ENDBRANCH  86  87
ENDBRANCH  84  86
ENDBRANCH  82  84
ENDBRANCH  80  82
ENDBRANCH   5  80
TORSDOF 19
ENDMDL
MODEL 2
REMARK VINA RESULT:     -11.2      1.447      1.846
REMARK SMILES Cc1nsc(N(C)C(=O)[C@@H](C)CCC[C@H](C)[NH3+])c1C(=O)OCCOC(=O)c1ccc(-c2c3nc(c(-c4c(F)c(F)c(F)c(F)c4F)c4ccc([nH]4)c(-c4c(F)c(F)c(F)c(F)c4F)c4nc(c(-c5c(F)c(F)c(F)c(F)c5F)c5ccc2[nH]5)C=C4)C=C3)cc1
REMARK SMILES IDX 1 1 2 2 3 3 4 4 5 5 18 6 19 7 20 8 21 9 22 10 23 11 24 12
REMARK SMILES IDX 25 13 26 14 27 15 28 16 89 17 29 18 88 19 30 20 31 21 32 22
REMARK SMILES IDX 82 23 33 24 87 25 81 26 83 27 34 28 86 29 80 30 79 31 35 33
REMARK SMILES IDX 67 34 47 35 66 36 48 37 51 38 65 39 84 40 49 41 50 42 64 44
REMARK SMILES IDX 85 45 52 46 36 47 37 48 45 49 38 50 39 51 43 52 46 53 40 54
REMARK SMILES IDX 41 55 44 56 42 57 68 58 69 59 77 60 70 61 71 62 75 63 78 64
REMARK SMILES IDX 72 65 73 66 76 67 74 68 53 69 54 70 62 71 55 72 56 73 60 74
REMARK SMILES IDX 63 75 57 76 58 77 61 78 59 79 6 80 7 81 8 82 9 83 10 84
REMARK SMILES IDX 11 85 12 86 13 87 14 88 15 89 16 90 17 91
REMARK H PARENT 83 32 51 43 17 92 17 93 17 94
REMARK Flexibility Score: inf
ROOT
ATOM      1  C   UNL A   1      30.468  29.338  23.821  1.00  0.00     0.069 C 
ATOM      2  C   UNL A   1      30.774  27.876  23.808  1.00  0.00     0.068 A 
ATOM      3  N   UNL A   1      30.689  27.252  22.637  1.00  0.00    -0.195 NA
ATOM      4  S   UNL A   1      30.996  25.664  22.864  1.00  0.00    -0.017 S 
ATOM      5  C   UNL A   1      31.253  25.715  24.574  1.00  0.00     0.133 A 
ATOM      6  C   UNL A   1      31.181  27.063  24.947  1.00  0.00     0.117 A 
ENDROOT
BRANCH   6   7
ATOM      7  C   UNL A   1      31.431  27.645  26.259  1.00  0.00     0.343 C 
ATOM      8  O   UNL A   1      31.057  27.148  27.319  1.00  0.00    -0.246 OA
BRANCH   7   9
ATOM      9  O   UNL A   1      32.199  28.767  26.164  1.00  0.00    -0.458 OA
BRANCH   9  10
ATOM     10  C   UNL A   1      32.077  29.759  27.190  1.00  0.00     0.275 C 
BRANCH  10  11
ATOM     11  C   UNL A   1      33.295  30.671  27.113  1.00  0.00     0.275 C 
BRANCH  11  12
ATOM     12  O   UNL A   1      34.289  30.245  28.039  1.00  0.00    -0.458 OA
BRANCH  12  13
ATOM     13  C   UNL A   1      35.107  31.196  28.547  1.00  0.00     0.338 C 
ATOM     14  O   UNL A   1      34.809  32.312  28.935  1.00  0.00    -0.246 OA
BRANCH  13  15
ATOM     15  C   UNL A   1      36.493  30.732  28.373  1.00  0.00     0.060 A 
ATOM     16  C   UNL A   1      36.710  29.461  27.827  1.00  0.00     0.016 A 
ATOM     17  C   UNL A   1      37.538  31.478  28.937  1.00  0.00     0.016 A 
ATOM     18  C   UNL A   1      37.947  28.872  27.996  1.00  0.00     0.010 A 
ATOM     19  C   UNL A   1      38.754  30.881  29.136  1.00  0.00     0.010 A 
ATOM     20  C   UNL A   1      38.921  29.564  28.720  1.00  0.00    -0.014 A 
BRANCH  20  21
ATOM     21  C   UNL A   1      40.173  28.916  29.029  1.00  0.00     0.031 A 
ATOM     22  C   UNL A   1      40.434  28.750  30.480  1.00  0.00     0.074 A 
ATOM     23  C   UNL A   1      40.907  28.355  28.049  1.00  0.00     0.049 A 
ATOM     24  N   UNL A   1      41.432  29.201  31.164  1.00  0.00    -0.248 NA
ATOM     25  C   UNL A   1      39.396  28.101  31.302  1.00  0.00     0.031 C 
ATOM     26  C   UNL A   1      40.570  28.191  26.630  1.00  0.00     0.029 A 
ATOM     27  N   UNL A   1      42.094  27.707  28.155  1.00  0.00    -0.354 N 
ATOM     28  C   UNL A   1      41.245  28.747  32.467  1.00  0.00     0.074 A 
ATOM     29  C   UNL A   1      39.915  28.205  32.525  1.00  0.00     0.031 C 
ATOM     30  C   UNL A   1      41.422  27.301  26.070  1.00  0.00     0.029 A 
ATOM     31  C   UNL A   1      42.432  26.941  27.048  1.00  0.00     0.049 A 
ATOM     32  H   UNL A   1      42.668  27.775  28.951  1.00  0.00     0.167 HD
ATOM     33  C   UNL A   1      42.289  28.660  33.335  1.00  0.00     0.037 A 
ATOM     34  C   UNL A   1      43.417  26.008  27.017  1.00  0.00     0.037 A 
ATOM     35  C   UNL A   1      43.381  29.501  32.915  1.00  0.00     0.049 A 
ATOM     36  C   UNL A   1      44.337  26.309  28.152  1.00  0.00     0.074 A 
ATOM     37  C   UNL A   1      43.513  30.860  32.701  1.00  0.00     0.029 A 
ATOM     38  N   UNL A   1      44.442  28.921  32.261  1.00  0.00    -0.354 N 
ATOM     39  N   UNL A   1      45.069  27.390  28.214  1.00  0.00    -0.248 NA
ATOM     40  C   UNL A   1      44.046  25.678  29.433  1.00  0.00     0.031 C 
ATOM     41  C   UNL A   1      44.304  30.966  31.518  1.00  0.00     0.029 A 
ATOM     42  C   UNL A   1      44.672  29.675  31.137  1.00  0.00     0.049 A 
ATOM     43  H   UNL A   1      44.940  28.121  32.544  1.00  0.00     0.167 HD
ATOM     44  C   UNL A   1      44.986  27.803  29.537  1.00  0.00     0.074 A 
ATOM     45  C   UNL A   1      44.380  26.681  30.251  1.00  0.00     0.031 C 
ATOM     46  C   UNL A   1      45.129  29.116  29.888  1.00  0.00     0.037 A 
BRANCH  33  47
ATOM     47  C   UNL A   1      42.461  27.555  34.348  1.00  0.00     0.064 A 
ATOM     48  C   UNL A   1      42.920  26.296  33.911  1.00  0.00     0.173 A 
ATOM     49  C   UNL A   1      41.904  27.580  35.645  1.00  0.00     0.173 A 
ATOM     50  F   UNL A   1      43.465  26.152  32.693  1.00  0.00    -0.203 F 
ATOM     51  C   UNL A   1      42.739  25.139  34.671  1.00  0.00     0.198 A 
ATOM     52  C   UNL A   1      41.771  26.432  36.422  1.00  0.00     0.198 A 
ATOM     53  F   UNL A   1      41.366  28.686  36.171  1.00  0.00    -0.203 F 
ATOM     54  F   UNL A   1      43.069  23.947  34.156  1.00  0.00    -0.200 F 
ATOM     55  C   UNL A   1      42.154  25.206  35.922  1.00  0.00     0.200 A 
ATOM     56  F   UNL A   1      41.190  26.516  37.627  1.00  0.00    -0.200 F 
ATOM     57  F   UNL A   1      41.915  24.091  36.624  1.00  0.00    -0.200 F 
ENDBRANCH  33  47
BRANCH  34  58
ATOM     58  C   UNL A   1      43.357  24.685  26.348  1.00  0.00     0.064 A 
ATOM     59  C   UNL A   1      44.211  24.362  25.283  1.00  0.00     0.173 A 
ATOM     60  C   UNL A   1      42.629  23.614  26.909  1.00  0.00     0.173 A 
ATOM     61  F   UNL A   1      44.981  25.309  24.728  1.00  0.00    -0.203 F 
ATOM     62  C   UNL A   1      44.330  23.048  24.810  1.00  0.00     0.198 A 
ATOM     63  C   UNL A   1      42.744  22.308  26.434  1.00  0.00     0.198 A 
ATOM     64  F   UNL A   1      41.859  23.797  27.992  1.00  0.00    -0.203 F 
ATOM     65  F   UNL A   1      45.192  22.768  23.823  1.00  0.00    -0.200 F 
ATOM     66  C   UNL A   1      43.601  22.022  25.390  1.00  0.00     0.200 A 
ATOM     67  F   UNL A   1      42.062  21.321  27.033  1.00  0.00    -0.200 F 
ATOM     68  F   UNL A   1      43.754  20.758  24.973  1.00  0.00    -0.200 F 
ENDBRANCH  34  58
BRANCH  46  69
ATOM     69  C   UNL A   1      45.563  30.096  28.831  1.00  0.00     0.064 A 
ATOM     70  C   UNL A   1      44.678  30.744  27.952  1.00  0.00     0.173 A 
ATOM     71  C   UNL A   1      46.894  30.531  28.832  1.00  0.00     0.173 A 
ATOM     72  F   UNL A   1      43.368  30.469  27.967  1.00  0.00    -0.203 F 
ATOM     73  C   UNL A   1      45.113  31.747  27.087  1.00  0.00     0.198 A 
ATOM     74  C   UNL A   1      47.321  31.559  27.995  1.00  0.00     0.198 A 
ATOM     75  F   UNL A   1      47.773  29.998  29.695  1.00  0.00    -0.203 F 
ATOM     76  F   UNL A   1      44.245  32.346  26.258  1.00  0.00    -0.200 F 
ATOM     77  C   UNL A   1      46.434  32.159  27.115  1.00  0.00     0.200 A 
ATOM     78  F   UNL A   1      48.587  31.991  28.066  1.00  0.00    -0.200 F 
ATOM     79  F   UNL A   1      46.846  33.156  26.319  1.00  0.00    -0.200 F 
ENDBRANCH  46  69
ENDBRANCH  20  21
ENDBRANCH  13  15
ENDBRANCH  12  13
ENDBRANCH  11  12
ENDBRANCH  10  11
ENDBRANCH   9  10
ENDBRANCH   7   9
ENDBRANCH   6   7
BRANCH   5  80
ATOM     80  N   UNL A   1      31.440  24.453  25.228  1.00  0.00    -0.305 N 
ATOM     81  C   UNL A   1      30.516  24.010  26.280  1.00  0.00     0.154 C 
BRANCH  80  82
ATOM     82  C   UNL A   1      32.640  23.766  25.012  1.00  0.00     0.230 C 
ATOM     83  O   UNL A   1      32.768  22.875  24.169  1.00  0.00    -0.274 OA
BRANCH  82  84
ATOM     84  C   UNL A   1      33.925  24.107  25.797  1.00  0.00     0.076 C 
ATOM     85  C   UNL A   1      34.262  23.158  26.947  1.00  0.00     0.018 C 
BRANCH  84  86
ATOM     86  C   UNL A   1      35.124  24.460  24.901  1.00  0.00     0.013 C 
BRANCH  86  87
ATOM     87  C   UNL A   1      36.439  23.743  25.264  1.00  0.00     0.007 C 
BRANCH  87  88
ATOM     88  C   UNL A   1      36.955  22.671  24.291  1.00  0.00     0.064 C 
BRANCH  88  89
ATOM     89  C   UNL A   1      37.776  21.498  24.860  1.00  0.00     0.177 C 
ATOM     90  C   UNL A   1      36.947  20.222  24.993  1.00  0.00     0.075 C 
BRANCH  89  91
ATOM     91  N   UNL A   1      38.440  21.770  26.133  1.00  0.00    -0.355 N 
ATOM     92  H   UNL A   1      37.775  21.652  26.896  1.00  0.00     0.344 HD
ATOM     93  H   UNL A   1      38.793  22.726  26.134  1.00  0.00     0.344 HD
ATOM     94  H   UNL A   1      39.217  21.121  26.256  1.00  0.00     0.344 HD
ENDBRANCH  89  91
ENDBRANCH  88  89
ENDBRANCH  87  88
ENDBRANCH  86  87
ENDBRANCH  84  86
ENDBRANCH  82  84
ENDBRANCH  80  82
ENDBRANCH   5  80
TORSDOF 19
ENDMDL
MODEL 3
REMARK VINA RESULT:     -10.8      2.316      3.843
REMARK SMILES Cc1nsc(N(C)C(=O)[C@@H](C)CCC[C@H](C)[NH3+])c1C(=O)OCCOC(=O)c1ccc(-c2c3nc(c(-c4c(F)c(F)c(F)c(F)c4F)c4ccc([nH]4)c(-c4c(F)c(F)c(F)c(F)c4F)c4nc(c(-c5c(F)c(F)c(F)c(F)c5F)c5ccc2[nH]5)C=C4)C=C3)cc1
REMARK SMILES IDX 1 1 2 2 3 3 4 4 5 5 18 6 19 7 20 8 21 9 22 10 23 11 24 12
REMARK SMILES IDX 25 13 26 14 27 15 28 16 89 17 29 18 88 19 30 20 31 21 32 22
REMARK SMILES IDX 82 23 33 24 87 25 81 26 83 27 34 28 86 29 80 30 79 31 35 33
REMARK SMILES IDX 67 34 47 35 66 36 48 37 51 38 65 39 84 40 49 41 50 42 64 44
REMARK SMILES IDX 85 45 52 46 36 47 37 48 45 49 38 50 39 51 43 52 46 53 40 54
REMARK SMILES IDX 41 55 44 56 42 57 68 58 69 59 77 60 70 61 71 62 75 63 78 64
REMARK SMILES IDX 72 65 73 66 76 67 74 68 53 69 54 70 62 71 55 72 56 73 60 74
REMARK SMILES IDX 63 75 57 76 58 77 61 78 59 79 6 80 7 81 8 82 9 83 10 84
REMARK SMILES IDX 11 85 12 86 13 87 14 88 15 89 16 90 17 91
REMARK H PARENT 83 32 51 43 17 92 17 93 17 94
REMARK Flexibility Score: inf
ROOT
ATOM      1  C   UNL A   1      34.807  28.127  26.099  1.00  0.00     0.069 C 
ATOM      2  C   UNL A   1      33.701  27.189  25.737  1.00  0.00     0.068 A 
ATOM      3  N   UNL A   1      34.042  26.066  25.115  1.00  0.00    -0.195 NA
ATOM      4  S   UNL A   1      32.686  25.229  24.758  1.00  0.00    -0.017 S 
ATOM      5  C   UNL A   1      31.539  26.346  25.416  1.00  0.00     0.133 A 
ATOM      6  C   UNL A   1      32.282  27.370  26.019  1.00  0.00     0.117 A 
ENDROOT
BRANCH   6   7
ATOM      7  C   UNL A   1      31.788  28.495  26.802  1.00  0.00     0.343 C 
ATOM      8  O   UNL A   1      31.293  28.393  27.922  1.00  0.00    -0.246 OA
BRANCH   7   9
ATOM      9  O   UNL A   1      32.018  29.678  26.166  1.00  0.00    -0.458 OA
BRANCH   9  10
ATOM     10  C   UNL A   1      32.310  30.830  26.966  1.00  0.00     0.275 C 
BRANCH  10  11
ATOM     11  C   UNL A   1      33.726  30.682  27.506  1.00  0.00     0.275 C 
BRANCH  11  12
ATOM     12  O   UNL A   1      34.163  31.907  28.087  1.00  0.00    -0.458 OA
BRANCH  12  13
ATOM     13  C   UNL A   1      34.866  31.826  29.241  1.00  0.00     0.338 C 
ATOM     14  O   UNL A   1      34.587  32.309  30.324  1.00  0.00    -0.246 OA
BRANCH  13  15
ATOM     15  C   UNL A   1      36.164  31.206  28.930  1.00  0.00     0.060 A 
ATOM     16  C   UNL A   1      36.229  29.813  28.810  1.00  0.00     0.016 A 
ATOM     17  C   UNL A   1      37.322  31.996  28.962  1.00  0.00     0.016 A 
ATOM     18  C   UNL A   1      37.464  29.200  28.888  1.00  0.00     0.010 A 
ATOM     19  C   UNL A   1      38.544  31.388  29.074  1.00  0.00     0.010 A 
ATOM     20  C   UNL A   1      38.591  29.998  29.100  1.00  0.00    -0.014 A 
BRANCH  20  21
ATOM     21  C   UNL A   1      39.873  29.373  29.322  1.00  0.00     0.031 A 
ATOM     22  C   UNL A   1      40.208  29.157  30.752  1.00  0.00     0.074 A 
ATOM     23  C   UNL A   1      40.573  28.874  28.286  1.00  0.00     0.049 A 
ATOM     24  N   UNL A   1      41.226  29.609  31.405  1.00  0.00    -0.248 NA
ATOM     25  C   UNL A   1      39.229  28.447  31.594  1.00  0.00     0.031 C 
ATOM     26  C   UNL A   1      40.173  28.757  26.880  1.00  0.00     0.029 A 
ATOM     27  N   UNL A   1      41.781  28.256  28.310  1.00  0.00    -0.354 N 
ATOM     28  C   UNL A   1      41.114  29.097  32.696  1.00  0.00     0.074 A 
ATOM     29  C   UNL A   1      39.803  28.516  32.795  1.00  0.00     0.031 C 
ATOM     30  C   UNL A   1      41.020  27.915  26.243  1.00  0.00     0.029 A 
ATOM     31  C   UNL A   1      42.085  27.545  27.157  1.00  0.00     0.049 A 
ATOM     32  H   UNL A   1      42.391  28.308  29.080  1.00  0.00     0.167 HD
ATOM     33  C   UNL A   1      42.201  29.005  33.510  1.00  0.00     0.037 A 
ATOM     34  C   UNL A   1      43.092  26.643  27.041  1.00  0.00     0.037 A 
ATOM     35  C   UNL A   1      43.248  29.893  33.073  1.00  0.00     0.049 A 
ATOM     36  C   UNL A   1      44.058  26.924  28.143  1.00  0.00     0.074 A 
ATOM     37  C   UNL A   1      43.334  31.264  32.910  1.00  0.00     0.029 A 
ATOM     38  N   UNL A   1      44.292  29.371  32.347  1.00  0.00    -0.354 N 
ATOM     39  N   UNL A   1      44.763  28.022  28.215  1.00  0.00    -0.248 NA
ATOM     40  C   UNL A   1      43.846  26.234  29.409  1.00  0.00     0.031 C 
ATOM     41  C   UNL A   1      44.063  31.439  31.697  1.00  0.00     0.029 A 
ATOM     42  C   UNL A   1      44.447  30.176  31.246  1.00  0.00     0.049 A 
ATOM     43  H   UNL A   1      44.824  28.575  32.573  1.00  0.00     0.167 HD
ATOM     44  C   UNL A   1      44.733  28.380  29.556  1.00  0.00     0.074 A 
ATOM     45  C   UNL A   1      44.192  27.212  30.251  1.00  0.00     0.031 C 
ATOM     46  C   UNL A   1      44.858  29.681  29.954  1.00  0.00     0.037 A 
BRANCH  33  47
ATOM     47  C   UNL A   1      42.450  27.866  34.466  1.00  0.00     0.064 A 
ATOM     48  C   UNL A   1      43.061  26.691  33.982  1.00  0.00     0.173 A 
ATOM     49  C   UNL A   1      41.843  27.755  35.736  1.00  0.00     0.173 A 
ATOM     50  F   UNL A   1      43.666  26.679  32.785  1.00  0.00    -0.203 F 
ATOM     51  C   UNL A   1      42.976  25.478  34.668  1.00  0.00     0.198 A 
ATOM     52  C   UNL A   1      41.805  26.554  36.442  1.00  0.00     0.198 A 
ATOM     53  F   UNL A   1      41.167  28.764  36.297  1.00  0.00    -0.203 F 
ATOM     54  F   UNL A   1      43.453  24.361  34.104  1.00  0.00    -0.200 F 
ATOM     55  C   UNL A   1      42.337  25.408  35.893  1.00  0.00     0.200 A 
ATOM     56  F   UNL A   1      41.170  26.504  37.621  1.00  0.00    -0.200 F 
ATOM     57  F   UNL A   1      42.192  24.234  36.520  1.00  0.00    -0.200 F 
ENDBRANCH  33  47
BRANCH  34  58
ATOM     58  C   UNL A   1      43.035  25.346  26.322  1.00  0.00     0.064 A 
ATOM     59  C   UNL A   1      43.951  25.029  25.307  1.00  0.00     0.173 A 
ATOM     60  C   UNL A   1      42.234  24.284  26.791  1.00  0.00     0.173 A 
ATOM     61  F   UNL A   1      44.791  25.966  24.843  1.00  0.00    -0.203 F 
ATOM     62  C   UNL A   1      44.060  23.729  24.796  1.00  0.00     0.198 A 
ATOM     63  C   UNL A   1      42.338  22.991  26.278  1.00  0.00     0.198 A 
ATOM     64  F   UNL A   1      41.395  24.458  27.824  1.00  0.00    -0.203 F 
ATOM     65  F   UNL A   1      44.980  23.451  23.862  1.00  0.00    -0.200 F 
ATOM     66  C   UNL A   1      43.257  22.711  25.286  1.00  0.00     0.200 A 
ATOM     67  F   UNL A   1      41.582  22.010  26.791  1.00  0.00    -0.200 F 
ATOM     68  F   UNL A   1      43.396  21.456  24.835  1.00  0.00    -0.200 F 
ENDBRANCH  34  58
BRANCH  46  69
ATOM     69  C   UNL A   1      45.214  30.714  28.920  1.00  0.00     0.064 A 
ATOM     70  C   UNL A   1      44.279  31.321  28.064  1.00  0.00     0.173 A 
ATOM     71  C   UNL A   1      46.512  31.240  28.922  1.00  0.00     0.173 A 
ATOM     72  F   UNL A   1      42.991  30.956  28.081  1.00  0.00    -0.203 F 
ATOM     73  C   UNL A   1      44.636  32.373  27.222  1.00  0.00     0.198 A 
ATOM     74  C   UNL A   1      46.860  32.315  28.108  1.00  0.00     0.198 A 
ATOM     75  F   UNL A   1      47.434  30.748  29.764  1.00  0.00    -0.203 F 
ATOM     76  F   UNL A   1      43.721  32.931  26.414  1.00  0.00    -0.200 F 
ATOM     77  C   UNL A   1      45.926  32.874  27.251  1.00  0.00     0.200 A 
ATOM     78  F   UNL A   1      48.094  32.832  28.181  1.00  0.00    -0.200 F 
ATOM     79  F   UNL A   1      46.262  33.917  26.477  1.00  0.00    -0.200 F 
ENDBRANCH  46  69
ENDBRANCH  20  21
ENDBRANCH  13  15
ENDBRANCH  12  13
ENDBRANCH  11  12
ENDBRANCH  10  11
ENDBRANCH   9  10
ENDBRANCH   7   9
ENDBRANCH   6   7
BRANCH   5  80
ATOM     80  N   UNL A   1      30.155  26.042  25.196  1.00  0.00    -0.305 N 
ATOM     81  C   UNL A   1      29.410  25.212  26.151  1.00  0.00     0.154 C 
BRANCH  80  82
ATOM     82  C   UNL A   1      29.599  26.353  23.950  1.00  0.00     0.230 C 
ATOM     83  O   UNL A   1      29.177  25.500  23.165  1.00  0.00    -0.274 OA
BRANCH  82  84
ATOM     84  C   UNL A   1      29.431  27.812  23.475  1.00  0.00     0.076 C 
ATOM     85  C   UNL A   1      30.406  28.264  22.387  1.00  0.00     0.018 C 
BRANCH  84  86
ATOM     86  C   UNL A   1      27.970  28.216  23.216  1.00  0.00     0.013 C 
BRANCH  86  87
ATOM     87  C   UNL A   1      27.785  29.591  22.546  1.00  0.00     0.007 C 
BRANCH  87  88
ATOM     88  C   UNL A   1      27.494  30.792  23.459  1.00  0.00     0.064 C 
BRANCH  88  89
ATOM     89  C   UNL A   1      28.603  31.842  23.666  1.00  0.00     0.177 C 
ATOM     90  C   UNL A   1      28.887  32.641  22.396  1.00  0.00     0.075 C 
BRANCH  89  91
ATOM     91  N   UNL A   1      29.861  31.315  24.190  1.00  0.00    -0.355 N 
ATOM     92  H   UNL A   1      30.477  31.071  23.415  1.00  0.00     0.344 HD
ATOM     93  H   UNL A   1      29.674  30.484  24.750  1.00  0.00     0.344 HD
ATOM     94  H   UNL A   1      30.310  32.022  24.772  1.00  0.00     0.344 HD
ENDBRANCH  89  91
ENDBRANCH  88  89
ENDBRANCH  87  88
ENDBRANCH  86  87
ENDBRANCH  84  86
ENDBRANCH  82  84
ENDBRANCH  80  82
ENDBRANCH   5  80
TORSDOF 19
ENDMDL
