MODEL 1
REMARK VINA RESULT:     -11.3      0.000      0.000
REMARK SMILES O=C(OCCOC(=O)c1ccc(C[NH2+]C[C@H]2C[C@H](O)C2)nc1)c1ccc(-c2c3nc(c(-c4c(F)c(F)c(F)c(F)c4F)c4ccc([nH]4)c(-c4c(F)c(F)c(F)c(F)c4F)c4nc(c(-c5c(F)c(F)c(F)c(F)c5F)c5ccc2[nH]5)C=C4)C=C3)cc1
REMARK SMILES IDX 6 1 5 2 4 3 3 4 2 5 1 6 23 7 24 8 85 9 25 10 84 11 26 12
REMARK SMILES IDX 27 13 28 14 78 15 29 16 83 17 77 18 79 19 30 20 82 21 76 22
REMARK SMILES IDX 75 23 31 25 63 26 43 27 62 28 44 29 47 30 61 31 80 32 45 33
REMARK SMILES IDX 46 34 60 36 81 37 48 38 32 39 33 40 41 41 34 42 35 43 39 44
REMARK SMILES IDX 42 45 36 46 37 47 40 48 38 49 64 50 65 51 73 52 66 53 67 54
REMARK SMILES IDX 71 55 74 56 68 57 69 58 72 59 70 60 49 61 50 62 58 63 51 64
REMARK SMILES IDX 52 65 56 66 59 67 53 68 54 69 57 70 55 71 7 72 8 73 9 74
REMARK SMILES IDX 10 75 22 76 11 77 21 78 12 79 13 80 14 81 15 84 16 85 20 86
REMARK SMILES IDX 17 87 18 88 19 89
REMARK H PARENT 79 24 47 35 14 82 14 83 19 90
REMARK Flexibility Score: inf
ROOT
ATOM      1  O   UNL A   1      33.205  30.508  26.732  1.00  0.00    -0.458 OA
ENDROOT
BRANCH   1   2
ATOM      2  C   UNL A   1      33.485  31.724  27.442  1.00  0.00     0.275 C 
BRANCH   2   3
ATOM      3  C   UNL A   1      32.249  32.606  27.625  1.00  0.00     0.275 C 
BRANCH   3   4
ATOM      4  O   UNL A   1      32.531  34.016  27.644  1.00  0.00    -0.458 OA
BRANCH   4   5
ATOM      5  C   UNL A   1      33.099  34.749  28.630  1.00  0.00     0.338 C 
ATOM      6  O   UNL A   1      32.696  35.891  28.843  1.00  0.00    -0.246 OA
BRANCH   5   7
ATOM      7  C   UNL A   1      34.329  34.309  29.352  1.00  0.00     0.060 A 
ATOM      8  C   UNL A   1      35.633  34.372  28.858  1.00  0.00     0.016 A 
ATOM      9  C   UNL A   1      34.126  33.717  30.612  1.00  0.00     0.016 A 
ATOM     10  C   UNL A   1      36.715  33.910  29.619  1.00  0.00     0.010 A 
ATOM     11  C   UNL A   1      35.200  33.254  31.377  1.00  0.00     0.010 A 
ATOM     12  C   UNL A   1      36.504  33.340  30.876  1.00  0.00    -0.014 A 
BRANCH  12  13
ATOM     13  C   UNL A   1      37.619  32.681  31.591  1.00  0.00     0.031 A 
ATOM     14  C   UNL A   1      38.242  31.465  30.975  1.00  0.00     0.074 A 
ATOM     15  C   UNL A   1      38.075  33.162  32.760  1.00  0.00     0.049 A 
ATOM     16  N   UNL A   1      39.243  30.742  31.403  1.00  0.00    -0.248 NA
ATOM     17  C   UNL A   1      37.677  31.019  29.692  1.00  0.00     0.031 C 
ATOM     18  C   UNL A   1      37.594  34.373  33.417  1.00  0.00     0.029 A 
ATOM     19  N   UNL A   1      39.033  32.679  33.613  1.00  0.00    -0.354 N 
ATOM     20  C   UNL A   1      39.455  29.786  30.421  1.00  0.00     0.074 A 
ATOM     21  C   UNL A   1      38.435  29.971  29.413  1.00  0.00     0.031 C 
ATOM     22  C   UNL A   1      38.200  34.498  34.609  1.00  0.00     0.029 A 
ATOM     23  C   UNL A   1      39.130  33.386  34.786  1.00  0.00     0.049 A 
ATOM     24  H   UNL A   1      39.596  31.898  33.406  1.00  0.00     0.167 HD
ATOM     25  C   UNL A   1      40.439  28.860  30.349  1.00  0.00     0.037 A 
ATOM     26  C   UNL A   1      39.882  33.154  35.879  1.00  0.00     0.037 A 
ATOM     27  C   UNL A   1      41.424  28.654  31.375  1.00  0.00     0.049 A 
ATOM     28  C   UNL A   1      40.882  32.031  35.843  1.00  0.00     0.074 A 
ATOM     29  C   UNL A   1      42.463  27.743  31.411  1.00  0.00     0.029 A 
ATOM     30  N   UNL A   1      41.471  29.367  32.566  1.00  0.00    -0.354 N 
ATOM     31  N   UNL A   1      41.124  31.176  34.879  1.00  0.00    -0.248 NA
ATOM     32  C   UNL A   1      41.738  31.863  37.024  1.00  0.00     0.031 C 
ATOM     33  C   UNL A   1      43.113  27.876  32.643  1.00  0.00     0.029 A 
ATOM     34  C   UNL A   1      42.506  28.899  33.357  1.00  0.00     0.049 A 
ATOM     35  H   UNL A   1      40.860  30.098  32.810  1.00  0.00     0.167 HD
ATOM     36  C   UNL A   1      42.194  30.404  35.311  1.00  0.00     0.074 A 
ATOM     37  C   UNL A   1      42.543  30.883  36.635  1.00  0.00     0.031 C 
ATOM     38  C   UNL A   1      42.842  29.405  34.664  1.00  0.00     0.037 A 
BRANCH  25  39
ATOM     39  C   UNL A   1      40.470  28.009  29.116  1.00  0.00     0.064 A 
ATOM     40  C   UNL A   1      41.207  28.397  27.985  1.00  0.00     0.173 A 
ATOM     41  C   UNL A   1      39.726  26.824  29.043  1.00  0.00     0.173 A 
ATOM     42  F   UNL A   1      41.918  29.535  27.999  1.00  0.00    -0.203 F 
ATOM     43  C   UNL A   1      41.166  27.647  26.813  1.00  0.00     0.198 A 
ATOM     44  C   UNL A   1      39.707  26.064  27.876  1.00  0.00     0.198 A 
ATOM     45  F   UNL A   1      39.004  26.414  30.095  1.00  0.00    -0.203 F 
ATOM     46  F   UNL A   1      41.827  28.069  25.725  1.00  0.00    -0.200 F 
ATOM     47  C   UNL A   1      40.417  26.482  26.760  1.00  0.00     0.200 A 
ATOM     48  F   UNL A   1      38.985  24.936  27.825  1.00  0.00    -0.200 F 
ATOM     49  F   UNL A   1      40.366  25.768  25.626  1.00  0.00    -0.200 F 
ENDBRANCH  25  39
BRANCH  26  50
ATOM     50  C   UNL A   1      39.735  34.021  37.075  1.00  0.00     0.064 A 
ATOM     51  C   UNL A   1      40.406  35.248  37.172  1.00  0.00     0.173 A 
ATOM     52  C   UNL A   1      38.908  33.642  38.143  1.00  0.00     0.173 A 
ATOM     53  F   UNL A   1      41.216  35.646  36.181  1.00  0.00    -0.203 F 
ATOM     54  C   UNL A   1      40.268  36.057  38.299  1.00  0.00     0.198 A 
ATOM     55  C   UNL A   1      38.754  34.462  39.259  1.00  0.00     0.198 A 
ATOM     56  F   UNL A   1      38.239  32.479  38.098  1.00  0.00    -0.203 F 
ATOM     57  F   UNL A   1      40.943  37.211  38.379  1.00  0.00    -0.200 F 
ATOM     58  C   UNL A   1      39.438  35.666  39.340  1.00  0.00     0.200 A 
ATOM     59  F   UNL A   1      37.935  34.090  40.251  1.00  0.00    -0.200 F 
ATOM     60  F   UNL A   1      39.298  36.449  40.418  1.00  0.00    -0.200 F 
ENDBRANCH  26  50
BRANCH  38  61
ATOM     61  C   UNL A   1      44.027  28.797  35.352  1.00  0.00     0.064 A 
ATOM     62  C   UNL A   1      45.314  29.332  35.213  1.00  0.00     0.173 A 
ATOM     63  C   UNL A   1      43.855  27.699  36.209  1.00  0.00     0.173 A 
ATOM     64  F   UNL A   1      45.527  30.370  34.391  1.00  0.00    -0.203 F 
ATOM     65  C   UNL A   1      46.392  28.780  35.897  1.00  0.00     0.198 A 
ATOM     66  C   UNL A   1      44.931  27.166  36.911  1.00  0.00     0.198 A 
ATOM     67  F   UNL A   1      42.640  27.155  36.376  1.00  0.00    -0.203 F 
ATOM     68  F   UNL A   1      47.623  29.284  35.724  1.00  0.00    -0.200 F 
ATOM     69  C   UNL A   1      46.199  27.704  36.752  1.00  0.00     0.200 A 
ATOM     70  F   UNL A   1      44.740  26.134  37.744  1.00  0.00    -0.200 F 
ATOM     71  F   UNL A   1      47.237  27.182  37.419  1.00  0.00    -0.200 F 
ENDBRANCH  38  61
ENDBRANCH  12  13
ENDBRANCH   5   7
ENDBRANCH   4   5
ENDBRANCH   3   4
ENDBRANCH   2   3
ENDBRANCH   1   2
BRANCH   1  72
ATOM     72  C   UNL A   1      33.874  29.417  27.190  1.00  0.00     0.339 C 
ATOM     73  O   UNL A   1      34.884  29.405  27.872  1.00  0.00    -0.246 OA
BRANCH  72  74
ATOM     74  C   UNL A   1      33.110  28.211  26.856  1.00  0.00     0.078 A 
ATOM     75  C   UNL A   1      33.593  27.220  26.006  1.00  0.00     0.019 A 
ATOM     76  C   UNL A   1      31.832  28.079  27.370  1.00  0.00     0.127 A 
ATOM     77  C   UNL A   1      32.754  26.157  25.669  1.00  0.00     0.031 A 
ATOM     78  N   UNL A   1      30.986  27.083  27.015  1.00  0.00    -0.254 NA
ATOM     79  C   UNL A   1      31.445  26.140  26.152  1.00  0.00     0.094 A 
BRANCH  79  80
ATOM     80  C   UNL A   1      30.469  25.075  25.672  1.00  0.00     0.317 C 
BRANCH  80  81
ATOM     81  N   UNL A   1      30.033  25.308  24.299  1.00  0.00    -0.341 N 
ATOM     82  H   UNL A   1      29.537  24.478  23.975  1.00  0.00     0.346 HD
ATOM     83  H   UNL A   1      30.874  25.506  23.755  1.00  0.00     0.346 HD
BRANCH  81  84
ATOM     84  C   UNL A   1      29.151  26.458  24.137  1.00  0.00     0.264 C 
BRANCH  84  85
ATOM     85  C   UNL A   1      29.675  27.463  23.119  1.00  0.00     0.049 C 
ATOM     86  C   UNL A   1      30.700  28.495  23.659  1.00  0.00     0.041 C 
ATOM     87  C   UNL A   1      28.770  28.668  22.748  1.00  0.00     0.041 C 
ATOM     88  C   UNL A   1      30.031  29.556  22.758  1.00  0.00     0.115 C 
BRANCH  88  89
ATOM     89  O   UNL A   1      30.655  29.801  21.483  1.00  0.00    -0.393 OA
ATOM     90  H   UNL A   1      30.067  29.499  20.772  1.00  0.00     0.210 HD
ENDBRANCH  88  89
ENDBRANCH  84  85
ENDBRANCH  81  84
ENDBRANCH  80  81
ENDBRANCH  79  80
ENDBRANCH  72  74
ENDBRANCH   1  72
TORSDOF 16
ENDMDL
MODEL 2
REMARK VINA RESULT:     -11.2      0.788      7.609
REMARK SMILES O=C(OCCOC(=O)c1ccc(C[NH2+]C[C@H]2C[C@H](O)C2)nc1)c1ccc(-c2c3nc(c(-c4c(F)c(F)c(F)c(F)c4F)c4ccc([nH]4)c(-c4c(F)c(F)c(F)c(F)c4F)c4nc(c(-c5c(F)c(F)c(F)c(F)c5F)c5ccc2[nH]5)C=C4)C=C3)cc1
REMARK SMILES IDX 6 1 5 2 4 3 3 4 2 5 1 6 23 7 24 8 85 9 25 10 84 11 26 12
REMARK SMILES IDX 27 13 28 14 78 15 29 16 83 17 77 18 79 19 30 20 82 21 76 22
REMARK SMILES IDX 75 23 31 25 63 26 43 27 62 28 44 29 47 30 61 31 80 32 45 33
REMARK SMILES IDX 46 34 60 36 81 37 48 38 32 39 33 40 41 41 34 42 35 43 39 44
REMARK SMILES IDX 42 45 36 46 37 47 40 48 38 49 64 50 65 51 73 52 66 53 67 54
REMARK SMILES IDX 71 55 74 56 68 57 69 58 72 59 70 60 49 61 50 62 58 63 51 64
REMARK SMILES IDX 52 65 56 66 59 67 53 68 54 69 57 70 55 71 7 72 8 73 9 74
REMARK SMILES IDX 10 75 22 76 11 77 21 78 12 79 13 80 14 81 15 84 16 85 20 86
REMARK SMILES IDX 17 87 18 88 19 89
REMARK H PARENT 79 24 47 35 14 82 14 83 19 90
REMARK Flexibility Score: inf
ROOT
ATOM      1  O   UNL A   1      33.011  30.570  26.605  1.00  0.00    -0.458 OA
ENDROOT
BRANCH   1   2
ATOM      2  C   UNL A   1      33.296  31.809  27.271  1.00  0.00     0.275 C 
BRANCH   2   3
ATOM      3  C   UNL A   1      32.083  32.738  27.349  1.00  0.00     0.275 C 
BRANCH   3   4
ATOM      4  O   UNL A   1      32.415  34.122  27.552  1.00  0.00    -0.458 OA
BRANCH   4   5
ATOM      5  C   UNL A   1      33.004  34.699  28.626  1.00  0.00     0.338 C 
ATOM      6  O   UNL A   1      32.608  35.796  29.015  1.00  0.00    -0.246 OA
BRANCH   5   7
ATOM      7  C   UNL A   1      34.246  34.156  29.250  1.00  0.00     0.060 A 
ATOM      8  C   UNL A   1      35.546  34.333  28.771  1.00  0.00     0.016 A 
ATOM      9  C   UNL A   1      34.063  33.337  30.379  1.00  0.00     0.016 A 
ATOM     10  C   UNL A   1      36.640  33.757  29.429  1.00  0.00     0.010 A 
ATOM     11  C   UNL A   1      35.150  32.761  31.042  1.00  0.00     0.010 A 
ATOM     12  C   UNL A   1      36.448  32.962  30.561  1.00  0.00    -0.014 A 
BRANCH  12  13
ATOM     13  C   UNL A   1      37.579  32.202  31.138  1.00  0.00     0.031 A 
ATOM     14  C   UNL A   1      38.104  32.614  32.481  1.00  0.00     0.074 A 
ATOM     15  C   UNL A   1      38.120  31.160  30.486  1.00  0.00     0.049 A 
ATOM     16  N   UNL A   1      39.064  32.083  33.191  1.00  0.00    -0.248 NA
ATOM     17  C   UNL A   1      37.442  33.763  33.118  1.00  0.00     0.031 C 
ATOM     18  C   UNL A   1      37.649  30.628  29.211  1.00  0.00     0.029 A 
ATOM     19  N   UNL A   1      39.199  30.373  30.795  1.00  0.00    -0.354 N 
ATOM     20  C   UNL A   1      39.090  32.803  34.376  1.00  0.00     0.074 A 
ATOM     21  C   UNL A   1      38.103  33.855  34.261  1.00  0.00     0.031 C 
ATOM     22  C   UNL A   1      38.480  29.655  28.804  1.00  0.00     0.029 A 
ATOM     23  C   UNL A   1      39.529  29.480  29.805  1.00  0.00     0.049 A 
ATOM     24  H   UNL A   1      39.692  30.443  31.645  1.00  0.00     0.167 HD
ATOM     25  C   UNL A   1      39.843  32.581  35.477  1.00  0.00     0.037 A 
ATOM     26  C   UNL A   1      40.565  28.624  29.720  1.00  0.00     0.037 A 
ATOM     27  C   UNL A   1      40.850  31.561  35.569  1.00  0.00     0.049 A 
ATOM     28  C   UNL A   1      41.485  28.483  30.902  1.00  0.00     0.074 A 
ATOM     29  C   UNL A   1      41.676  31.249  36.632  1.00  0.00     0.029 A 
ATOM     30  N   UNL A   1      41.181  30.696  34.534  1.00  0.00    -0.354 N 
ATOM     31  N   UNL A   1      41.456  29.120  32.047  1.00  0.00    -0.248 NA
ATOM     32  C   UNL A   1      42.553  27.480  30.798  1.00  0.00     0.031 C 
ATOM     33  C   UNL A   1      42.536  30.223  36.226  1.00  0.00     0.029 A 
ATOM     34  C   UNL A   1      42.218  29.866  34.924  1.00  0.00     0.049 A 
ATOM     35  H   UNL A   1      40.741  30.674  33.654  1.00  0.00     0.167 HD
ATOM     36  C   UNL A   1      42.464  28.561  32.822  1.00  0.00     0.074 A 
ATOM     37  C   UNL A   1      43.097  27.543  32.006  1.00  0.00     0.031 C 
ATOM     38  C   UNL A   1      42.819  28.850  34.097  1.00  0.00     0.037 A 
BRANCH  25  39
ATOM     39  C   UNL A   1      39.593  33.477  36.652  1.00  0.00     0.064 A 
ATOM     40  C   UNL A   1      40.223  34.727  36.759  1.00  0.00     0.173 A 
ATOM     41  C   UNL A   1      38.756  33.069  37.699  1.00  0.00     0.173 A 
ATOM     42  F   UNL A   1      41.051  35.152  35.792  1.00  0.00    -0.203 F 
ATOM     43  C   UNL A   1      40.054  35.519  37.892  1.00  0.00     0.198 A 
ATOM     44  C   UNL A   1      38.570  33.876  38.820  1.00  0.00     0.198 A 
ATOM     45  F   UNL A   1      38.134  31.883  37.646  1.00  0.00    -0.203 F 
ATOM     46  F   UNL A   1      40.715  36.680  38.001  1.00  0.00    -0.200 F 
ATOM     47  C   UNL A   1      39.228  35.093  38.920  1.00  0.00     0.200 A 
ATOM     48  F   UNL A   1      37.770  33.465  39.813  1.00  0.00    -0.200 F 
ATOM     49  F   UNL A   1      39.077  35.850  40.016  1.00  0.00    -0.200 F 
ENDBRANCH  25  39
BRANCH  26  50
ATOM     50  C   UNL A   1      40.761  27.821  28.487  1.00  0.00     0.064 A 
ATOM     51  C   UNL A   1      40.143  26.574  28.325  1.00  0.00     0.173 A 
ATOM     52  C   UNL A   1      41.564  28.295  27.438  1.00  0.00     0.173 A 
ATOM     53  F   UNL A   1      39.377  26.075  29.305  1.00  0.00    -0.203 F 
ATOM     54  C   UNL A   1      40.333  25.821  27.166  1.00  0.00     0.198 A 
ATOM     55  C   UNL A   1      41.735  27.551  26.271  1.00  0.00     0.198 A 
ATOM     56  F   UNL A   1      42.174  29.487  27.541  1.00  0.00    -0.203 F 
ATOM     57  F   UNL A   1      39.755  24.619  27.049  1.00  0.00    -0.200 F 
ATOM     58  C   UNL A   1      41.125  26.313  26.138  1.00  0.00     0.200 A 
ATOM     59  F   UNL A   1      42.482  28.041  25.274  1.00  0.00    -0.200 F 
ATOM     60  F   UNL A   1      41.298  25.594  25.021  1.00  0.00    -0.200 F 
ENDBRANCH  26  50
BRANCH  38  61
ATOM     61  C   UNL A   1      43.906  28.020  34.711  1.00  0.00     0.064 A 
ATOM     62  C   UNL A   1      43.634  26.798  35.339  1.00  0.00     0.173 A 
ATOM     63  C   UNL A   1      45.244  28.431  34.614  1.00  0.00     0.173 A 
ATOM     64  F   UNL A   1      42.369  26.374  35.471  1.00  0.00    -0.203 F 
ATOM     65  C   UNL A   1      44.664  26.021  35.862  1.00  0.00     0.198 A 
ATOM     66  C   UNL A   1      46.273  27.640  35.115  1.00  0.00     0.198 A 
ATOM     67  F   UNL A   1      45.553  29.593  34.018  1.00  0.00    -0.203 F 
ATOM     68  F   UNL A   1      44.381  24.871  36.490  1.00  0.00    -0.200 F 
ATOM     69  C   UNL A   1      45.982  26.437  35.741  1.00  0.00     0.200 A 
ATOM     70  F   UNL A   1      47.546  28.040  34.988  1.00  0.00    -0.200 F 
ATOM     71  F   UNL A   1      46.972  25.682  36.235  1.00  0.00    -0.200 F 
ENDBRANCH  38  61
ENDBRANCH  12  13
ENDBRANCH   5   7
ENDBRANCH   4   5
ENDBRANCH   3   4
ENDBRANCH   2   3
ENDBRANCH   1   2
BRANCH   1  72
ATOM     72  C   UNL A   1      33.747  29.512  27.037  1.00  0.00     0.339 C 
ATOM     73  O   UNL A   1      34.754  29.546  27.722  1.00  0.00    -0.246 OA
BRANCH  72  74
ATOM     74  C   UNL A   1      33.063  28.269  26.667  1.00  0.00     0.078 A 
ATOM     75  C   UNL A   1      33.610  27.335  25.792  1.00  0.00     0.019 A 
ATOM     76  C   UNL A   1      31.794  28.041  27.171  1.00  0.00     0.127 A 
ATOM     77  C   UNL A   1      32.842  26.230  25.423  1.00  0.00     0.031 A 
ATOM     78  N   UNL A   1      31.014  27.003  26.785  1.00  0.00    -0.254 NA
ATOM     79  C   UNL A   1      31.535  26.116  25.899  1.00  0.00     0.094 A 
BRANCH  79  80
ATOM     80  C   UNL A   1      30.631  25.004  25.386  1.00  0.00     0.317 C 
BRANCH  80  81
ATOM     81  N   UNL A   1      30.050  25.325  24.086  1.00  0.00    -0.341 N 
ATOM     82  H   UNL A   1      29.572  24.494  23.736  1.00  0.00     0.346 HD
ATOM     83  H   UNL A   1      30.821  25.620  23.486  1.00  0.00     0.346 HD
BRANCH  81  84
ATOM     84  C   UNL A   1      29.094  26.426  24.111  1.00  0.00     0.264 C 
BRANCH  84  85
ATOM     85  C   UNL A   1      29.456  27.542  23.139  1.00  0.00     0.049 C 
ATOM     86  C   UNL A   1      30.811  27.377  22.402  1.00  0.00     0.041 C 
ATOM     87  C   UNL A   1      30.018  28.865  23.722  1.00  0.00     0.041 C 
ATOM     88  C   UNL A   1      31.018  28.901  22.547  1.00  0.00     0.115 C 
BRANCH  88  89
ATOM     89  O   UNL A   1      30.649  29.709  21.413  1.00  0.00    -0.393 OA
ATOM     90  H   UNL A   1      29.736  29.505  21.154  1.00  0.00     0.210 HD
ENDBRANCH  88  89
ENDBRANCH  84  85
ENDBRANCH  81  84
ENDBRANCH  80  81
ENDBRANCH  79  80
ENDBRANCH  72  74
ENDBRANCH   1  72
TORSDOF 16
ENDMDL
MODEL 3
REMARK VINA RESULT:     -11.1      3.756      8.989
REMARK SMILES O=C(OCCOC(=O)c1ccc(C[NH2+]C[C@H]2C[C@H](O)C2)nc1)c1ccc(-c2c3nc(c(-c4c(F)c(F)c(F)c(F)c4F)c4ccc([nH]4)c(-c4c(F)c(F)c(F)c(F)c4F)c4nc(c(-c5c(F)c(F)c(F)c(F)c5F)c5ccc2[nH]5)C=C4)C=C3)cc1
REMARK SMILES IDX 6 1 5 2 4 3 3 4 2 5 1 6 23 7 24 8 85 9 25 10 84 11 26 12
REMARK SMILES IDX 27 13 28 14 78 15 29 16 83 17 77 18 79 19 30 20 82 21 76 22
REMARK SMILES IDX 75 23 31 25 63 26 43 27 62 28 44 29 47 30 61 31 80 32 45 33
REMARK SMILES IDX 46 34 60 36 81 37 48 38 32 39 33 40 41 41 34 42 35 43 39 44
REMARK SMILES IDX 42 45 36 46 37 47 40 48 38 49 64 50 65 51 73 52 66 53 67 54
REMARK SMILES IDX 71 55 74 56 68 57 69 58 72 59 70 60 49 61 50 62 58 63 51 64
REMARK SMILES IDX 52 65 56 66 59 67 53 68 54 69 57 70 55 71 7 72 8 73 9 74
REMARK SMILES IDX 10 75 22 76 11 77 21 78 12 79 13 80 14 81 15 84 16 85 20 86
REMARK SMILES IDX 17 87 18 88 19 89
REMARK H PARENT 79 24 47 35 14 82 14 83 19 90
REMARK Flexibility Score: inf
ROOT
ATOM      1  O   UNL A   1      41.320  21.354  25.775  1.00  0.00    -0.458 OA
ENDROOT
BRANCH   1   2
ATOM      2  C   UNL A   1      42.674  21.261  26.241  1.00  0.00     0.275 C 
BRANCH   2   3
ATOM      3  C   UNL A   1      43.686  21.851  25.258  1.00  0.00     0.275 C 
BRANCH   3   4
ATOM      4  O   UNL A   1      43.297  23.120  24.706  1.00  0.00    -0.458 OA
BRANCH   4   5
ATOM      5  C   UNL A   1      43.851  24.337  24.917  1.00  0.00     0.338 C 
ATOM      6  O   UNL A   1      44.925  24.612  24.385  1.00  0.00    -0.246 OA
BRANCH   5   7
ATOM      7  C   UNL A   1      43.316  25.301  25.923  1.00  0.00     0.060 A 
ATOM      8  C   UNL A   1      43.826  26.575  26.184  1.00  0.00     0.016 A 
ATOM      9  C   UNL A   1      42.251  24.839  26.715  1.00  0.00     0.016 A 
ATOM     10  C   UNL A   1      43.255  27.390  27.170  1.00  0.00     0.010 A 
ATOM     11  C   UNL A   1      41.675  25.647  27.700  1.00  0.00     0.010 A 
ATOM     12  C   UNL A   1      42.184  26.928  27.938  1.00  0.00    -0.014 A 
BRANCH  12  13
ATOM     13  C   UNL A   1      41.710  27.710  29.101  1.00  0.00     0.031 A 
ATOM     14  C   UNL A   1      42.395  27.515  30.420  1.00  0.00     0.074 A 
ATOM     15  C   UNL A   1      40.698  28.586  28.983  1.00  0.00     0.049 A 
ATOM     16  N   UNL A   1      42.172  28.106  31.564  1.00  0.00    -0.248 NA
ATOM     17  C   UNL A   1      43.496  26.539  30.447  1.00  0.00     0.031 C 
ATOM     18  C   UNL A   1      40.004  28.908  27.740  1.00  0.00     0.029 A 
ATOM     19  N   UNL A   1      40.061  29.350  29.927  1.00  0.00    -0.354 N 
ATOM     20  C   UNL A   1      43.132  27.609  32.432  1.00  0.00     0.074 A 
ATOM     21  C   UNL A   1      43.892  26.614  31.708  1.00  0.00     0.031 C 
ATOM     22  C   UNL A   1      38.986  29.743  28.007  1.00  0.00     0.029 A 
ATOM     23  C   UNL A   1      38.973  30.031  29.439  1.00  0.00     0.049 A 
ATOM     24  H   UNL A   1      40.355  29.404  30.865  1.00  0.00     0.167 HD
ATOM     25  C   UNL A   1      43.382  27.979  33.709  1.00  0.00     0.037 A 
ATOM     26  C   UNL A   1      38.070  30.796  30.080  1.00  0.00     0.037 A 
ATOM     27  C   UNL A   1      42.597  28.938  34.435  1.00  0.00     0.049 A 
ATOM     28  C   UNL A   1      38.280  31.092  31.540  1.00  0.00     0.074 A 
ATOM     29  C   UNL A   1      42.755  29.385  35.733  1.00  0.00     0.029 A 
ATOM     30  N   UNL A   1      41.481  29.584  33.920  1.00  0.00    -0.354 N 
ATOM     31  N   UNL A   1      39.234  30.672  32.336  1.00  0.00    -0.248 NA
ATOM     32  C   UNL A   1      37.316  31.995  32.182  1.00  0.00     0.031 C 
ATOM     33  C   UNL A   1      41.709  30.270  36.017  1.00  0.00     0.029 A 
ATOM     34  C   UNL A   1      40.924  30.407  34.882  1.00  0.00     0.049 A 
ATOM     35  H   UNL A   1      41.138  29.474  33.004  1.00  0.00     0.167 HD
ATOM     36  C   UNL A   1      39.019  31.300  33.555  1.00  0.00     0.074 A 
ATOM     37  C   UNL A   1      37.832  32.117  33.398  1.00  0.00     0.031 C 
ATOM     38  C   UNL A   1      39.750  31.223  34.694  1.00  0.00     0.037 A 
BRANCH  25  39
ATOM     39  C   UNL A   1      44.550  27.323  34.380  1.00  0.00     0.064 A 
ATOM     40  C   UNL A   1      44.398  26.126  35.098  1.00  0.00     0.173 A 
ATOM     41  C   UNL A   1      45.821  27.914  34.347  1.00  0.00     0.173 A 
ATOM     42  F   UNL A   1      43.196  25.535  35.177  1.00  0.00    -0.203 F 
ATOM     43  C   UNL A   1      45.467  25.565  35.791  1.00  0.00     0.198 A 
ATOM     44  C   UNL A   1      46.894  27.336  35.021  1.00  0.00     0.198 A 
ATOM     45  F   UNL A   1      46.017  29.059  33.678  1.00  0.00    -0.203 F 
ATOM     46  F   UNL A   1      45.283  24.456  36.521  1.00  0.00    -0.200 F 
ATOM     47  C   UNL A   1      46.714  26.171  35.751  1.00  0.00     0.200 A 
ATOM     48  F   UNL A   1      48.100  27.920  34.982  1.00  0.00    -0.200 F 
ATOM     49  F   UNL A   1      47.739  25.638  36.430  1.00  0.00    -0.200 F 
ENDBRANCH  25  39
BRANCH  26  50
ATOM     50  C   UNL A   1      36.912  31.354  29.337  1.00  0.00     0.064 A 
ATOM     51  C   UNL A   1      36.857  32.709  28.985  1.00  0.00     0.173 A 
ATOM     52  C   UNL A   1      35.840  30.534  28.952  1.00  0.00     0.173 A 
ATOM     53  F   UNL A   1      37.852  33.533  29.342  1.00  0.00    -0.203 F 
ATOM     54  C   UNL A   1      35.765  33.229  28.291  1.00  0.00     0.198 A 
ATOM     55  C   UNL A   1      34.760  31.050  28.238  1.00  0.00     0.198 A 
ATOM     56  F   UNL A   1      35.847  29.226  29.259  1.00  0.00    -0.203 F 
ATOM     57  F   UNL A   1      35.723  34.534  27.993  1.00  0.00    -0.200 F 
ATOM     58  C   UNL A   1      34.720  32.397  27.913  1.00  0.00     0.200 A 
ATOM     59  F   UNL A   1      33.765  30.239  27.857  1.00  0.00    -0.200 F 
ATOM     60  F   UNL A   1      33.676  32.896  27.236  1.00  0.00    -0.200 F 
ENDBRANCH  26  50
BRANCH  38  61
ATOM     61  C   UNL A   1      39.321  32.083  35.844  1.00  0.00     0.064 A 
ATOM     62  C   UNL A   1      39.788  33.395  35.997  1.00  0.00     0.173 A 
ATOM     63  C   UNL A   1      38.381  31.603  36.769  1.00  0.00     0.173 A 
ATOM     64  F   UNL A   1      40.700  33.890  35.147  1.00  0.00    -0.203 F 
ATOM     65  C   UNL A   1      39.341  34.192  37.046  1.00  0.00     0.198 A 
ATOM     66  C   UNL A   1      37.917  32.411  37.802  1.00  0.00     0.198 A 
ATOM     67  F   UNL A   1      37.903  30.354  36.660  1.00  0.00    -0.203 F 
ATOM     68  F   UNL A   1      39.826  35.433  37.197  1.00  0.00    -0.200 F 
ATOM     69  C   UNL A   1      38.400  33.704  37.941  1.00  0.00     0.200 A 
ATOM     70  F   UNL A   1      37.001  31.941  38.658  1.00  0.00    -0.200 F 
ATOM     71  F   UNL A   1      37.961  34.478  38.944  1.00  0.00    -0.200 F 
ENDBRANCH  38  61
ENDBRANCH  12  13
ENDBRANCH   5   7
ENDBRANCH   4   5
ENDBRANCH   3   4
ENDBRANCH   2   3
ENDBRANCH   1   2
BRANCH   1  72
ATOM     72  C   UNL A   1      40.384  21.426  26.759  1.00  0.00     0.339 C 
ATOM     73  O   UNL A   1      40.536  21.162  27.939  1.00  0.00    -0.246 OA
BRANCH  72  74
ATOM     74  C   UNL A   1      39.158  22.015  26.214  1.00  0.00     0.078 A 
ATOM     75  C   UNL A   1      38.799  23.344  26.420  1.00  0.00     0.019 A 
ATOM     76  C   UNL A   1      38.294  21.197  25.506  1.00  0.00     0.127 A 
ATOM     77  C   UNL A   1      37.565  23.788  25.945  1.00  0.00     0.031 A 
ATOM     78  N   UNL A   1      37.070  21.596  25.082  1.00  0.00    -0.254 NA
ATOM     79  C   UNL A   1      36.706  22.882  25.321  1.00  0.00     0.094 A 
BRANCH  79  80
ATOM     80  C   UNL A   1      35.296  23.308  24.937  1.00  0.00     0.317 C 
BRANCH  80  81
ATOM     81  N   UNL A   1      35.181  24.756  24.791  1.00  0.00    -0.341 N 
ATOM     82  H   UNL A   1      35.346  24.993  23.812  1.00  0.00     0.346 HD
ATOM     83  H   UNL A   1      35.871  25.169  25.419  1.00  0.00     0.346 HD
BRANCH  81  84
ATOM     84  C   UNL A   1      33.884  25.297  25.180  1.00  0.00     0.264 C 
BRANCH  84  85
ATOM     85  C   UNL A   1      33.711  26.757  24.780  1.00  0.00     0.049 C 
ATOM     86  C   UNL A   1      33.753  27.781  25.944  1.00  0.00     0.041 C 
ATOM     87  C   UNL A   1      32.278  27.268  24.479  1.00  0.00     0.041 C 
ATOM     88  C   UNL A   1      32.639  28.571  25.222  1.00  0.00     0.115 C 
BRANCH  88  89
ATOM     89  O   UNL A   1      33.065  29.680  24.406  1.00  0.00    -0.393 OA
ATOM     90  H   UNL A   1      32.959  30.507  24.904  1.00  0.00     0.210 HD
ENDBRANCH  88  89
ENDBRANCH  84  85
ENDBRANCH  81  84
ENDBRANCH  80  81
ENDBRANCH  79  80
ENDBRANCH  72  74
ENDBRANCH   1  72
TORSDOF 16
ENDMDL
