MODEL 1
REMARK VINA RESULT:     -11.7      0.000      0.000
REMARK SMILES [NH3+][C@H](C(=O)OCCOC(=O)c1ccc(-c2c3nc(c(-c4c(F)c(F)c(F)c(F)c4F)c4ccc([nH]4)c(-c4c(F)c(F)c(F)c(F)c4F)c4nc(c(-c5c(F)c(F)c(F)c(F)c5F)c5ccc2[nH]5)C=C4)C=C3)cc1)c1cc2c(cc1Br)OCO2
REMARK SMILES IDX 7 1 6 2 5 3 3 4 4 5 2 6 1 7 74 11 75 12 79 13 76 14 78 15
REMARK SMILES IDX 80 16 77 17 83 18 81 19 82 20 8 21 9 22 10 23 11 24 12 25
REMARK SMILES IDX 73 26 13 27 72 28 14 29 15 30 16 31 66 32 17 33 71 34 65 35
REMARK SMILES IDX 67 36 18 37 70 38 64 39 63 40 19 42 51 43 31 44 50 45 32 46
REMARK SMILES IDX 35 47 49 48 68 49 33 50 34 51 48 53 69 54 36 55 20 56 21 57
REMARK SMILES IDX 29 58 22 59 23 60 27 61 30 62 24 63 25 64 28 65 26 66 52 67
REMARK SMILES IDX 53 68 61 69 54 70 55 71 59 72 62 73 56 74 57 75 60 76 58 77
REMARK SMILES IDX 37 78 38 79 46 80 39 81 40 82 44 83 47 84 41 85 42 86 45 87
REMARK SMILES IDX 43 88
REMARK H PARENT 1 8 1 9 1 10 67 41 35 52
REMARK Flexibility Score: inf
ROOT
ATOM      1  C   UNL A   1      31.797  29.689  26.212  1.00  0.00     0.275 C 
ENDROOT
BRANCH   1   2
ATOM      2  C   UNL A   1      31.732  28.350  26.952  1.00  0.00     0.274 C 
BRANCH   2   3
ATOM      3  O   UNL A   1      32.011  27.264  26.051  1.00  0.00    -0.457 OA
BRANCH   3   4
ATOM      4  C   UNL A   1      30.989  26.404  25.779  1.00  0.00     0.369 C 
ATOM      5  O   UNL A   1      30.260  25.900  26.628  1.00  0.00    -0.245 OA
BRANCH   4   6
ATOM      6  C   UNL A   1      30.812  26.166  24.263  1.00  0.00     0.324 C 
BRANCH   6   7
ATOM      7  N   UNL A   1      29.903  25.047  23.935  1.00  0.00    -0.342 N 
ATOM      8  H   UNL A   1      30.278  24.180  24.320  1.00  0.00     0.345 HD
ATOM      9  H   UNL A   1      29.822  24.962  22.922  1.00  0.00     0.345 HD
ATOM     10  H   UNL A   1      28.983  25.227  24.336  1.00  0.00     0.345 HD
ENDBRANCH   6   7
BRANCH   6  11
ATOM     11  C   UNL A   1      30.496  27.448  23.517  1.00  0.00     0.039 A 
ATOM     12  C   UNL A   1      29.146  27.869  23.497  1.00  0.00     0.062 A 
ATOM     13  C   UNL A   1      31.449  28.202  22.785  1.00  0.00     0.031 A 
ATOM     14  C   UNL A   1      28.801  28.972  22.746  1.00  0.00     0.166 A 
ATOM     15  C   UNL A   1      31.068  29.330  22.044  1.00  0.00     0.066 A 
ATOM     16  Br  UNL A   1      33.295  27.748  22.721  1.00  0.00    -0.050 Br
ATOM     17  C   UNL A   1      29.737  29.679  22.036  1.00  0.00     0.166 A 
ATOM     18  O   UNL A   1      27.546  29.468  22.592  1.00  0.00    -0.454 OA
ATOM     19  O   UNL A   1      29.189  30.711  21.342  1.00  0.00    -0.454 OA
ATOM     20  C   UNL A   1      27.789  30.525  21.640  1.00  0.00     0.468 C 
ENDBRANCH   6  11
ENDBRANCH   4   6
ENDBRANCH   3   4
ENDBRANCH   2   3
ENDBRANCH   1   2
BRANCH   1  21
ATOM     21  O   UNL A   1      33.148  30.187  26.132  1.00  0.00    -0.458 OA
BRANCH  21  22
ATOM     22  C   UNL A   1      33.438  31.203  26.977  1.00  0.00     0.338 C 
ATOM     23  O   UNL A   1      32.725  32.141  27.289  1.00  0.00    -0.246 OA
BRANCH  22  24
ATOM     24  C   UNL A   1      34.729  30.942  27.629  1.00  0.00     0.060 A 
ATOM     25  C   UNL A   1      35.023  29.622  27.976  1.00  0.00     0.016 A 
ATOM     26  C   UNL A   1      35.597  31.978  27.971  1.00  0.00     0.016 A 
ATOM     27  C   UNL A   1      36.174  29.328  28.695  1.00  0.00     0.010 A 
ATOM     28  C   UNL A   1      36.763  31.681  28.683  1.00  0.00     0.010 A 
ATOM     29  C   UNL A   1      37.048  30.358  29.062  1.00  0.00    -0.014 A 
BRANCH  29  30
ATOM     30  C   UNL A   1      38.230  30.045  29.896  1.00  0.00     0.031 A 
ATOM     31  C   UNL A   1      39.300  29.144  29.356  1.00  0.00     0.074 A 
ATOM     32  C   UNL A   1      38.348  30.592  31.119  1.00  0.00     0.049 A 
ATOM     33  N   UNL A   1      40.353  28.654  29.959  1.00  0.00    -0.248 NA
ATOM     34  C   UNL A   1      39.165  28.736  27.950  1.00  0.00     0.031 C 
ATOM     35  C   UNL A   1      37.399  31.528  31.719  1.00  0.00     0.029 A 
ATOM     36  N   UNL A   1      39.318  30.437  32.075  1.00  0.00    -0.354 N 
ATOM     37  C   UNL A   1      40.990  27.860  29.016  1.00  0.00     0.074 A 
ATOM     38  C   UNL A   1      40.202  27.923  27.804  1.00  0.00     0.031 C 
ATOM     39  C   UNL A   1      37.831  31.863  32.946  1.00  0.00     0.029 A 
ATOM     40  C   UNL A   1      39.057  31.125  33.234  1.00  0.00     0.049 A 
ATOM     41  H   UNL A   1      40.124  29.885  31.944  1.00  0.00     0.167 HD
ATOM     42  C   UNL A   1      42.130  27.143  29.156  1.00  0.00     0.037 A 
ATOM     43  C   UNL A   1      39.716  31.128  34.407  1.00  0.00     0.037 A 
ATOM     44  C   UNL A   1      42.918  27.105  30.361  1.00  0.00     0.049 A 
ATOM     45  C   UNL A   1      40.954  30.285  34.552  1.00  0.00     0.074 A 
ATOM     46  C   UNL A   1      44.091  26.413  30.606  1.00  0.00     0.029 A 
ATOM     47  N   UNL A   1      42.610  27.797  31.523  1.00  0.00    -0.354 N 
ATOM     48  N   UNL A   1      41.535  29.512  33.668  1.00  0.00    -0.248 NA
ATOM     49  C   UNL A   1      41.621  30.308  35.861  1.00  0.00     0.031 C 
ATOM     50  C   UNL A   1      44.473  26.659  31.930  1.00  0.00     0.029 A 
ATOM     51  C   UNL A   1      43.563  27.537  32.495  1.00  0.00     0.049 A 
ATOM     52  H   UNL A   1      41.830  28.387  31.641  1.00  0.00     0.167 HD
ATOM     53  C   UNL A   1      42.643  28.970  34.304  1.00  0.00     0.074 A 
ATOM     54  C   UNL A   1      42.661  29.515  35.646  1.00  0.00     0.031 C 
ATOM     55  C   UNL A   1      43.560  28.096  33.823  1.00  0.00     0.037 A 
BRANCH  42  56
ATOM     56  C   UNL A   1      42.574  26.315  27.987  1.00  0.00     0.064 A 
ATOM     57  C   UNL A   1      42.138  24.994  27.807  1.00  0.00     0.173 A 
ATOM     58  C   UNL A   1      43.432  26.861  27.020  1.00  0.00     0.173 A 
ATOM     59  F   UNL A   1      41.331  24.421  28.712  1.00  0.00    -0.203 F 
ATOM     60  C   UNL A   1      42.563  24.244  26.713  1.00  0.00     0.198 A 
ATOM     61  C   UNL A   1      43.834  26.117  25.914  1.00  0.00     0.198 A 
ATOM     62  F   UNL A   1      43.877  28.121  27.144  1.00  0.00    -0.203 F 
ATOM     63  F   UNL A   1      42.169  22.969  26.584  1.00  0.00    -0.200 F 
ATOM     64  C   UNL A   1      43.404  24.807  25.765  1.00  0.00     0.200 A 
ATOM     65  F   UNL A   1      44.640  26.666  24.995  1.00  0.00    -0.200 F 
ATOM     66  F   UNL A   1      43.809  24.084  24.711  1.00  0.00    -0.200 F 
ENDBRANCH  42  56
BRANCH  43  67
ATOM     67  C   UNL A   1      39.199  31.935  35.541  1.00  0.00     0.064 A 
ATOM     68  C   UNL A   1      38.362  31.367  36.510  1.00  0.00     0.173 A 
ATOM     69  C   UNL A   1      39.536  33.290  35.681  1.00  0.00     0.173 A 
ATOM     70  F   UNL A   1      37.991  30.082  36.405  1.00  0.00    -0.203 F 
ATOM     71  C   UNL A   1      37.873  32.127  37.571  1.00  0.00     0.198 A 
ATOM     72  C   UNL A   1      39.070  34.040  36.757  1.00  0.00     0.198 A 
ATOM     73  F   UNL A   1      40.332  33.880  34.778  1.00  0.00    -0.203 F 
ATOM     74  F   UNL A   1      37.043  31.569  38.464  1.00  0.00    -0.200 F 
ATOM     75  C   UNL A   1      38.233  33.460  37.698  1.00  0.00     0.200 A 
ATOM     76  F   UNL A   1      39.429  35.325  36.882  1.00  0.00    -0.200 F 
ATOM     77  F   UNL A   1      37.768  34.187  38.724  1.00  0.00    -0.200 F 
ENDBRANCH  43  67
BRANCH  55  78
ATOM     78  C   UNL A   1      44.674  27.700  34.745  1.00  0.00     0.064 A 
ATOM     79  C   UNL A   1      45.857  28.448  34.829  1.00  0.00     0.173 A 
ATOM     80  C   UNL A   1      44.540  26.579  35.579  1.00  0.00     0.173 A 
ATOM     81  F   UNL A   1      46.036  29.517  34.040  1.00  0.00    -0.203 F 
ATOM     82  C   UNL A   1      46.877  28.076  35.701  1.00  0.00     0.198 A 
ATOM     83  C   UNL A   1      45.551  26.225  36.467  1.00  0.00     0.198 A 
ATOM     84  F   UNL A   1      43.426  25.835  35.538  1.00  0.00    -0.203 F 
ATOM     85  F   UNL A   1      48.016  28.780  35.736  1.00  0.00    -0.200 F 
ATOM     86  C   UNL A   1      46.721  26.969  36.523  1.00  0.00     0.200 A 
ATOM     87  F   UNL A   1      45.396  25.162  37.268  1.00  0.00    -0.200 F 
ATOM     88  F   UNL A   1      47.701  26.616  37.365  1.00  0.00    -0.200 F 
ENDBRANCH  55  78
ENDBRANCH  29  30
ENDBRANCH  22  24
ENDBRANCH  21  22
ENDBRANCH   1  21
TORSDOF 13
ENDMDL
MODEL 2
REMARK VINA RESULT:     -11.5      0.435      1.705
REMARK SMILES [NH3+][C@H](C(=O)OCCOC(=O)c1ccc(-c2c3nc(c(-c4c(F)c(F)c(F)c(F)c4F)c4ccc([nH]4)c(-c4c(F)c(F)c(F)c(F)c4F)c4nc(c(-c5c(F)c(F)c(F)c(F)c5F)c5ccc2[nH]5)C=C4)C=C3)cc1)c1cc2c(cc1Br)OCO2
REMARK SMILES IDX 7 1 6 2 5 3 3 4 4 5 2 6 1 7 74 11 75 12 79 13 76 14 78 15
REMARK SMILES IDX 80 16 77 17 83 18 81 19 82 20 8 21 9 22 10 23 11 24 12 25
REMARK SMILES IDX 73 26 13 27 72 28 14 29 15 30 16 31 66 32 17 33 71 34 65 35
REMARK SMILES IDX 67 36 18 37 70 38 64 39 63 40 19 42 51 43 31 44 50 45 32 46
REMARK SMILES IDX 35 47 49 48 68 49 33 50 34 51 48 53 69 54 36 55 20 56 21 57
REMARK SMILES IDX 29 58 22 59 23 60 27 61 30 62 24 63 25 64 28 65 26 66 52 67
REMARK SMILES IDX 53 68 61 69 54 70 55 71 59 72 62 73 56 74 57 75 60 76 58 77
REMARK SMILES IDX 37 78 38 79 46 80 39 81 40 82 44 83 47 84 41 85 42 86 45 87
REMARK SMILES IDX 43 88
REMARK H PARENT 1 8 1 9 1 10 67 41 35 52
REMARK Flexibility Score: inf
ROOT
ATOM      1  C   UNL A   1      31.777  29.704  26.745  1.00  0.00     0.275 C 
ENDROOT
BRANCH   1   2
ATOM      2  C   UNL A   1      31.817  28.389  27.530  1.00  0.00     0.274 C 
BRANCH   2   3
ATOM      3  O   UNL A   1      32.486  27.369  26.768  1.00  0.00    -0.457 OA
BRANCH   3   4
ATOM      4  C   UNL A   1      31.710  26.387  26.227  1.00  0.00     0.369 C 
ATOM      5  O   UNL A   1      30.897  25.718  26.858  1.00  0.00    -0.245 OA
BRANCH   4   6
ATOM      6  C   UNL A   1      31.932  26.236  24.706  1.00  0.00     0.324 C 
BRANCH   6   7
ATOM      7  N   UNL A   1      31.566  24.904  24.177  1.00  0.00    -0.342 N 
ATOM      8  H   UNL A   1      32.158  24.194  24.606  1.00  0.00     0.345 HD
ATOM      9  H   UNL A   1      31.698  24.893  23.166  1.00  0.00     0.345 HD
ATOM     10  H   UNL A   1      30.589  24.709  24.394  1.00  0.00     0.345 HD
ENDBRANCH   6   7
BRANCH   6  11
ATOM     11  C   UNL A   1      31.332  27.390  23.925  1.00  0.00     0.039 A 
ATOM     12  C   UNL A   1      29.921  27.484  23.892  1.00  0.00     0.062 A 
ATOM     13  C   UNL A   1      32.088  28.325  23.174  1.00  0.00     0.031 A 
ATOM     14  C   UNL A   1      29.334  28.456  23.111  1.00  0.00     0.166 A 
ATOM     15  C   UNL A   1      31.461  29.313  22.402  1.00  0.00     0.066 A 
ATOM     16  Br  UNL A   1      33.990  28.312  23.125  1.00  0.00    -0.050 Br
ATOM     17  C   UNL A   1      30.085  29.343  22.383  1.00  0.00     0.166 A 
ATOM     18  O   UNL A   1      27.999  28.642  22.942  1.00  0.00    -0.454 OA
ATOM     19  O   UNL A   1      29.317  30.200  21.660  1.00  0.00    -0.454 OA
ATOM     20  C   UNL A   1      27.997  29.701  21.962  1.00  0.00     0.468 C 
ENDBRANCH   6  11
ENDBRANCH   4   6
ENDBRANCH   3   4
ENDBRANCH   2   3
ENDBRANCH   1   2
BRANCH   1  21
ATOM     21  O   UNL A   1      33.101  30.156  26.398  1.00  0.00    -0.458 OA
BRANCH  21  22
ATOM     22  C   UNL A   1      33.526  31.256  27.061  1.00  0.00     0.338 C 
ATOM     23  O   UNL A   1      32.917  32.295  27.251  1.00  0.00    -0.246 OA
BRANCH  22  24
ATOM     24  C   UNL A   1      34.822  30.975  27.693  1.00  0.00     0.060 A 
ATOM     25  C   UNL A   1      35.093  29.653  28.054  1.00  0.00     0.016 A 
ATOM     26  C   UNL A   1      35.719  31.995  28.006  1.00  0.00     0.016 A 
ATOM     27  C   UNL A   1      36.249  29.342  28.755  1.00  0.00     0.010 A 
ATOM     28  C   UNL A   1      36.890  31.681  28.701  1.00  0.00     0.010 A 
ATOM     29  C   UNL A   1      37.153  30.356  29.093  1.00  0.00    -0.014 A 
BRANCH  29  30
ATOM     30  C   UNL A   1      38.343  30.029  29.910  1.00  0.00     0.031 A 
ATOM     31  C   UNL A   1      39.393  29.113  29.355  1.00  0.00     0.074 A 
ATOM     32  C   UNL A   1      38.486  30.574  31.131  1.00  0.00     0.049 A 
ATOM     33  N   UNL A   1      40.448  28.610  29.942  1.00  0.00    -0.248 NA
ATOM     34  C   UNL A   1      39.233  28.707  27.951  1.00  0.00     0.031 C 
ATOM     35  C   UNL A   1      37.557  31.522  31.744  1.00  0.00     0.029 A 
ATOM     36  N   UNL A   1      39.467  30.405  32.073  1.00  0.00    -0.354 N 
ATOM     37  C   UNL A   1      41.060  27.807  28.991  1.00  0.00     0.074 A 
ATOM     38  C   UNL A   1      40.256  27.880  27.790  1.00  0.00     0.031 C 
ATOM     39  C   UNL A   1      38.011  31.851  32.965  1.00  0.00     0.029 A 
ATOM     40  C   UNL A   1      39.232  31.097  33.235  1.00  0.00     0.049 A 
ATOM     41  H   UNL A   1      40.263  29.844  31.931  1.00  0.00     0.167 HD
ATOM     42  C   UNL A   1      42.193  27.075  29.115  1.00  0.00     0.037 A 
ATOM     43  C   UNL A   1      39.908  31.092  34.400  1.00  0.00     0.037 A 
ATOM     44  C   UNL A   1      42.998  27.027  30.308  1.00  0.00     0.049 A 
ATOM     45  C   UNL A   1      41.135  30.232  34.527  1.00  0.00     0.074 A 
ATOM     46  C   UNL A   1      44.164  26.319  30.537  1.00  0.00     0.029 A 
ATOM     47  N   UNL A   1      42.715  27.723  31.475  1.00  0.00    -0.354 N 
ATOM     48  N   UNL A   1      41.694  29.451  33.634  1.00  0.00    -0.248 NA
ATOM     49  C   UNL A   1      41.822  30.246  35.826  1.00  0.00     0.031 C 
ATOM     50  C   UNL A   1      44.569  26.559  31.855  1.00  0.00     0.029 A 
ATOM     51  C   UNL A   1      43.678  27.450  32.433  1.00  0.00     0.049 A 
ATOM     52  H   UNL A   1      41.945  28.323  31.603  1.00  0.00     0.167 HD
ATOM     53  C   UNL A   1      42.803  28.894  34.254  1.00  0.00     0.074 A 
ATOM     54  C   UNL A   1      42.848  29.440  35.596  1.00  0.00     0.031 C 
ATOM     55  C   UNL A   1      43.702  28.008  33.760  1.00  0.00     0.037 A 
BRANCH  42  56
ATOM     56  C   UNL A   1      42.609  26.241  27.939  1.00  0.00     0.064 A 
ATOM     57  C   UNL A   1      43.527  26.709  26.987  1.00  0.00     0.173 A 
ATOM     58  C   UNL A   1      42.099  24.944  27.778  1.00  0.00     0.173 A 
ATOM     59  F   UNL A   1      44.030  27.947  27.088  1.00  0.00    -0.203 F 
ATOM     60  C   UNL A   1      43.899  25.916  25.904  1.00  0.00     0.198 A 
ATOM     61  C   UNL A   1      42.493  24.145  26.708  1.00  0.00     0.198 A 
ATOM     62  F   UNL A   1      41.219  24.448  28.662  1.00  0.00    -0.203 F 
ATOM     63  F   UNL A   1      44.744  26.400  24.982  1.00  0.00    -0.200 F 
ATOM     64  C   UNL A   1      43.388  24.634  25.769  1.00  0.00     0.200 A 
ATOM     65  F   UNL A   1      42.004  22.903  26.584  1.00  0.00    -0.200 F 
ATOM     66  F   UNL A   1      43.750  23.872  24.727  1.00  0.00    -0.200 F 
ENDBRANCH  42  56
BRANCH  43  67
ATOM     67  C   UNL A   1      39.417  31.905  35.540  1.00  0.00     0.064 A 
ATOM     68  C   UNL A   1      39.847  33.226  35.723  1.00  0.00     0.173 A 
ATOM     69  C   UNL A   1      38.504  31.380  36.467  1.00  0.00     0.173 A 
ATOM     70  F   UNL A   1      40.739  33.764  34.878  1.00  0.00    -0.203 F 
ATOM     71  C   UNL A   1      39.388  33.988  36.797  1.00  0.00     0.198 A 
ATOM     72  C   UNL A   1      38.025  32.151  37.523  1.00  0.00     0.198 A 
ATOM     73  F   UNL A   1      38.065  30.120  36.336  1.00  0.00    -0.203 F 
ATOM     74  F   UNL A   1      39.843  35.237  36.971  1.00  0.00    -0.200 F 
ATOM     75  C   UNL A   1      38.473  33.453  37.691  1.00  0.00     0.200 A 
ATOM     76  F   UNL A   1      37.133  31.634  38.378  1.00  0.00    -0.200 F 
ATOM     77  F   UNL A   1      38.027  34.189  38.718  1.00  0.00    -0.200 F 
ENDBRANCH  43  67
BRANCH  55  78
ATOM     78  C   UNL A   1      44.823  27.598  34.667  1.00  0.00     0.064 A 
ATOM     79  C   UNL A   1      46.017  28.331  34.735  1.00  0.00     0.173 A 
ATOM     80  C   UNL A   1      44.688  26.478  35.501  1.00  0.00     0.173 A 
ATOM     81  F   UNL A   1      46.198  29.399  33.944  1.00  0.00    -0.203 F 
ATOM     82  C   UNL A   1      47.044  27.945  35.592  1.00  0.00     0.198 A 
ATOM     83  C   UNL A   1      45.707  26.110  36.375  1.00  0.00     0.198 A 
ATOM     84  F   UNL A   1      43.563  25.748  35.475  1.00  0.00    -0.203 F 
ATOM     85  F   UNL A   1      48.192  28.636  35.612  1.00  0.00    -0.200 F 
ATOM     86  C   UNL A   1      46.886  26.840  36.415  1.00  0.00     0.200 A 
ATOM     87  F   UNL A   1      45.549  25.048  37.177  1.00  0.00    -0.200 F 
ATOM     88  F   UNL A   1      47.873  26.473  37.243  1.00  0.00    -0.200 F 
ENDBRANCH  55  78
ENDBRANCH  29  30
ENDBRANCH  22  24
ENDBRANCH  21  22
ENDBRANCH   1  21
TORSDOF 13
ENDMDL
MODEL 3
REMARK VINA RESULT:     -11.4      1.480      2.567
REMARK SMILES [NH3+][C@H](C(=O)OCCOC(=O)c1ccc(-c2c3nc(c(-c4c(F)c(F)c(F)c(F)c4F)c4ccc([nH]4)c(-c4c(F)c(F)c(F)c(F)c4F)c4nc(c(-c5c(F)c(F)c(F)c(F)c5F)c5ccc2[nH]5)C=C4)C=C3)cc1)c1cc2c(cc1Br)OCO2
REMARK SMILES IDX 7 1 6 2 5 3 3 4 4 5 2 6 1 7 74 11 75 12 79 13 76 14 78 15
REMARK SMILES IDX 80 16 77 17 83 18 81 19 82 20 8 21 9 22 10 23 11 24 12 25
REMARK SMILES IDX 73 26 13 27 72 28 14 29 15 30 16 31 66 32 17 33 71 34 65 35
REMARK SMILES IDX 67 36 18 37 70 38 64 39 63 40 19 42 51 43 31 44 50 45 32 46
REMARK SMILES IDX 35 47 49 48 68 49 33 50 34 51 48 53 69 54 36 55 20 56 21 57
REMARK SMILES IDX 29 58 22 59 23 60 27 61 30 62 24 63 25 64 28 65 26 66 52 67
REMARK SMILES IDX 53 68 61 69 54 70 55 71 59 72 62 73 56 74 57 75 60 76 58 77
REMARK SMILES IDX 37 78 38 79 46 80 39 81 40 82 44 83 47 84 41 85 42 86 45 87
REMARK SMILES IDX 43 88
REMARK H PARENT 1 8 1 9 1 10 67 41 35 52
REMARK Flexibility Score: inf
ROOT
ATOM      1  C   UNL A   1      31.602  30.161  25.809  1.00  0.00     0.275 C 
ENDROOT
BRANCH   1   2
ATOM      2  C   UNL A   1      31.475  29.378  24.499  1.00  0.00     0.274 C 
BRANCH   2   3
ATOM      3  O   UNL A   1      32.701  28.683  24.210  1.00  0.00    -0.457 OA
BRANCH   3   4
ATOM      4  C   UNL A   1      32.599  27.377  23.830  1.00  0.00     0.369 C 
ATOM      5  O   UNL A   1      32.091  26.996  22.780  1.00  0.00    -0.245 OA
BRANCH   4   6
ATOM      6  C   UNL A   1      33.244  26.418  24.854  1.00  0.00     0.324 C 
BRANCH   6   7
ATOM      7  N   UNL A   1      33.671  27.078  26.107  1.00  0.00    -0.342 N 
ATOM      8  H   UNL A   1      32.886  27.116  26.756  1.00  0.00     0.345 HD
ATOM      9  H   UNL A   1      33.988  28.025  25.900  1.00  0.00     0.345 HD
ATOM     10  H   UNL A   1      34.435  26.548  26.526  1.00  0.00     0.345 HD
ENDBRANCH   6   7
BRANCH   6  11
ATOM     11  C   UNL A   1      32.405  25.173  25.076  1.00  0.00     0.039 A 
ATOM     12  C   UNL A   1      31.355  25.260  26.020  1.00  0.00     0.062 A 
ATOM     13  C   UNL A   1      32.653  23.922  24.455  1.00  0.00     0.031 A 
ATOM     14  C   UNL A   1      30.636  24.125  26.325  1.00  0.00     0.166 A 
ATOM     15  C   UNL A   1      31.891  22.789  24.776  1.00  0.00     0.066 A 
ATOM     16  Br  UNL A   1      34.033  23.662  23.173  1.00  0.00    -0.050 Br
ATOM     17  C   UNL A   1      30.901  22.922  25.722  1.00  0.00     0.166 A 
ATOM     18  O   UNL A   1      29.634  24.040  27.239  1.00  0.00    -0.454 OA
ATOM     19  O   UNL A   1      30.099  21.925  26.181  1.00  0.00    -0.454 OA
ATOM     20  C   UNL A   1      29.350  22.626  27.197  1.00  0.00     0.468 C 
ENDBRANCH   6  11
ENDBRANCH   4   6
ENDBRANCH   3   4
ENDBRANCH   2   3
ENDBRANCH   1   2
BRANCH   1  21
ATOM     21  O   UNL A   1      32.947  30.122  26.324  1.00  0.00    -0.458 OA
BRANCH  21  22
ATOM     22  C   UNL A   1      33.334  31.224  27.008  1.00  0.00     0.338 C 
ATOM     23  O   UNL A   1      32.687  32.234  27.224  1.00  0.00    -0.246 OA
BRANCH  22  24
ATOM     24  C   UNL A   1      34.645  30.980  27.627  1.00  0.00     0.060 A 
ATOM     25  C   UNL A   1      34.956  29.667  27.986  1.00  0.00     0.016 A 
ATOM     26  C   UNL A   1      35.517  32.025  27.927  1.00  0.00     0.016 A 
ATOM     27  C   UNL A   1      36.128  29.389  28.675  1.00  0.00     0.010 A 
ATOM     28  C   UNL A   1      36.704  31.745  28.610  1.00  0.00     0.010 A 
ATOM     29  C   UNL A   1      37.007  30.429  29.001  1.00  0.00    -0.014 A 
BRANCH  29  30
ATOM     30  C   UNL A   1      38.215  30.135  29.805  1.00  0.00     0.031 A 
ATOM     31  C   UNL A   1      39.279  29.241  29.243  1.00  0.00     0.074 A 
ATOM     32  C   UNL A   1      38.359  30.693  31.020  1.00  0.00     0.049 A 
ATOM     33  N   UNL A   1      40.353  28.767  29.821  1.00  0.00    -0.248 NA
ATOM     34  C   UNL A   1      39.112  28.821  27.844  1.00  0.00     0.031 C 
ATOM     35  C   UNL A   1      37.416  31.623  31.639  1.00  0.00     0.029 A 
ATOM     36  N   UNL A   1      39.356  30.554  31.951  1.00  0.00    -0.354 N 
ATOM     37  C   UNL A   1      40.973  27.973  28.867  1.00  0.00     0.074 A 
ATOM     38  C   UNL A   1      40.153  28.018  27.676  1.00  0.00     0.031 C 
ATOM     39  C   UNL A   1      37.878  31.972  32.851  1.00  0.00     0.029 A 
ATOM     40  C   UNL A   1      39.119  31.249  33.111  1.00  0.00     0.049 A 
ATOM     41  H   UNL A   1      40.164  30.011  31.803  1.00  0.00     0.167 HD
ATOM     42  C   UNL A   1      42.125  27.269  28.982  1.00  0.00     0.037 A 
ATOM     43  C   UNL A   1      39.809  31.268  34.267  1.00  0.00     0.037 A 
ATOM     44  C   UNL A   1      42.945  27.249  30.165  1.00  0.00     0.049 A 
ATOM     45  C   UNL A   1      41.059  30.439  34.385  1.00  0.00     0.074 A 
ATOM     46  C   UNL A   1      44.131  26.571  30.384  1.00  0.00     0.029 A 
ATOM     47  N   UNL A   1      42.660  27.946  31.331  1.00  0.00    -0.354 N 
ATOM     48  N   UNL A   1      41.625  29.665  33.491  1.00  0.00    -0.248 NA
ATOM     49  C   UNL A   1      41.761  30.479  35.675  1.00  0.00     0.031 C 
ATOM     50  C   UNL A   1      44.546  26.830  31.695  1.00  0.00     0.029 A 
ATOM     51  C   UNL A   1      43.642  27.704  32.278  1.00  0.00     0.049 A 
ATOM     52  H   UNL A   1      41.877  28.528  31.465  1.00  0.00     0.167 HD
ATOM     53  C   UNL A   1      42.755  29.140  34.101  1.00  0.00     0.074 A 
ATOM     54  C   UNL A   1      42.803  29.696  35.438  1.00  0.00     0.031 C 
ATOM     55  C   UNL A   1      43.669  28.272  33.602  1.00  0.00     0.037 A 
BRANCH  42  56
ATOM     56  C   UNL A   1      42.546  26.436  27.807  1.00  0.00     0.064 A 
ATOM     57  C   UNL A   1      42.060  25.136  27.609  1.00  0.00     0.173 A 
ATOM     58  C   UNL A   1      43.433  26.959  26.854  1.00  0.00     0.173 A 
ATOM     59  F   UNL A   1      41.223  24.585  28.500  1.00  0.00    -0.203 F 
ATOM     60  C   UNL A   1      42.464  24.382  26.510  1.00  0.00     0.198 A 
ATOM     61  C   UNL A   1      43.815  26.212  25.743  1.00  0.00     0.198 A 
ATOM     62  F   UNL A   1      43.926  28.199  26.996  1.00  0.00    -0.203 F 
ATOM     63  F   UNL A   1      42.022  23.125  26.363  1.00  0.00    -0.200 F 
ATOM     64  C   UNL A   1      43.335  24.922  25.576  1.00  0.00     0.200 A 
ATOM     65  F   UNL A   1      44.651  26.739  24.837  1.00  0.00    -0.200 F 
ATOM     66  F   UNL A   1      43.721  24.195  24.518  1.00  0.00    -0.200 F 
ENDBRANCH  42  56
BRANCH  43  67
ATOM     67  C   UNL A   1      39.313  32.078  35.408  1.00  0.00     0.064 A 
ATOM     68  C   UNL A   1      38.492  31.513  36.392  1.00  0.00     0.173 A 
ATOM     69  C   UNL A   1      39.656  33.432  35.540  1.00  0.00     0.173 A 
ATOM     70  F   UNL A   1      38.116  30.229  36.296  1.00  0.00    -0.203 F 
ATOM     71  C   UNL A   1      38.024  32.276  37.461  1.00  0.00     0.198 A 
ATOM     72  C   UNL A   1      39.211  34.185  36.623  1.00  0.00     0.198 A 
ATOM     73  F   UNL A   1      40.439  34.019  34.623  1.00  0.00    -0.203 F 
ATOM     74  F   UNL A   1      37.208  31.721  38.369  1.00  0.00    -0.200 F 
ATOM     75  C   UNL A   1      38.389  33.608  37.580  1.00  0.00     0.200 A 
ATOM     76  F   UNL A   1      39.576  35.469  36.740  1.00  0.00    -0.200 F 
ATOM     77  F   UNL A   1      37.944  34.338  38.612  1.00  0.00    -0.200 F 
ENDBRANCH  43  67
BRANCH  55  78
ATOM     78  C   UNL A   1      44.811  27.895  34.497  1.00  0.00     0.064 A 
ATOM     79  C   UNL A   1      45.989  28.654  34.540  1.00  0.00     0.173 A 
ATOM     80  C   UNL A   1      44.710  26.781  35.345  1.00  0.00     0.173 A 
ATOM     81  F   UNL A   1      46.137  29.716  33.736  1.00  0.00    -0.203 F 
ATOM     82  C   UNL A   1      47.036  28.299  35.387  1.00  0.00     0.198 A 
ATOM     83  C   UNL A   1      45.748  26.445  36.208  1.00  0.00     0.198 A 
ATOM     84  F   UNL A   1      43.601  26.028  35.342  1.00  0.00    -0.203 F 
ATOM     85  F   UNL A   1      48.169  29.014  35.384  1.00  0.00    -0.200 F 
ATOM     86  C   UNL A   1      46.912  27.200  36.224  1.00  0.00     0.200 A 
ATOM     87  F   UNL A   1      45.624  25.389  37.023  1.00  0.00    -0.200 F 
ATOM     88  F   UNL A   1      47.919  26.863  37.042  1.00  0.00    -0.200 F 
ENDBRANCH  55  78
ENDBRANCH  29  30
ENDBRANCH  22  24
ENDBRANCH  21  22
ENDBRANCH   1  21
TORSDOF 13
ENDMDL
