MODEL 1
REMARK VINA RESULT:     -11.5      0.000      0.000
REMARK SMILES COc1ccccc1N1C(=O)CC[C@H]1CC(=O)OCCOC(=O)c1ccc(-c2c3nc(c(-c4c(F)c(F)c(F)c(F)c4F)c4ccc([nH]4)c(-c4c(F)c(F)c(F)c(F)c4F)c4nc(c(-c5c(F)c(F)c(F)c(F)c5F)c5ccc2[nH]5)C=C4)C=C3)cc1
REMARK SMILES IDX 19 1 18 2 16 3 17 4 15 5 14 6 9 7 10 8 11 9 12 10 13 11 8 12
REMARK SMILES IDX 3 13 4 14 5 15 7 16 6 17 2 18 1 19 20 20 21 21 22 22 23 23
REMARK SMILES IDX 24 24 25 25 86 26 26 27 85 28 27 29 28 30 29 31 79 32 30 33
REMARK SMILES IDX 84 34 78 35 80 36 31 37 83 38 77 39 76 40 32 42 64 43 44 44
REMARK SMILES IDX 63 45 45 46 48 47 62 48 81 49 46 50 47 51 61 53 82 54 49 55
REMARK SMILES IDX 33 56 34 57 42 58 35 59 36 60 40 61 43 62 37 63 38 64 41 65
REMARK SMILES IDX 39 66 65 67 66 68 74 69 67 70 68 71 72 72 75 73 69 74 70 75
REMARK SMILES IDX 73 76 71 77 50 78 51 79 59 80 52 81 53 82 57 83 60 84 54 85
REMARK SMILES IDX 55 86 58 87 56 88
REMARK H PARENT 80 41 48 52
REMARK Flexibility Score: inf
ROOT
ATOM      1  C   UNL A   1      31.664  28.640  27.015  1.00  0.00     0.274 C 
ENDROOT
BRANCH   1   2
ATOM      2  O   UNL A   1      32.768  27.800  26.623  1.00  0.00    -0.462 OA
BRANCH   2   3
ATOM      3  C   UNL A   1      32.507  26.484  26.437  1.00  0.00     0.308 C 
ATOM      4  O   UNL A   1      31.522  25.900  26.876  1.00  0.00    -0.252 OA
BRANCH   3   5
ATOM      5  C   UNL A   1      33.521  25.769  25.570  1.00  0.00     0.148 C 
BRANCH   5   6
ATOM      6  C   UNL A   1      32.975  24.936  24.414  1.00  0.00     0.102 C 
ATOM      7  N   UNL A   1      32.652  25.656  23.191  1.00  0.00    -0.305 N 
ATOM      8  C   UNL A   1      33.010  24.926  22.049  1.00  0.00     0.227 C 
ATOM      9  O   UNL A   1      32.843  25.221  20.877  1.00  0.00    -0.275 OA
ATOM     10  C   UNL A   1      33.651  23.639  22.508  1.00  0.00     0.103 C 
ATOM     11  C   UNL A   1      34.037  23.938  23.944  1.00  0.00     0.036 C 
BRANCH   7  12
ATOM     12  C   UNL A   1      31.665  26.673  23.175  1.00  0.00     0.086 A 
ATOM     13  C   UNL A   1      31.939  27.984  22.749  1.00  0.00     0.142 A 
ATOM     14  C   UNL A   1      30.921  28.943  22.712  1.00  0.00     0.048 A 
ATOM     15  C   UNL A   1      29.618  28.602  23.067  1.00  0.00     0.004 A 
ATOM     16  C   UNL A   1      30.356  26.360  23.567  1.00  0.00     0.030 A 
ATOM     17  C   UNL A   1      29.335  27.311  23.500  1.00  0.00     0.002 A 
BRANCH  13  18
ATOM     18  O   UNL A   1      33.186  28.409  22.374  1.00  0.00    -0.495 OA
ATOM     19  C   UNL A   1      33.948  28.864  23.488  1.00  0.00     0.278 C 
ENDBRANCH  13  18
ENDBRANCH   7  12
ENDBRANCH   5   6
ENDBRANCH   3   5
ENDBRANCH   2   3
ENDBRANCH   1   2
BRANCH   1  20
ATOM     20  C   UNL A   1      31.814  30.047  26.427  1.00  0.00     0.275 C 
BRANCH  20  21
ATOM     21  O   UNL A   1      33.198  30.429  26.317  1.00  0.00    -0.458 OA
BRANCH  21  22
ATOM     22  C   UNL A   1      33.585  31.409  27.164  1.00  0.00     0.338 C 
ATOM     23  O   UNL A   1      32.938  32.370  27.543  1.00  0.00    -0.246 OA
BRANCH  22  24
ATOM     24  C   UNL A   1      34.902  31.086  27.726  1.00  0.00     0.060 A 
ATOM     25  C   UNL A   1      35.128  29.768  28.116  1.00  0.00     0.016 A 
ATOM     26  C   UNL A   1      35.842  32.078  28.000  1.00  0.00     0.016 A 
ATOM     27  C   UNL A   1      36.264  29.431  28.837  1.00  0.00     0.010 A 
ATOM     28  C   UNL A   1      37.010  31.733  28.689  1.00  0.00     0.010 A 
ATOM     29  C   UNL A   1      37.214  30.413  29.135  1.00  0.00    -0.014 A 
BRANCH  29  30
ATOM     30  C   UNL A   1      38.386  30.058  29.969  1.00  0.00     0.031 A 
ATOM     31  C   UNL A   1      39.455  29.165  29.407  1.00  0.00     0.074 A 
ATOM     32  C   UNL A   1      38.516  30.577  31.203  1.00  0.00     0.049 A 
ATOM     33  N   UNL A   1      40.490  28.634  30.006  1.00  0.00    -0.248 NA
ATOM     34  C   UNL A   1      39.343  28.824  27.981  1.00  0.00     0.031 C 
ATOM     35  C   UNL A   1      37.586  31.521  31.825  1.00  0.00     0.029 A 
ATOM     36  N   UNL A   1      39.488  30.392  32.153  1.00  0.00    -0.354 N 
ATOM     37  C   UNL A   1      41.129  27.866  29.042  1.00  0.00     0.074 A 
ATOM     38  C   UNL A   1      40.365  27.996  27.819  1.00  0.00     0.031 C 
ATOM     39  C   UNL A   1      38.042  31.846  33.044  1.00  0.00     0.029 A 
ATOM     40  C   UNL A   1      39.255  31.082  33.316  1.00  0.00     0.049 A 
ATOM     41  H   UNL A   1      40.276  29.819  32.013  1.00  0.00     0.167 HD
ATOM     42  C   UNL A   1      42.250  27.118  29.172  1.00  0.00     0.037 A 
ATOM     43  C   UNL A   1      39.925  31.068  34.483  1.00  0.00     0.037 A 
ATOM     44  C   UNL A   1      43.019  27.019  30.384  1.00  0.00     0.049 A 
ATOM     45  C   UNL A   1      41.130  30.182  34.622  1.00  0.00     0.074 A 
ATOM     46  C   UNL A   1      44.163  26.279  30.627  1.00  0.00     0.029 A 
ATOM     47  N   UNL A   1      42.725  27.699  31.558  1.00  0.00    -0.354 N 
ATOM     48  N   UNL A   1      41.693  29.407  33.726  1.00  0.00    -0.248 NA
ATOM     49  C   UNL A   1      41.781  30.152  35.938  1.00  0.00     0.031 C 
ATOM     50  C   UNL A   1      44.544  26.487  31.957  1.00  0.00     0.029 A 
ATOM     51  C   UNL A   1      43.659  27.386  32.532  1.00  0.00     0.049 A 
ATOM     52  H   UNL A   1      41.965  28.312  31.681  1.00  0.00     0.167 HD
ATOM     53  C   UNL A   1      42.772  28.811  34.362  1.00  0.00     0.074 A 
ATOM     54  C   UNL A   1      42.793  29.323  35.718  1.00  0.00     0.031 C 
ATOM     55  C   UNL A   1      43.664  27.918  33.871  1.00  0.00     0.037 A 
BRANCH  42  56
ATOM     56  C   UNL A   1      42.685  26.315  27.982  1.00  0.00     0.064 A 
ATOM     57  C   UNL A   1      43.575  26.828  27.028  1.00  0.00     0.173 A 
ATOM     58  C   UNL A   1      42.214  25.005  27.805  1.00  0.00     0.173 A 
ATOM     59  F   UNL A   1      44.039  28.082  27.142  1.00  0.00    -0.203 F 
ATOM     60  C   UNL A   1      43.957  26.067  25.926  1.00  0.00     0.198 A 
ATOM     61  C   UNL A   1      42.617  24.240  26.715  1.00  0.00     0.198 A 
ATOM     62  F   UNL A   1      41.360  24.468  28.690  1.00  0.00    -0.203 F 
ATOM     63  F   UNL A   1      44.773  26.594  25.001  1.00  0.00    -0.200 F 
ATOM     64  C   UNL A   1      43.483  24.773  25.773  1.00  0.00     0.200 A 
ATOM     65  F   UNL A   1      42.163  22.987  26.573  1.00  0.00    -0.200 F 
ATOM     66  F   UNL A   1      43.853  24.043  24.711  1.00  0.00    -0.200 F 
ENDBRANCH  42  56
BRANCH  43  67
ATOM     67  C   UNL A   1      39.449  31.900  35.617  1.00  0.00     0.064 A 
ATOM     68  C   UNL A   1      38.516  31.401  36.534  1.00  0.00     0.173 A 
ATOM     69  C   UNL A   1      39.927  33.204  35.814  1.00  0.00     0.173 A 
ATOM     70  F   UNL A   1      38.012  30.169  36.373  1.00  0.00    -0.203 F 
ATOM     71  C   UNL A   1      38.073  32.177  37.603  1.00  0.00     0.198 A 
ATOM     72  C   UNL A   1      39.503  33.970  36.899  1.00  0.00     0.198 A 
ATOM     73  F   UNL A   1      40.821  33.729  34.963  1.00  0.00    -0.203 F 
ATOM     74  F   UNL A   1      37.155  31.689  38.447  1.00  0.00    -0.200 F 
ATOM     75  C   UNL A   1      38.573  33.457  37.789  1.00  0.00     0.200 A 
ATOM     76  F   UNL A   1      39.998  35.202  37.080  1.00  0.00    -0.200 F 
ATOM     77  F   UNL A   1      38.154  34.200  38.822  1.00  0.00    -0.200 F 
ENDBRANCH  43  67
BRANCH  55  78
ATOM     78  C   UNL A   1      44.756  27.468  34.792  1.00  0.00     0.064 A 
ATOM     79  C   UNL A   1      44.617  26.321  35.586  1.00  0.00     0.173 A 
ATOM     80  C   UNL A   1      45.967  28.172  34.852  1.00  0.00     0.173 A 
ATOM     81  F   UNL A   1      43.470  25.626  35.573  1.00  0.00    -0.203 F 
ATOM     82  C   UNL A   1      45.649  25.903  36.422  1.00  0.00     0.198 A 
ATOM     83  C   UNL A   1      47.005  27.739  35.672  1.00  0.00     0.198 A 
ATOM     84  F   UNL A   1      46.146  29.274  34.108  1.00  0.00    -0.203 F 
ATOM     85  F   UNL A   1      45.484  24.825  37.201  1.00  0.00    -0.200 F 
ATOM     86  C   UNL A   1      46.844  26.609  36.460  1.00  0.00     0.200 A 
ATOM     87  F   UNL A   1      48.160  28.417  35.702  1.00  0.00    -0.200 F 
ATOM     88  F   UNL A   1      47.838  26.203  37.262  1.00  0.00    -0.200 F 
ENDBRANCH  55  78
ENDBRANCH  29  30
ENDBRANCH  22  24
ENDBRANCH  21  22
ENDBRANCH  20  21
ENDBRANCH   1  20
TORSDOF 14
ENDMDL
MODEL 2
REMARK VINA RESULT:     -11.5      0.199      1.994
REMARK SMILES COc1ccccc1N1C(=O)CC[C@H]1CC(=O)OCCOC(=O)c1ccc(-c2c3nc(c(-c4c(F)c(F)c(F)c(F)c4F)c4ccc([nH]4)c(-c4c(F)c(F)c(F)c(F)c4F)c4nc(c(-c5c(F)c(F)c(F)c(F)c5F)c5ccc2[nH]5)C=C4)C=C3)cc1
REMARK SMILES IDX 19 1 18 2 16 3 17 4 15 5 14 6 9 7 10 8 11 9 12 10 13 11 8 12
REMARK SMILES IDX 3 13 4 14 5 15 7 16 6 17 2 18 1 19 20 20 21 21 22 22 23 23
REMARK SMILES IDX 24 24 25 25 86 26 26 27 85 28 27 29 28 30 29 31 79 32 30 33
REMARK SMILES IDX 84 34 78 35 80 36 31 37 83 38 77 39 76 40 32 42 64 43 44 44
REMARK SMILES IDX 63 45 45 46 48 47 62 48 81 49 46 50 47 51 61 53 82 54 49 55
REMARK SMILES IDX 33 56 34 57 42 58 35 59 36 60 40 61 43 62 37 63 38 64 41 65
REMARK SMILES IDX 39 66 65 67 66 68 74 69 67 70 68 71 72 72 75 73 69 74 70 75
REMARK SMILES IDX 73 76 71 77 50 78 51 79 59 80 52 81 53 82 57 83 60 84 54 85
REMARK SMILES IDX 55 86 58 87 56 88
REMARK H PARENT 80 41 48 52
REMARK Flexibility Score: inf
ROOT
ATOM      1  C   UNL A   1      31.552  28.630  26.191  1.00  0.00     0.274 C 
ENDROOT
BRANCH   1   2
ATOM      2  O   UNL A   1      32.594  27.783  26.715  1.00  0.00    -0.462 OA
BRANCH   2   3
ATOM      3  C   UNL A   1      32.464  26.449  26.519  1.00  0.00     0.308 C 
ATOM      4  O   UNL A   1      31.548  25.765  26.965  1.00  0.00    -0.252 OA
BRANCH   3   5
ATOM      5  C   UNL A   1      33.533  25.846  25.633  1.00  0.00     0.148 C 
BRANCH   5   6
ATOM      6  C   UNL A   1      33.062  24.918  24.517  1.00  0.00     0.102 C 
ATOM      7  N   UNL A   1      32.710  25.550  23.253  1.00  0.00    -0.305 N 
ATOM      8  C   UNL A   1      33.134  24.786  22.157  1.00  0.00     0.227 C 
ATOM      9  O   UNL A   1      32.966  25.008  20.968  1.00  0.00    -0.275 OA
ATOM     10  C   UNL A   1      33.852  23.572  22.692  1.00  0.00     0.103 C 
ATOM     11  C   UNL A   1      34.194  23.971  24.114  1.00  0.00     0.036 C 
BRANCH   7  12
ATOM     12  C   UNL A   1      31.659  26.496  23.171  1.00  0.00     0.086 A 
ATOM     13  C   UNL A   1      31.840  27.782  22.635  1.00  0.00     0.142 A 
ATOM     14  C   UNL A   1      30.762  28.667  22.536  1.00  0.00     0.048 A 
ATOM     15  C   UNL A   1      29.488  28.273  22.941  1.00  0.00     0.004 A 
ATOM     16  C   UNL A   1      30.377  26.132  23.609  1.00  0.00     0.030 A 
ATOM     17  C   UNL A   1      29.295  27.007  23.483  1.00  0.00     0.002 A 
BRANCH  13  18
ATOM     18  O   UNL A   1      33.052  28.254  22.205  1.00  0.00    -0.495 OA
ATOM     19  C   UNL A   1      33.758  28.928  23.243  1.00  0.00     0.278 C 
ENDBRANCH  13  18
ENDBRANCH   7  12
ENDBRANCH   5   6
ENDBRANCH   3   5
ENDBRANCH   2   3
ENDBRANCH   1   2
BRANCH   1  20
ATOM     20  C   UNL A   1      31.807  30.096  26.554  1.00  0.00     0.275 C 
BRANCH  20  21
ATOM     21  O   UNL A   1      33.196  30.445  26.400  1.00  0.00    -0.458 OA
BRANCH  21  22
ATOM     22  C   UNL A   1      33.623  31.440  27.208  1.00  0.00     0.338 C 
ATOM     23  O   UNL A   1      33.006  32.425  27.574  1.00  0.00    -0.246 OA
BRANCH  22  24
ATOM     24  C   UNL A   1      34.948  31.107  27.747  1.00  0.00     0.060 A 
ATOM     25  C   UNL A   1      35.156  29.797  28.174  1.00  0.00     0.016 A 
ATOM     26  C   UNL A   1      35.915  32.086  27.965  1.00  0.00     0.016 A 
ATOM     27  C   UNL A   1      36.302  29.459  28.877  1.00  0.00     0.010 A 
ATOM     28  C   UNL A   1      37.093  31.738  28.635  1.00  0.00     0.010 A 
ATOM     29  C   UNL A   1      37.280  30.429  29.119  1.00  0.00    -0.014 A 
BRANCH  29  30
ATOM     30  C   UNL A   1      38.466  30.075  29.935  1.00  0.00     0.031 A 
ATOM     31  C   UNL A   1      39.527  29.185  29.356  1.00  0.00     0.074 A 
ATOM     32  C   UNL A   1      38.613  30.594  31.167  1.00  0.00     0.049 A 
ATOM     33  N   UNL A   1      40.572  28.655  29.937  1.00  0.00    -0.248 NA
ATOM     34  C   UNL A   1      39.394  28.845  27.930  1.00  0.00     0.031 C 
ATOM     35  C   UNL A   1      37.692  31.535  31.804  1.00  0.00     0.029 A 
ATOM     36  N   UNL A   1      39.600  30.409  32.102  1.00  0.00    -0.354 N 
ATOM     37  C   UNL A   1      41.198  27.889  28.963  1.00  0.00     0.074 A 
ATOM     38  C   UNL A   1      40.415  28.019  27.752  1.00  0.00     0.031 C 
ATOM     39  C   UNL A   1      38.165  31.859  33.016  1.00  0.00     0.029 A 
ATOM     40  C   UNL A   1      39.384  31.097  33.269  1.00  0.00     0.049 A 
ATOM     41  H   UNL A   1      40.387  29.838  31.949  1.00  0.00     0.167 HD
ATOM     42  C   UNL A   1      42.322  27.143  29.074  1.00  0.00     0.037 A 
ATOM     43  C   UNL A   1      40.071  31.084  34.425  1.00  0.00     0.037 A 
ATOM     44  C   UNL A   1      43.110  27.045  30.274  1.00  0.00     0.049 A 
ATOM     45  C   UNL A   1      41.280  30.199  34.545  1.00  0.00     0.074 A 
ATOM     46  C   UNL A   1      44.259  26.307  30.500  1.00  0.00     0.029 A 
ATOM     47  N   UNL A   1      42.833  27.723  31.454  1.00  0.00    -0.354 N 
ATOM     48  N   UNL A   1      41.831  29.427  33.639  1.00  0.00    -0.248 NA
ATOM     49  C   UNL A   1      41.951  30.169  35.851  1.00  0.00     0.031 C 
ATOM     50  C   UNL A   1      44.660  26.514  31.824  1.00  0.00     0.029 A 
ATOM     51  C   UNL A   1      43.782  27.410  32.413  1.00  0.00     0.049 A 
ATOM     52  H   UNL A   1      42.073  28.334  31.589  1.00  0.00     0.167 HD
ATOM     53  C   UNL A   1      42.920  28.832  34.258  1.00  0.00     0.074 A 
ATOM     54  C   UNL A   1      42.962  29.342  35.614  1.00  0.00     0.031 C 
ATOM     55  C   UNL A   1      43.807  27.941  33.752  1.00  0.00     0.037 A 
BRANCH  42  56
ATOM     56  C   UNL A   1      42.740  26.342  27.878  1.00  0.00     0.064 A 
ATOM     57  C   UNL A   1      42.246  25.052  27.642  1.00  0.00     0.173 A 
ATOM     58  C   UNL A   1      43.640  26.883  26.947  1.00  0.00     0.173 A 
ATOM     59  F   UNL A   1      41.399  24.483  28.512  1.00  0.00    -0.203 F 
ATOM     60  C   UNL A   1      42.657  24.322  26.529  1.00  0.00     0.198 A 
ATOM     61  C   UNL A   1      44.030  26.160  25.823  1.00  0.00     0.198 A 
ATOM     62  F   UNL A   1      44.142  28.114  27.128  1.00  0.00    -0.203 F 
ATOM     63  F   UNL A   1      42.207  23.072  26.346  1.00  0.00    -0.200 F 
ATOM     64  C   UNL A   1      43.544  24.878  25.619  1.00  0.00     0.200 A 
ATOM     65  F   UNL A   1      44.881  26.702  24.942  1.00  0.00    -0.200 F 
ATOM     66  F   UNL A   1      43.937  24.173  24.548  1.00  0.00    -0.200 F 
ENDBRANCH  42  56
BRANCH  43  67
ATOM     67  C   UNL A   1      39.612  31.913  35.568  1.00  0.00     0.064 A 
ATOM     68  C   UNL A   1      40.139  33.193  35.786  1.00  0.00     0.173 A 
ATOM     69  C   UNL A   1      38.630  31.450  36.456  1.00  0.00     0.173 A 
ATOM     70  F   UNL A   1      41.097  33.669  34.979  1.00  0.00    -0.203 F 
ATOM     71  C   UNL A   1      39.704  33.975  36.854  1.00  0.00     0.198 A 
ATOM     72  C   UNL A   1      38.178  32.244  37.508  1.00  0.00     0.198 A 
ATOM     73  F   UNL A   1      38.095  30.231  36.290  1.00  0.00    -0.203 F 
ATOM     74  F   UNL A   1      40.248  35.183  37.061  1.00  0.00    -0.200 F 
ATOM     75  C   UNL A   1      38.719  33.504  37.708  1.00  0.00     0.200 A 
ATOM     76  F   UNL A   1      37.217  31.789  38.323  1.00  0.00    -0.200 F 
ATOM     77  F   UNL A   1      38.295  34.261  38.729  1.00  0.00    -0.200 F 
ENDBRANCH  43  67
BRANCH  55  78
ATOM     78  C   UNL A   1      44.914  27.492  34.657  1.00  0.00     0.064 A 
ATOM     79  C   UNL A   1      46.117  28.205  34.750  1.00  0.00     0.173 A 
ATOM     80  C   UNL A   1      44.752  26.357  35.464  1.00  0.00     0.173 A 
ATOM     81  F   UNL A   1      46.321  29.287  33.983  1.00  0.00    -0.203 F 
ATOM     82  C   UNL A   1      47.129  27.787  35.610  1.00  0.00     0.198 A 
ATOM     83  C   UNL A   1      45.756  25.955  36.339  1.00  0.00     0.198 A 
ATOM     84  F   UNL A   1      43.616  25.645  35.411  1.00  0.00    -0.203 F 
ATOM     85  F   UNL A   1      48.286  28.461  35.658  1.00  0.00    -0.200 F 
ATOM     86  C   UNL A   1      46.945  26.667  36.408  1.00  0.00     0.200 A 
ATOM     87  F   UNL A   1      45.575  24.878  37.115  1.00  0.00    -0.200 F 
ATOM     88  F   UNL A   1      47.918  26.268  37.239  1.00  0.00    -0.200 F 
ENDBRANCH  55  78
ENDBRANCH  29  30
ENDBRANCH  22  24
ENDBRANCH  21  22
ENDBRANCH  20  21
ENDBRANCH   1  20
TORSDOF 14
ENDMDL
MODEL 3
REMARK VINA RESULT:     -11.4      1.110      3.272
REMARK SMILES COc1ccccc1N1C(=O)CC[C@H]1CC(=O)OCCOC(=O)c1ccc(-c2c3nc(c(-c4c(F)c(F)c(F)c(F)c4F)c4ccc([nH]4)c(-c4c(F)c(F)c(F)c(F)c4F)c4nc(c(-c5c(F)c(F)c(F)c(F)c5F)c5ccc2[nH]5)C=C4)C=C3)cc1
REMARK SMILES IDX 19 1 18 2 16 3 17 4 15 5 14 6 9 7 10 8 11 9 12 10 13 11 8 12
REMARK SMILES IDX 3 13 4 14 5 15 7 16 6 17 2 18 1 19 20 20 21 21 22 22 23 23
REMARK SMILES IDX 24 24 25 25 86 26 26 27 85 28 27 29 28 30 29 31 79 32 30 33
REMARK SMILES IDX 84 34 78 35 80 36 31 37 83 38 77 39 76 40 32 42 64 43 44 44
REMARK SMILES IDX 63 45 45 46 48 47 62 48 81 49 46 50 47 51 61 53 82 54 49 55
REMARK SMILES IDX 33 56 34 57 42 58 35 59 36 60 40 61 43 62 37 63 38 64 41 65
REMARK SMILES IDX 39 66 65 67 66 68 74 69 67 70 68 71 72 72 75 73 69 74 70 75
REMARK SMILES IDX 73 76 71 77 50 78 51 79 59 80 52 81 53 82 57 83 60 84 54 85
REMARK SMILES IDX 55 86 58 87 56 88
REMARK H PARENT 80 41 48 52
REMARK Flexibility Score: inf
ROOT
ATOM      1  C   UNL A   1      32.853  29.247  24.507  1.00  0.00     0.274 C 
ENDROOT
BRANCH   1   2
ATOM      2  O   UNL A   1      32.148  28.991  23.275  1.00  0.00    -0.462 OA
BRANCH   2   3
ATOM      3  C   UNL A   1      31.859  27.700  22.985  1.00  0.00     0.308 C 
ATOM      4  O   UNL A   1      31.106  27.340  22.086  1.00  0.00    -0.252 OA
BRANCH   3   5
ATOM      5  C   UNL A   1      32.599  26.693  23.839  1.00  0.00     0.148 C 
BRANCH   5   6
ATOM      6  C   UNL A   1      31.779  25.545  24.418  1.00  0.00     0.102 C 
ATOM      7  N   UNL A   1      32.415  24.754  25.462  1.00  0.00    -0.305 N 
ATOM      8  C   UNL A   1      31.508  24.403  26.472  1.00  0.00     0.227 C 
ATOM      9  O   UNL A   1      31.705  23.717  27.462  1.00  0.00    -0.275 OA
ATOM     10  C   UNL A   1      30.174  25.016  26.126  1.00  0.00     0.103 C 
ATOM     11  C   UNL A   1      30.538  26.096  25.126  1.00  0.00     0.036 C 
BRANCH   7  12
ATOM     12  C   UNL A   1      33.606  24.029  25.212  1.00  0.00     0.086 A 
ATOM     13  C   UNL A   1      33.616  22.809  24.514  1.00  0.00     0.142 A 
ATOM     14  C   UNL A   1      34.822  22.150  24.256  1.00  0.00     0.048 A 
ATOM     15  C   UNL A   1      36.032  22.710  24.662  1.00  0.00     0.004 A 
ATOM     16  C   UNL A   1      34.831  24.556  25.647  1.00  0.00     0.030 A 
ATOM     17  C   UNL A   1      36.037  23.912  25.363  1.00  0.00     0.002 A 
BRANCH  13  18
ATOM     18  O   UNL A   1      32.479  22.187  24.071  1.00  0.00    -0.495 OA
ATOM     19  C   UNL A   1      32.153  21.049  24.863  1.00  0.00     0.278 C 
ENDBRANCH  13  18
ENDBRANCH   7  12
ENDBRANCH   5   6
ENDBRANCH   3   5
ENDBRANCH   2   3
ENDBRANCH   1   2
BRANCH   1  20
ATOM     20  C   UNL A   1      31.993  30.077  25.465  1.00  0.00     0.275 C 
BRANCH  20  21
ATOM     21  O   UNL A   1      32.545  30.089  26.795  1.00  0.00    -0.458 OA
BRANCH  21  22
ATOM     22  C   UNL A   1      33.146  31.246  27.150  1.00  0.00     0.338 C 
ATOM     23  O   UNL A   1      32.665  32.366  27.161  1.00  0.00    -0.246 OA
BRANCH  22  24
ATOM     24  C   UNL A   1      34.480  30.966  27.695  1.00  0.00     0.060 A 
ATOM     25  C   UNL A   1      34.769  29.646  28.036  1.00  0.00     0.016 A 
ATOM     26  C   UNL A   1      35.373  31.990  28.001  1.00  0.00     0.016 A 
ATOM     27  C   UNL A   1      35.924  29.338  28.740  1.00  0.00     0.010 A 
ATOM     28  C   UNL A   1      36.560  31.676  28.673  1.00  0.00     0.010 A 
ATOM     29  C   UNL A   1      36.828  30.352  29.070  1.00  0.00    -0.014 A 
BRANCH  29  30
ATOM     30  C   UNL A   1      38.020  30.023  29.886  1.00  0.00     0.031 A 
ATOM     31  C   UNL A   1      39.097  29.149  29.310  1.00  0.00     0.074 A 
ATOM     32  C   UNL A   1      38.160  30.549  31.116  1.00  0.00     0.049 A 
ATOM     33  N   UNL A   1      40.152  28.641  29.894  1.00  0.00    -0.248 NA
ATOM     34  C   UNL A   1      38.969  28.800  27.887  1.00  0.00     0.031 C 
ATOM     35  C   UNL A   1      37.222  31.477  31.750  1.00  0.00     0.029 A 
ATOM     36  N   UNL A   1      39.150  30.387  32.051  1.00  0.00    -0.354 N 
ATOM     37  C   UNL A   1      40.790  27.881  28.922  1.00  0.00     0.074 A 
ATOM     38  C   UNL A   1      40.004  27.992  27.711  1.00  0.00     0.031 C 
ATOM     39  C   UNL A   1      37.691  31.815  32.961  1.00  0.00     0.029 A 
ATOM     40  C   UNL A   1      38.922  31.076  33.215  1.00  0.00     0.049 A 
ATOM     41  H   UNL A   1      39.947  29.828  31.900  1.00  0.00     0.167 HD
ATOM     42  C   UNL A   1      41.927  27.156  29.036  1.00  0.00     0.037 A 
ATOM     43  C   UNL A   1      39.611  31.079  34.372  1.00  0.00     0.037 A 
ATOM     44  C   UNL A   1      42.718  27.076  30.236  1.00  0.00     0.049 A 
ATOM     45  C   UNL A   1      40.836  30.217  34.494  1.00  0.00     0.074 A 
ATOM     46  C   UNL A   1      43.879  26.359  30.463  1.00  0.00     0.029 A 
ATOM     47  N   UNL A   1      42.429  27.754  31.413  1.00  0.00    -0.354 N 
ATOM     48  N   UNL A   1      41.399  29.450  33.591  1.00  0.00    -0.248 NA
ATOM     49  C   UNL A   1      41.508  30.204  35.799  1.00  0.00     0.031 C 
ATOM     50  C   UNL A   1      44.277  26.580  31.786  1.00  0.00     0.029 A 
ATOM     51  C   UNL A   1      43.385  27.463  32.372  1.00  0.00     0.049 A 
ATOM     52  H   UNL A   1      41.659  28.353  31.546  1.00  0.00     0.167 HD
ATOM     53  C   UNL A   1      42.499  28.878  34.212  1.00  0.00     0.074 A 
ATOM     54  C   UNL A   1      42.532  29.394  35.566  1.00  0.00     0.031 C 
ATOM     55  C   UNL A   1      43.401  28.000  33.709  1.00  0.00     0.037 A 
BRANCH  42  56
ATOM     56  C   UNL A   1      42.359  26.357  27.843  1.00  0.00     0.064 A 
ATOM     57  C   UNL A   1      41.819  25.093  27.564  1.00  0.00     0.173 A 
ATOM     58  C   UNL A   1      43.318  26.873  26.958  1.00  0.00     0.173 A 
ATOM     59  F   UNL A   1      40.914  24.548  28.390  1.00  0.00    -0.203 F 
ATOM     60  C   UNL A   1      42.243  24.365  26.455  1.00  0.00     0.198 A 
ATOM     61  C   UNL A   1      43.721  26.152  25.838  1.00  0.00     0.198 A 
ATOM     62  F   UNL A   1      43.865  28.078  27.182  1.00  0.00    -0.203 F 
ATOM     63  F   UNL A   1      41.748  23.139  26.232  1.00  0.00    -0.200 F 
ATOM     64  C   UNL A   1      43.189  24.896  25.591  1.00  0.00     0.200 A 
ATOM     65  F   UNL A   1      44.630  26.670  25.001  1.00  0.00    -0.200 F 
ATOM     66  F   UNL A   1      43.595  24.193  24.524  1.00  0.00    -0.200 F 
ENDBRANCH  42  56
BRANCH  43  67
ATOM     67  C   UNL A   1      39.138  31.906  35.511  1.00  0.00     0.064 A 
ATOM     68  C   UNL A   1      39.496  33.256  35.618  1.00  0.00     0.173 A 
ATOM     69  C   UNL A   1      38.310  31.367  36.506  1.00  0.00     0.173 A 
ATOM     70  F   UNL A   1      40.306  33.808  34.704  1.00  0.00    -0.203 F 
ATOM     71  C   UNL A   1      39.047  34.034  36.683  1.00  0.00     0.198 A 
ATOM     72  C   UNL A   1      37.841  32.154  37.557  1.00  0.00     0.198 A 
ATOM     73  F   UNL A   1      37.940  30.079  36.449  1.00  0.00    -0.203 F 
ATOM     74  F   UNL A   1      39.431  35.315  36.781  1.00  0.00    -0.200 F 
ATOM     75  C   UNL A   1      38.214  33.486  37.646  1.00  0.00     0.200 A 
ATOM     76  F   UNL A   1      37.026  31.622  38.478  1.00  0.00    -0.200 F 
ATOM     77  F   UNL A   1      37.776  34.238  38.664  1.00  0.00    -0.200 F 
ENDBRANCH  43  67
BRANCH  55  78
ATOM     78  C   UNL A   1      44.516  27.574  34.615  1.00  0.00     0.064 A 
ATOM     79  C   UNL A   1      45.702  28.316  34.712  1.00  0.00     0.173 A 
ATOM     80  C   UNL A   1      44.379  26.434  35.419  1.00  0.00     0.173 A 
ATOM     81  F   UNL A   1      45.883  29.404  33.949  1.00  0.00    -0.203 F 
ATOM     82  C   UNL A   1      46.722  27.919  35.574  1.00  0.00     0.198 A 
ATOM     83  C   UNL A   1      45.391  26.053  36.295  1.00  0.00     0.198 A 
ATOM     84  F   UNL A   1      43.261  25.696  35.361  1.00  0.00    -0.203 F 
ATOM     85  F   UNL A   1      47.863  28.619  35.625  1.00  0.00    -0.200 F 
ATOM     86  C   UNL A   1      46.563  26.792  36.368  1.00  0.00     0.200 A 
ATOM     87  F   UNL A   1      45.234  24.970  37.068  1.00  0.00    -0.200 F 
ATOM     88  F   UNL A   1      47.543  26.414  37.200  1.00  0.00    -0.200 F 
ENDBRANCH  55  78
ENDBRANCH  29  30
ENDBRANCH  22  24
ENDBRANCH  21  22
ENDBRANCH  20  21
ENDBRANCH   1  20
TORSDOF 14
ENDMDL
