MODEL 1
REMARK VINA RESULT:     -13.6      0.000      0.000
REMARK SMILES Cc1cccc(NC(=O)COc2ccc(N3C[C@@H](C(=O)OCCOC(=O)c4ccc(-c5c6nc(c(-c7c(F)c(F)c(F)c(F)c7F)c7ccc([nH]7)c(-c7c(F)c(F)c(F)c(F)c7F)c7nc(c(-c8c(F)c(F)c(F)c(F)c8F)c8ccc5[nH]8)C=C7)C=C6)cc4)CC3=O)cc2)c1
REMARK SMILES IDX 21 1 19 2 20 3 18 4 16 5 17 6 91 7 90 8 92 9 15 10 12 11
REMARK SMILES IDX 13 12 94 13 14 14 93 15 11 16 10 17 8 18 7 19 9 21 6 22 1 23
REMARK SMILES IDX 2 24 3 25 95 26 4 27 5 28 22 29 23 30 24 31 25 32 26 33
REMARK SMILES IDX 27 34 28 35 89 36 29 37 88 38 30 39 31 40 32 41 82 42 33 43
REMARK SMILES IDX 87 44 81 45 83 46 34 47 86 48 80 49 79 50 35 52 67 53 47 54
REMARK SMILES IDX 66 55 48 56 51 57 65 58 84 59 49 60 50 61 64 63 85 64 52 65
REMARK SMILES IDX 36 66 37 67 45 68 38 69 39 70 43 71 46 72 40 73 41 74 44 75
REMARK SMILES IDX 42 76 68 77 69 78 77 79 70 80 71 81 75 82 78 83 72 84 73 85
REMARK SMILES IDX 76 86 74 87 53 88 54 89 62 90 55 91 56 92 60 93 63 94 57 95
REMARK SMILES IDX 58 96 61 97 59 98
REMARK H PARENT 7 20 83 51 51 62
REMARK Flexibility Score: inf
ROOT
ATOM      1  O   UNL A   1      35.518  22.025  24.749  1.00  0.00    -0.462 OA
ENDROOT
BRANCH   1   2
ATOM      2  C   UNL A   1      34.421  21.221  24.737  1.00  0.00     0.311 C 
ATOM      3  O   UNL A   1      34.451  20.004  24.644  1.00  0.00    -0.252 OA
BRANCH   2   4
ATOM      4  C   UNL A   1      33.191  22.059  24.931  1.00  0.00     0.128 C 
ATOM      5  N   UNL A   1      32.477  24.086  25.798  1.00  0.00    -0.312 N 
ATOM      6  C   UNL A   1      33.490  23.540  24.936  1.00  0.00     0.141 C 
ATOM      7  C   UNL A   1      31.970  23.119  26.664  1.00  0.00     0.227 C 
ATOM      8  C   UNL A   1      32.532  21.783  26.266  1.00  0.00     0.117 C 
ATOM      9  O   UNL A   1      31.220  23.283  27.620  1.00  0.00    -0.274 OA
BRANCH   5  10
ATOM     10  C   UNL A   1      32.501  25.460  26.072  1.00  0.00     0.044 A 
ATOM     11  C   UNL A   1      32.580  28.100  26.988  1.00  0.00     0.120 A 
ATOM     12  C   UNL A   1      33.720  27.517  26.428  1.00  0.00     0.048 A 
ATOM     13  C   UNL A   1      31.395  27.372  27.037  1.00  0.00     0.048 A 
ATOM     14  C   UNL A   1      33.693  26.185  26.004  1.00  0.00     0.030 A 
ATOM     15  C   UNL A   1      31.348  26.067  26.560  1.00  0.00     0.030 A 
BRANCH  11  16
ATOM     16  O   UNL A   1      32.715  29.397  27.388  1.00  0.00    -0.484 OA
BRANCH  16  17
ATOM     17  C   UNL A   1      32.764  30.386  26.372  1.00  0.00     0.329 C 
BRANCH  17  18
ATOM     18  C   UNL A   1      31.582  30.631  25.430  1.00  0.00     0.262 C 
ATOM     19  N   UNL A   1      31.357  29.905  24.300  1.00  0.00    -0.323 N 
ATOM     20  H   UNL A   1      30.485  30.100  23.887  1.00  0.00     0.170 HD
ATOM     21  O   UNL A   1      30.747  31.500  25.713  1.00  0.00    -0.271 OA
BRANCH  19  22
ATOM     22  C   UNL A   1      32.092  28.939  23.593  1.00  0.00     0.041 A 
ATOM     23  C   UNL A   1      31.373  25.371  22.422  1.00  0.00     0.044 C 
ATOM     24  C   UNL A   1      32.073  26.675  22.665  1.00  0.00    -0.049 A 
ATOM     25  C   UNL A   1      33.353  26.886  22.147  1.00  0.00     0.003 A 
ATOM     26  C   UNL A   1      31.455  27.704  23.387  1.00  0.00     0.029 A 
ATOM     27  C   UNL A   1      33.991  28.108  22.340  1.00  0.00     0.002 A 
ATOM     28  C   UNL A   1      33.357  29.133  23.047  1.00  0.00     0.026 A 
ENDBRANCH  19  22
ENDBRANCH  17  18
ENDBRANCH  16  17
ENDBRANCH  11  16
ENDBRANCH   5  10
ENDBRANCH   2   4
ENDBRANCH   1   2
BRANCH   1  29
ATOM     29  C   UNL A   1      36.559  21.588  25.621  1.00  0.00     0.274 C 
BRANCH  29  30
ATOM     30  C   UNL A   1      37.861  22.342  25.323  1.00  0.00     0.275 C 
BRANCH  30  31
ATOM     31  O   UNL A   1      38.369  23.343  26.268  1.00  0.00    -0.458 OA
BRANCH  31  32
ATOM     32  C   UNL A   1      39.617  23.543  26.765  1.00  0.00     0.338 C 
ATOM     33  O   UNL A   1      40.456  22.657  26.797  1.00  0.00    -0.246 OA
BRANCH  32  34
ATOM     34  C   UNL A   1      39.940  24.887  27.276  1.00  0.00     0.060 A 
ATOM     35  C   UNL A   1      40.384  25.899  26.401  1.00  0.00     0.016 A 
ATOM     36  C   UNL A   1      39.674  25.168  28.603  1.00  0.00     0.016 A 
ATOM     37  C   UNL A   1      40.389  27.227  26.818  1.00  0.00     0.010 A 
ATOM     38  C   UNL A   1      39.499  26.476  28.956  1.00  0.00     0.010 A 
ATOM     39  C   UNL A   1      39.899  27.505  28.088  1.00  0.00    -0.014 A 
BRANCH  39  40
ATOM     40  C   UNL A   1      39.990  28.786  28.763  1.00  0.00     0.031 A 
ATOM     41  C   UNL A   1      38.898  29.769  28.776  1.00  0.00     0.074 A 
ATOM     42  C   UNL A   1      41.057  28.813  29.592  1.00  0.00     0.049 A 
ATOM     43  N   UNL A   1      39.048  31.005  29.098  1.00  0.00    -0.248 NA
ATOM     44  C   UNL A   1      37.524  29.463  28.402  1.00  0.00     0.031 C 
ATOM     45  C   UNL A   1      41.341  29.608  30.767  1.00  0.00     0.029 A 
ATOM     46  N   UNL A   1      42.209  28.018  29.440  1.00  0.00    -0.354 N 
ATOM     47  C   UNL A   1      37.789  31.528  29.332  1.00  0.00     0.074 A 
ATOM     48  C   UNL A   1      36.880  30.592  28.726  1.00  0.00     0.031 C 
ATOM     49  C   UNL A   1      42.659  29.517  31.031  1.00  0.00     0.029 A 
ATOM     50  C   UNL A   1      43.270  28.779  29.931  1.00  0.00     0.049 A 
ATOM     51  H   UNL A   1      42.257  27.110  29.063  1.00  0.00     0.167 HD
ATOM     52  C   UNL A   1      37.676  32.581  30.196  1.00  0.00     0.037 A 
ATOM     53  C   UNL A   1      44.156  29.277  29.018  1.00  0.00     0.037 A 
ATOM     54  C   UNL A   1      39.005  32.920  30.700  1.00  0.00     0.049 A 
ATOM     55  C   UNL A   1      44.080  30.780  29.001  1.00  0.00     0.074 A 
ATOM     56  C   UNL A   1      39.663  32.558  31.864  1.00  0.00     0.029 A 
ATOM     57  N   UNL A   1      39.973  33.385  29.820  1.00  0.00    -0.354 N 
ATOM     58  N   UNL A   1      42.983  31.470  29.173  1.00  0.00    -0.248 NA
ATOM     59  C   UNL A   1      45.275  31.606  28.929  1.00  0.00     0.031 C 
ATOM     60  C   UNL A   1      41.048  32.781  31.665  1.00  0.00     0.029 A 
ATOM     61  C   UNL A   1      41.228  33.274  30.381  1.00  0.00     0.049 A 
ATOM     62  H   UNL A   1      39.788  33.744  28.922  1.00  0.00     0.167 HD
ATOM     63  C   UNL A   1      43.315  32.792  29.339  1.00  0.00     0.074 A 
ATOM     64  C   UNL A   1      44.757  32.823  29.158  1.00  0.00     0.031 C 
ATOM     65  C   UNL A   1      42.404  33.756  29.677  1.00  0.00     0.037 A 
BRANCH  52  66
ATOM     66  C   UNL A   1      36.412  33.108  30.855  1.00  0.00     0.064 A 
ATOM     67  C   UNL A   1      35.569  34.010  30.156  1.00  0.00     0.173 A 
ATOM     68  C   UNL A   1      35.970  32.794  32.153  1.00  0.00     0.173 A 
ATOM     69  F   UNL A   1      35.797  34.339  28.878  1.00  0.00    -0.203 F 
ATOM     70  C   UNL A   1      34.447  34.610  30.734  1.00  0.00     0.198 A 
ATOM     71  C   UNL A   1      34.853  33.412  32.740  1.00  0.00     0.198 A 
ATOM     72  F   UNL A   1      36.566  31.847  32.885  1.00  0.00    -0.203 F 
ATOM     73  F   UNL A   1      33.711  35.471  30.016  1.00  0.00    -0.200 F 
ATOM     74  C   UNL A   1      34.099  34.327  32.034  1.00  0.00     0.200 A 
ATOM     75  F   UNL A   1      34.509  33.105  34.000  1.00  0.00    -0.200 F 
ATOM     76  F   UNL A   1      33.032  34.913  32.595  1.00  0.00    -0.200 F 
ENDBRANCH  52  66
BRANCH  53  77
ATOM     77  C   UNL A   1      44.325  28.374  27.827  1.00  0.00     0.064 A 
ATOM     78  C   UNL A   1      44.821  27.068  28.057  1.00  0.00     0.173 A 
ATOM     79  C   UNL A   1      43.668  28.592  26.609  1.00  0.00     0.173 A 
ATOM     80  F   UNL A   1      45.456  26.788  29.207  1.00  0.00    -0.203 F 
ATOM     81  C   UNL A   1      44.548  26.013  27.186  1.00  0.00     0.198 A 
ATOM     82  C   UNL A   1      43.422  27.534  25.723  1.00  0.00     0.198 A 
ATOM     83  F   UNL A   1      43.168  29.799  26.313  1.00  0.00    -0.203 F 
ATOM     84  F   UNL A   1      44.907  24.763  27.517  1.00  0.00    -0.200 F 
ATOM     85  C   UNL A   1      43.827  26.242  26.031  1.00  0.00     0.200 A 
ATOM     86  F   UNL A   1      42.703  27.747  24.611  1.00  0.00    -0.200 F 
ATOM     87  F   UNL A   1      43.481  25.217  25.239  1.00  0.00    -0.200 F 
ENDBRANCH  53  77
BRANCH  65  88
ATOM     88  C   UNL A   1      42.564  35.256  29.516  1.00  0.00     0.064 A 
ATOM     89  C   UNL A   1      43.388  36.051  30.327  1.00  0.00     0.173 A 
ATOM     90  C   UNL A   1      41.988  35.936  28.408  1.00  0.00     0.173 A 
ATOM     91  F   UNL A   1      44.126  35.531  31.313  1.00  0.00    -0.203 F 
ATOM     92  C   UNL A   1      43.547  37.422  30.108  1.00  0.00     0.198 A 
ATOM     93  C   UNL A   1      42.221  37.283  28.144  1.00  0.00     0.198 A 
ATOM     94  F   UNL A   1      41.210  35.318  27.510  1.00  0.00    -0.203 F 
ATOM     95  F   UNL A   1      44.292  38.140  30.960  1.00  0.00    -0.200 F 
ATOM     96  C   UNL A   1      42.978  38.034  29.011  1.00  0.00     0.200 A 
ATOM     97  F   UNL A   1      41.721  37.836  27.029  1.00  0.00    -0.200 F 
ATOM     98  F   UNL A   1      43.181  39.336  28.776  1.00  0.00    -0.200 F 
ENDBRANCH  65  88
ENDBRANCH  39  40
ENDBRANCH  32  34
ENDBRANCH  31  32
ENDBRANCH  30  31
ENDBRANCH  29  30
ENDBRANCH   1  29
TORSDOF 16
ENDMDL
MODEL 2
REMARK VINA RESULT:     -13.2      1.493      2.247
REMARK SMILES Cc1cccc(NC(=O)COc2ccc(N3C[C@@H](C(=O)OCCOC(=O)c4ccc(-c5c6nc(c(-c7c(F)c(F)c(F)c(F)c7F)c7ccc([nH]7)c(-c7c(F)c(F)c(F)c(F)c7F)c7nc(c(-c8c(F)c(F)c(F)c(F)c8F)c8ccc5[nH]8)C=C7)C=C6)cc4)CC3=O)cc2)c1
REMARK SMILES IDX 21 1 19 2 20 3 18 4 16 5 17 6 91 7 90 8 92 9 15 10 12 11
REMARK SMILES IDX 13 12 94 13 14 14 93 15 11 16 10 17 8 18 7 19 9 21 6 22 1 23
REMARK SMILES IDX 2 24 3 25 95 26 4 27 5 28 22 29 23 30 24 31 25 32 26 33
REMARK SMILES IDX 27 34 28 35 89 36 29 37 88 38 30 39 31 40 32 41 82 42 33 43
REMARK SMILES IDX 87 44 81 45 83 46 34 47 86 48 80 49 79 50 35 52 67 53 47 54
REMARK SMILES IDX 66 55 48 56 51 57 65 58 84 59 49 60 50 61 64 63 85 64 52 65
REMARK SMILES IDX 36 66 37 67 45 68 38 69 39 70 43 71 46 72 40 73 41 74 44 75
REMARK SMILES IDX 42 76 68 77 69 78 77 79 70 80 71 81 75 82 78 83 72 84 73 85
REMARK SMILES IDX 76 86 74 87 53 88 54 89 62 90 55 91 56 92 60 93 63 94 57 95
REMARK SMILES IDX 58 96 61 97 59 98
REMARK H PARENT 7 20 83 51 51 62
REMARK Flexibility Score: inf
ROOT
ATOM      1  O   UNL A   1      36.944  22.401  25.448  1.00  0.00    -0.462 OA
ENDROOT
BRANCH   1   2
ATOM      2  C   UNL A   1      35.691  21.885  25.564  1.00  0.00     0.311 C 
ATOM      3  O   UNL A   1      35.208  21.456  26.600  1.00  0.00    -0.252 OA
BRANCH   2   4
ATOM      4  C   UNL A   1      34.983  22.002  24.245  1.00  0.00     0.128 C 
ATOM      5  N   UNL A   1      33.264  23.138  23.186  1.00  0.00    -0.312 N 
ATOM      6  C   UNL A   1      34.418  23.383  24.008  1.00  0.00     0.141 C 
ATOM      7  C   UNL A   1      32.804  21.831  23.331  1.00  0.00     0.227 C 
ATOM      8  C   UNL A   1      33.795  21.068  24.163  1.00  0.00     0.117 C 
ATOM      9  O   UNL A   1      31.762  21.348  22.902  1.00  0.00    -0.274 OA
BRANCH   5  10
ATOM     10  C   UNL A   1      32.457  24.226  22.825  1.00  0.00     0.044 A 
ATOM     11  C   UNL A   1      31.010  26.579  22.397  1.00  0.00     0.120 A 
ATOM     12  C   UNL A   1      32.113  26.277  21.595  1.00  0.00     0.048 A 
ATOM     13  C   UNL A   1      30.610  25.674  23.375  1.00  0.00     0.048 A 
ATOM     14  C   UNL A   1      32.860  25.120  21.830  1.00  0.00     0.030 A 
ATOM     15  C   UNL A   1      31.314  24.491  23.573  1.00  0.00     0.030 A 
BRANCH  11  16
ATOM     16  O   UNL A   1      30.360  27.741  22.098  1.00  0.00    -0.484 OA
BRANCH  16  17
ATOM     17  C   UNL A   1      29.662  28.381  23.153  1.00  0.00     0.329 C 
BRANCH  17  18
ATOM     18  C   UNL A   1      29.806  29.883  23.419  1.00  0.00     0.262 C 
ATOM     19  N   UNL A   1      30.706  30.409  24.293  1.00  0.00    -0.323 N 
ATOM     20  H   UNL A   1      30.761  31.391  24.243  1.00  0.00     0.170 HD
ATOM     21  O   UNL A   1      29.108  30.684  22.782  1.00  0.00    -0.271 OA
BRANCH  19  22
ATOM     22  C   UNL A   1      31.574  29.863  25.254  1.00  0.00     0.041 A 
ATOM     23  C   UNL A   1      33.789  26.750  25.383  1.00  0.00     0.044 C 
ATOM     24  C   UNL A   1      33.107  28.027  25.772  1.00  0.00    -0.049 A 
ATOM     25  C   UNL A   1      33.398  28.627  26.999  1.00  0.00     0.003 A 
ATOM     26  C   UNL A   1      32.194  28.650  24.911  1.00  0.00     0.029 A 
ATOM     27  C   UNL A   1      32.793  29.831  27.347  1.00  0.00     0.002 A 
ATOM     28  C   UNL A   1      31.897  30.453  26.472  1.00  0.00     0.026 A 
ENDBRANCH  19  22
ENDBRANCH  17  18
ENDBRANCH  16  17
ENDBRANCH  11  16
ENDBRANCH   5  10
ENDBRANCH   2   4
ENDBRANCH   1   2
BRANCH   1  29
ATOM     29  C   UNL A   1      37.982  21.423  25.411  1.00  0.00     0.274 C 
BRANCH  29  30
ATOM     30  C   UNL A   1      39.211  21.915  26.187  1.00  0.00     0.275 C 
BRANCH  30  31
ATOM     31  O   UNL A   1      39.256  23.286  26.707  1.00  0.00    -0.458 OA
BRANCH  31  32
ATOM     32  C   UNL A   1      40.271  24.187  26.750  1.00  0.00     0.338 C 
ATOM     33  O   UNL A   1      41.380  23.942  26.303  1.00  0.00    -0.246 OA
BRANCH  32  34
ATOM     34  C   UNL A   1      39.994  25.499  27.363  1.00  0.00     0.060 A 
ATOM     35  C   UNL A   1      39.448  25.583  28.659  1.00  0.00     0.016 A 
ATOM     36  C   UNL A   1      40.403  26.637  26.694  1.00  0.00     0.016 A 
ATOM     37  C   UNL A   1      39.476  26.792  29.350  1.00  0.00     0.010 A 
ATOM     38  C   UNL A   1      40.604  27.772  27.428  1.00  0.00     0.010 A 
ATOM     39  C   UNL A   1      40.102  27.869  28.735  1.00  0.00    -0.014 A 
BRANCH  39  40
ATOM     40  C   UNL A   1      40.074  29.241  29.210  1.00  0.00     0.031 A 
ATOM     41  C   UNL A   1      38.976  30.172  28.917  1.00  0.00     0.074 A 
ATOM     42  C   UNL A   1      41.010  29.432  30.166  1.00  0.00     0.049 A 
ATOM     43  N   UNL A   1      39.058  31.446  29.062  1.00  0.00    -0.248 NA
ATOM     44  C   UNL A   1      37.675  29.760  28.407  1.00  0.00     0.031 C 
ATOM     45  C   UNL A   1      41.108  30.406  31.231  1.00  0.00     0.029 A 
ATOM     46  N   UNL A   1      42.184  28.668  30.302  1.00  0.00    -0.354 N 
ATOM     47  C   UNL A   1      37.770  31.951  29.033  1.00  0.00     0.074 A 
ATOM     48  C   UNL A   1      36.973  30.900  28.458  1.00  0.00     0.031 C 
ATOM     49  C   UNL A   1      42.376  30.406  31.689  1.00  0.00     0.029 A 
ATOM     50  C   UNL A   1      43.151  29.535  30.813  1.00  0.00     0.049 A 
ATOM     51  H   UNL A   1      42.300  27.716  30.080  1.00  0.00     0.167 HD
ATOM     52  C   UNL A   1      37.517  33.117  29.700  1.00  0.00     0.037 A 
ATOM     53  C   UNL A   1      44.151  29.922  29.967  1.00  0.00     0.037 A 
ATOM     54  C   UNL A   1      38.753  33.578  30.326  1.00  0.00     0.049 A 
ATOM     55  C   UNL A   1      44.054  31.401  29.707  1.00  0.00     0.074 A 
ATOM     56  C   UNL A   1      39.242  33.422  31.612  1.00  0.00     0.029 A 
ATOM     57  N   UNL A   1      39.830  33.942  29.528  1.00  0.00    -0.354 N 
ATOM     58  N   UNL A   1      42.933  32.067  29.615  1.00  0.00    -0.248 NA
ATOM     59  C   UNL A   1      45.233  32.252  29.676  1.00  0.00     0.031 C 
ATOM     60  C   UNL A   1      40.638  33.665  31.577  1.00  0.00     0.029 A 
ATOM     61  C   UNL A   1      40.993  33.965  30.271  1.00  0.00     0.049 A 
ATOM     62  H   UNL A   1      39.772  34.154  28.569  1.00  0.00     0.167 HD
ATOM     63  C   UNL A   1      43.216  33.411  29.619  1.00  0.00     0.074 A 
ATOM     64  C   UNL A   1      44.668  33.469  29.639  1.00  0.00     0.031 C 
ATOM     65  C   UNL A   1      42.250  34.380  29.672  1.00  0.00     0.037 A 
BRANCH  52  66
ATOM     66  C   UNL A   1      36.162  33.690  30.085  1.00  0.00     0.064 A 
ATOM     67  C   UNL A   1      35.284  34.176  29.082  1.00  0.00     0.173 A 
ATOM     68  C   UNL A   1      35.664  33.808  31.395  1.00  0.00     0.173 A 
ATOM     69  F   UNL A   1      35.568  34.053  27.779  1.00  0.00    -0.203 F 
ATOM     70  C   UNL A   1      34.070  34.804  29.370  1.00  0.00     0.198 A 
ATOM     71  C   UNL A   1      34.451  34.456  31.685  1.00  0.00     0.198 A 
ATOM     72  F   UNL A   1      36.298  33.261  32.437  1.00  0.00    -0.203 F 
ATOM     73  F   UNL A   1      33.303  35.258  28.367  1.00  0.00    -0.200 F 
ATOM     74  C   UNL A   1      33.661  34.962  30.674  1.00  0.00     0.200 A 
ATOM     75  F   UNL A   1      34.051  34.579  32.960  1.00  0.00    -0.200 F 
ATOM     76  F   UNL A   1      32.503  35.578  30.952  1.00  0.00    -0.200 F 
ENDBRANCH  52  66
BRANCH  53  77
ATOM     77  C   UNL A   1      44.505  28.856  28.966  1.00  0.00     0.064 A 
ATOM     78  C   UNL A   1      44.979  27.619  29.463  1.00  0.00     0.173 A 
ATOM     79  C   UNL A   1      44.031  28.866  27.648  1.00  0.00     0.173 A 
ATOM     80  F   UNL A   1      45.441  27.538  30.722  1.00  0.00    -0.203 F 
ATOM     81  C   UNL A   1      44.850  26.435  28.736  1.00  0.00     0.198 A 
ATOM     82  C   UNL A   1      43.932  27.679  26.910  1.00  0.00     0.198 A 
ATOM     83  F   UNL A   1      43.564  29.997  27.101  1.00  0.00    -0.203 F 
ATOM     84  F   UNL A   1      45.172  25.263  29.302  1.00  0.00    -0.200 F 
ATOM     85  C   UNL A   1      44.303  26.463  27.467  1.00  0.00     0.200 A 
ATOM     86  F   UNL A   1      43.381  27.696  25.686  1.00  0.00    -0.200 F 
ATOM     87  F   UNL A   1      44.090  25.318  26.801  1.00  0.00    -0.200 F 
ENDBRANCH  53  77
BRANCH  65  88
ATOM     88  C   UNL A   1      42.408  35.843  29.305  1.00  0.00     0.064 A 
ATOM     89  C   UNL A   1      43.204  36.753  30.019  1.00  0.00     0.173 A 
ATOM     90  C   UNL A   1      41.862  36.354  28.096  1.00  0.00     0.173 A 
ATOM     91  F   UNL A   1      43.915  36.384  31.089  1.00  0.00    -0.203 F 
ATOM     92  C   UNL A   1      43.362  38.080  29.612  1.00  0.00     0.198 A 
ATOM     93  C   UNL A   1      42.096  37.652  27.650  1.00  0.00     0.198 A 
ATOM     94  F   UNL A   1      41.113  35.608  27.272  1.00  0.00    -0.203 F 
ATOM     95  F   UNL A   1      44.078  38.917  30.375  1.00  0.00    -0.200 F 
ATOM     96  C   UNL A   1      42.823  38.525  28.423  1.00  0.00     0.200 A 
ATOM     97  F   UNL A   1      41.627  38.038  26.454  1.00  0.00    -0.200 F 
ATOM     98  F   UNL A   1      43.027  39.783  28.012  1.00  0.00    -0.200 F 
ENDBRANCH  65  88
ENDBRANCH  39  40
ENDBRANCH  32  34
ENDBRANCH  31  32
ENDBRANCH  30  31
ENDBRANCH  29  30
ENDBRANCH   1  29
TORSDOF 16
ENDMDL
MODEL 3
REMARK VINA RESULT:     -13.2      1.428      2.274
REMARK SMILES Cc1cccc(NC(=O)COc2ccc(N3C[C@@H](C(=O)OCCOC(=O)c4ccc(-c5c6nc(c(-c7c(F)c(F)c(F)c(F)c7F)c7ccc([nH]7)c(-c7c(F)c(F)c(F)c(F)c7F)c7nc(c(-c8c(F)c(F)c(F)c(F)c8F)c8ccc5[nH]8)C=C7)C=C6)cc4)CC3=O)cc2)c1
REMARK SMILES IDX 21 1 19 2 20 3 18 4 16 5 17 6 91 7 90 8 92 9 15 10 12 11
REMARK SMILES IDX 13 12 94 13 14 14 93 15 11 16 10 17 8 18 7 19 9 21 6 22 1 23
REMARK SMILES IDX 2 24 3 25 95 26 4 27 5 28 22 29 23 30 24 31 25 32 26 33
REMARK SMILES IDX 27 34 28 35 89 36 29 37 88 38 30 39 31 40 32 41 82 42 33 43
REMARK SMILES IDX 87 44 81 45 83 46 34 47 86 48 80 49 79 50 35 52 67 53 47 54
REMARK SMILES IDX 66 55 48 56 51 57 65 58 84 59 49 60 50 61 64 63 85 64 52 65
REMARK SMILES IDX 36 66 37 67 45 68 38 69 39 70 43 71 46 72 40 73 41 74 44 75
REMARK SMILES IDX 42 76 68 77 69 78 77 79 70 80 71 81 75 82 78 83 72 84 73 85
REMARK SMILES IDX 76 86 74 87 53 88 54 89 62 90 55 91 56 92 60 93 63 94 57 95
REMARK SMILES IDX 58 96 61 97 59 98
REMARK H PARENT 7 20 83 51 51 62
REMARK Flexibility Score: inf
ROOT
ATOM      1  O   UNL A   1      35.262  21.172  24.524  1.00  0.00    -0.462 OA
ENDROOT
BRANCH   1   2
ATOM      2  C   UNL A   1      34.414  20.149  24.812  1.00  0.00     0.311 C 
ATOM      3  O   UNL A   1      34.686  18.965  24.690  1.00  0.00    -0.252 OA
BRANCH   2   4
ATOM      4  C   UNL A   1      33.137  20.706  25.371  1.00  0.00     0.128 C 
ATOM      5  N   UNL A   1      31.934  22.677  25.569  1.00  0.00    -0.312 N 
ATOM      6  C   UNL A   1      32.625  21.890  24.584  1.00  0.00     0.141 C 
ATOM      7  C   UNL A   1      32.386  22.394  26.856  1.00  0.00     0.227 C 
ATOM      8  C   UNL A   1      33.321  21.219  26.783  1.00  0.00     0.117 C 
ATOM      9  O   UNL A   1      32.125  22.991  27.895  1.00  0.00    -0.274 OA
BRANCH   5  10
ATOM     10  C   UNL A   1      31.377  23.902  25.177  1.00  0.00     0.044 A 
ATOM     11  C   UNL A   1      29.951  26.147  24.317  1.00  0.00     0.120 A 
ATOM     12  C   UNL A   1      30.121  25.904  25.682  1.00  0.00     0.048 A 
ATOM     13  C   UNL A   1      30.541  25.290  23.393  1.00  0.00     0.048 A 
ATOM     14  C   UNL A   1      30.802  24.763  26.115  1.00  0.00     0.030 A 
ATOM     15  C   UNL A   1      31.272  24.187  23.820  1.00  0.00     0.030 A 
BRANCH  11  16
ATOM     16  O   UNL A   1      29.255  27.277  23.999  1.00  0.00    -0.484 OA
BRANCH  16  17
ATOM     17  C   UNL A   1      29.497  27.846  22.723  1.00  0.00     0.329 C 
BRANCH  17  18
ATOM     18  C   UNL A   1      30.293  29.145  22.559  1.00  0.00     0.262 C 
ATOM     19  N   UNL A   1      31.343  29.488  23.354  1.00  0.00    -0.323 N 
ATOM     20  H   UNL A   1      31.826  30.283  23.029  1.00  0.00     0.170 HD
ATOM     21  O   UNL A   1      30.014  29.918  21.633  1.00  0.00    -0.271 OA
BRANCH  19  22
ATOM     22  C   UNL A   1      31.891  28.963  24.536  1.00  0.00     0.041 A 
ATOM     23  C   UNL A   1      34.416  26.197  25.304  1.00  0.00     0.044 C 
ATOM     24  C   UNL A   1      33.431  27.313  25.483  1.00  0.00    -0.049 A 
ATOM     25  C   UNL A   1      33.156  27.802  26.761  1.00  0.00     0.003 A 
ATOM     26  C   UNL A   1      32.792  27.897  24.380  1.00  0.00     0.029 A 
ATOM     27  C   UNL A   1      32.268  28.862  26.927  1.00  0.00     0.002 A 
ATOM     28  C   UNL A   1      31.651  29.448  25.818  1.00  0.00     0.026 A 
ENDBRANCH  19  22
ENDBRANCH  17  18
ENDBRANCH  16  17
ENDBRANCH  11  16
ENDBRANCH   5  10
ENDBRANCH   2   4
ENDBRANCH   1   2
BRANCH   1  29
ATOM     29  C   UNL A   1      36.614  20.946  24.919  1.00  0.00     0.274 C 
BRANCH  29  30
ATOM     30  C   UNL A   1      37.431  22.239  24.801  1.00  0.00     0.275 C 
BRANCH  30  31
ATOM     31  O   UNL A   1      37.989  22.873  26.001  1.00  0.00    -0.458 OA
BRANCH  31  32
ATOM     32  C   UNL A   1      39.274  23.001  26.422  1.00  0.00     0.338 C 
ATOM     33  O   UNL A   1      40.093  22.104  26.301  1.00  0.00    -0.246 OA
BRANCH  32  34
ATOM     34  C   UNL A   1      39.664  24.280  27.042  1.00  0.00     0.060 A 
ATOM     35  C   UNL A   1      40.280  25.290  26.277  1.00  0.00     0.016 A 
ATOM     36  C   UNL A   1      39.293  24.516  28.354  1.00  0.00     0.016 A 
ATOM     37  C   UNL A   1      40.363  26.588  26.772  1.00  0.00     0.010 A 
ATOM     38  C   UNL A   1      39.202  25.815  28.767  1.00  0.00     0.010 A 
ATOM     39  C   UNL A   1      39.776  26.844  28.005  1.00  0.00    -0.014 A 
BRANCH  39  40
ATOM     40  C   UNL A   1      39.914  28.075  28.763  1.00  0.00     0.031 A 
ATOM     41  C   UNL A   1      38.948  29.180  28.687  1.00  0.00     0.074 A 
ATOM     42  C   UNL A   1      40.849  27.937  29.728  1.00  0.00     0.049 A 
ATOM     43  N   UNL A   1      39.188  30.373  29.101  1.00  0.00    -0.248 NA
ATOM     44  C   UNL A   1      37.615  29.056  28.114  1.00  0.00     0.031 C 
ATOM     45  C   UNL A   1      41.051  28.639  30.976  1.00  0.00     0.029 A 
ATOM     46  N   UNL A   1      41.915  27.018  29.685  1.00  0.00    -0.354 N 
ATOM     47  C   UNL A   1      37.976  31.032  29.195  1.00  0.00     0.074 A 
ATOM     48  C   UNL A   1      37.062  30.238  28.415  1.00  0.00     0.031 C 
ATOM     49  C   UNL A   1      42.301  28.380  31.411  1.00  0.00     0.029 A 
ATOM     50  C   UNL A   1      42.974  27.624  30.360  1.00  0.00     0.049 A 
ATOM     51  H   UNL A   1      41.913  26.128  29.263  1.00  0.00     0.167 HD
ATOM     52  C   UNL A   1      37.860  32.050  30.098  1.00  0.00     0.037 A 
ATOM     53  C   UNL A   1      44.030  28.053  29.607  1.00  0.00     0.037 A 
ATOM     54  C   UNL A   1      39.134  32.206  30.796  1.00  0.00     0.049 A 
ATOM     55  C   UNL A   1      44.126  29.554  29.671  1.00  0.00     0.074 A 
ATOM     56  C   UNL A   1      39.576  31.717  32.014  1.00  0.00     0.029 A 
ATOM     57  N   UNL A   1      40.262  32.591  30.084  1.00  0.00    -0.354 N 
ATOM     58  N   UNL A   1      43.100  30.361  29.735  1.00  0.00    -0.248 NA
ATOM     59  C   UNL A   1      45.404  30.234  29.811  1.00  0.00     0.031 C 
ATOM     60  C   UNL A   1      40.992  31.782  32.018  1.00  0.00     0.029 A 
ATOM     61  C   UNL A   1      41.405  32.306  30.802  1.00  0.00     0.049 A 
ATOM     62  H   UNL A   1      40.248  33.009  29.193  1.00  0.00     0.167 HD
ATOM     63  C   UNL A   1      43.551  31.626  30.024  1.00  0.00     0.074 A 
ATOM     64  C   UNL A   1      44.999  31.492  30.042  1.00  0.00     0.031 C 
ATOM     65  C   UNL A   1      42.715  32.676  30.293  1.00  0.00     0.037 A 
BRANCH  52  66
ATOM     66  C   UNL A   1      36.583  32.695  30.611  1.00  0.00     0.064 A 
ATOM     67  C   UNL A   1      35.897  33.647  29.814  1.00  0.00     0.173 A 
ATOM     68  C   UNL A   1      35.982  32.448  31.858  1.00  0.00     0.173 A 
ATOM     69  F   UNL A   1      36.285  33.928  28.563  1.00  0.00    -0.203 F 
ATOM     70  C   UNL A   1      34.775  34.351  30.260  1.00  0.00     0.198 A 
ATOM     71  C   UNL A   1      34.865  33.169  32.314  1.00  0.00     0.198 A 
ATOM     72  F   UNL A   1      36.415  31.471  32.662  1.00  0.00    -0.203 F 
ATOM     73  F   UNL A   1      34.194  35.253  29.456  1.00  0.00    -0.200 F 
ATOM     74  C   UNL A   1      34.270  34.126  31.520  1.00  0.00     0.200 A 
ATOM     75  F   UNL A   1      34.366  32.919  33.534  1.00  0.00    -0.200 F 
ATOM     76  F   UNL A   1      33.203  34.811  31.955  1.00  0.00    -0.200 F 
ENDBRANCH  52  66
BRANCH  53  77
ATOM     77  C   UNL A   1      44.264  27.190  28.397  1.00  0.00     0.064 A 
ATOM     78  C   UNL A   1      43.821  27.678  27.145  1.00  0.00     0.173 A 
ATOM     79  C   UNL A   1      45.214  26.162  28.371  1.00  0.00     0.173 A 
ATOM     80  F   UNL A   1      42.914  28.669  27.098  1.00  0.00    -0.203 F 
ATOM     81  C   UNL A   1      44.401  27.265  25.946  1.00  0.00     0.198 A 
ATOM     82  C   UNL A   1      45.773  25.728  27.161  1.00  0.00     0.198 A 
ATOM     83  F   UNL A   1      45.687  25.642  29.512  1.00  0.00    -0.203 F 
ATOM     84  F   UNL A   1      44.058  27.863  24.795  1.00  0.00    -0.200 F 
ATOM     85  C   UNL A   1      45.395  26.306  25.957  1.00  0.00     0.200 A 
ATOM     86  F   UNL A   1      46.755  24.813  27.168  1.00  0.00    -0.200 F 
ATOM     87  F   UNL A   1      46.022  25.973  24.819  1.00  0.00    -0.200 F 
ENDBRANCH  53  77
BRANCH  65  88
ATOM     88  C   UNL A   1      43.064  34.151  30.248  1.00  0.00     0.064 A 
ATOM     89  C   UNL A   1      43.244  34.954  31.384  1.00  0.00     0.173 A 
ATOM     90  C   UNL A   1      43.384  34.786  29.016  1.00  0.00     0.173 A 
ATOM     91  F   UNL A   1      43.139  34.462  32.623  1.00  0.00    -0.203 F 
ATOM     92  C   UNL A   1      43.618  36.297  31.294  1.00  0.00     0.198 A 
ATOM     93  C   UNL A   1      43.842  36.099  28.939  1.00  0.00     0.198 A 
ATOM     94  F   UNL A   1      43.308  34.152  27.838  1.00  0.00    -0.203 F 
ATOM     95  F   UNL A   1      43.706  37.029  32.413  1.00  0.00    -0.200 F 
ATOM     96  C   UNL A   1      43.931  36.865  30.076  1.00  0.00     0.200 A 
ATOM     97  F   UNL A   1      44.215  36.603  27.753  1.00  0.00    -0.200 F 
ATOM     98  F   UNL A   1      44.344  38.136  30.004  1.00  0.00    -0.200 F 
ENDBRANCH  65  88
ENDBRANCH  39  40
ENDBRANCH  32  34
ENDBRANCH  31  32
ENDBRANCH  30  31
ENDBRANCH  29  30
ENDBRANCH   1  29
TORSDOF 16
ENDMDL
