MODEL 1
REMARK VINA RESULT:     -11.8      0.000      0.000
REMARK SMILES C[C@@H](C(=O)OCCOC(=O)c1ccc(-c2c3nc(c(-c4c(F)c(F)c(F)c(F)c4F)c4ccc([nH]4)c(-c4c(F)c(F)c(F)c(F)c4F)c4nc(c(-c5c(F)c(F)c(F)c(F)c5F)c5ccc2[nH]5)C=C4)C=C3)cc1)c1ccc(C[C@H]2CCC[C@@H]2O)cc1
REMARK SMILES IDX 6 1 5 2 3 3 4 4 2 5 1 6 74 7 75 8 86 9 76 10 85 11 77 12
REMARK SMILES IDX 78 13 79 14 80 15 83 16 81 17 82 18 84 19 7 21 8 22 9 23
REMARK SMILES IDX 10 24 11 25 12 26 73 27 13 28 72 29 14 30 15 31 16 32 66 33
REMARK SMILES IDX 17 34 71 35 65 36 67 37 18 38 70 39 64 40 63 41 19 43 51 44
REMARK SMILES IDX 31 45 50 46 32 47 35 48 49 49 68 50 33 51 34 52 48 54 69 55
REMARK SMILES IDX 36 56 20 57 21 58 29 59 22 60 23 61 27 62 30 63 24 64 25 65
REMARK SMILES IDX 28 66 26 67 52 68 53 69 61 70 54 71 55 72 59 73 62 74 56 75
REMARK SMILES IDX 57 76 60 77 58 78 37 79 38 80 46 81 39 82 40 83 44 84 47 85
REMARK SMILES IDX 41 86 42 87 45 88 43 89
REMARK H PARENT 84 20 67 42 35 53
REMARK Flexibility Score: inf
ROOT
ATOM      1  C   UNL A   1      31.537  28.321  26.345  1.00  0.00     0.274 C 
ENDROOT
BRANCH   1   2
ATOM      2  O   UNL A   1      32.598  27.371  26.112  1.00  0.00    -0.462 OA
BRANCH   2   3
ATOM      3  C   UNL A   1      32.216  26.080  25.920  1.00  0.00     0.313 C 
ATOM      4  O   UNL A   1      31.764  25.358  26.806  1.00  0.00    -0.252 OA
BRANCH   3   5
ATOM      5  C   UNL A   1      32.357  25.624  24.454  1.00  0.00     0.126 C 
ATOM      6  C   UNL A   1      33.718  25.938  23.833  1.00  0.00     0.025 C 
BRANCH   5   7
ATOM      7  C   UNL A   1      31.175  26.184  23.681  1.00  0.00    -0.034 A 
ATOM      8  C   UNL A   1      31.353  27.219  22.763  1.00  0.00     0.005 A 
ATOM      9  C   UNL A   1      29.873  25.856  24.087  1.00  0.00     0.005 A 
ATOM     10  C   UNL A   1      30.283  28.051  22.456  1.00  0.00     0.004 A 
ATOM     11  C   UNL A   1      28.808  26.700  23.779  1.00  0.00     0.004 A 
ATOM     12  C   UNL A   1      29.043  27.876  23.072  1.00  0.00    -0.048 A 
BRANCH  12  13
ATOM     13  C   UNL A   1      28.062  29.019  23.097  1.00  0.00     0.041 C 
BRANCH  13  14
ATOM     14  C   UNL A   1      28.537  30.310  22.395  1.00  0.00     0.022 C 
ATOM     15  C   UNL A   1      27.834  30.671  21.082  1.00  0.00     0.007 C 
ATOM     16  C   UNL A   1      28.446  31.645  23.145  1.00  0.00     0.117 C 
ATOM     17  C   UNL A   1      28.237  32.128  20.802  1.00  0.00     0.003 C 
ATOM     18  C   UNL A   1      28.902  32.632  22.076  1.00  0.00     0.032 C 
BRANCH  16  19
ATOM     19  O   UNL A   1      29.294  31.713  24.260  1.00  0.00    -0.393 OA
ATOM     20  H   UNL A   1      28.960  32.380  24.879  1.00  0.00     0.210 HD
ENDBRANCH  16  19
ENDBRANCH  13  14
ENDBRANCH  12  13
ENDBRANCH   5   7
ENDBRANCH   3   5
ENDBRANCH   2   3
ENDBRANCH   1   2
BRANCH   1  21
ATOM     21  C   UNL A   1      31.813  29.590  25.540  1.00  0.00     0.275 C 
BRANCH  21  22
ATOM     22  O   UNL A   1      33.147  30.064  25.822  1.00  0.00    -0.458 OA
BRANCH  22  23
ATOM     23  C   UNL A   1      33.236  31.063  26.728  1.00  0.00     0.338 C 
ATOM     24  O   UNL A   1      32.444  31.983  26.908  1.00  0.00    -0.246 OA
BRANCH  23  25
ATOM     25  C   UNL A   1      34.433  30.856  27.554  1.00  0.00     0.060 A 
ATOM     26  C   UNL A   1      34.698  29.570  28.013  1.00  0.00     0.016 A 
ATOM     27  C   UNL A   1      35.280  31.914  27.902  1.00  0.00     0.016 A 
ATOM     28  C   UNL A   1      35.852  29.325  28.759  1.00  0.00     0.010 A 
ATOM     29  C   UNL A   1      36.430  31.667  28.676  1.00  0.00     0.010 A 
ATOM     30  C   UNL A   1      36.738  30.363  29.092  1.00  0.00    -0.014 A 
BRANCH  30  31
ATOM     31  C   UNL A   1      37.925  30.024  29.927  1.00  0.00     0.031 A 
ATOM     32  C   UNL A   1      39.068  29.291  29.295  1.00  0.00     0.074 A 
ATOM     33  C   UNL A   1      38.066  30.488  31.185  1.00  0.00     0.049 A 
ATOM     34  N   UNL A   1      40.192  28.891  29.830  1.00  0.00    -0.248 NA
ATOM     35  C   UNL A   1      38.927  28.966  27.868  1.00  0.00     0.031 C 
ATOM     36  C   UNL A   1      37.074  31.279  31.890  1.00  0.00     0.029 A 
ATOM     37  N   UNL A   1      39.116  30.418  32.074  1.00  0.00    -0.354 N 
ATOM     38  C   UNL A   1      40.870  28.229  28.820  1.00  0.00     0.074 A 
ATOM     39  C   UNL A   1      40.066  28.341  27.622  1.00  0.00     0.031 C 
ATOM     40  C   UNL A   1      37.589  31.717  33.048  1.00  0.00     0.029 A 
ATOM     41  C   UNL A   1      38.911  31.132  33.233  1.00  0.00     0.049 A 
ATOM     42  H   UNL A   1      39.938  29.905  31.897  1.00  0.00     0.167 HD
ATOM     43  C   UNL A   1      42.028  27.535  28.904  1.00  0.00     0.037 A 
ATOM     44  C   UNL A   1      39.674  31.265  34.339  1.00  0.00     0.037 A 
ATOM     45  C   UNL A   1      42.793  27.382  30.111  1.00  0.00     0.049 A 
ATOM     46  C   UNL A   1      40.940  30.455  34.426  1.00  0.00     0.074 A 
ATOM     47  C   UNL A   1      43.907  26.596  30.342  1.00  0.00     0.029 A 
ATOM     48  N   UNL A   1      42.512  28.034  31.305  1.00  0.00    -0.354 N 
ATOM     49  N   UNL A   1      41.495  29.695  33.514  1.00  0.00    -0.248 NA
ATOM     50  C   UNL A   1      41.646  30.457  35.715  1.00  0.00     0.031 C 
ATOM     51  C   UNL A   1      44.283  26.750  31.683  1.00  0.00     0.029 A 
ATOM     52  C   UNL A   1      43.432  27.672  32.274  1.00  0.00     0.049 A 
ATOM     53  H   UNL A   1      41.766  28.663  31.441  1.00  0.00     0.167 HD
ATOM     54  C   UNL A   1      42.595  29.107  34.121  1.00  0.00     0.074 A 
ATOM     55  C   UNL A   1      42.657  29.635  35.470  1.00  0.00     0.031 C 
ATOM     56  C   UNL A   1      43.462  28.195  33.617  1.00  0.00     0.037 A 
BRANCH  43  57
ATOM     57  C   UNL A   1      42.425  26.780  27.672  1.00  0.00     0.064 A 
ATOM     58  C   UNL A   1      41.997  25.467  27.431  1.00  0.00     0.173 A 
ATOM     59  C   UNL A   1      43.341  27.353  26.776  1.00  0.00     0.173 A 
ATOM     60  F   UNL A   1      41.158  24.863  28.285  1.00  0.00    -0.203 F 
ATOM     61  C   UNL A   1      42.503  24.741  26.356  1.00  0.00     0.198 A 
ATOM     62  C   UNL A   1      43.823  26.633  25.688  1.00  0.00     0.198 A 
ATOM     63  F   UNL A   1      43.793  28.601  26.976  1.00  0.00    -0.203 F 
ATOM     64  F   UNL A   1      42.143  23.461  26.185  1.00  0.00    -0.200 F 
ATOM     65  C   UNL A   1      43.415  25.323  25.487  1.00  0.00     0.200 A 
ATOM     66  F   UNL A   1      44.708  27.196  24.854  1.00  0.00    -0.200 F 
ATOM     67  F   UNL A   1      43.919  24.614  24.468  1.00  0.00    -0.200 F 
ENDBRANCH  43  57
BRANCH  44  68
ATOM     68  C   UNL A   1      39.218  32.107  35.486  1.00  0.00     0.064 A 
ATOM     69  C   UNL A   1      38.421  31.582  36.516  1.00  0.00     0.173 A 
ATOM     70  C   UNL A   1      39.570  33.464  35.579  1.00  0.00     0.173 A 
ATOM     71  F   UNL A   1      38.007  30.308  36.460  1.00  0.00    -0.203 F 
ATOM     72  C   UNL A   1      38.012  32.373  37.592  1.00  0.00     0.198 A 
ATOM     73  C   UNL A   1      39.202  34.240  36.678  1.00  0.00     0.198 A 
ATOM     74  F   UNL A   1      40.298  34.037  34.610  1.00  0.00    -0.203 F 
ATOM     75  F   UNL A   1      37.215  31.856  38.537  1.00  0.00    -0.200 F 
ATOM     76  C   UNL A   1      38.420  33.695  37.682  1.00  0.00     0.200 A 
ATOM     77  F   UNL A   1      39.613  35.512  36.762  1.00  0.00    -0.200 F 
ATOM     78  F   UNL A   1      38.050  34.446  38.728  1.00  0.00    -0.200 F 
ENDBRANCH  44  68
BRANCH  56  79
ATOM     79  C   UNL A   1      44.554  27.730  34.530  1.00  0.00     0.064 A 
ATOM     80  C   UNL A   1      44.401  26.598  35.345  1.00  0.00     0.173 A 
ATOM     81  C   UNL A   1      45.766  28.432  34.595  1.00  0.00     0.173 A 
ATOM     82  F   UNL A   1      43.251  25.907  35.331  1.00  0.00    -0.203 F 
ATOM     83  C   UNL A   1      45.412  26.204  36.216  1.00  0.00     0.198 A 
ATOM     84  C   UNL A   1      46.784  28.020  35.451  1.00  0.00     0.198 A 
ATOM     85  F   UNL A   1      45.959  29.518  33.834  1.00  0.00    -0.203 F 
ATOM     86  F   UNL A   1      45.227  25.150  37.024  1.00  0.00    -0.200 F 
ATOM     87  C   UNL A   1      46.603  26.914  36.266  1.00  0.00     0.200 A 
ATOM     88  F   UNL A   1      47.935  28.705  35.495  1.00  0.00    -0.200 F 
ATOM     89  F   UNL A   1      47.572  26.539  37.113  1.00  0.00    -0.200 F 
ENDBRANCH  56  79
ENDBRANCH  30  31
ENDBRANCH  23  25
ENDBRANCH  22  23
ENDBRANCH  21  22
ENDBRANCH   1  21
TORSDOF 15
ENDMDL
MODEL 2
REMARK VINA RESULT:     -11.6      2.156      4.410
REMARK SMILES C[C@@H](C(=O)OCCOC(=O)c1ccc(-c2c3nc(c(-c4c(F)c(F)c(F)c(F)c4F)c4ccc([nH]4)c(-c4c(F)c(F)c(F)c(F)c4F)c4nc(c(-c5c(F)c(F)c(F)c(F)c5F)c5ccc2[nH]5)C=C4)C=C3)cc1)c1ccc(C[C@H]2CCC[C@@H]2O)cc1
REMARK SMILES IDX 6 1 5 2 3 3 4 4 2 5 1 6 74 7 75 8 86 9 76 10 85 11 77 12
REMARK SMILES IDX 78 13 79 14 80 15 83 16 81 17 82 18 84 19 7 21 8 22 9 23
REMARK SMILES IDX 10 24 11 25 12 26 73 27 13 28 72 29 14 30 15 31 16 32 66 33
REMARK SMILES IDX 17 34 71 35 65 36 67 37 18 38 70 39 64 40 63 41 19 43 51 44
REMARK SMILES IDX 31 45 50 46 32 47 35 48 49 49 68 50 33 51 34 52 48 54 69 55
REMARK SMILES IDX 36 56 20 57 21 58 29 59 22 60 23 61 27 62 30 63 24 64 25 65
REMARK SMILES IDX 28 66 26 67 52 68 53 69 61 70 54 71 55 72 59 73 62 74 56 75
REMARK SMILES IDX 57 76 60 77 58 78 37 79 38 80 46 81 39 82 40 83 44 84 47 85
REMARK SMILES IDX 41 86 42 87 45 88 43 89
REMARK H PARENT 84 20 67 42 35 53
REMARK Flexibility Score: inf
ROOT
ATOM      1  C   UNL A   1      31.678  28.159  25.976  1.00  0.00     0.274 C 
ENDROOT
BRANCH   1   2
ATOM      2  O   UNL A   1      32.910  27.424  25.815  1.00  0.00    -0.462 OA
BRANCH   2   3
ATOM      3  C   UNL A   1      32.789  26.132  25.407  1.00  0.00     0.313 C 
ATOM      4  O   UNL A   1      32.290  25.241  26.089  1.00  0.00    -0.252 OA
BRANCH   3   5
ATOM      5  C   UNL A   1      33.296  25.907  23.968  1.00  0.00     0.126 C 
ATOM      6  C   UNL A   1      32.202  25.986  22.903  1.00  0.00     0.025 C 
BRANCH   5   7
ATOM      7  C   UNL A   1      34.088  24.611  23.955  1.00  0.00    -0.034 A 
ATOM      8  C   UNL A   1      33.627  23.505  23.241  1.00  0.00     0.005 A 
ATOM      9  C   UNL A   1      35.131  24.435  24.877  1.00  0.00     0.005 A 
ATOM     10  C   UNL A   1      34.032  22.231  23.620  1.00  0.00     0.004 A 
ATOM     11  C   UNL A   1      35.526  23.154  25.254  1.00  0.00     0.004 A 
ATOM     12  C   UNL A   1      34.874  22.047  24.718  1.00  0.00    -0.048 A 
BRANCH  12  13
ATOM     13  C   UNL A   1      34.928  20.699  25.390  1.00  0.00     0.041 C 
BRANCH  13  14
ATOM     14  C   UNL A   1      34.125  19.581  24.690  1.00  0.00     0.022 C 
ATOM     15  C   UNL A   1      34.876  18.275  24.410  1.00  0.00     0.007 C 
ATOM     16  C   UNL A   1      32.855  19.043  25.359  1.00  0.00     0.117 C 
ATOM     17  C   UNL A   1      33.782  17.256  24.051  1.00  0.00     0.003 C 
ATOM     18  C   UNL A   1      32.458  17.917  24.411  1.00  0.00     0.032 C 
BRANCH  16  19
ATOM     19  O   UNL A   1      31.825  19.992  25.440  1.00  0.00    -0.393 OA
ATOM     20  H   UNL A   1      31.376  19.909  26.294  1.00  0.00     0.210 HD
ENDBRANCH  16  19
ENDBRANCH  13  14
ENDBRANCH  12  13
ENDBRANCH   5   7
ENDBRANCH   3   5
ENDBRANCH   2   3
ENDBRANCH   1   2
BRANCH   1  21
ATOM     21  C   UNL A   1      31.850  29.562  25.395  1.00  0.00     0.275 C 
BRANCH  21  22
ATOM     22  O   UNL A   1      33.161  30.069  25.728  1.00  0.00    -0.458 OA
BRANCH  22  23
ATOM     23  C   UNL A   1      33.196  31.019  26.688  1.00  0.00     0.338 C 
ATOM     24  O   UNL A   1      32.365  31.895  26.905  1.00  0.00    -0.246 OA
BRANCH  23  25
ATOM     25  C   UNL A   1      34.390  30.816  27.520  1.00  0.00     0.060 A 
ATOM     26  C   UNL A   1      34.672  29.526  27.957  1.00  0.00     0.016 A 
ATOM     27  C   UNL A   1      35.217  31.880  27.894  1.00  0.00     0.016 A 
ATOM     28  C   UNL A   1      35.823  29.285  28.708  1.00  0.00     0.010 A 
ATOM     29  C   UNL A   1      36.364  31.637  28.673  1.00  0.00     0.010 A 
ATOM     30  C   UNL A   1      36.691  30.330  29.067  1.00  0.00    -0.014 A 
BRANCH  30  31
ATOM     31  C   UNL A   1      37.876  29.995  29.906  1.00  0.00     0.031 A 
ATOM     32  C   UNL A   1      39.024  29.267  29.276  1.00  0.00     0.074 A 
ATOM     33  C   UNL A   1      38.012  30.458  31.164  1.00  0.00     0.049 A 
ATOM     34  N   UNL A   1      40.147  28.870  29.815  1.00  0.00    -0.248 NA
ATOM     35  C   UNL A   1      38.888  28.943  27.848  1.00  0.00     0.031 C 
ATOM     36  C   UNL A   1      37.014  31.245  31.868  1.00  0.00     0.029 A 
ATOM     37  N   UNL A   1      39.059  30.390  32.056  1.00  0.00    -0.354 N 
ATOM     38  C   UNL A   1      40.831  28.212  28.806  1.00  0.00     0.074 A 
ATOM     39  C   UNL A   1      40.030  28.322  27.605  1.00  0.00     0.031 C 
ATOM     40  C   UNL A   1      37.524  31.683  33.028  1.00  0.00     0.029 A 
ATOM     41  C   UNL A   1      38.848  31.102  33.216  1.00  0.00     0.049 A 
ATOM     42  H   UNL A   1      39.883  29.881  31.881  1.00  0.00     0.167 HD
ATOM     43  C   UNL A   1      41.991  27.522  28.892  1.00  0.00     0.037 A 
ATOM     44  C   UNL A   1      39.606  31.237  34.325  1.00  0.00     0.037 A 
ATOM     45  C   UNL A   1      42.753  27.370  30.102  1.00  0.00     0.049 A 
ATOM     46  C   UNL A   1      40.875  30.431  34.414  1.00  0.00     0.074 A 
ATOM     47  C   UNL A   1      43.869  26.588  30.334  1.00  0.00     0.029 A 
ATOM     48  N   UNL A   1      42.466  28.020  31.295  1.00  0.00    -0.354 N 
ATOM     49  N   UNL A   1      41.436  29.674  33.503  1.00  0.00    -0.248 NA
ATOM     50  C   UNL A   1      41.577  30.434  35.706  1.00  0.00     0.031 C 
ATOM     51  C   UNL A   1      44.240  26.742  31.677  1.00  0.00     0.029 A 
ATOM     52  C   UNL A   1      43.384  27.660  32.267  1.00  0.00     0.049 A 
ATOM     53  H   UNL A   1      41.717  28.646  31.430  1.00  0.00     0.167 HD
ATOM     54  C   UNL A   1      42.536  29.090  34.113  1.00  0.00     0.074 A 
ATOM     55  C   UNL A   1      42.592  29.616  35.463  1.00  0.00     0.031 C 
ATOM     56  C   UNL A   1      43.408  28.181  33.610  1.00  0.00     0.037 A 
BRANCH  43  57
ATOM     57  C   UNL A   1      42.395  26.770  27.661  1.00  0.00     0.064 A 
ATOM     58  C   UNL A   1      41.965  25.459  27.412  1.00  0.00     0.173 A 
ATOM     59  C   UNL A   1      43.317  27.344  26.772  1.00  0.00     0.173 A 
ATOM     60  F   UNL A   1      41.119  24.854  28.259  1.00  0.00    -0.203 F 
ATOM     61  C   UNL A   1      42.477  24.735  26.339  1.00  0.00     0.198 A 
ATOM     62  C   UNL A   1      43.806  26.626  25.685  1.00  0.00     0.198 A 
ATOM     63  F   UNL A   1      43.771  28.590  26.979  1.00  0.00    -0.203 F 
ATOM     64  F   UNL A   1      42.115  23.456  26.162  1.00  0.00    -0.200 F 
ATOM     65  C   UNL A   1      43.396  25.318  25.477  1.00  0.00     0.200 A 
ATOM     66  F   UNL A   1      44.697  27.190  24.859  1.00  0.00    -0.200 F 
ATOM     67  F   UNL A   1      43.905  24.610  24.459  1.00  0.00    -0.200 F 
ENDBRANCH  43  57
BRANCH  44  68
ATOM     68  C   UNL A   1      39.144  32.075  35.471  1.00  0.00     0.064 A 
ATOM     69  C   UNL A   1      38.355  31.544  36.504  1.00  0.00     0.173 A 
ATOM     70  C   UNL A   1      39.482  33.436  35.561  1.00  0.00     0.173 A 
ATOM     71  F   UNL A   1      37.954  30.265  36.451  1.00  0.00    -0.203 F 
ATOM     72  C   UNL A   1      37.939  32.332  37.579  1.00  0.00     0.198 A 
ATOM     73  C   UNL A   1      39.108  34.210  36.659  1.00  0.00     0.198 A 
ATOM     74  F   UNL A   1      40.201  34.016  34.590  1.00  0.00    -0.203 F 
ATOM     75  F   UNL A   1      37.150  31.808  38.527  1.00  0.00    -0.200 F 
ATOM     76  C   UNL A   1      38.333  33.658  37.666  1.00  0.00     0.200 A 
ATOM     77  F   UNL A   1      39.505  35.487  36.740  1.00  0.00    -0.200 F 
ATOM     78  F   UNL A   1      37.958  34.408  38.712  1.00  0.00    -0.200 F 
ENDBRANCH  44  68
BRANCH  56  79
ATOM     79  C   UNL A   1      44.499  27.720  34.527  1.00  0.00     0.064 A 
ATOM     80  C   UNL A   1      45.723  28.400  34.615  1.00  0.00     0.173 A 
ATOM     81  C   UNL A   1      44.318  26.579  35.320  1.00  0.00     0.173 A 
ATOM     82  F   UNL A   1      45.948  29.487  33.861  1.00  0.00    -0.203 F 
ATOM     83  C   UNL A   1      46.739  27.935  35.444  1.00  0.00     0.198 A 
ATOM     84  C   UNL A   1      45.330  26.129  36.165  1.00  0.00     0.198 A 
ATOM     85  F   UNL A   1      43.165  25.897  35.270  1.00  0.00    -0.203 F 
ATOM     86  F   UNL A   1      47.920  28.569  35.477  1.00  0.00    -0.200 F 
ATOM     87  C   UNL A   1      46.541  26.801  36.219  1.00  0.00     0.200 A 
ATOM     88  F   UNL A   1      45.135  25.037  36.916  1.00  0.00    -0.200 F 
ATOM     89  F   UNL A   1      47.524  26.348  37.009  1.00  0.00    -0.200 F 
ENDBRANCH  56  79
ENDBRANCH  30  31
ENDBRANCH  23  25
ENDBRANCH  22  23
ENDBRANCH  21  22
ENDBRANCH   1  21
TORSDOF 15
ENDMDL
MODEL 3
REMARK VINA RESULT:     -11.5      2.038      8.538
REMARK SMILES C[C@@H](C(=O)OCCOC(=O)c1ccc(-c2c3nc(c(-c4c(F)c(F)c(F)c(F)c4F)c4ccc([nH]4)c(-c4c(F)c(F)c(F)c(F)c4F)c4nc(c(-c5c(F)c(F)c(F)c(F)c5F)c5ccc2[nH]5)C=C4)C=C3)cc1)c1ccc(C[C@H]2CCC[C@@H]2O)cc1
REMARK SMILES IDX 6 1 5 2 3 3 4 4 2 5 1 6 74 7 75 8 86 9 76 10 85 11 77 12
REMARK SMILES IDX 78 13 79 14 80 15 83 16 81 17 82 18 84 19 7 21 8 22 9 23
REMARK SMILES IDX 10 24 11 25 12 26 73 27 13 28 72 29 14 30 15 31 16 32 66 33
REMARK SMILES IDX 17 34 71 35 65 36 67 37 18 38 70 39 64 40 63 41 19 43 51 44
REMARK SMILES IDX 31 45 50 46 32 47 35 48 49 49 68 50 33 51 34 52 48 54 69 55
REMARK SMILES IDX 36 56 20 57 21 58 29 59 22 60 23 61 27 62 30 63 24 64 25 65
REMARK SMILES IDX 28 66 26 67 52 68 53 69 61 70 54 71 55 72 59 73 62 74 56 75
REMARK SMILES IDX 57 76 60 77 58 78 37 79 38 80 46 81 39 82 40 83 44 84 47 85
REMARK SMILES IDX 41 86 42 87 45 88 43 89
REMARK H PARENT 84 20 67 42 35 53
REMARK Flexibility Score: inf
ROOT
ATOM      1  C   UNL A   1      31.119  31.538  26.093  1.00  0.00     0.274 C 
ENDROOT
BRANCH   1   2
ATOM      2  O   UNL A   1      32.291  30.694  26.087  1.00  0.00    -0.462 OA
BRANCH   2   3
ATOM      3  C   UNL A   1      32.086  29.385  25.779  1.00  0.00     0.313 C 
ATOM      4  O   UNL A   1      31.486  29.001  24.778  1.00  0.00    -0.252 OA
BRANCH   3   5
ATOM      5  C   UNL A   1      32.737  28.422  26.792  1.00  0.00     0.126 C 
ATOM      6  C   UNL A   1      34.116  28.868  27.278  1.00  0.00     0.025 C 
BRANCH   5   7
ATOM      7  C   UNL A   1      32.708  27.029  26.189  1.00  0.00    -0.034 A 
ATOM      8  C   UNL A   1      31.682  26.138  26.505  1.00  0.00     0.005 A 
ATOM      9  C   UNL A   1      33.851  26.540  25.538  1.00  0.00     0.005 A 
ATOM     10  C   UNL A   1      31.905  24.771  26.391  1.00  0.00     0.004 A 
ATOM     11  C   UNL A   1      34.067  25.168  25.434  1.00  0.00     0.004 A 
ATOM     12  C   UNL A   1      33.148  24.282  25.988  1.00  0.00    -0.048 A 
BRANCH  12  13
ATOM     13  C   UNL A   1      33.521  22.858  26.309  1.00  0.00     0.041 C 
BRANCH  13  14
ATOM     14  C   UNL A   1      32.817  21.783  25.452  1.00  0.00     0.022 C 
ATOM     15  C   UNL A   1      32.790  22.026  23.940  1.00  0.00     0.007 C 
ATOM     16  C   UNL A   1      33.328  20.338  25.500  1.00  0.00     0.117 C 
ATOM     17  C   UNL A   1      32.366  20.681  23.328  1.00  0.00     0.003 C 
ATOM     18  C   UNL A   1      32.446  19.662  24.457  1.00  0.00     0.032 C 
BRANCH  16  19
ATOM     19  O   UNL A   1      33.151  19.728  26.751  1.00  0.00    -0.393 OA
ATOM     20  H   UNL A   1      32.386  19.134  26.715  1.00  0.00     0.210 HD
ENDBRANCH  16  19
ENDBRANCH  13  14
ENDBRANCH  12  13
ENDBRANCH   5   7
ENDBRANCH   3   5
ENDBRANCH   2   3
ENDBRANCH   1   2
BRANCH   1  21
ATOM     21  C   UNL A   1      31.422  32.813  26.877  1.00  0.00     0.275 C 
BRANCH  21  22
ATOM     22  O   UNL A   1      32.852  32.973  27.013  1.00  0.00    -0.458 OA
BRANCH  22  23
ATOM     23  C   UNL A   1      33.258  33.813  27.990  1.00  0.00     0.338 C 
ATOM     24  O   UNL A   1      32.716  34.850  28.359  1.00  0.00    -0.246 OA
BRANCH  23  25
ATOM     25  C   UNL A   1      34.462  33.261  28.626  1.00  0.00     0.060 A 
ATOM     26  C   UNL A   1      34.396  31.972  29.145  1.00  0.00     0.016 A 
ATOM     27  C   UNL A   1      35.642  34.004  28.741  1.00  0.00     0.016 A 
ATOM     28  C   UNL A   1      35.533  31.395  29.713  1.00  0.00     0.010 A 
ATOM     29  C   UNL A   1      36.779  33.428  29.338  1.00  0.00     0.010 A 
ATOM     30  C   UNL A   1      36.741  32.106  29.808  1.00  0.00    -0.014 A 
BRANCH  30  31
ATOM     31  C   UNL A   1      37.895  31.433  30.467  1.00  0.00     0.031 A 
ATOM     32  C   UNL A   1      38.074  31.588  31.947  1.00  0.00     0.074 A 
ATOM     33  C   UNL A   1      38.690  30.569  29.804  1.00  0.00     0.049 A 
ATOM     34  N   UNL A   1      39.004  31.098  32.724  1.00  0.00    -0.248 NA
ATOM     35  C   UNL A   1      37.067  32.403  32.644  1.00  0.00     0.031 C 
ATOM     36  C   UNL A   1      38.577  30.263  28.389  1.00  0.00     0.029 A 
ATOM     37  N   UNL A   1      39.707  29.746  30.234  1.00  0.00    -0.354 N 
ATOM     38  C   UNL A   1      38.722  31.582  33.990  1.00  0.00     0.074 A 
ATOM     39  C   UNL A   1      37.497  32.345  33.894  1.00  0.00     0.031 C 
ATOM     40  C   UNL A   1      39.400  29.250  28.082  1.00  0.00     0.029 A 
ATOM     41  C   UNL A   1      40.199  28.914  29.254  1.00  0.00     0.049 A 
ATOM     42  H   UNL A   1      40.050  29.752  31.157  1.00  0.00     0.167 HD
ATOM     43  C   UNL A   1      39.458  31.453  35.119  1.00  0.00     0.037 A 
ATOM     44  C   UNL A   1      41.209  28.017  29.277  1.00  0.00     0.037 A 
ATOM     45  C   UNL A   1      40.704  30.740  35.195  1.00  0.00     0.049 A 
ATOM     46  C   UNL A   1      42.037  27.918  30.531  1.00  0.00     0.074 A 
ATOM     47  C   UNL A   1      41.595  30.655  36.248  1.00  0.00     0.029 A 
ATOM     48  N   UNL A   1      41.238  29.984  34.159  1.00  0.00    -0.354 N 
ATOM     49  N   UNL A   1      41.856  28.510  31.686  1.00  0.00    -0.248 NA
ATOM     50  C   UNL A   1      43.249  27.089  30.465  1.00  0.00     0.031 C 
ATOM     51  C   UNL A   1      42.683  29.872  35.839  1.00  0.00     0.029 A 
ATOM     52  C   UNL A   1      42.445  29.428  34.548  1.00  0.00     0.049 A 
ATOM     53  H   UNL A   1      40.818  29.863  33.276  1.00  0.00     0.167 HD
ATOM     54  C   UNL A   1      42.940  28.152  32.475  1.00  0.00     0.074 A 
ATOM     55  C   UNL A   1      43.752  27.251  31.680  1.00  0.00     0.031 C 
ATOM     56  C   UNL A   1      43.247  28.551  33.733  1.00  0.00     0.037 A 
BRANCH  43  57
ATOM     57  C   UNL A   1      38.978  32.237  36.302  1.00  0.00     0.064 A 
ATOM     58  C   UNL A   1      39.442  33.531  36.579  1.00  0.00     0.173 A 
ATOM     59  C   UNL A   1      38.118  31.630  37.230  1.00  0.00     0.173 A 
ATOM     60  F   UNL A   1      40.302  34.132  35.743  1.00  0.00    -0.203 F 
ATOM     61  C   UNL A   1      39.093  34.173  37.764  1.00  0.00     0.198 A 
ATOM     62  C   UNL A   1      37.750  32.286  38.400  1.00  0.00     0.198 A 
ATOM     63  F   UNL A   1      37.662  30.386  37.017  1.00  0.00    -0.203 F 
ATOM     64  F   UNL A   1      39.610  35.377  38.049  1.00  0.00    -0.200 F 
ATOM     65  C   UNL A   1      38.249  33.551  38.673  1.00  0.00     0.200 A 
ATOM     66  F   UNL A   1      36.939  31.680  39.279  1.00  0.00    -0.200 F 
ATOM     67  F   UNL A   1      37.935  34.161  39.824  1.00  0.00    -0.200 F 
ENDBRANCH  43  57
BRANCH  44  68
ATOM     68  C   UNL A   1      41.559  27.228  28.058  1.00  0.00     0.064 A 
ATOM     69  C   UNL A   1      42.408  27.741  27.065  1.00  0.00     0.173 A 
ATOM     70  C   UNL A   1      41.049  25.934  27.856  1.00  0.00     0.173 A 
ATOM     71  F   UNL A   1      42.887  28.989  27.172  1.00  0.00    -0.203 F 
ATOM     72  C   UNL A   1      42.742  26.990  25.935  1.00  0.00     0.198 A 
ATOM     73  C   UNL A   1      41.421  25.167  26.753  1.00  0.00     0.198 A 
ATOM     74  F   UNL A   1      40.202  25.399  28.747  1.00  0.00    -0.203 F 
ATOM     75  F   UNL A   1      43.520  27.524  24.984  1.00  0.00    -0.200 F 
ATOM     76  C   UNL A   1      42.264  25.697  25.791  1.00  0.00     0.200 A 
ATOM     77  F   UNL A   1      40.965  23.914  26.629  1.00  0.00    -0.200 F 
ATOM     78  F   UNL A   1      42.607  24.966  24.721  1.00  0.00    -0.200 F 
ENDBRANCH  44  68
BRANCH  56  79
ATOM     79  C   UNL A   1      44.508  27.998  34.323  1.00  0.00     0.064 A 
ATOM     80  C   UNL A   1      45.734  28.671  34.204  1.00  0.00     0.173 A 
ATOM     81  C   UNL A   1      44.489  26.776  35.010  1.00  0.00     0.173 A 
ATOM     82  F   UNL A   1      45.803  29.834  33.539  1.00  0.00    -0.203 F 
ATOM     83  C   UNL A   1      46.901  28.123  34.725  1.00  0.00     0.198 A 
ATOM     84  C   UNL A   1      45.656  26.243  35.550  1.00  0.00     0.198 A 
ATOM     85  F   UNL A   1      43.341  26.098  35.150  1.00  0.00    -0.203 F 
ATOM     86  F   UNL A   1      48.071  28.756  34.557  1.00  0.00    -0.200 F 
ATOM     87  C   UNL A   1      46.861  26.911  35.399  1.00  0.00     0.200 A 
ATOM     88  F   UNL A   1      45.615  25.074  36.204  1.00  0.00    -0.200 F 
ATOM     89  F   UNL A   1      47.989  26.379  35.892  1.00  0.00    -0.200 F 
ENDBRANCH  56  79
ENDBRANCH  30  31
ENDBRANCH  23  25
ENDBRANCH  22  23
ENDBRANCH  21  22
ENDBRANCH   1  21
TORSDOF 15
ENDMDL
