MODEL 1
REMARK VINA RESULT:     -12.1      0.000      0.000
REMARK SMILES CC1(C)CC[NH+](CC[C@H]2CCC[C@]2([NH3+])C(=O)OCCOC(=O)c2ccc(-c3c4nc(c(-c5c(F)c(F)c(F)c(F)c5F)c5ccc([nH]5)c(-c5c(F)c(F)c(F)c(F)c5F)c5nc(c(-c6c(F)c(F)c(F)c(F)c6F)c6ccc3[nH]6)C=C5)C=C4)cc2)CC1
REMARK SMILES IDX 18 1 17 2 15 3 16 4 13 5 9 6 10 7 11 8 12 9 8 10 7 11 6 12
REMARK SMILES IDX 1 13 2 14 3 15 4 16 87 17 5 18 86 19 14 21 19 25 20 26 21 27
REMARK SMILES IDX 22 28 23 29 24 30 85 31 25 32 84 33 26 34 27 35 28 36 78 37
REMARK SMILES IDX 29 38 83 39 77 40 79 41 30 42 82 43 76 44 75 45 31 47 63 48
REMARK SMILES IDX 43 49 62 50 44 51 47 52 61 53 80 54 45 55 46 56 60 58 81 59
REMARK SMILES IDX 48 60 32 61 33 62 41 63 34 64 35 65 39 66 42 67 36 68 37 69
REMARK SMILES IDX 40 70 38 71 64 72 65 73 73 74 66 75 67 76 71 77 74 78 68 79
REMARK SMILES IDX 69 80 72 81 70 82 49 83 50 84 58 85 51 86 52 87 56 88 59 89
REMARK SMILES IDX 53 90 54 91 57 92 55 93
REMARK H PARENT 6 20 14 22 14 23 14 24 79 46 47 57
REMARK Flexibility Score: inf
ROOT
ATOM      1  C   UNL A   1      30.958  29.262  24.345  1.00  0.00     0.274 C 
ENDROOT
BRANCH   1   2
ATOM      2  O   UNL A   1      30.906  27.949  23.738  1.00  0.00    -0.457 OA
BRANCH   2   3
ATOM      3  C   UNL A   1      32.029  27.475  23.137  1.00  0.00     0.368 C 
ATOM      4  O   UNL A   1      32.927  28.191  22.695  1.00  0.00    -0.245 OA
BRANCH   3   5
ATOM      5  C   UNL A   1      32.164  25.891  23.187  1.00  0.00     0.195 C 
ATOM      6  C   UNL A   1      31.500  25.176  24.399  1.00  0.00     0.068 C 
ATOM      7  C   UNL A   1      32.361  25.669  25.560  1.00  0.00     0.011 C 
ATOM      8  C   UNL A   1      33.756  25.849  24.972  1.00  0.00     0.008 C 
ATOM      9  C   UNL A   1      33.654  25.658  23.459  1.00  0.00     0.081 C 
BRANCH   6  10
ATOM     10  C   UNL A   1      31.318  23.607  24.423  1.00  0.00     0.072 C 
BRANCH  10  11
ATOM     11  C   UNL A   1      31.177  22.720  25.699  1.00  0.00     0.262 C 
BRANCH  11  12
ATOM     12  N   UNL A   1      32.128  21.685  26.130  1.00  0.00    -0.335 N 
ATOM     13  C   UNL A   1      35.834  20.516  25.002  1.00  0.00     0.011 C 
ATOM     14  C   UNL A   1      34.797  21.633  24.812  1.00  0.00    -0.025 C 
ATOM     15  C   UNL A   1      35.373  22.616  23.759  1.00  0.00     0.011 C 
ATOM     16  C   UNL A   1      33.520  20.993  24.250  1.00  0.00     0.068 C 
ATOM     17  C   UNL A   1      34.540  22.442  26.110  1.00  0.00     0.068 C 
ATOM     18  C   UNL A   1      32.450  20.587  25.241  1.00  0.00     0.262 C 
ATOM     19  C   UNL A   1      33.293  22.067  26.917  1.00  0.00     0.262 C 
ATOM     20  H   UNL A   1      31.452  21.307  26.793  1.00  0.00     0.348 HD
ENDBRANCH  11  12
ENDBRANCH  10  11
ENDBRANCH   6  10
BRANCH   5  21
ATOM     21  N   UNL A   1      31.707  25.381  21.887  1.00  0.00    -0.343 N 
ATOM     22  H   UNL A   1      30.819  24.893  22.006  1.00  0.00     0.345 HD
ATOM     23  H   UNL A   1      32.401  24.736  21.511  1.00  0.00     0.345 HD
ATOM     24  H   UNL A   1      31.582  26.160  21.241  1.00  0.00     0.345 HD
ENDBRANCH   5  21
ENDBRANCH   3   5
ENDBRANCH   2   3
ENDBRANCH   1   2
BRANCH   1  25
ATOM     25  C   UNL A   1      31.729  29.203  25.674  1.00  0.00     0.275 C 
BRANCH  25  26
ATOM     26  O   UNL A   1      32.873  30.078  25.619  1.00  0.00    -0.458 OA
BRANCH  26  27
ATOM     27  C   UNL A   1      32.957  31.008  26.611  1.00  0.00     0.338 C 
ATOM     28  O   UNL A   1      32.110  31.844  26.876  1.00  0.00    -0.246 OA
BRANCH  27  29
ATOM     29  C   UNL A   1      34.188  30.788  27.436  1.00  0.00     0.060 A 
ATOM     30  C   UNL A   1      34.991  31.856  27.830  1.00  0.00     0.016 A 
ATOM     31  C   UNL A   1      34.632  29.489  27.708  1.00  0.00     0.016 A 
ATOM     32  C   UNL A   1      36.281  31.631  28.313  1.00  0.00     0.010 A 
ATOM     33  C   UNL A   1      35.858  29.277  28.369  1.00  0.00     0.010 A 
ATOM     34  C   UNL A   1      36.716  30.348  28.671  1.00  0.00    -0.014 A 
BRANCH  34  35
ATOM     35  C   UNL A   1      38.012  30.151  29.406  1.00  0.00     0.031 A 
ATOM     36  C   UNL A   1      39.128  29.306  28.837  1.00  0.00     0.074 A 
ATOM     37  C   UNL A   1      38.199  30.704  30.627  1.00  0.00     0.049 A 
ATOM     38  N   UNL A   1      40.157  28.771  29.450  1.00  0.00    -0.248 NA
ATOM     39  C   UNL A   1      39.079  29.017  27.396  1.00  0.00     0.031 C 
ATOM     40  C   UNL A   1      37.261  31.588  31.321  1.00  0.00     0.029 A 
ATOM     41  N   UNL A   1      39.251  30.597  31.513  1.00  0.00    -0.354 N 
ATOM     42  C   UNL A   1      40.832  28.021  28.493  1.00  0.00     0.074 A 
ATOM     43  C   UNL A   1      40.108  28.189  27.249  1.00  0.00     0.031 C 
ATOM     44  C   UNL A   1      37.794  31.989  32.480  1.00  0.00     0.029 A 
ATOM     45  C   UNL A   1      39.035  31.263  32.696  1.00  0.00     0.049 A 
ATOM     46  H   UNL A   1      40.074  30.094  31.317  1.00  0.00     0.167 HD
ATOM     47  C   UNL A   1      41.942  27.256  28.645  1.00  0.00     0.037 A 
ATOM     48  C   UNL A   1      39.688  31.236  33.873  1.00  0.00     0.037 A 
ATOM     49  C   UNL A   1      42.709  27.151  29.865  1.00  0.00     0.049 A 
ATOM     50  C   UNL A   1      40.871  30.335  34.041  1.00  0.00     0.074 A 
ATOM     51  C   UNL A   1      43.871  26.432  30.095  1.00  0.00     0.029 A 
ATOM     52  N   UNL A   1      42.405  27.797  31.053  1.00  0.00    -0.354 N 
ATOM     53  N   UNL A   1      41.436  29.545  33.164  1.00  0.00    -0.248 NA
ATOM     54  C   UNL A   1      41.484  30.293  35.376  1.00  0.00     0.031 C 
ATOM     55  C   UNL A   1      44.245  26.608  31.432  1.00  0.00     0.029 A 
ATOM     56  C   UNL A   1      43.343  27.476  32.023  1.00  0.00     0.049 A 
ATOM     57  H   UNL A   1      41.635  28.396  31.189  1.00  0.00     0.167 HD
ATOM     58  C   UNL A   1      42.467  28.910  33.838  1.00  0.00     0.074 A 
ATOM     59  C   UNL A   1      42.467  29.426  35.191  1.00  0.00     0.031 C 
ATOM     60  C   UNL A   1      43.330  27.975  33.373  1.00  0.00     0.037 A 
BRANCH  47  61
ATOM     61  C   UNL A   1      42.399  26.422  27.480  1.00  0.00     0.064 A 
ATOM     62  C   UNL A   1      43.416  26.840  26.612  1.00  0.00     0.173 A 
ATOM     63  C   UNL A   1      41.867  25.135  27.293  1.00  0.00     0.173 A 
ATOM     64  F   UNL A   1      43.953  28.063  26.741  1.00  0.00    -0.203 F 
ATOM     65  C   UNL A   1      43.877  26.007  25.594  1.00  0.00     0.198 A 
ATOM     66  C   UNL A   1      42.349  24.294  26.293  1.00  0.00     0.198 A 
ATOM     67  F   UNL A   1      40.899  24.679  28.103  1.00  0.00    -0.203 F 
ATOM     68  F   UNL A   1      44.834  26.437  24.759  1.00  0.00    -0.200 F 
ATOM     69  C   UNL A   1      43.351  24.732  25.443  1.00  0.00     0.200 A 
ATOM     70  F   UNL A   1      41.850  23.057  26.161  1.00  0.00    -0.200 F 
ATOM     71  F   UNL A   1      43.811  23.924  24.477  1.00  0.00    -0.200 F 
ENDBRANCH  47  61
BRANCH  48  72
ATOM     72  C   UNL A   1      39.153  32.019  35.018  1.00  0.00     0.064 A 
ATOM     73  C   UNL A   1      38.433  31.398  36.045  1.00  0.00     0.173 A 
ATOM     74  C   UNL A   1      39.396  33.398  35.129  1.00  0.00     0.173 A 
ATOM     75  F   UNL A   1      38.151  30.089  35.967  1.00  0.00    -0.203 F 
ATOM     76  C   UNL A   1      37.984  32.124  37.146  1.00  0.00     0.198 A 
ATOM     77  C   UNL A   1      38.979  34.114  36.248  1.00  0.00     0.198 A 
ATOM     78  F   UNL A   1      40.080  34.039  34.171  1.00  0.00    -0.203 F 
ATOM     79  F   UNL A   1      37.274  31.512  38.103  1.00  0.00    -0.200 F 
ATOM     80  C   UNL A   1      38.270  33.477  37.253  1.00  0.00     0.200 A 
ATOM     81  F   UNL A   1      39.278  35.416  36.356  1.00  0.00    -0.200 F 
ATOM     82  F   UNL A   1      37.862  34.167  38.326  1.00  0.00    -0.200 F 
ENDBRANCH  48  72
BRANCH  60  83
ATOM     83  C   UNL A   1      44.359  27.467  34.338  1.00  0.00     0.064 A 
ATOM     84  C   UNL A   1      45.581  28.132  34.521  1.00  0.00     0.173 A 
ATOM     85  C   UNL A   1      44.127  26.300  35.080  1.00  0.00     0.173 A 
ATOM     86  F   UNL A   1      45.859  29.239  33.815  1.00  0.00    -0.203 F 
ATOM     87  C   UNL A   1      46.545  27.628  35.389  1.00  0.00     0.198 A 
ATOM     88  C   UNL A   1      45.083  25.814  35.967  1.00  0.00     0.198 A 
ATOM     89  F   UNL A   1      42.974  25.629  34.941  1.00  0.00    -0.203 F 
ATOM     90  F   UNL A   1      47.728  28.248  35.507  1.00  0.00    -0.200 F 
ATOM     91  C   UNL A   1      46.294  26.473  36.114  1.00  0.00     0.200 A 
ATOM     92  F   UNL A   1      44.836  24.701  36.672  1.00  0.00    -0.200 F 
ATOM     93  F   UNL A   1      47.227  25.986  36.945  1.00  0.00    -0.200 F 
ENDBRANCH  60  83
ENDBRANCH  34  35
ENDBRANCH  27  29
ENDBRANCH  26  27
ENDBRANCH  25  26
ENDBRANCH   1  25
TORSDOF 15
ENDMDL
MODEL 2
REMARK VINA RESULT:     -12.0      0.203      1.266
REMARK SMILES CC1(C)CC[NH+](CC[C@H]2CCC[C@]2([NH3+])C(=O)OCCOC(=O)c2ccc(-c3c4nc(c(-c5c(F)c(F)c(F)c(F)c5F)c5ccc([nH]5)c(-c5c(F)c(F)c(F)c(F)c5F)c5nc(c(-c6c(F)c(F)c(F)c(F)c6F)c6ccc3[nH]6)C=C5)C=C4)cc2)CC1
REMARK SMILES IDX 18 1 17 2 15 3 16 4 13 5 9 6 10 7 11 8 12 9 8 10 7 11 6 12
REMARK SMILES IDX 1 13 2 14 3 15 4 16 87 17 5 18 86 19 14 21 19 25 20 26 21 27
REMARK SMILES IDX 22 28 23 29 24 30 85 31 25 32 84 33 26 34 27 35 28 36 78 37
REMARK SMILES IDX 29 38 83 39 77 40 79 41 30 42 82 43 76 44 75 45 31 47 63 48
REMARK SMILES IDX 43 49 62 50 44 51 47 52 61 53 80 54 45 55 46 56 60 58 81 59
REMARK SMILES IDX 48 60 32 61 33 62 41 63 34 64 35 65 39 66 42 67 36 68 37 69
REMARK SMILES IDX 40 70 38 71 64 72 65 73 73 74 66 75 67 76 71 77 74 78 68 79
REMARK SMILES IDX 69 80 72 81 70 82 49 83 50 84 58 85 51 86 52 87 56 88 59 89
REMARK SMILES IDX 53 90 54 91 57 92 55 93
REMARK H PARENT 6 20 14 22 14 23 14 24 79 46 47 57
REMARK Flexibility Score: inf
ROOT
ATOM      1  C   UNL A   1      31.150  29.311  23.986  1.00  0.00     0.274 C 
ENDROOT
BRANCH   1   2
ATOM      2  O   UNL A   1      31.145  27.889  23.723  1.00  0.00    -0.457 OA
BRANCH   2   3
ATOM      3  C   UNL A   1      32.195  27.359  23.041  1.00  0.00     0.368 C 
ATOM      4  O   UNL A   1      33.067  28.031  22.492  1.00  0.00    -0.245 OA
BRANCH   3   5
ATOM      5  C   UNL A   1      32.292  25.774  23.141  1.00  0.00     0.195 C 
ATOM      6  C   UNL A   1      31.614  25.115  24.375  1.00  0.00     0.068 C 
ATOM      7  C   UNL A   1      32.489  25.622  25.519  1.00  0.00     0.011 C 
ATOM      8  C   UNL A   1      33.887  25.750  24.923  1.00  0.00     0.008 C 
ATOM      9  C   UNL A   1      33.776  25.514  23.417  1.00  0.00     0.081 C 
BRANCH   6  10
ATOM     10  C   UNL A   1      31.394  23.552  24.448  1.00  0.00     0.072 C 
BRANCH  10  11
ATOM     11  C   UNL A   1      31.271  22.703  25.752  1.00  0.00     0.262 C 
BRANCH  11  12
ATOM     12  N   UNL A   1      32.179  21.619  26.155  1.00  0.00    -0.335 N 
ATOM     13  C   UNL A   1      35.880  20.397  25.071  1.00  0.00     0.011 C 
ATOM     14  C   UNL A   1      34.883  21.554  24.912  1.00  0.00    -0.025 C 
ATOM     15  C   UNL A   1      35.518  22.573  23.930  1.00  0.00     0.011 C 
ATOM     16  C   UNL A   1      33.605  20.984  24.281  1.00  0.00     0.068 C 
ATOM     17  C   UNL A   1      34.610  22.301  26.243  1.00  0.00     0.068 C 
ATOM     18  C   UNL A   1      32.494  20.559  25.218  1.00  0.00     0.262 C 
ATOM     19  C   UNL A   1      33.329  21.923  26.994  1.00  0.00     0.262 C 
ATOM     20  H   UNL A   1      31.472  21.228  26.777  1.00  0.00     0.348 HD
ENDBRANCH  11  12
ENDBRANCH  10  11
ENDBRANCH   6  10
BRANCH   5  21
ATOM     21  N   UNL A   1      31.819  25.236  21.857  1.00  0.00    -0.343 N 
ATOM     22  H   UNL A   1      32.585  25.245  21.182  1.00  0.00     0.345 HD
ATOM     23  H   UNL A   1      31.052  25.809  21.509  1.00  0.00     0.345 HD
ATOM     24  H   UNL A   1      31.495  24.278  21.990  1.00  0.00     0.345 HD
ENDBRANCH   5  21
ENDBRANCH   3   5
ENDBRANCH   2   3
ENDBRANCH   1   2
BRANCH   1  25
ATOM     25  C   UNL A   1      31.399  29.575  25.481  1.00  0.00     0.275 C 
BRANCH  25  26
ATOM     26  O   UNL A   1      32.766  29.980  25.688  1.00  0.00    -0.458 OA
BRANCH  26  27
ATOM     27  C   UNL A   1      32.967  30.924  26.650  1.00  0.00     0.338 C 
ATOM     28  O   UNL A   1      32.140  31.732  27.038  1.00  0.00    -0.246 OA
BRANCH  27  29
ATOM     29  C   UNL A   1      34.317  30.757  27.277  1.00  0.00     0.060 A 
ATOM     30  C   UNL A   1      34.796  29.496  27.628  1.00  0.00     0.016 A 
ATOM     31  C   UNL A   1      35.064  31.879  27.653  1.00  0.00     0.016 A 
ATOM     32  C   UNL A   1      35.890  29.369  28.486  1.00  0.00     0.010 A 
ATOM     33  C   UNL A   1      36.273  31.727  28.361  1.00  0.00     0.010 A 
ATOM     34  C   UNL A   1      36.702  30.466  28.806  1.00  0.00    -0.014 A 
BRANCH  34  35
ATOM     35  C   UNL A   1      38.004  30.274  29.532  1.00  0.00     0.031 A 
ATOM     36  C   UNL A   1      39.128  29.454  28.944  1.00  0.00     0.074 A 
ATOM     37  C   UNL A   1      38.190  30.810  30.760  1.00  0.00     0.049 A 
ATOM     38  N   UNL A   1      40.168  28.923  29.544  1.00  0.00    -0.248 NA
ATOM     39  C   UNL A   1      39.077  29.187  27.500  1.00  0.00     0.031 C 
ATOM     40  C   UNL A   1      37.244  31.671  31.473  1.00  0.00     0.029 A 
ATOM     41  N   UNL A   1      39.247  30.704  31.641  1.00  0.00    -0.354 N 
ATOM     42  C   UNL A   1      40.848  28.198  28.572  1.00  0.00     0.074 A 
ATOM     43  C   UNL A   1      40.116  28.376  27.334  1.00  0.00     0.031 C 
ATOM     44  C   UNL A   1      37.777  32.060  32.636  1.00  0.00     0.029 A 
ATOM     45  C   UNL A   1      39.029  31.348  32.835  1.00  0.00     0.049 A 
ATOM     46  H   UNL A   1      40.076  30.215  31.432  1.00  0.00     0.167 HD
ATOM     47  C   UNL A   1      41.969  27.445  28.706  1.00  0.00     0.037 A 
ATOM     48  C   UNL A   1      39.688  31.310  34.008  1.00  0.00     0.037 A 
ATOM     49  C   UNL A   1      42.743  27.331  29.921  1.00  0.00     0.049 A 
ATOM     50  C   UNL A   1      40.883  30.423  34.156  1.00  0.00     0.074 A 
ATOM     51  C   UNL A   1      43.916  26.625  30.134  1.00  0.00     0.029 A 
ATOM     52  N   UNL A   1      42.436  27.954  31.120  1.00  0.00    -0.354 N 
ATOM     53  N   UNL A   1      41.454  29.655  33.264  1.00  0.00    -0.248 NA
ATOM     54  C   UNL A   1      41.503  30.368  35.487  1.00  0.00     0.031 C 
ATOM     55  C   UNL A   1      44.294  26.784  31.472  1.00  0.00     0.029 A 
ATOM     56  C   UNL A   1      43.384  27.630  32.081  1.00  0.00     0.049 A 
ATOM     57  H   UNL A   1      41.659  28.541  31.270  1.00  0.00     0.167 HD
ATOM     58  C   UNL A   1      42.497  29.023  33.922  1.00  0.00     0.074 A 
ATOM     59  C   UNL A   1      42.497  29.518  35.284  1.00  0.00     0.031 C 
ATOM     60  C   UNL A   1      43.370  28.107  33.439  1.00  0.00     0.037 A 
BRANCH  47  61
ATOM     61  C   UNL A   1      42.431  26.637  27.526  1.00  0.00     0.064 A 
ATOM     62  C   UNL A   1      43.435  27.084  26.657  1.00  0.00     0.173 A 
ATOM     63  C   UNL A   1      41.919  25.343  27.324  1.00  0.00     0.173 A 
ATOM     64  F   UNL A   1      43.953  28.313  26.801  1.00  0.00    -0.203 F 
ATOM     65  C   UNL A   1      43.902  26.273  25.624  1.00  0.00     0.198 A 
ATOM     66  C   UNL A   1      42.407  24.525  26.308  1.00  0.00     0.198 A 
ATOM     67  F   UNL A   1      40.965  24.860  28.133  1.00  0.00    -0.203 F 
ATOM     68  F   UNL A   1      44.846  26.731  24.789  1.00  0.00    -0.200 F 
ATOM     69  C   UNL A   1      43.397  24.992  25.457  1.00  0.00     0.200 A 
ATOM     70  F   UNL A   1      41.928  23.282  26.161  1.00  0.00    -0.200 F 
ATOM     71  F   UNL A   1      43.863  24.206  24.476  1.00  0.00    -0.200 F 
ENDBRANCH  47  61
BRANCH  48  72
ATOM     72  C   UNL A   1      39.148  32.069  35.168  1.00  0.00     0.064 A 
ATOM     73  C   UNL A   1      38.407  31.427  36.168  1.00  0.00     0.173 A 
ATOM     74  C   UNL A   1      39.406  33.441  35.321  1.00  0.00     0.173 A 
ATOM     75  F   UNL A   1      38.111  30.125  36.050  1.00  0.00    -0.203 F 
ATOM     76  C   UNL A   1      37.954  32.128  37.283  1.00  0.00     0.198 A 
ATOM     77  C   UNL A   1      38.983  34.130  36.453  1.00  0.00     0.198 A 
ATOM     78  F   UNL A   1      40.109  34.100  34.389  1.00  0.00    -0.203 F 
ATOM     79  F   UNL A   1      37.225  31.499  38.214  1.00  0.00    -0.200 F 
ATOM     80  C   UNL A   1      38.255  33.474  37.432  1.00  0.00     0.200 A 
ATOM     81  F   UNL A   1      39.296  35.425  36.601  1.00  0.00    -0.200 F 
ATOM     82  F   UNL A   1      37.842  34.139  38.519  1.00  0.00    -0.200 F 
ENDBRANCH  48  72
BRANCH  60  83
ATOM     83  C   UNL A   1      44.411  27.598  34.390  1.00  0.00     0.064 A 
ATOM     84  C   UNL A   1      44.212  26.423  35.131  1.00  0.00     0.173 A 
ATOM     85  C   UNL A   1      45.614  28.294  34.571  1.00  0.00     0.173 A 
ATOM     86  F   UNL A   1      43.066  25.735  35.010  1.00  0.00    -0.203 F 
ATOM     87  C   UNL A   1      45.168  25.982  36.042  1.00  0.00     0.198 A 
ATOM     88  C   UNL A   1      46.579  27.837  35.463  1.00  0.00     0.198 A 
ATOM     89  F   UNL A   1      45.851  29.422  33.886  1.00  0.00    -0.203 F 
ATOM     90  F   UNL A   1      44.933  24.888  36.780  1.00  0.00    -0.200 F 
ATOM     91  C   UNL A   1      46.352  26.686  36.205  1.00  0.00     0.200 A 
ATOM     92  F   UNL A   1      47.725  28.515  35.615  1.00  0.00    -0.200 F 
ATOM     93  F   UNL A   1      47.268  26.264  37.087  1.00  0.00    -0.200 F 
ENDBRANCH  60  83
ENDBRANCH  34  35
ENDBRANCH  27  29
ENDBRANCH  26  27
ENDBRANCH  25  26
ENDBRANCH   1  25
TORSDOF 15
ENDMDL
MODEL 3
REMARK VINA RESULT:     -12.0      4.353      9.662
REMARK SMILES CC1(C)CC[NH+](CC[C@H]2CCC[C@]2([NH3+])C(=O)OCCOC(=O)c2ccc(-c3c4nc(c(-c5c(F)c(F)c(F)c(F)c5F)c5ccc([nH]5)c(-c5c(F)c(F)c(F)c(F)c5F)c5nc(c(-c6c(F)c(F)c(F)c(F)c6F)c6ccc3[nH]6)C=C5)C=C4)cc2)CC1
REMARK SMILES IDX 18 1 17 2 15 3 16 4 13 5 9 6 10 7 11 8 12 9 8 10 7 11 6 12
REMARK SMILES IDX 1 13 2 14 3 15 4 16 87 17 5 18 86 19 14 21 19 25 20 26 21 27
REMARK SMILES IDX 22 28 23 29 24 30 85 31 25 32 84 33 26 34 27 35 28 36 78 37
REMARK SMILES IDX 29 38 83 39 77 40 79 41 30 42 82 43 76 44 75 45 31 47 63 48
REMARK SMILES IDX 43 49 62 50 44 51 47 52 61 53 80 54 45 55 46 56 60 58 81 59
REMARK SMILES IDX 48 60 32 61 33 62 41 63 34 64 35 65 39 66 42 67 36 68 37 69
REMARK SMILES IDX 40 70 38 71 64 72 65 73 73 74 66 75 67 76 71 77 74 78 68 79
REMARK SMILES IDX 69 80 72 81 70 82 49 83 50 84 58 85 51 86 52 87 56 88 59 89
REMARK SMILES IDX 53 90 54 91 57 92 55 93
REMARK H PARENT 6 20 14 22 14 23 14 24 79 46 47 57
REMARK Flexibility Score: inf
ROOT
ATOM      1  C   UNL A   1      34.644  20.797  25.396  1.00  0.00     0.274 C 
ENDROOT
BRANCH   1   2
ATOM      2  O   UNL A   1      33.826  20.821  24.202  1.00  0.00    -0.457 OA
BRANCH   2   3
ATOM      3  C   UNL A   1      32.538  21.240  24.315  1.00  0.00     0.368 C 
ATOM      4  O   UNL A   1      31.741  20.797  25.142  1.00  0.00    -0.245 OA
BRANCH   3   5
ATOM      5  C   UNL A   1      32.180  22.474  23.379  1.00  0.00     0.195 C 
ATOM      6  C   UNL A   1      33.250  23.597  23.271  1.00  0.00     0.068 C 
ATOM      7  C   UNL A   1      33.239  24.174  24.684  1.00  0.00     0.011 C 
ATOM      8  C   UNL A   1      31.800  24.019  25.165  1.00  0.00     0.008 C 
ATOM      9  C   UNL A   1      31.048  23.187  24.128  1.00  0.00     0.081 C 
BRANCH   6  10
ATOM     10  C   UNL A   1      33.144  24.725  22.171  1.00  0.00     0.072 C 
BRANCH  10  11
ATOM     11  C   UNL A   1      31.936  25.692  21.962  1.00  0.00     0.262 C 
BRANCH  11  12
ATOM     12  N   UNL A   1      31.970  27.152  22.134  1.00  0.00    -0.335 N 
ATOM     13  C   UNL A   1      31.617  29.704  25.253  1.00  0.00     0.011 C 
ATOM     14  C   UNL A   1      31.787  28.217  24.907  1.00  0.00    -0.025 C 
ATOM     15  C   UNL A   1      31.736  27.430  26.242  1.00  0.00     0.011 C 
ATOM     16  C   UNL A   1      30.592  27.803  24.037  1.00  0.00     0.068 C 
ATOM     17  C   UNL A   1      33.150  27.907  24.237  1.00  0.00     0.068 C 
ATOM     18  C   UNL A   1      30.771  27.857  22.535  1.00  0.00     0.262 C 
ATOM     19  C   UNL A   1      33.152  27.778  22.711  1.00  0.00     0.262 C 
ATOM     20  H   UNL A   1      32.042  27.291  21.126  1.00  0.00     0.348 HD
ENDBRANCH  11  12
ENDBRANCH  10  11
ENDBRANCH   6  10
BRANCH   5  21
ATOM     21  N   UNL A   1      31.779  21.922  22.077  1.00  0.00    -0.343 N 
ATOM     22  H   UNL A   1      31.260  21.056  22.220  1.00  0.00     0.345 HD
ATOM     23  H   UNL A   1      32.610  21.732  21.517  1.00  0.00     0.345 HD
ATOM     24  H   UNL A   1      31.188  22.596  21.590  1.00  0.00     0.345 HD
ENDBRANCH   5  21
ENDBRANCH   3   5
ENDBRANCH   2   3
ENDBRANCH   1   2
BRANCH   1  25
ATOM     25  C   UNL A   1      36.128  20.649  25.020  1.00  0.00     0.275 C 
BRANCH  25  26
ATOM     26  O   UNL A   1      36.916  21.615  25.743  1.00  0.00    -0.458 OA
BRANCH  26  27
ATOM     27  C   UNL A   1      38.248  21.343  25.838  1.00  0.00     0.338 C 
ATOM     28  O   UNL A   1      38.803  20.346  25.408  1.00  0.00    -0.246 OA
BRANCH  27  29
ATOM     29  C   UNL A   1      38.982  22.506  26.433  1.00  0.00     0.060 A 
ATOM     30  C   UNL A   1      38.592  23.817  26.164  1.00  0.00     0.016 A 
ATOM     31  C   UNL A   1      40.161  22.300  27.158  1.00  0.00     0.016 A 
ATOM     32  C   UNL A   1      39.447  24.882  26.450  1.00  0.00     0.010 A 
ATOM     33  C   UNL A   1      40.924  23.397  27.606  1.00  0.00     0.010 A 
ATOM     34  C   UNL A   1      40.588  24.713  27.246  1.00  0.00    -0.014 A 
BRANCH  34  35
ATOM     35  C   UNL A   1      41.366  25.900  27.740  1.00  0.00     0.031 A 
ATOM     36  C   UNL A   1      40.730  26.958  28.612  1.00  0.00     0.074 A 
ATOM     37  C   UNL A   1      42.660  26.070  27.385  1.00  0.00     0.049 A 
ATOM     38  N   UNL A   1      41.137  28.182  28.859  1.00  0.00    -0.248 NA
ATOM     39  C   UNL A   1      39.473  26.603  29.286  1.00  0.00     0.031 C 
ATOM     40  C   UNL A   1      43.461  25.135  26.591  1.00  0.00     0.029 A 
ATOM     41  N   UNL A   1      43.538  27.102  27.641  1.00  0.00    -0.354 N 
ATOM     42  C   UNL A   1      40.152  28.765  29.649  1.00  0.00     0.074 A 
ATOM     43  C   UNL A   1      39.137  27.753  29.861  1.00  0.00     0.031 C 
ATOM     44  C   UNL A   1      44.710  25.597  26.477  1.00  0.00     0.029 A 
ATOM     45  C   UNL A   1      44.764  26.936  27.042  1.00  0.00     0.049 A 
ATOM     46  H   UNL A   1      43.309  27.880  28.199  1.00  0.00     0.167 HD
ATOM     47  C   UNL A   1      40.098  30.030  30.137  1.00  0.00     0.037 A 
ATOM     48  C   UNL A   1      45.796  27.781  26.862  1.00  0.00     0.037 A 
ATOM     49  C   UNL A   1      41.146  31.014  29.993  1.00  0.00     0.049 A 
ATOM     50  C   UNL A   1      45.690  29.191  27.350  1.00  0.00     0.074 A 
ATOM     51  C   UNL A   1      41.192  32.306  30.492  1.00  0.00     0.029 A 
ATOM     52  N   UNL A   1      42.339  30.811  29.316  1.00  0.00    -0.354 N 
ATOM     53  N   UNL A   1      44.710  29.768  27.998  1.00  0.00    -0.248 NA
ATOM     54  C   UNL A   1      46.820  30.081  27.046  1.00  0.00     0.031 C 
ATOM     55  C   UNL A   1      42.392  32.898  30.081  1.00  0.00     0.029 A 
ATOM     56  C   UNL A   1      43.116  31.959  29.367  1.00  0.00     0.049 A 
ATOM     57  H   UNL A   1      42.597  29.974  28.865  1.00  0.00     0.167 HD
ATOM     58  C   UNL A   1      45.100  31.085  28.178  1.00  0.00     0.074 A 
ATOM     59  C   UNL A   1      46.419  31.218  27.594  1.00  0.00     0.031 C 
ATOM     60  C   UNL A   1      44.418  32.095  28.769  1.00  0.00     0.037 A 
BRANCH  47  61
ATOM     61  C   UNL A   1      38.848  30.466  30.851  1.00  0.00     0.064 A 
ATOM     62  C   UNL A   1      38.730  30.429  32.246  1.00  0.00     0.173 A 
ATOM     63  C   UNL A   1      37.786  31.023  30.118  1.00  0.00     0.173 A 
ATOM     64  F   UNL A   1      39.712  29.901  32.993  1.00  0.00    -0.203 F 
ATOM     65  C   UNL A   1      37.592  30.922  32.883  1.00  0.00     0.198 A 
ATOM     66  C   UNL A   1      36.662  31.540  30.758  1.00  0.00     0.198 A 
ATOM     67  F   UNL A   1      37.851  31.094  28.780  1.00  0.00    -0.203 F 
ATOM     68  F   UNL A   1      37.489  30.853  34.217  1.00  0.00    -0.200 F 
ATOM     69  C   UNL A   1      36.566  31.486  32.140  1.00  0.00     0.200 A 
ATOM     70  F   UNL A   1      35.680  32.100  30.038  1.00  0.00    -0.200 F 
ATOM     71  F   UNL A   1      35.481  31.979  32.755  1.00  0.00    -0.200 F 
ENDBRANCH  47  61
BRANCH  48  72
ATOM     72  C   UNL A   1      46.979  27.326  26.084  1.00  0.00     0.064 A 
ATOM     73  C   UNL A   1      47.066  27.551  24.704  1.00  0.00     0.173 A 
ATOM     74  C   UNL A   1      48.066  26.701  26.715  1.00  0.00     0.173 A 
ATOM     75  F   UNL A   1      46.039  28.118  24.053  1.00  0.00    -0.203 F 
ATOM     76  C   UNL A   1      48.200  27.177  23.988  1.00  0.00     0.198 A 
ATOM     77  C   UNL A   1      49.214  26.362  26.005  1.00  0.00     0.198 A 
ATOM     78  F   UNL A   1      48.030  26.463  28.035  1.00  0.00    -0.203 F 
ATOM     79  F   UNL A   1      48.249  27.379  22.665  1.00  0.00    -0.200 F 
ATOM     80  C   UNL A   1      49.278  26.598  24.641  1.00  0.00     0.200 A 
ATOM     81  F   UNL A   1      50.260  25.823  26.645  1.00  0.00    -0.200 F 
ATOM     82  F   UNL A   1      50.380  26.265  23.955  1.00  0.00    -0.200 F 
ENDBRANCH  48  72
BRANCH  60  83
ATOM     83  C   UNL A   1      45.101  33.428  28.827  1.00  0.00     0.064 A 
ATOM     84  C   UNL A   1      44.894  34.400  27.837  1.00  0.00     0.173 A 
ATOM     85  C   UNL A   1      45.978  33.735  29.877  1.00  0.00     0.173 A 
ATOM     86  F   UNL A   1      44.082  34.144  26.799  1.00  0.00    -0.203 F 
ATOM     87  C   UNL A   1      45.566  35.619  27.880  1.00  0.00     0.198 A 
ATOM     88  C   UNL A   1      46.628  34.964  29.931  1.00  0.00     0.198 A 
ATOM     89  F   UNL A   1      46.209  32.839  30.848  1.00  0.00    -0.203 F 
ATOM     90  F   UNL A   1      45.396  36.511  26.894  1.00  0.00    -0.200 F 
ATOM     91  C   UNL A   1      46.428  35.902  28.928  1.00  0.00     0.200 A 
ATOM     92  F   UNL A   1      47.456  35.239  30.948  1.00  0.00    -0.200 F 
ATOM     93  F   UNL A   1      47.079  37.073  28.965  1.00  0.00    -0.200 F 
ENDBRANCH  60  83
ENDBRANCH  34  35
ENDBRANCH  27  29
ENDBRANCH  26  27
ENDBRANCH  25  26
ENDBRANCH   1  25
TORSDOF 15
ENDMDL
