MODEL 1
REMARK VINA RESULT:     -13.4      0.000      0.000
REMARK SMILES C[C@H]1CCc2sc3ncn4nc(/C=C\C(=O)OCCOC(=O)c5ccc(-c6c7nc(c(-c8c(F)c(F)c(F)c(F)c8F)c8ccc([nH]8)c(-c8c(F)c(F)c(F)c(F)c8F)c8nc(c(-c9c(F)c(F)c(F)c(F)c9F)c9ccc6[nH]9)C=C8)C=C7)cc5)nc4c3c2C1
REMARK SMILES IDX 19 1 18 2 17 3 15 4 16 5 14 6 13 7 12 8 1 9 2 10 3 11 90 12
REMARK SMILES IDX 4 13 89 14 5 15 88 16 6 17 7 18 87 19 8 20 10 21 86 22 9 23
REMARK SMILES IDX 11 24 20 25 21 26 22 27 23 28 24 29 85 30 25 31 84 32 26 33
REMARK SMILES IDX 27 34 28 35 78 36 29 37 83 38 77 39 79 40 30 41 82 42 76 43
REMARK SMILES IDX 75 44 31 46 63 47 43 48 62 49 44 50 47 51 61 52 80 53 45 54
REMARK SMILES IDX 46 55 60 57 81 58 48 59 32 60 33 61 41 62 34 63 35 64 39 65
REMARK SMILES IDX 42 66 36 67 37 68 40 69 38 70 64 71 65 72 73 73 66 74 67 75
REMARK SMILES IDX 71 76 74 77 68 78 69 79 72 80 70 81 49 82 50 83 58 84 51 85
REMARK SMILES IDX 52 86 56 87 59 88 53 89 54 90 57 91 55 92
REMARK H PARENT 79 45 47 56
REMARK Flexibility Score: inf
ROOT
ATOM      1  C   UNL A   1      43.636  19.091  25.276  1.00  0.00     0.275 C 
ENDROOT
BRANCH   1   2
ATOM      2  C   UNL A   1      42.282  18.960  25.915  1.00  0.00     0.275 C 
BRANCH   2   3
ATOM      3  O   UNL A   1      41.597  20.186  25.748  1.00  0.00    -0.459 OA
BRANCH   3   4
ATOM      4  C   UNL A   1      40.916  20.639  26.809  1.00  0.00     0.331 C 
ATOM      5  O   UNL A   1      40.628  20.041  27.815  1.00  0.00    -0.247 OA
BRANCH   4   6
ATOM      6  C   UNL A   1      40.608  22.053  26.558  1.00  0.00     0.097 C 
ATOM      7  C   UNL A   1      39.443  22.537  26.094  1.00  0.00     0.058 C 
BRANCH   7   8
ATOM      8  C   UNL A   1      38.205  21.897  25.734  1.00  0.00     0.175 A 
ATOM      9  C   UNL A   1      32.185  25.363  25.005  1.00  0.00     0.008 C 
ATOM     10  C   UNL A   1      32.398  24.605  26.317  1.00  0.00    -0.009 C 
ATOM     11  C   UNL A   1      31.204  23.724  26.714  1.00  0.00     0.009 C 
ATOM     12  C   UNL A   1      33.695  23.787  26.251  1.00  0.00     0.041 C 
ATOM     13  C   UNL A   1      31.028  22.486  25.816  1.00  0.00     0.047 C 
ATOM     14  C   UNL A   1      33.582  22.406  25.724  1.00  0.00    -0.020 A 
ATOM     15  C   UNL A   1      32.346  21.815  25.554  1.00  0.00     0.011 A 
ATOM     16  C   UNL A   1      34.633  21.496  25.409  1.00  0.00     0.060 A 
ATOM     17  S   UNL A   1      32.461  20.214  24.981  1.00  0.00    -0.120 S 
ATOM     18  C   UNL A   1      34.174  20.251  24.995  1.00  0.00     0.129 A 
ATOM     19  C   UNL A   1      36.121  21.581  25.467  1.00  0.00     0.168 A 
ATOM     20  N   UNL A   1      34.917  19.146  24.647  1.00  0.00    -0.225 NA
ATOM     21  N   UNL A   1      36.819  20.452  25.160  1.00  0.00    -0.201 N 
ATOM     22  N   UNL A   1      36.971  22.532  25.774  1.00  0.00    -0.207 NA
ATOM     23  C   UNL A   1      36.217  19.268  24.747  1.00  0.00     0.227 A 
ATOM     24  N   UNL A   1      38.144  20.617  25.322  1.00  0.00    -0.145 NA
ENDBRANCH   7   8
ENDBRANCH   4   6
ENDBRANCH   3   4
ENDBRANCH   2   3
ENDBRANCH   1   2
BRANCH   1  25
ATOM     25  O   UNL A   1      43.722  20.427  24.836  1.00  0.00    -0.458 OA
BRANCH  25  26
ATOM     26  C   UNL A   1      44.970  20.884  24.629  1.00  0.00     0.338 C 
ATOM     27  O   UNL A   1      46.011  20.275  24.455  1.00  0.00    -0.246 OA
BRANCH  26  28
ATOM     28  C   UNL A   1      44.910  22.301  24.930  1.00  0.00     0.060 A 
ATOM     29  C   UNL A   1      45.785  22.753  25.913  1.00  0.00     0.016 A 
ATOM     30  C   UNL A   1      43.784  23.026  24.495  1.00  0.00     0.016 A 
ATOM     31  C   UNL A   1      45.407  23.864  26.611  1.00  0.00     0.010 A 
ATOM     32  C   UNL A   1      43.401  24.122  25.202  1.00  0.00     0.010 A 
ATOM     33  C   UNL A   1      44.186  24.476  26.286  1.00  0.00    -0.014 A 
BRANCH  33  34
ATOM     34  C   UNL A   1      43.839  25.669  26.998  1.00  0.00     0.031 A 
ATOM     35  C   UNL A   1      44.818  26.735  26.726  1.00  0.00     0.074 A 
ATOM     36  C   UNL A   1      42.733  25.769  27.746  1.00  0.00     0.049 A 
ATOM     37  N   UNL A   1      45.722  27.159  27.540  1.00  0.00    -0.248 NA
ATOM     38  C   UNL A   1      44.987  27.190  25.335  1.00  0.00     0.031 C 
ATOM     39  C   UNL A   1      41.593  24.862  27.857  1.00  0.00     0.029 A 
ATOM     40  N   UNL A   1      42.390  26.802  28.545  1.00  0.00    -0.354 N 
ATOM     41  C   UNL A   1      46.460  28.084  26.821  1.00  0.00     0.074 A 
ATOM     42  C   UNL A   1      46.096  27.922  25.438  1.00  0.00     0.031 C 
ATOM     43  C   UNL A   1      40.589  25.496  28.510  1.00  0.00     0.029 A 
ATOM     44  C   UNL A   1      41.078  26.782  28.980  1.00  0.00     0.049 A 
ATOM     45  H   UNL A   1      43.023  27.512  28.798  1.00  0.00     0.167 HD
ATOM     46  C   UNL A   1      47.108  29.082  27.475  1.00  0.00     0.037 A 
ATOM     47  C   UNL A   1      40.462  27.812  29.608  1.00  0.00     0.037 A 
ATOM     48  C   UNL A   1      47.285  28.750  28.868  1.00  0.00     0.049 A 
ATOM     49  C   UNL A   1      41.537  28.669  30.188  1.00  0.00     0.074 A 
ATOM     50  C   UNL A   1      47.968  27.752  29.536  1.00  0.00     0.029 A 
ATOM     51  N   UNL A   1      46.362  29.242  29.760  1.00  0.00    -0.354 N 
ATOM     52  N   UNL A   1      42.317  28.281  31.160  1.00  0.00    -0.248 NA
ATOM     53  C   UNL A   1      42.062  29.751  29.365  1.00  0.00     0.031 C 
ATOM     54  C   UNL A   1      47.127  27.390  30.628  1.00  0.00     0.029 A 
ATOM     55  C   UNL A   1      46.009  28.226  30.612  1.00  0.00     0.049 A 
ATOM     56  H   UNL A   1      46.014  30.163  29.784  1.00  0.00     0.167 HD
ATOM     57  C   UNL A   1      43.577  28.757  30.821  1.00  0.00     0.074 A 
ATOM     58  C   UNL A   1      43.344  29.722  29.748  1.00  0.00     0.031 C 
ATOM     59  C   UNL A   1      44.707  28.110  31.232  1.00  0.00     0.037 A 
BRANCH  46  60
ATOM     60  C   UNL A   1      47.185  30.488  26.953  1.00  0.00     0.064 A 
ATOM     61  C   UNL A   1      48.425  31.152  26.986  1.00  0.00     0.173 A 
ATOM     62  C   UNL A   1      46.058  31.308  26.717  1.00  0.00     0.173 A 
ATOM     63  F   UNL A   1      49.557  30.472  27.222  1.00  0.00    -0.203 F 
ATOM     64  C   UNL A   1      48.516  32.540  26.874  1.00  0.00     0.198 A 
ATOM     65  C   UNL A   1      46.160  32.684  26.552  1.00  0.00     0.198 A 
ATOM     66  F   UNL A   1      44.806  30.839  26.753  1.00  0.00    -0.203 F 
ATOM     67  F   UNL A   1      49.701  33.142  27.044  1.00  0.00    -0.200 F 
ATOM     68  C   UNL A   1      47.384  33.305  26.665  1.00  0.00     0.200 A 
ATOM     69  F   UNL A   1      45.046  33.409  26.372  1.00  0.00    -0.200 F 
ATOM     70  F   UNL A   1      47.461  34.641  26.622  1.00  0.00    -0.200 F 
ENDBRANCH  46  60
BRANCH  47  71
ATOM     71  C   UNL A   1      39.076  28.293  29.405  1.00  0.00     0.064 A 
ATOM     72  C   UNL A   1      38.213  28.467  30.498  1.00  0.00     0.173 A 
ATOM     73  C   UNL A   1      38.663  28.863  28.183  1.00  0.00     0.173 A 
ATOM     74  F   UNL A   1      38.554  27.994  31.705  1.00  0.00    -0.203 F 
ATOM     75  C   UNL A   1      37.024  29.196  30.386  1.00  0.00     0.198 A 
ATOM     76  C   UNL A   1      37.474  29.585  28.072  1.00  0.00     0.198 A 
ATOM     77  F   UNL A   1      39.448  28.816  27.098  1.00  0.00    -0.203 F 
ATOM     78  F   UNL A   1      36.260  29.398  31.468  1.00  0.00    -0.200 F 
ATOM     79  C   UNL A   1      36.662  29.764  29.176  1.00  0.00     0.200 A 
ATOM     80  F   UNL A   1      37.153  30.160  26.904  1.00  0.00    -0.200 F 
ATOM     81  F   UNL A   1      35.558  30.518  29.084  1.00  0.00    -0.200 F 
ENDBRANCH  47  71
BRANCH  59  82
ATOM     82  C   UNL A   1      44.558  27.027  32.266  1.00  0.00     0.064 A 
ATOM     83  C   UNL A   1      44.367  25.667  31.961  1.00  0.00     0.173 A 
ATOM     84  C   UNL A   1      44.800  27.359  33.605  1.00  0.00     0.173 A 
ATOM     85  F   UNL A   1      44.219  25.257  30.696  1.00  0.00    -0.203 F 
ATOM     86  C   UNL A   1      44.395  24.693  32.959  1.00  0.00     0.198 A 
ATOM     87  C   UNL A   1      44.864  26.381  34.593  1.00  0.00     0.198 A 
ATOM     88  F   UNL A   1      45.041  28.635  33.946  1.00  0.00    -0.203 F 
ATOM     89  F   UNL A   1      44.211  23.401  32.644  1.00  0.00    -0.200 F 
ATOM     90  C   UNL A   1      44.655  25.050  34.271  1.00  0.00     0.200 A 
ATOM     91  F   UNL A   1      45.166  26.726  35.852  1.00  0.00    -0.200 F 
ATOM     92  F   UNL A   1      44.737  24.108  35.223  1.00  0.00    -0.200 F 
ENDBRANCH  59  82
ENDBRANCH  33  34
ENDBRANCH  26  28
ENDBRANCH  25  26
ENDBRANCH   1  25
TORSDOF 12
ENDMDL
MODEL 2
REMARK VINA RESULT:     -13.4      3.904      8.904
REMARK SMILES C[C@H]1CCc2sc3ncn4nc(/C=C\C(=O)OCCOC(=O)c5ccc(-c6c7nc(c(-c8c(F)c(F)c(F)c(F)c8F)c8ccc([nH]8)c(-c8c(F)c(F)c(F)c(F)c8F)c8nc(c(-c9c(F)c(F)c(F)c(F)c9F)c9ccc6[nH]9)C=C8)C=C7)cc5)nc4c3c2C1
REMARK SMILES IDX 19 1 18 2 17 3 15 4 16 5 14 6 13 7 12 8 1 9 2 10 3 11 90 12
REMARK SMILES IDX 4 13 89 14 5 15 88 16 6 17 7 18 87 19 8 20 10 21 86 22 9 23
REMARK SMILES IDX 11 24 20 25 21 26 22 27 23 28 24 29 85 30 25 31 84 32 26 33
REMARK SMILES IDX 27 34 28 35 78 36 29 37 83 38 77 39 79 40 30 41 82 42 76 43
REMARK SMILES IDX 75 44 31 46 63 47 43 48 62 49 44 50 47 51 61 52 80 53 45 54
REMARK SMILES IDX 46 55 60 57 81 58 48 59 32 60 33 61 41 62 34 63 35 64 39 65
REMARK SMILES IDX 42 66 36 67 37 68 40 69 38 70 64 71 65 72 73 73 66 74 67 75
REMARK SMILES IDX 71 76 74 77 68 78 69 79 72 80 70 81 49 82 50 83 58 84 51 85
REMARK SMILES IDX 52 86 56 87 59 88 53 89 54 90 57 91 55 92
REMARK H PARENT 79 45 47 56
REMARK Flexibility Score: inf
ROOT
ATOM      1  C   UNL A   1      33.391  31.699  27.633  1.00  0.00     0.275 C 
ENDROOT
BRANCH   1   2
ATOM      2  C   UNL A   1      32.508  30.762  26.856  1.00  0.00     0.275 C 
BRANCH   2   3
ATOM      3  O   UNL A   1      32.828  29.439  27.240  1.00  0.00    -0.459 OA
BRANCH   3   4
ATOM      4  C   UNL A   1      31.829  28.548  27.200  1.00  0.00     0.331 C 
ATOM      5  O   UNL A   1      31.386  27.891  28.107  1.00  0.00    -0.247 OA
BRANCH   4   6
ATOM      6  C   UNL A   1      31.306  28.539  25.827  1.00  0.00     0.097 C 
ATOM      7  C   UNL A   1      31.152  27.453  25.050  1.00  0.00     0.058 C 
BRANCH   7   8
ATOM      8  C   UNL A   1      31.403  26.055  25.280  1.00  0.00     0.175 A 
ATOM      9  C   UNL A   1      37.813  23.418  26.144  1.00  0.00     0.008 C 
ATOM     10  C   UNL A   1      37.173  23.255  24.764  1.00  0.00    -0.009 C 
ATOM     11  C   UNL A   1      37.258  21.823  24.217  1.00  0.00     0.009 C 
ATOM     12  C   UNL A   1      35.722  23.757  24.791  1.00  0.00     0.041 C 
ATOM     13  C   UNL A   1      36.346  20.828  24.957  1.00  0.00     0.047 C 
ATOM     14  C   UNL A   1      34.684  22.760  25.149  1.00  0.00    -0.020 A 
ATOM     15  C   UNL A   1      34.984  21.414  25.196  1.00  0.00     0.011 A 
ATOM     16  C   UNL A   1      33.298  22.987  25.402  1.00  0.00     0.060 A 
ATOM     17  S   UNL A   1      33.629  20.456  25.584  1.00  0.00    -0.120 S 
ATOM     18  C   UNL A   1      32.589  21.817  25.648  1.00  0.00     0.129 A 
ATOM     19  C   UNL A   1      32.440  24.206  25.418  1.00  0.00     0.168 A 
ATOM     20  N   UNL A   1      31.243  21.679  25.898  1.00  0.00    -0.225 NA
ATOM     21  N   UNL A   1      31.106  24.022  25.622  1.00  0.00    -0.201 N 
ATOM     22  N   UNL A   1      32.671  25.488  25.261  1.00  0.00    -0.207 NA
ATOM     23  C   UNL A   1      30.533  22.778  25.869  1.00  0.00     0.227 A 
ATOM     24  N   UNL A   1      30.418  25.175  25.538  1.00  0.00    -0.145 NA
ENDBRANCH   7   8
ENDBRANCH   4   6
ENDBRANCH   3   4
ENDBRANCH   2   3
ENDBRANCH   1   2
BRANCH   1  25
ATOM     25  O   UNL A   1      34.685  31.146  27.569  1.00  0.00    -0.458 OA
BRANCH  25  26
ATOM     26  C   UNL A   1      35.681  31.968  27.944  1.00  0.00     0.338 C 
ATOM     27  O   UNL A   1      35.898  33.128  27.641  1.00  0.00    -0.246 OA
BRANCH  26  28
ATOM     28  C   UNL A   1      36.655  31.113  28.594  1.00  0.00     0.060 A 
ATOM     29  C   UNL A   1      37.754  31.758  29.154  1.00  0.00     0.016 A 
ATOM     30  C   UNL A   1      36.617  29.733  28.318  1.00  0.00     0.016 A 
ATOM     31  C   UNL A   1      38.908  31.035  29.254  1.00  0.00     0.010 A 
ATOM     32  C   UNL A   1      37.772  29.020  28.402  1.00  0.00     0.010 A 
ATOM     33  C   UNL A   1      38.905  29.704  28.805  1.00  0.00    -0.014 A 
BRANCH  33  34
ATOM     34  C   UNL A   1      40.113  28.954  28.969  1.00  0.00     0.031 A 
ATOM     35  C   UNL A   1      40.398  28.742  30.398  1.00  0.00     0.074 A 
ATOM     36  C   UNL A   1      40.818  28.481  27.933  1.00  0.00     0.049 A 
ATOM     37  N   UNL A   1      41.313  29.335  31.085  1.00  0.00    -0.248 NA
ATOM     38  C   UNL A   1      39.411  28.004  31.205  1.00  0.00     0.031 C 
ATOM     39  C   UNL A   1      40.472  28.422  26.515  1.00  0.00     0.029 A 
ATOM     40  N   UNL A   1      42.023  27.874  27.986  1.00  0.00    -0.354 N 
ATOM     41  C   UNL A   1      41.140  28.895  32.387  1.00  0.00     0.074 A 
ATOM     42  C   UNL A   1      39.858  28.244  32.438  1.00  0.00     0.031 C 
ATOM     43  C   UNL A   1      41.355  27.614  25.880  1.00  0.00     0.029 A 
ATOM     44  C   UNL A   1      42.396  27.231  26.821  1.00  0.00     0.049 A 
ATOM     45  H   UNL A   1      42.590  27.887  28.791  1.00  0.00     0.167 HD
ATOM     46  C   UNL A   1      42.198  28.878  33.236  1.00  0.00     0.037 A 
ATOM     47  C   UNL A   1      43.451  26.390  26.712  1.00  0.00     0.037 A 
ATOM     48  C   UNL A   1      43.247  29.751  32.765  1.00  0.00     0.049 A 
ATOM     49  C   UNL A   1      44.374  26.708  27.841  1.00  0.00     0.074 A 
ATOM     50  C   UNL A   1      43.335  31.112  32.547  1.00  0.00     0.029 A 
ATOM     51  N   UNL A   1      44.269  29.183  32.042  1.00  0.00    -0.354 N 
ATOM     52  N   UNL A   1      45.027  27.834  27.937  1.00  0.00    -0.248 NA
ATOM     53  C   UNL A   1      44.189  25.988  29.094  1.00  0.00     0.031 C 
ATOM     54  C   UNL A   1      44.110  31.250  31.358  1.00  0.00     0.029 A 
ATOM     55  C   UNL A   1      44.511  29.977  30.950  1.00  0.00     0.049 A 
ATOM     56  H   UNL A   1      44.744  28.350  32.268  1.00  0.00     0.167 HD
ATOM     57  C   UNL A   1      44.962  28.172  29.283  1.00  0.00     0.074 A 
ATOM     58  C   UNL A   1      44.504  26.959  29.958  1.00  0.00     0.031 C 
ATOM     59  C   UNL A   1      44.998  29.477  29.683  1.00  0.00     0.037 A 
BRANCH  46  60
ATOM     60  C   UNL A   1      42.436  27.774  34.226  1.00  0.00     0.064 A 
ATOM     61  C   UNL A   1      43.009  26.572  33.771  1.00  0.00     0.173 A 
ATOM     62  C   UNL A   1      41.853  27.726  35.513  1.00  0.00     0.173 A 
ATOM     63  F   UNL A   1      43.572  26.502  32.556  1.00  0.00    -0.203 F 
ATOM     64  C   UNL A   1      42.927  25.394  34.515  1.00  0.00     0.198 A 
ATOM     65  C   UNL A   1      41.821  26.563  36.273  1.00  0.00     0.198 A 
ATOM     66  F   UNL A   1      41.187  28.759  36.041  1.00  0.00    -0.203 F 
ATOM     67  F   UNL A   1      43.367  24.245  33.986  1.00  0.00    -0.200 F 
ATOM     68  C   UNL A   1      42.327  25.389  35.761  1.00  0.00     0.200 A 
ATOM     69  F   UNL A   1      41.215  26.575  37.469  1.00  0.00    -0.200 F 
ATOM     70  F   UNL A   1      42.189  24.247  36.447  1.00  0.00    -0.200 F 
ENDBRANCH  46  60
BRANCH  47  71
ATOM     71  C   UNL A   1      43.516  25.117  25.959  1.00  0.00     0.064 A 
ATOM     72  C   UNL A   1      44.614  24.831  25.132  1.00  0.00     0.173 A 
ATOM     73  C   UNL A   1      42.655  24.040  26.252  1.00  0.00     0.173 A 
ATOM     74  F   UNL A   1      45.505  25.790  24.843  1.00  0.00    -0.203 F 
ATOM     75  C   UNL A   1      44.857  23.538  24.655  1.00  0.00     0.198 A 
ATOM     76  C   UNL A   1      42.895  22.752  25.770  1.00  0.00     0.198 A 
ATOM     77  F   UNL A   1      41.620  24.191  27.089  1.00  0.00    -0.203 F 
ATOM     78  F   UNL A   1      45.953  23.291  23.926  1.00  0.00    -0.200 F 
ATOM     79  C   UNL A   1      44.004  22.498  24.984  1.00  0.00     0.200 A 
ATOM     80  F   UNL A   1      42.082  21.747  26.126  1.00  0.00    -0.200 F 
ATOM     81  F   UNL A   1      44.272  21.248  24.583  1.00  0.00    -0.200 F 
ENDBRANCH  47  71
BRANCH  59  82
ATOM     82  C   UNL A   1      45.365  30.515  28.657  1.00  0.00     0.064 A 
ATOM     83  C   UNL A   1      44.439  31.143  27.805  1.00  0.00     0.173 A 
ATOM     84  C   UNL A   1      46.673  31.016  28.668  1.00  0.00     0.173 A 
ATOM     85  F   UNL A   1      43.150  30.783  27.801  1.00  0.00    -0.203 F 
ATOM     86  C   UNL A   1      44.817  32.208  26.988  1.00  0.00     0.198 A 
ATOM     87  C   UNL A   1      47.038  32.103  27.880  1.00  0.00     0.198 A 
ATOM     88  F   UNL A   1      47.586  30.489  29.500  1.00  0.00    -0.203 F 
ATOM     89  F   UNL A   1      43.915  32.794  26.184  1.00  0.00    -0.200 F 
ATOM     90  C   UNL A   1      46.113  32.694  27.035  1.00  0.00     0.200 A 
ATOM     91  F   UNL A   1      48.279  32.601  27.966  1.00  0.00    -0.200 F 
ATOM     92  F   UNL A   1      46.464  33.754  26.291  1.00  0.00    -0.200 F 
ENDBRANCH  59  82
ENDBRANCH  33  34
ENDBRANCH  26  28
ENDBRANCH  25  26
ENDBRANCH   1  25
TORSDOF 12
ENDMDL
MODEL 3
REMARK VINA RESULT:     -13.4      5.549     11.414
REMARK SMILES C[C@H]1CCc2sc3ncn4nc(/C=C\C(=O)OCCOC(=O)c5ccc(-c6c7nc(c(-c8c(F)c(F)c(F)c(F)c8F)c8ccc([nH]8)c(-c8c(F)c(F)c(F)c(F)c8F)c8nc(c(-c9c(F)c(F)c(F)c(F)c9F)c9ccc6[nH]9)C=C8)C=C7)cc5)nc4c3c2C1
REMARK SMILES IDX 19 1 18 2 17 3 15 4 16 5 14 6 13 7 12 8 1 9 2 10 3 11 90 12
REMARK SMILES IDX 4 13 89 14 5 15 88 16 6 17 7 18 87 19 8 20 10 21 86 22 9 23
REMARK SMILES IDX 11 24 20 25 21 26 22 27 23 28 24 29 85 30 25 31 84 32 26 33
REMARK SMILES IDX 27 34 28 35 78 36 29 37 83 38 77 39 79 40 30 41 82 42 76 43
REMARK SMILES IDX 75 44 31 46 63 47 43 48 62 49 44 50 47 51 61 52 80 53 45 54
REMARK SMILES IDX 46 55 60 57 81 58 48 59 32 60 33 61 41 62 34 63 35 64 39 65
REMARK SMILES IDX 42 66 36 67 37 68 40 69 38 70 64 71 65 72 73 73 66 74 67 75
REMARK SMILES IDX 71 76 74 77 68 78 69 79 72 80 70 81 49 82 50 83 58 84 51 85
REMARK SMILES IDX 52 86 56 87 59 88 53 89 54 90 57 91 55 92
REMARK H PARENT 79 45 47 56
REMARK Flexibility Score: inf
ROOT
ATOM      1  C   UNL A   1      34.782  34.050  28.051  1.00  0.00     0.275 C 
ENDROOT
BRANCH   1   2
ATOM      2  C   UNL A   1      34.014  34.304  29.317  1.00  0.00     0.275 C 
BRANCH   2   3
ATOM      3  O   UNL A   1      34.908  34.182  30.406  1.00  0.00    -0.459 OA
BRANCH   3   4
ATOM      4  C   UNL A   1      34.378  33.795  31.573  1.00  0.00     0.331 C 
ATOM      5  O   UNL A   1      33.655  34.424  32.304  1.00  0.00    -0.247 OA
BRANCH   4   6
ATOM      6  C   UNL A   1      34.796  32.405  31.803  1.00  0.00     0.097 C 
ATOM      7  C   UNL A   1      35.968  32.010  32.327  1.00  0.00     0.058 C 
BRANCH   7   8
ATOM      8  C   UNL A   1      37.105  32.745  32.816  1.00  0.00     0.175 A 
ATOM      9  C   UNL A   1      41.835  35.703  28.613  1.00  0.00     0.008 C 
ATOM     10  C   UNL A   1      42.208  34.362  29.247  1.00  0.00    -0.009 C 
ATOM     11  C   UNL A   1      43.600  34.359  29.896  1.00  0.00     0.009 C 
ATOM     12  C   UNL A   1      41.127  33.929  30.246  1.00  0.00     0.041 C 
ATOM     13  C   UNL A   1      43.677  35.197  31.186  1.00  0.00     0.047 C 
ATOM     14  C   UNL A   1      41.296  34.390  31.646  1.00  0.00    -0.020 A 
ATOM     15  C   UNL A   1      42.486  34.948  32.066  1.00  0.00     0.011 A 
ATOM     16  C   UNL A   1      40.374  34.271  32.727  1.00  0.00     0.060 A 
ATOM     17  S   UNL A   1      42.466  35.361  33.719  1.00  0.00    -0.120 S 
ATOM     18  C   UNL A   1      40.877  34.753  33.930  1.00  0.00     0.129 A 
ATOM     19  C   UNL A   1      39.001  33.703  32.853  1.00  0.00     0.168 A 
ATOM     20  N   UNL A   1      40.264  34.763  35.162  1.00  0.00    -0.225 NA
ATOM     21  N   UNL A   1      38.448  33.689  34.098  1.00  0.00    -0.201 N 
ATOM     22  N   UNL A   1      38.151  33.171  32.007  1.00  0.00    -0.207 NA
ATOM     23  C   UNL A   1      39.073  34.224  35.220  1.00  0.00     0.227 A 
ATOM     24  N   UNL A   1      37.246  33.085  34.110  1.00  0.00    -0.145 NA
ENDBRANCH   7   8
ENDBRANCH   4   6
ENDBRANCH   3   4
ENDBRANCH   2   3
ENDBRANCH   1   2
BRANCH   1  25
ATOM     25  O   UNL A   1      35.786  33.122  28.393  1.00  0.00    -0.458 OA
BRANCH  25  26
ATOM     26  C   UNL A   1      35.552  31.854  28.009  1.00  0.00     0.338 C 
ATOM     27  O   UNL A   1      34.593  31.373  27.431  1.00  0.00    -0.246 OA
BRANCH  26  28
ATOM     28  C   UNL A   1      36.570  31.063  28.671  1.00  0.00     0.060 A 
ATOM     29  C   UNL A   1      37.709  31.752  29.077  1.00  0.00     0.016 A 
ATOM     30  C   UNL A   1      36.511  29.662  28.543  1.00  0.00     0.016 A 
ATOM     31  C   UNL A   1      38.866  31.033  29.166  1.00  0.00     0.010 A 
ATOM     32  C   UNL A   1      37.667  28.951  28.616  1.00  0.00     0.010 A 
ATOM     33  C   UNL A   1      38.829  29.663  28.860  1.00  0.00    -0.014 A 
BRANCH  33  34
ATOM     34  C   UNL A   1      40.044  28.923  29.011  1.00  0.00     0.031 A 
ATOM     35  C   UNL A   1      40.344  28.709  30.437  1.00  0.00     0.074 A 
ATOM     36  C   UNL A   1      40.743  28.458  27.968  1.00  0.00     0.049 A 
ATOM     37  N   UNL A   1      41.260  29.309  31.116  1.00  0.00    -0.248 NA
ATOM     38  C   UNL A   1      39.371  27.962  31.251  1.00  0.00     0.031 C 
ATOM     39  C   UNL A   1      40.385  28.399  26.552  1.00  0.00     0.029 A 
ATOM     40  N   UNL A   1      41.954  27.862  28.008  1.00  0.00    -0.354 N 
ATOM     41  C   UNL A   1      41.103  28.865  32.419  1.00  0.00     0.074 A 
ATOM     42  C   UNL A   1      39.827  28.203  32.480  1.00  0.00     0.031 C 
ATOM     43  C   UNL A   1      41.269  27.601  25.907  1.00  0.00     0.029 A 
ATOM     44  C   UNL A   1      42.321  27.225  26.837  1.00  0.00     0.049 A 
ATOM     45  H   UNL A   1      42.529  27.878  28.807  1.00  0.00     0.167 HD
ATOM     46  C   UNL A   1      42.169  28.855  33.258  1.00  0.00     0.037 A 
ATOM     47  C   UNL A   1      43.383  26.393  26.717  1.00  0.00     0.037 A 
ATOM     48  C   UNL A   1      43.206  29.738  32.780  1.00  0.00     0.049 A 
ATOM     49  C   UNL A   1      44.314  26.716  27.838  1.00  0.00     0.074 A 
ATOM     50  C   UNL A   1      43.280  31.100  32.564  1.00  0.00     0.029 A 
ATOM     51  N   UNL A   1      44.226  29.180  32.046  1.00  0.00    -0.354 N 
ATOM     52  N   UNL A   1      44.958  27.848  27.931  1.00  0.00    -0.248 NA
ATOM     53  C   UNL A   1      44.147  25.992  29.091  1.00  0.00     0.031 C 
ATOM     54  C   UNL A   1      44.043  31.248  31.369  1.00  0.00     0.029 A 
ATOM     55  C   UNL A   1      44.451  29.979  30.954  1.00  0.00     0.049 A 
ATOM     56  H   UNL A   1      44.710  28.351  32.265  1.00  0.00     0.167 HD
ATOM     57  C   UNL A   1      44.902  28.182  29.278  1.00  0.00     0.074 A 
ATOM     58  C   UNL A   1      44.461  26.964  29.955  1.00  0.00     0.031 C 
ATOM     59  C   UNL A   1      44.931  29.486  29.681  1.00  0.00     0.037 A 
BRANCH  46  60
ATOM     60  C   UNL A   1      42.426  27.750  34.244  1.00  0.00     0.064 A 
ATOM     61  C   UNL A   1      43.013  26.559  33.782  1.00  0.00     0.173 A 
ATOM     62  C   UNL A   1      41.847  27.690  35.532  1.00  0.00     0.173 A 
ATOM     63  F   UNL A   1      43.573  26.501  32.565  1.00  0.00    -0.203 F 
ATOM     64  C   UNL A   1      42.950  25.377  34.522  1.00  0.00     0.198 A 
ATOM     65  C   UNL A   1      41.834  26.523  36.288  1.00  0.00     0.198 A 
ATOM     66  F   UNL A   1      41.169  28.711  36.066  1.00  0.00    -0.203 F 
ATOM     67  F   UNL A   1      43.404  24.236  33.987  1.00  0.00    -0.200 F 
ATOM     68  C   UNL A   1      42.354  25.358  35.770  1.00  0.00     0.200 A 
ATOM     69  F   UNL A   1      41.232  26.523  37.486  1.00  0.00    -0.200 F 
ATOM     70  F   UNL A   1      42.235  24.212  36.451  1.00  0.00    -0.200 F 
ENDBRANCH  46  60
BRANCH  47  71
ATOM     71  C   UNL A   1      43.452  25.122  25.960  1.00  0.00     0.064 A 
ATOM     72  C   UNL A   1      44.540  24.853  25.114  1.00  0.00     0.173 A 
ATOM     73  C   UNL A   1      42.611  24.033  26.265  1.00  0.00     0.173 A 
ATOM     74  F   UNL A   1      45.412  25.824  24.811  1.00  0.00    -0.203 F 
ATOM     75  C   UNL A   1      44.792  23.564  24.630  1.00  0.00     0.198 A 
ATOM     76  C   UNL A   1      42.860  22.750  25.777  1.00  0.00     0.198 A 
ATOM     77  F   UNL A   1      41.588  24.169  27.120  1.00  0.00    -0.203 F 
ATOM     78  F   UNL A   1      45.878  23.333  23.882  1.00  0.00    -0.200 F 
ATOM     79  C   UNL A   1      43.958  22.512  24.972  1.00  0.00     0.200 A 
ATOM     80  F   UNL A   1      42.066  21.733  26.145  1.00  0.00    -0.200 F 
ATOM     81  F   UNL A   1      44.236  21.266  24.563  1.00  0.00    -0.200 F 
ENDBRANCH  47  71
BRANCH  59  82
ATOM     82  C   UNL A   1      45.279  30.530  28.655  1.00  0.00     0.064 A 
ATOM     83  C   UNL A   1      44.332  31.205  27.863  1.00  0.00     0.173 A 
ATOM     84  C   UNL A   1      46.603  30.986  28.605  1.00  0.00     0.173 A 
ATOM     85  F   UNL A   1      43.033  30.888  27.921  1.00  0.00    -0.203 F 
ATOM     86  C   UNL A   1      44.703  32.271  27.045  1.00  0.00     0.198 A 
ATOM     87  C   UNL A   1      46.964  32.074  27.815  1.00  0.00     0.198 A 
ATOM     88  F   UNL A   1      47.539  30.414  29.378  1.00  0.00    -0.203 F 
ATOM     89  F   UNL A   1      43.782  32.902  26.299  1.00  0.00    -0.200 F 
ATOM     90  C   UNL A   1      46.016  32.712  27.031  1.00  0.00     0.200 A 
ATOM     91  F   UNL A   1      48.224  32.528  27.844  1.00  0.00    -0.200 F 
ATOM     92  F   UNL A   1      46.364  33.772  26.287  1.00  0.00    -0.200 F 
ENDBRANCH  59  82
ENDBRANCH  33  34
ENDBRANCH  26  28
ENDBRANCH  25  26
ENDBRANCH   1  25
TORSDOF 12
ENDMDL
