MODEL 1
REMARK VINA RESULT:     -11.5      0.000      0.000
REMARK SMILES CC[C@H](C)[NH+]1CCN(C(=O)CC(=O)OCCOC(=O)c2ccc(-c3c4nc(c(-c5c(F)c(F)c(F)c(F)c5F)c5ccc([nH]5)c(-c5c(F)c(F)c(F)c(F)c5F)c5nc(c(-c6c(F)c(F)c(F)c(F)c6F)c6ccc3[nH]6)C=C5)C=C4)cc2)CC1
REMARK SMILES IDX 15 1 14 2 12 3 13 4 11 5 9 6 5 7 6 8 84 9 7 11 83 12 8 13
REMARK SMILES IDX 10 14 3 15 4 16 2 17 1 18 16 19 17 20 18 21 19 22 20 23
REMARK SMILES IDX 21 24 82 25 22 26 81 27 23 28 24 29 25 30 75 31 26 32 80 33
REMARK SMILES IDX 74 34 76 35 27 36 79 37 73 38 72 39 28 41 60 42 40 43 59 44
REMARK SMILES IDX 41 45 44 46 58 47 77 48 42 49 43 50 57 52 78 53 45 54 29 55
REMARK SMILES IDX 30 56 38 57 31 58 32 59 36 60 39 61 33 62 34 63 37 64 35 65
REMARK SMILES IDX 61 66 62 67 70 68 63 69 64 70 68 71 71 72 65 73 66 74 69 75
REMARK SMILES IDX 67 76 46 77 47 78 55 79 48 80 49 81 53 82 56 83 50 84 51 85
REMARK SMILES IDX 54 86 52 87
REMARK H PARENT 5 10 76 40 44 51
REMARK Flexibility Score: inf
ROOT
ATOM      1  C   UNL A   1      31.442  29.339  24.773  1.00  0.00     0.274 C 
ENDROOT
BRANCH   1   2
ATOM      2  O   UNL A   1      30.315  29.623  23.914  1.00  0.00    -0.462 OA
BRANCH   2   3
ATOM      3  C   UNL A   1      30.218  28.846  22.807  1.00  0.00     0.315 C 
ATOM      4  O   UNL A   1      30.200  29.279  21.656  1.00  0.00    -0.252 OA
BRANCH   3   5
ATOM      5  C   UNL A   1      30.155  27.375  23.070  1.00  0.00     0.222 C 
BRANCH   5   6
ATOM      6  C   UNL A   1      31.252  26.508  22.511  1.00  0.00     0.234 C 
ATOM      7  N   UNL A   1      33.906  24.180  25.053  1.00  0.00    -0.330 N 
ATOM      8  C   UNL A   1      34.360  24.653  23.736  1.00  0.00     0.284 C 
ATOM      9  C   UNL A   1      33.034  25.184  25.656  1.00  0.00     0.284 C 
ATOM     10  H   UNL A   1      34.706  24.111  25.682  1.00  0.00     0.348 HD
ATOM     11  C   UNL A   1      33.282  25.198  22.777  1.00  0.00     0.181 C 
ATOM     12  C   UNL A   1      31.854  25.643  24.791  1.00  0.00     0.181 C 
ATOM     13  N   UNL A   1      32.169  25.929  23.391  1.00  0.00    -0.331 N 
ATOM     14  O   UNL A   1      31.363  26.384  21.288  1.00  0.00    -0.274 OA
BRANCH   7  15
ATOM     15  C   UNL A   1      33.503  22.762  25.113  1.00  0.00     0.180 C 
ATOM     16  C   UNL A   1      34.655  21.855  24.640  1.00  0.00     0.075 C 
BRANCH  15  17
ATOM     17  C   UNL A   1      32.934  22.249  26.451  1.00  0.00     0.061 C 
ATOM     18  C   UNL A   1      33.983  22.143  27.553  1.00  0.00     0.010 C 
ENDBRANCH  15  17
ENDBRANCH   7  15
ENDBRANCH   5   6
ENDBRANCH   3   5
ENDBRANCH   2   3
ENDBRANCH   1   2
BRANCH   1  19
ATOM     19  C   UNL A   1      31.619  30.435  25.820  1.00  0.00     0.275 C 
BRANCH  19  20
ATOM     20  O   UNL A   1      32.966  30.408  26.325  1.00  0.00    -0.458 OA
BRANCH  20  21
ATOM     21  C   UNL A   1      33.314  31.444  27.117  1.00  0.00     0.338 C 
ATOM     22  O   UNL A   1      32.662  32.456  27.337  1.00  0.00    -0.246 OA
BRANCH  21  23
ATOM     23  C   UNL A   1      34.642  31.209  27.721  1.00  0.00     0.060 A 
ATOM     24  C   UNL A   1      35.551  32.248  27.943  1.00  0.00     0.016 A 
ATOM     25  C   UNL A   1      35.002  29.893  28.022  1.00  0.00     0.016 A 
ATOM     26  C   UNL A   1      36.823  31.970  28.451  1.00  0.00     0.010 A 
ATOM     27  C   UNL A   1      36.240  29.628  28.607  1.00  0.00     0.010 A 
ATOM     28  C   UNL A   1      37.159  30.663  28.836  1.00  0.00    -0.014 A 
BRANCH  28  29
ATOM     29  C   UNL A   1      38.406  30.371  29.591  1.00  0.00     0.031 A 
ATOM     30  C   UNL A   1      39.416  29.391  29.069  1.00  0.00     0.074 A 
ATOM     31  C   UNL A   1      38.565  30.912  30.816  1.00  0.00     0.049 A 
ATOM     32  N   UNL A   1      40.425  28.835  29.693  1.00  0.00    -0.248 NA
ATOM     33  C   UNL A   1      39.270  28.972  27.667  1.00  0.00     0.031 C 
ATOM     34  C   UNL A   1      37.657  31.879  31.438  1.00  0.00     0.029 A 
ATOM     35  N   UNL A   1      39.527  30.700  31.771  1.00  0.00    -0.354 N 
ATOM     36  C   UNL A   1      41.016  27.980  28.772  1.00  0.00     0.074 A 
ATOM     37  C   UNL A   1      40.250  28.085  27.547  1.00  0.00     0.031 C 
ATOM     38  C   UNL A   1      38.102  32.174  32.667  1.00  0.00     0.029 A 
ATOM     39  C   UNL A   1      39.278  31.360  32.950  1.00  0.00     0.049 A 
ATOM     40  H   UNL A   1      40.318  30.131  31.627  1.00  0.00     0.167 HD
ATOM     41  C   UNL A   1      42.097  27.182  28.942  1.00  0.00     0.037 A 
ATOM     42  C   UNL A   1      39.886  31.281  34.147  1.00  0.00     0.037 A 
ATOM     43  C   UNL A   1      42.869  27.100  30.156  1.00  0.00     0.049 A 
ATOM     44  C   UNL A   1      41.037  30.337  34.328  1.00  0.00     0.074 A 
ATOM     45  C   UNL A   1      44.021  26.371  30.398  1.00  0.00     0.029 A 
ATOM     46  N   UNL A   1      42.563  27.764  31.334  1.00  0.00    -0.354 N 
ATOM     47  N   UNL A   1      41.592  29.537  33.452  1.00  0.00    -0.248 NA
ATOM     48  C   UNL A   1      41.632  30.268  35.669  1.00  0.00     0.031 C 
ATOM     49  C   UNL A   1      44.387  26.559  31.736  1.00  0.00     0.029 A 
ATOM     50  C   UNL A   1      43.485  27.435  32.316  1.00  0.00     0.049 A 
ATOM     51  H   UNL A   1      41.804  28.378  31.456  1.00  0.00     0.167 HD
ATOM     52  C   UNL A   1      42.602  28.872  34.131  1.00  0.00     0.074 A 
ATOM     53  C   UNL A   1      42.596  29.376  35.489  1.00  0.00     0.031 C 
ATOM     54  C   UNL A   1      43.455  27.927  33.669  1.00  0.00     0.037 A 
BRANCH  41  55
ATOM     55  C   UNL A   1      42.515  26.314  27.793  1.00  0.00     0.064 A 
ATOM     56  C   UNL A   1      41.915  25.068  27.556  1.00  0.00     0.173 A 
ATOM     57  C   UNL A   1      43.470  26.771  26.873  1.00  0.00     0.173 A 
ATOM     58  F   UNL A   1      41.002  24.586  28.410  1.00  0.00    -0.203 F 
ATOM     59  C   UNL A   1      42.267  24.307  26.444  1.00  0.00     0.198 A 
ATOM     60  C   UNL A   1      43.804  26.015  25.751  1.00  0.00     0.198 A 
ATOM     61  F   UNL A   1      44.067  27.959  27.051  1.00  0.00    -0.203 F 
ATOM     62  F   UNL A   1      41.698  23.109  26.247  1.00  0.00    -0.200 F 
ATOM     63  C   UNL A   1      43.204  24.784  25.539  1.00  0.00     0.200 A 
ATOM     64  F   UNL A   1      44.701  26.483  24.872  1.00  0.00    -0.200 F 
ATOM     65  F   UNL A   1      43.529  24.055  24.462  1.00  0.00    -0.200 F 
ENDBRANCH  41  55
BRANCH  42  66
ATOM     66  C   UNL A   1      39.373  32.090  35.281  1.00  0.00     0.064 A 
ATOM     67  C   UNL A   1      38.532  31.520  36.245  1.00  0.00     0.173 A 
ATOM     68  C   UNL A   1      39.740  33.435  35.441  1.00  0.00     0.173 A 
ATOM     69  F   UNL A   1      38.137  30.245  36.119  1.00  0.00    -0.203 F 
ATOM     70  C   UNL A   1      38.076  32.267  37.329  1.00  0.00     0.198 A 
ATOM     71  C   UNL A   1      39.304  34.172  36.537  1.00  0.00     0.198 A 
ATOM     72  F   UNL A   1      40.546  34.022  34.543  1.00  0.00    -0.203 F 
ATOM     73  F   UNL A   1      37.251  31.708  38.224  1.00  0.00    -0.200 F 
ATOM     74  C   UNL A   1      38.469  33.589  37.479  1.00  0.00     0.200 A 
ATOM     75  F   UNL A   1      39.699  35.444  36.687  1.00  0.00    -0.200 F 
ATOM     76  F   UNL A   1      38.042  34.302  38.529  1.00  0.00    -0.200 F 
ENDBRANCH  42  66
BRANCH  54  77
ATOM     77  C   UNL A   1      44.453  27.379  34.641  1.00  0.00     0.064 A 
ATOM     78  C   UNL A   1      44.196  26.203  35.361  1.00  0.00     0.173 A 
ATOM     79  C   UNL A   1      45.685  28.019  34.838  1.00  0.00     0.173 A 
ATOM     80  F   UNL A   1      43.022  25.569  35.220  1.00  0.00    -0.203 F 
ATOM     81  C   UNL A   1      45.132  25.696  36.257  1.00  0.00     0.198 A 
ATOM     82  C   UNL A   1      46.628  27.497  35.720  1.00  0.00     0.198 A 
ATOM     83  F   UNL A   1      45.976  29.146  34.173  1.00  0.00    -0.203 F 
ATOM     84  F   UNL A   1      44.852  24.593  36.963  1.00  0.00    -0.200 F 
ATOM     85  C   UNL A   1      46.349  26.340  36.431  1.00  0.00     0.200 A 
ATOM     86  F   UNL A   1      47.805  28.116  35.882  1.00  0.00    -0.200 F 
ATOM     87  F   UNL A   1      47.250  25.848  37.293  1.00  0.00    -0.200 F 
ENDBRANCH  54  77
ENDBRANCH  28  29
ENDBRANCH  21  23
ENDBRANCH  20  21
ENDBRANCH  19  20
ENDBRANCH   1  19
TORSDOF 14
ENDMDL
MODEL 2
REMARK VINA RESULT:     -11.4      4.482      9.801
REMARK SMILES CC[C@H](C)[NH+]1CCN(C(=O)CC(=O)OCCOC(=O)c2ccc(-c3c4nc(c(-c5c(F)c(F)c(F)c(F)c5F)c5ccc([nH]5)c(-c5c(F)c(F)c(F)c(F)c5F)c5nc(c(-c6c(F)c(F)c(F)c(F)c6F)c6ccc3[nH]6)C=C5)C=C4)cc2)CC1
REMARK SMILES IDX 15 1 14 2 12 3 13 4 11 5 9 6 5 7 6 8 84 9 7 11 83 12 8 13
REMARK SMILES IDX 10 14 3 15 4 16 2 17 1 18 16 19 17 20 18 21 19 22 20 23
REMARK SMILES IDX 21 24 82 25 22 26 81 27 23 28 24 29 25 30 75 31 26 32 80 33
REMARK SMILES IDX 74 34 76 35 27 36 79 37 73 38 72 39 28 41 60 42 40 43 59 44
REMARK SMILES IDX 41 45 44 46 58 47 77 48 42 49 43 50 57 52 78 53 45 54 29 55
REMARK SMILES IDX 30 56 38 57 31 58 32 59 36 60 39 61 33 62 34 63 37 64 35 65
REMARK SMILES IDX 61 66 62 67 70 68 63 69 64 70 68 71 71 72 65 73 66 74 69 75
REMARK SMILES IDX 67 76 46 77 47 78 55 79 48 80 49 81 53 82 56 83 50 84 51 85
REMARK SMILES IDX 54 86 52 87
REMARK H PARENT 5 10 76 40 44 51
REMARK Flexibility Score: inf
ROOT
ATOM      1  C   UNL A   1      35.125  20.867  25.412  1.00  0.00     0.274 C 
ENDROOT
BRANCH   1   2
ATOM      2  O   UNL A   1      34.428  21.411  24.270  1.00  0.00    -0.462 OA
BRANCH   2   3
ATOM      3  C   UNL A   1      33.079  21.281  24.296  1.00  0.00     0.315 C 
ATOM      4  O   UNL A   1      32.454  20.725  25.197  1.00  0.00    -0.252 OA
BRANCH   3   5
ATOM      5  C   UNL A   1      32.361  21.894  23.136  1.00  0.00     0.222 C 
BRANCH   5   6
ATOM      6  C   UNL A   1      32.810  23.251  22.662  1.00  0.00     0.234 C 
ATOM      7  N   UNL A   1      30.884  26.929  23.961  1.00  0.00    -0.330 N 
ATOM      8  C   UNL A   1      31.548  26.858  22.650  1.00  0.00     0.284 C 
ATOM      9  C   UNL A   1      30.252  25.646  24.256  1.00  0.00     0.284 C 
ATOM     10  H   UNL A   1      30.117  27.599  23.915  1.00  0.00     0.348 HD
ATOM     11  C   UNL A   1      32.461  25.641  22.391  1.00  0.00     0.181 C 
ATOM     12  C   UNL A   1      31.167  24.419  24.160  1.00  0.00     0.181 C 
ATOM     13  N   UNL A   1      32.038  24.368  22.985  1.00  0.00    -0.331 N 
ATOM     14  O   UNL A   1      33.807  23.341  21.940  1.00  0.00    -0.274 OA
BRANCH   7  15
ATOM     15  C   UNL A   1      31.652  27.603  25.026  1.00  0.00     0.180 C 
ATOM     16  C   UNL A   1      31.407  29.124  24.984  1.00  0.00     0.075 C 
BRANCH  15  17
ATOM     17  C   UNL A   1      31.477  27.072  26.462  1.00  0.00     0.061 C 
ATOM     18  C   UNL A   1      31.492  28.171  27.520  1.00  0.00     0.010 C 
ENDBRANCH  15  17
ENDBRANCH   7  15
ENDBRANCH   5   6
ENDBRANCH   3   5
ENDBRANCH   2   3
ENDBRANCH   1   2
BRANCH   1  19
ATOM     19  C   UNL A   1      36.592  20.604  25.082  1.00  0.00     0.275 C 
BRANCH  19  20
ATOM     20  O   UNL A   1      37.398  21.694  25.561  1.00  0.00    -0.458 OA
BRANCH  20  21
ATOM     21  C   UNL A   1      38.666  21.379  25.898  1.00  0.00     0.338 C 
ATOM     22  O   UNL A   1      39.223  20.299  25.751  1.00  0.00    -0.246 OA
BRANCH  21  23
ATOM     23  C   UNL A   1      39.346  22.545  26.499  1.00  0.00     0.060 A 
ATOM     24  C   UNL A   1      40.418  22.404  27.387  1.00  0.00     0.016 A 
ATOM     25  C   UNL A   1      38.853  23.818  26.200  1.00  0.00     0.016 A 
ATOM     26  C   UNL A   1      40.984  23.533  27.986  1.00  0.00     0.010 A 
ATOM     27  C   UNL A   1      39.474  24.947  26.735  1.00  0.00     0.010 A 
ATOM     28  C   UNL A   1      40.551  24.817  27.625  1.00  0.00    -0.014 A 
BRANCH  28  29
ATOM     29  C   UNL A   1      41.281  26.036  28.060  1.00  0.00     0.031 A 
ATOM     30  C   UNL A   1      40.581  27.135  28.805  1.00  0.00     0.074 A 
ATOM     31  C   UNL A   1      42.563  26.198  27.673  1.00  0.00     0.049 A 
ATOM     32  N   UNL A   1      40.986  28.357  29.047  1.00  0.00    -0.248 NA
ATOM     33  C   UNL A   1      39.246  26.826  29.340  1.00  0.00     0.031 C 
ATOM     34  C   UNL A   1      43.359  25.206  26.946  1.00  0.00     0.029 A 
ATOM     35  N   UNL A   1      43.411  27.269  27.806  1.00  0.00    -0.354 N 
ATOM     36  C   UNL A   1      39.948  28.972  29.735  1.00  0.00     0.074 A 
ATOM     37  C   UNL A   1      38.891  27.991  29.868  1.00  0.00     0.031 C 
ATOM     38  C   UNL A   1      44.573  25.713  26.695  1.00  0.00     0.029 A 
ATOM     39  C   UNL A   1      44.616  27.090  27.171  1.00  0.00     0.049 A 
ATOM     40  H   UNL A   1      43.178  28.085  28.306  1.00  0.00     0.167 HD
ATOM     41  C   UNL A   1      39.890  30.240  30.207  1.00  0.00     0.037 A 
ATOM     42  C   UNL A   1      45.624  27.951  26.942  1.00  0.00     0.037 A 
ATOM     43  C   UNL A   1      40.955  31.205  30.092  1.00  0.00     0.049 A 
ATOM     44  C   UNL A   1      45.504  29.369  27.413  1.00  0.00     0.074 A 
ATOM     45  C   UNL A   1      41.012  32.491  30.600  1.00  0.00     0.029 A 
ATOM     46  N   UNL A   1      42.147  30.989  29.416  1.00  0.00    -0.354 N 
ATOM     47  N   UNL A   1      44.524  29.940  28.066  1.00  0.00    -0.248 NA
ATOM     48  C   UNL A   1      46.622  30.268  27.096  1.00  0.00     0.031 C 
ATOM     49  C   UNL A   1      42.220  33.070  30.193  1.00  0.00     0.029 A 
ATOM     50  C   UNL A   1      42.931  32.132  29.465  1.00  0.00     0.049 A 
ATOM     51  H   UNL A   1      42.399  30.150  28.967  1.00  0.00     0.167 HD
ATOM     52  C   UNL A   1      44.903  31.262  28.243  1.00  0.00     0.074 A 
ATOM     53  C   UNL A   1      46.214  31.405  27.644  1.00  0.00     0.031 C 
ATOM     54  C   UNL A   1      44.224  32.266  28.846  1.00  0.00     0.037 A 
BRANCH  41  55
ATOM     55  C   UNL A   1      38.627  30.679  30.886  1.00  0.00     0.064 A 
ATOM     56  C   UNL A   1      38.527  30.747  32.282  1.00  0.00     0.173 A 
ATOM     57  C   UNL A   1      37.530  31.112  30.124  1.00  0.00     0.173 A 
ATOM     58  F   UNL A   1      39.546  30.339  33.052  1.00  0.00    -0.203 F 
ATOM     59  C   UNL A   1      37.370  31.223  32.893  1.00  0.00     0.198 A 
ATOM     60  C   UNL A   1      36.383  31.606  30.739  1.00  0.00     0.198 A 
ATOM     61  F   UNL A   1      37.579  31.073  28.785  1.00  0.00    -0.203 F 
ATOM     62  F   UNL A   1      37.287  31.261  34.230  1.00  0.00    -0.200 F 
ATOM     63  C   UNL A   1      36.302  31.660  32.122  1.00  0.00     0.200 A 
ATOM     64  F   UNL A   1      35.357  32.038  29.992  1.00  0.00    -0.200 F 
ATOM     65  F   UNL A   1      35.196  32.132  32.713  1.00  0.00    -0.200 F 
ENDBRANCH  41  55
BRANCH  42  66
ATOM     66  C   UNL A   1      46.813  27.494  26.180  1.00  0.00     0.064 A 
ATOM     67  C   UNL A   1      46.860  27.615  24.785  1.00  0.00     0.173 A 
ATOM     68  C   UNL A   1      47.936  26.962  26.831  1.00  0.00     0.173 A 
ATOM     69  F   UNL A   1      45.800  28.096  24.119  1.00  0.00    -0.203 F 
ATOM     70  C   UNL A   1      47.987  27.219  24.069  1.00  0.00     0.198 A 
ATOM     71  C   UNL A   1      49.071  26.591  26.118  1.00  0.00     0.198 A 
ATOM     72  F   UNL A   1      47.937  26.830  28.167  1.00  0.00    -0.203 F 
ATOM     73  F   UNL A   1      47.999  27.319  22.734  1.00  0.00    -0.200 F 
ATOM     74  C   UNL A   1      49.095  26.716  24.737  1.00  0.00     0.200 A 
ATOM     75  F   UNL A   1      50.145  26.120  26.767  1.00  0.00    -0.200 F 
ATOM     76  F   UNL A   1      50.184  26.348  24.049  1.00  0.00    -0.200 F 
ENDBRANCH  42  66
BRANCH  54  77
ATOM     77  C   UNL A   1      44.889  33.607  28.887  1.00  0.00     0.064 A 
ATOM     78  C   UNL A   1      45.774  33.949  29.920  1.00  0.00     0.173 A 
ATOM     79  C   UNL A   1      44.660  34.550  27.875  1.00  0.00     0.173 A 
ATOM     80  F   UNL A   1      46.007  33.086  30.922  1.00  0.00    -0.203 F 
ATOM     81  C   UNL A   1      46.394  35.194  29.947  1.00  0.00     0.198 A 
ATOM     82  C   UNL A   1      45.298  35.787  27.893  1.00  0.00     0.198 A 
ATOM     83  F   UNL A   1      43.822  34.269  26.867  1.00  0.00    -0.203 F 
ATOM     84  F   UNL A   1      47.206  35.515  30.963  1.00  0.00    -0.200 F 
ATOM     85  C   UNL A   1      46.161  36.110  28.930  1.00  0.00     0.200 A 
ATOM     86  F   UNL A   1      45.077  36.668  26.908  1.00  0.00    -0.200 F 
ATOM     87  F   UNL A   1      46.760  37.308  28.957  1.00  0.00    -0.200 F 
ENDBRANCH  54  77
ENDBRANCH  28  29
ENDBRANCH  21  23
ENDBRANCH  20  21
ENDBRANCH  19  20
ENDBRANCH   1  19
TORSDOF 14
ENDMDL
MODEL 3
REMARK VINA RESULT:     -11.4      0.776      1.453
REMARK SMILES CC[C@H](C)[NH+]1CCN(C(=O)CC(=O)OCCOC(=O)c2ccc(-c3c4nc(c(-c5c(F)c(F)c(F)c(F)c5F)c5ccc([nH]5)c(-c5c(F)c(F)c(F)c(F)c5F)c5nc(c(-c6c(F)c(F)c(F)c(F)c6F)c6ccc3[nH]6)C=C5)C=C4)cc2)CC1
REMARK SMILES IDX 15 1 14 2 12 3 13 4 11 5 9 6 5 7 6 8 84 9 7 11 83 12 8 13
REMARK SMILES IDX 10 14 3 15 4 16 2 17 1 18 16 19 17 20 18 21 19 22 20 23
REMARK SMILES IDX 21 24 82 25 22 26 81 27 23 28 24 29 25 30 75 31 26 32 80 33
REMARK SMILES IDX 74 34 76 35 27 36 79 37 73 38 72 39 28 41 60 42 40 43 59 44
REMARK SMILES IDX 41 45 44 46 58 47 77 48 42 49 43 50 57 52 78 53 45 54 29 55
REMARK SMILES IDX 30 56 38 57 31 58 32 59 36 60 39 61 33 62 34 63 37 64 35 65
REMARK SMILES IDX 61 66 62 67 70 68 63 69 64 70 68 71 71 72 65 73 66 74 69 75
REMARK SMILES IDX 67 76 46 77 47 78 55 79 48 80 49 81 53 82 56 83 50 84 51 85
REMARK SMILES IDX 54 86 52 87
REMARK H PARENT 5 10 76 40 44 51
REMARK Flexibility Score: inf
ROOT
ATOM      1  C   UNL A   1      31.780  28.200  25.286  1.00  0.00     0.274 C 
ENDROOT
BRANCH   1   2
ATOM      2  O   UNL A   1      30.791  28.011  24.249  1.00  0.00    -0.462 OA
BRANCH   2   3
ATOM      3  C   UNL A   1      31.264  28.064  22.980  1.00  0.00     0.315 C 
ATOM      4  O   UNL A   1      31.566  29.103  22.396  1.00  0.00    -0.252 OA
BRANCH   3   5
ATOM      5  C   UNL A   1      31.424  26.737  22.308  1.00  0.00     0.222 C 
BRANCH   5   6
ATOM      6  C   UNL A   1      32.768  26.062  22.386  1.00  0.00     0.234 C 
ATOM      7  N   UNL A   1      33.600  22.845  25.195  1.00  0.00    -0.330 N 
ATOM      8  C   UNL A   1      34.682  23.725  24.727  1.00  0.00     0.284 C 
ATOM      9  C   UNL A   1      32.370  23.620  25.336  1.00  0.00     0.284 C 
ATOM     10  H   UNL A   1      33.815  22.515  26.136  1.00  0.00     0.348 HD
ATOM     11  C   UNL A   1      34.376  24.631  23.517  1.00  0.00     0.181 C 
ATOM     12  C   UNL A   1      31.944  24.419  24.099  1.00  0.00     0.181 C 
ATOM     13  N   UNL A   1      33.011  25.160  23.425  1.00  0.00    -0.331 N 
ATOM     14  O   UNL A   1      33.648  26.370  21.579  1.00  0.00    -0.274 OA
BRANCH   7  15
ATOM     15  C   UNL A   1      33.533  21.521  24.547  1.00  0.00     0.180 C 
ATOM     16  C   UNL A   1      34.805  20.708  24.855  1.00  0.00     0.075 C 
BRANCH  15  17
ATOM     17  C   UNL A   1      32.276  20.670  24.816  1.00  0.00     0.061 C 
ATOM     18  C   UNL A   1      32.544  19.169  24.786  1.00  0.00     0.010 C 
ENDBRANCH  15  17
ENDBRANCH   7  15
ENDBRANCH   5   6
ENDBRANCH   3   5
ENDBRANCH   2   3
ENDBRANCH   1   2
BRANCH   1  19
ATOM     19  C   UNL A   1      31.795  29.649  25.767  1.00  0.00     0.275 C 
BRANCH  19  20
ATOM     20  O   UNL A   1      33.153  30.078  25.967  1.00  0.00    -0.458 OA
BRANCH  20  21
ATOM     21  C   UNL A   1      33.340  30.987  26.946  1.00  0.00     0.338 C 
ATOM     22  O   UNL A   1      32.553  31.850  27.313  1.00  0.00    -0.246 OA
BRANCH  21  23
ATOM     23  C   UNL A   1      34.675  30.821  27.559  1.00  0.00     0.060 A 
ATOM     24  C   UNL A   1      35.490  31.913  27.872  1.00  0.00     0.016 A 
ATOM     25  C   UNL A   1      35.139  29.521  27.774  1.00  0.00     0.016 A 
ATOM     26  C   UNL A   1      36.773  31.704  28.385  1.00  0.00     0.010 A 
ATOM     27  C   UNL A   1      36.387  29.318  28.363  1.00  0.00     0.010 A 
ATOM     28  C   UNL A   1      37.213  30.406  28.684  1.00  0.00    -0.014 A 
BRANCH  28  29
ATOM     29  C   UNL A   1      38.468  30.164  29.442  1.00  0.00     0.031 A 
ATOM     30  C   UNL A   1      39.504  29.203  28.937  1.00  0.00     0.074 A 
ATOM     31  C   UNL A   1      38.614  30.736  30.655  1.00  0.00     0.049 A 
ATOM     32  N   UNL A   1      40.529  28.688  29.570  1.00  0.00    -0.248 NA
ATOM     33  C   UNL A   1      39.367  28.750  27.545  1.00  0.00     0.031 C 
ATOM     34  C   UNL A   1      37.681  31.690  31.259  1.00  0.00     0.029 A 
ATOM     35  N   UNL A   1      39.584  30.570  31.612  1.00  0.00    -0.354 N 
ATOM     36  C   UNL A   1      41.142  27.831  28.666  1.00  0.00     0.074 A 
ATOM     37  C   UNL A   1      40.371  27.888  27.441  1.00  0.00     0.031 C 
ATOM     38  C   UNL A   1      38.120  32.022  32.480  1.00  0.00     0.029 A 
ATOM     39  C   UNL A   1      39.319  31.247  32.777  1.00  0.00     0.049 A 
ATOM     40  H   UNL A   1      40.390  30.020  31.477  1.00  0.00     0.167 HD
ATOM     41  C   UNL A   1      42.245  27.066  28.850  1.00  0.00     0.037 A 
ATOM     42  C   UNL A   1      39.931  31.210  33.974  1.00  0.00     0.037 A 
ATOM     43  C   UNL A   1      43.022  27.031  30.064  1.00  0.00     0.049 A 
ATOM     44  C   UNL A   1      41.108  30.302  34.171  1.00  0.00     0.074 A 
ATOM     45  C   UNL A   1      44.194  26.339  30.317  1.00  0.00     0.029 A 
ATOM     46  N   UNL A   1      42.700  27.711  31.228  1.00  0.00    -0.354 N 
ATOM     47  N   UNL A   1      41.684  29.500  33.311  1.00  0.00    -0.248 NA
ATOM     48  C   UNL A   1      41.708  30.278  35.513  1.00  0.00     0.031 C 
ATOM     49  C   UNL A   1      44.557  26.565  31.650  1.00  0.00     0.029 A 
ATOM     50  C   UNL A   1      43.633  27.428  32.215  1.00  0.00     0.049 A 
ATOM     51  H   UNL A   1      41.924  28.306  31.339  1.00  0.00     0.167 HD
ATOM     52  C   UNL A   1      42.713  28.878  34.001  1.00  0.00     0.074 A 
ATOM     53  C   UNL A   1      42.696  29.409  35.348  1.00  0.00     0.031 C 
ATOM     54  C   UNL A   1      43.591  27.948  33.557  1.00  0.00     0.037 A 
BRANCH  41  55
ATOM     55  C   UNL A   1      42.685  26.186  27.718  1.00  0.00     0.064 A 
ATOM     56  C   UNL A   1      42.118  24.921  27.507  1.00  0.00     0.173 A 
ATOM     57  C   UNL A   1      43.628  26.649  26.788  1.00  0.00     0.173 A 
ATOM     58  F   UNL A   1      41.218  24.432  28.372  1.00  0.00    -0.203 F 
ATOM     59  C   UNL A   1      42.489  24.146  26.411  1.00  0.00     0.198 A 
ATOM     60  C   UNL A   1      43.980  25.880  25.682  1.00  0.00     0.198 A 
ATOM     61  F   UNL A   1      44.193  27.856  26.942  1.00  0.00    -0.203 F 
ATOM     62  F   UNL A   1      41.951  22.931  26.239  1.00  0.00    -0.200 F 
ATOM     63  C   UNL A   1      43.412  24.629  25.495  1.00  0.00     0.200 A 
ATOM     64  F   UNL A   1      44.864  26.353  24.792  1.00  0.00    -0.200 F 
ATOM     65  F   UNL A   1      43.755  23.887  24.433  1.00  0.00    -0.200 F 
ENDBRANCH  41  55
BRANCH  42  66
ATOM     66  C   UNL A   1      39.398  32.028  35.092  1.00  0.00     0.064 A 
ATOM     67  C   UNL A   1      39.678  33.399  35.174  1.00  0.00     0.173 A 
ATOM     68  C   UNL A   1      38.573  31.466  36.077  1.00  0.00     0.173 A 
ATOM     69  F   UNL A   1      40.481  33.973  34.266  1.00  0.00    -0.203 F 
ATOM     70  C   UNL A   1      39.152  34.176  36.202  1.00  0.00     0.198 A 
ATOM     71  C   UNL A   1      38.028  32.249  37.090  1.00  0.00     0.198 A 
ATOM     72  F   UNL A   1      38.276  30.158  36.038  1.00  0.00    -0.203 F 
ATOM     73  F   UNL A   1      39.455  35.479  36.275  1.00  0.00    -0.200 F 
ATOM     74  C   UNL A   1      38.321  33.603  37.154  1.00  0.00     0.200 A 
ATOM     75  F   UNL A   1      37.213  31.695  37.998  1.00  0.00    -0.200 F 
ATOM     76  F   UNL A   1      37.803  34.355  38.135  1.00  0.00    -0.200 F 
ENDBRANCH  42  66
BRANCH  54  77
ATOM     77  C   UNL A   1      44.606  27.448  34.538  1.00  0.00     0.064 A 
ATOM     78  C   UNL A   1      44.361  26.310  35.321  1.00  0.00     0.173 A 
ATOM     79  C   UNL A   1      45.842  28.094  34.680  1.00  0.00     0.173 A 
ATOM     80  F   UNL A   1      43.183  25.672  35.234  1.00  0.00    -0.203 F 
ATOM     81  C   UNL A   1      45.312  25.848  36.225  1.00  0.00     0.198 A 
ATOM     82  C   UNL A   1      46.800  27.616  35.570  1.00  0.00     0.198 A 
ATOM     83  F   UNL A   1      46.122  29.185  33.953  1.00  0.00    -0.203 F 
ATOM     84  F   UNL A   1      45.044  24.783  36.992  1.00  0.00    -0.200 F 
ATOM     85  C   UNL A   1      46.533  26.497  36.344  1.00  0.00     0.200 A 
ATOM     86  F   UNL A   1      47.981  28.240  35.679  1.00  0.00    -0.200 F 
ATOM     87  F   UNL A   1      47.449  26.048  37.214  1.00  0.00    -0.200 F 
ENDBRANCH  54  77
ENDBRANCH  28  29
ENDBRANCH  21  23
ENDBRANCH  20  21
ENDBRANCH  19  20
ENDBRANCH   1  19
TORSDOF 14
ENDMDL
