MODEL 1
REMARK VINA RESULT:     -10.8      0.000      0.000
REMARK SMILES CC[C@H](C(=O)OCCOC(=O)c1ccc(-c2c3nc(c(-c4c(F)c(F)c(F)c(F)c4F)c4ccc([nH]4)c(-c4c(F)c(F)c(F)c(F)c4F)c4nc(c(-c5c(F)c(F)c(F)c(F)c5F)c5ccc2[nH]5)C=C4)C=C3)cc1)[N@H+](C)[C@H]1CC[C@H]([NH3+])CC1
REMARK SMILES IDX 7 1 6 2 4 3 5 4 3 5 2 6 1 7 75 8 76 9 77 11 78 12 83 13
REMARK SMILES IDX 79 14 82 15 80 16 81 17 8 21 9 22 10 23 11 24 12 25 13 26
REMARK SMILES IDX 74 27 14 28 73 29 15 30 16 31 17 32 67 33 18 34 72 35 66 36
REMARK SMILES IDX 68 37 19 38 71 39 65 40 64 41 20 43 52 44 32 45 51 46 33 47
REMARK SMILES IDX 36 48 50 49 69 50 34 51 35 52 49 54 70 55 37 56 21 57 22 58
REMARK SMILES IDX 30 59 23 60 24 61 28 62 31 63 25 64 26 65 29 66 27 67 53 68
REMARK SMILES IDX 54 69 62 70 55 71 56 72 60 73 63 74 57 75 58 76 61 77 59 78
REMARK SMILES IDX 38 79 39 80 47 81 40 82 41 83 45 84 48 85 42 86 43 87 46 88
REMARK SMILES IDX 44 89
REMARK H PARENT 75 10 81 18 81 19 81 20 68 42 36 53
REMARK Flexibility Score: inf
ROOT
ATOM      1  C   UNL A   1      31.689  29.040  24.312  1.00  0.00     0.274 C 
ENDROOT
BRANCH   1   2
ATOM      2  O   UNL A   1      31.643  27.596  24.271  1.00  0.00    -0.458 OA
BRANCH   2   3
ATOM      3  C   UNL A   1      32.785  26.968  23.851  1.00  0.00     0.365 C 
ATOM      4  O   UNL A   1      33.650  27.501  23.165  1.00  0.00    -0.245 OA
BRANCH   3   5
ATOM      5  C   UNL A   1      32.781  25.477  24.287  1.00  0.00     0.294 C 
BRANCH   5   6
ATOM      6  C   UNL A   1      31.306  25.047  24.480  1.00  0.00     0.074 C 
ATOM      7  C   UNL A   1      31.012  23.837  25.360  1.00  0.00     0.011 C 
ENDBRANCH   5   6
BRANCH   5   8
ATOM      8  N   UNL A   1      33.704  24.671  23.433  1.00  0.00    -0.323 N 
ATOM      9  C   UNL A   1      33.097  24.105  22.232  1.00  0.00     0.333 C 
ATOM     10  H   UNL A   1      34.344  25.378  23.072  1.00  0.00     0.348 HD
BRANCH   8  11
ATOM     11  C   UNL A   1      34.600  23.738  24.167  1.00  0.00     0.184 C 
ATOM     12  C   UNL A   1      35.280  24.453  25.369  1.00  0.00     0.071 C 
ATOM     13  C   UNL A   1      35.595  22.983  23.262  1.00  0.00     0.071 C 
ATOM     14  C   UNL A   1      36.382  23.635  26.042  1.00  0.00     0.071 C 
ATOM     15  C   UNL A   1      36.710  22.250  24.007  1.00  0.00     0.071 C 
ATOM     16  C   UNL A   1      37.403  23.178  25.000  1.00  0.00     0.181 C 
BRANCH  16  17
ATOM     17  N   UNL A   1      38.530  22.492  25.622  1.00  0.00    -0.355 N 
ATOM     18  H   UNL A   1      39.311  22.458  24.967  1.00  0.00     0.344 HD
ATOM     19  H   UNL A   1      38.254  21.542  25.871  1.00  0.00     0.344 HD
ATOM     20  H   UNL A   1      38.813  22.996  26.463  1.00  0.00     0.344 HD
ENDBRANCH  16  17
ENDBRANCH   8  11
ENDBRANCH   5   8
ENDBRANCH   3   5
ENDBRANCH   2   3
ENDBRANCH   1   2
BRANCH   1  21
ATOM     21  C   UNL A   1      31.775  29.558  25.747  1.00  0.00     0.275 C 
BRANCH  21  22
ATOM     22  O   UNL A   1      33.093  30.079  25.968  1.00  0.00    -0.458 OA
BRANCH  22  23
ATOM     23  C   UNL A   1      33.200  31.109  26.838  1.00  0.00     0.338 C 
ATOM     24  O   UNL A   1      32.440  32.045  26.996  1.00  0.00    -0.246 OA
BRANCH  23  25
ATOM     25  C   UNL A   1      34.424  30.885  27.622  1.00  0.00     0.060 A 
ATOM     26  C   UNL A   1      34.732  29.583  28.012  1.00  0.00     0.016 A 
ATOM     27  C   UNL A   1      35.249  31.947  27.988  1.00  0.00     0.016 A 
ATOM     28  C   UNL A   1      35.883  29.328  28.747  1.00  0.00     0.010 A 
ATOM     29  C   UNL A   1      36.420  31.686  28.711  1.00  0.00     0.010 A 
ATOM     30  C   UNL A   1      36.746  30.372  29.088  1.00  0.00    -0.014 A 
BRANCH  30  31
ATOM     31  C   UNL A   1      37.939  30.071  29.913  1.00  0.00     0.031 A 
ATOM     32  C   UNL A   1      39.039  29.237  29.330  1.00  0.00     0.074 A 
ATOM     33  C   UNL A   1      38.092  30.622  31.130  1.00  0.00     0.049 A 
ATOM     34  N   UNL A   1      40.094  28.733  29.913  1.00  0.00    -0.248 NA
ATOM     35  C   UNL A   1      38.946  28.953  27.890  1.00  0.00     0.031 C 
ATOM     36  C   UNL A   1      37.175  31.581  31.746  1.00  0.00     0.029 A 
ATOM     37  N   UNL A   1      39.091  30.469  32.061  1.00  0.00    -0.354 N 
ATOM     38  C   UNL A   1      40.774  28.041  28.921  1.00  0.00     0.074 A 
ATOM     39  C   UNL A   1      40.020  28.201  27.696  1.00  0.00     0.031 C 
ATOM     40  C   UNL A   1      37.662  31.942  32.945  1.00  0.00     0.029 A 
ATOM     41  C   UNL A   1      38.876  31.177  33.217  1.00  0.00     0.049 A 
ATOM     42  H   UNL A   1      39.884  29.905  31.913  1.00  0.00     0.167 HD
ATOM     43  C   UNL A   1      41.918  27.327  29.033  1.00  0.00     0.037 A 
ATOM     44  C   UNL A   1      39.553  31.163  34.383  1.00  0.00     0.037 A 
ATOM     45  C   UNL A   1      42.669  27.186  30.252  1.00  0.00     0.049 A 
ATOM     46  C   UNL A   1      40.728  30.235  34.532  1.00  0.00     0.074 A 
ATOM     47  C   UNL A   1      43.818  26.453  30.483  1.00  0.00     0.029 A 
ATOM     48  N   UNL A   1      42.340  27.804  31.450  1.00  0.00    -0.354 N 
ATOM     49  N   UNL A   1      41.311  29.487  33.628  1.00  0.00    -0.248 NA
ATOM     50  C   UNL A   1      41.310  30.114  35.877  1.00  0.00     0.031 C 
ATOM     51  C   UNL A   1      44.161  26.591  31.832  1.00  0.00     0.029 A 
ATOM     52  C   UNL A   1      43.245  27.442  32.433  1.00  0.00     0.049 A 
ATOM     53  H   UNL A   1      41.575  28.410  31.581  1.00  0.00     0.167 HD
ATOM     54  C   UNL A   1      42.321  28.803  34.290  1.00  0.00     0.074 A 
ATOM     55  C   UNL A   1      42.291  29.246  35.669  1.00  0.00     0.031 C 
ATOM     56  C   UNL A   1      43.188  27.881  33.804  1.00  0.00     0.037 A 
BRANCH  43  57
ATOM     57  C   UNL A   1      42.378  26.583  27.818  1.00  0.00     0.064 A 
ATOM     58  C   UNL A   1      41.903  25.302  27.506  1.00  0.00     0.173 A 
ATOM     59  C   UNL A   1      43.312  27.170  26.951  1.00  0.00     0.173 A 
ATOM     60  F   UNL A   1      41.027  24.691  28.318  1.00  0.00    -0.203 F 
ATOM     61  C   UNL A   1      42.365  24.625  26.380  1.00  0.00     0.198 A 
ATOM     62  C   UNL A   1      43.754  26.501  25.815  1.00  0.00     0.198 A 
ATOM     63  F   UNL A   1      43.798  28.394  27.210  1.00  0.00    -0.203 F 
ATOM     64  F   UNL A   1      41.933  23.382  26.123  1.00  0.00    -0.200 F 
ATOM     65  C   UNL A   1      43.286  25.227  25.533  1.00  0.00     0.200 A 
ATOM     66  F   UNL A   1      44.640  27.085  24.996  1.00  0.00    -0.200 F 
ATOM     67  F   UNL A   1      43.730  24.572  24.451  1.00  0.00    -0.200 F 
ENDBRANCH  43  57
BRANCH  44  68
ATOM     68  C   UNL A   1      39.082  31.986  35.529  1.00  0.00     0.064 A 
ATOM     69  C   UNL A   1      39.468  33.326  35.666  1.00  0.00     0.173 A 
ATOM     70  C   UNL A   1      38.251  31.442  36.521  1.00  0.00     0.173 A 
ATOM     71  F   UNL A   1      40.292  33.881  34.765  1.00  0.00    -0.203 F 
ATOM     72  C   UNL A   1      39.039  34.090  36.751  1.00  0.00     0.198 A 
ATOM     73  C   UNL A   1      37.800  32.214  37.589  1.00  0.00     0.198 A 
ATOM     74  F   UNL A   1      37.868  30.158  36.448  1.00  0.00    -0.203 F 
ATOM     75  F   UNL A   1      39.454  35.358  36.880  1.00  0.00    -0.200 F 
ATOM     76  C   UNL A   1      38.199  33.536  37.706  1.00  0.00     0.200 A 
ATOM     77  F   UNL A   1      36.984  31.676  38.504  1.00  0.00    -0.200 F 
ATOM     78  F   UNL A   1      37.783  34.274  38.745  1.00  0.00    -0.200 F 
ENDBRANCH  44  68
BRANCH  56  79
ATOM     79  C   UNL A   1      44.165  27.281  34.768  1.00  0.00     0.064 A 
ATOM     80  C   UNL A   1      43.897  26.060  35.406  1.00  0.00     0.173 A 
ATOM     81  C   UNL A   1      45.399  27.898  35.014  1.00  0.00     0.173 A 
ATOM     82  F   UNL A   1      42.722  25.442  35.214  1.00  0.00    -0.203 F 
ATOM     83  C   UNL A   1      44.828  25.485  36.266  1.00  0.00     0.198 A 
ATOM     84  C   UNL A   1      46.338  27.308  35.858  1.00  0.00     0.198 A 
ATOM     85  F   UNL A   1      45.702  29.064  34.424  1.00  0.00    -0.203 F 
ATOM     86  F   UNL A   1      44.541  24.335  36.890  1.00  0.00    -0.200 F 
ATOM     87  C   UNL A   1      46.050  26.105  36.485  1.00  0.00     0.200 A 
ATOM     88  F   UNL A   1      47.522  27.903  36.060  1.00  0.00    -0.200 F 
ATOM     89  F   UNL A   1      46.950  25.544  37.306  1.00  0.00    -0.200 F 
ENDBRANCH  56  79
ENDBRANCH  30  31
ENDBRANCH  23  25
ENDBRANCH  22  23
ENDBRANCH  21  22
ENDBRANCH   1  21
TORSDOF 15
ENDMDL
MODEL 2
REMARK VINA RESULT:     -10.8      0.246      1.190
REMARK SMILES CC[C@H](C(=O)OCCOC(=O)c1ccc(-c2c3nc(c(-c4c(F)c(F)c(F)c(F)c4F)c4ccc([nH]4)c(-c4c(F)c(F)c(F)c(F)c4F)c4nc(c(-c5c(F)c(F)c(F)c(F)c5F)c5ccc2[nH]5)C=C4)C=C3)cc1)[N@H+](C)[C@H]1CC[C@H]([NH3+])CC1
REMARK SMILES IDX 7 1 6 2 4 3 5 4 3 5 2 6 1 7 75 8 76 9 77 11 78 12 83 13
REMARK SMILES IDX 79 14 82 15 80 16 81 17 8 21 9 22 10 23 11 24 12 25 13 26
REMARK SMILES IDX 74 27 14 28 73 29 15 30 16 31 17 32 67 33 18 34 72 35 66 36
REMARK SMILES IDX 68 37 19 38 71 39 65 40 64 41 20 43 52 44 32 45 51 46 33 47
REMARK SMILES IDX 36 48 50 49 69 50 34 51 35 52 49 54 70 55 37 56 21 57 22 58
REMARK SMILES IDX 30 59 23 60 24 61 28 62 31 63 25 64 26 65 29 66 27 67 53 68
REMARK SMILES IDX 54 69 62 70 55 71 56 72 60 73 63 74 57 75 58 76 61 77 59 78
REMARK SMILES IDX 38 79 39 80 47 81 40 82 41 83 45 84 48 85 42 86 43 87 46 88
REMARK SMILES IDX 44 89
REMARK H PARENT 75 10 81 18 81 19 81 20 68 42 36 53
REMARK Flexibility Score: inf
ROOT
ATOM      1  C   UNL A   1      31.750  29.115  24.278  1.00  0.00     0.274 C 
ENDROOT
BRANCH   1   2
ATOM      2  O   UNL A   1      31.652  27.677  24.189  1.00  0.00    -0.458 OA
BRANCH   2   3
ATOM      3  C   UNL A   1      32.749  27.027  23.691  1.00  0.00     0.365 C 
ATOM      4  O   UNL A   1      33.543  27.525  22.902  1.00  0.00    -0.245 OA
BRANCH   3   5
ATOM      5  C   UNL A   1      32.790  25.557  24.194  1.00  0.00     0.294 C 
BRANCH   5   6
ATOM      6  C   UNL A   1      31.332  25.117  24.479  1.00  0.00     0.074 C 
ATOM      7  C   UNL A   1      31.100  23.944  25.424  1.00  0.00     0.011 C 
ENDBRANCH   5   6
BRANCH   5   8
ATOM      8  N   UNL A   1      33.682  24.725  23.333  1.00  0.00    -0.323 N 
ATOM      9  C   UNL A   1      33.038  24.138  22.161  1.00  0.00     0.333 C 
ATOM     10  H   UNL A   1      34.317  25.419  22.939  1.00  0.00     0.348 HD
BRANCH   8  11
ATOM     11  C   UNL A   1      34.591  23.801  24.063  1.00  0.00     0.184 C 
ATOM     12  C   UNL A   1      35.166  24.480  25.337  1.00  0.00     0.071 C 
ATOM     13  C   UNL A   1      35.672  23.154  23.173  1.00  0.00     0.071 C 
ATOM     14  C   UNL A   1      36.276  23.685  26.024  1.00  0.00     0.071 C 
ATOM     15  C   UNL A   1      36.787  22.440  23.937  1.00  0.00     0.071 C 
ATOM     16  C   UNL A   1      37.374  23.345  25.016  1.00  0.00     0.181 C 
BRANCH  16  17
ATOM     17  N   UNL A   1      38.504  22.685  25.660  1.00  0.00    -0.355 N 
ATOM     18  H   UNL A   1      39.000  22.113  24.976  1.00  0.00     0.344 HD
ATOM     19  H   UNL A   1      38.165  22.091  26.417  1.00  0.00     0.344 HD
ATOM     20  H   UNL A   1      39.139  23.389  26.039  1.00  0.00     0.344 HD
ENDBRANCH  16  17
ENDBRANCH   8  11
ENDBRANCH   5   8
ENDBRANCH   3   5
ENDBRANCH   2   3
ENDBRANCH   1   2
BRANCH   1  21
ATOM     21  C   UNL A   1      31.854  29.581  25.730  1.00  0.00     0.275 C 
BRANCH  21  22
ATOM     22  O   UNL A   1      33.183  30.069  25.962  1.00  0.00    -0.458 OA
BRANCH  22  23
ATOM     23  C   UNL A   1      33.308  31.102  26.825  1.00  0.00     0.338 C 
ATOM     24  O   UNL A   1      32.553  32.040  26.993  1.00  0.00    -0.246 OA
BRANCH  23  25
ATOM     25  C   UNL A   1      34.546  30.880  27.587  1.00  0.00     0.060 A 
ATOM     26  C   UNL A   1      34.829  29.590  28.030  1.00  0.00     0.016 A 
ATOM     27  C   UNL A   1      35.409  31.934  27.883  1.00  0.00     0.016 A 
ATOM     28  C   UNL A   1      35.992  29.336  28.745  1.00  0.00     0.010 A 
ATOM     29  C   UNL A   1      36.592  31.674  28.587  1.00  0.00     0.010 A 
ATOM     30  C   UNL A   1      36.892  30.369  29.016  1.00  0.00    -0.014 A 
BRANCH  30  31
ATOM     31  C   UNL A   1      38.098  30.073  29.823  1.00  0.00     0.031 A 
ATOM     32  C   UNL A   1      39.177  29.215  29.237  1.00  0.00     0.074 A 
ATOM     33  C   UNL A   1      38.281  30.648  31.025  1.00  0.00     0.049 A 
ATOM     34  N   UNL A   1      40.238  28.711  29.808  1.00  0.00    -0.248 NA
ATOM     35  C   UNL A   1      39.052  28.901  27.805  1.00  0.00     0.031 C 
ATOM     36  C   UNL A   1      37.387  31.629  31.638  1.00  0.00     0.029 A 
ATOM     37  N   UNL A   1      39.296  30.503  31.938  1.00  0.00    -0.354 N 
ATOM     38  C   UNL A   1      40.891  27.992  28.818  1.00  0.00     0.074 A 
ATOM     39  C   UNL A   1      40.114  28.134  27.605  1.00  0.00     0.031 C 
ATOM     40  C   UNL A   1      37.901  32.011  32.820  1.00  0.00     0.029 A 
ATOM     41  C   UNL A   1      39.112  31.238  33.084  1.00  0.00     0.049 A 
ATOM     42  H   UNL A   1      40.081  29.928  31.787  1.00  0.00     0.167 HD
ATOM     43  C   UNL A   1      42.029  27.268  28.923  1.00  0.00     0.037 A 
ATOM     44  C   UNL A   1      39.812  31.241  34.236  1.00  0.00     0.037 A 
ATOM     45  C   UNL A   1      42.803  27.145  30.129  1.00  0.00     0.049 A 
ATOM     46  C   UNL A   1      40.980  30.303  34.382  1.00  0.00     0.074 A 
ATOM     47  C   UNL A   1      43.948  26.404  30.353  1.00  0.00     0.029 A 
ATOM     48  N   UNL A   1      42.504  27.790  31.321  1.00  0.00    -0.354 N 
ATOM     49  N   UNL A   1      41.538  29.530  33.482  1.00  0.00    -0.248 NA
ATOM     50  C   UNL A   1      41.588  30.205  35.716  1.00  0.00     0.031 C 
ATOM     51  C   UNL A   1      44.320  26.567  31.692  1.00  0.00     0.029 A 
ATOM     52  C   UNL A   1      43.426  27.440  32.293  1.00  0.00     0.049 A 
ATOM     53  H   UNL A   1      41.749  28.408  31.454  1.00  0.00     0.167 HD
ATOM     54  C   UNL A   1      42.553  28.849  34.139  1.00  0.00     0.074 A 
ATOM     55  C   UNL A   1      42.555  29.321  35.508  1.00  0.00     0.031 C 
ATOM     56  C   UNL A   1      43.400  27.908  33.655  1.00  0.00     0.037 A 
BRANCH  43  57
ATOM     57  C   UNL A   1      42.457  26.494  27.715  1.00  0.00     0.064 A 
ATOM     58  C   UNL A   1      41.931  25.230  27.417  1.00  0.00     0.173 A 
ATOM     59  C   UNL A   1      43.413  27.034  26.841  1.00  0.00     0.173 A 
ATOM     60  F   UNL A   1      41.031  24.663  28.236  1.00  0.00    -0.203 F 
ATOM     61  C   UNL A   1      42.363  24.523  26.297  1.00  0.00     0.198 A 
ATOM     62  C   UNL A   1      43.825  26.336  25.711  1.00  0.00     0.198 A 
ATOM     63  F   UNL A   1      43.948  28.239  27.087  1.00  0.00    -0.203 F 
ATOM     64  F   UNL A   1      41.881  23.296  26.054  1.00  0.00    -0.200 F 
ATOM     65  C   UNL A   1      43.306  25.079  25.443  1.00  0.00     0.200 A 
ATOM     66  F   UNL A   1      44.733  26.875  24.885  1.00  0.00    -0.200 F 
ATOM     67  F   UNL A   1      43.722  24.396  24.368  1.00  0.00    -0.200 F 
ENDBRANCH  43  57
BRANCH  44  68
ATOM     68  C   UNL A   1      39.373  32.093  35.374  1.00  0.00     0.064 A 
ATOM     69  C   UNL A   1      38.491  31.604  36.346  1.00  0.00     0.173 A 
ATOM     70  C   UNL A   1      39.815  33.419  35.502  1.00  0.00     0.173 A 
ATOM     71  F   UNL A   1      38.010  30.356  36.248  1.00  0.00    -0.203 F 
ATOM     72  C   UNL A   1      38.067  32.410  37.403  1.00  0.00     0.198 A 
ATOM     73  C   UNL A   1      39.414  34.213  36.573  1.00  0.00     0.198 A 
ATOM     74  F   UNL A   1      40.645  33.942  34.587  1.00  0.00    -0.203 F 
ATOM     75  F   UNL A   1      37.192  31.932  38.298  1.00  0.00    -0.200 F 
ATOM     76  C   UNL A   1      38.536  33.710  37.520  1.00  0.00     0.200 A 
ATOM     77  F   UNL A   1      39.876  35.466  36.684  1.00  0.00    -0.200 F 
ATOM     78  F   UNL A   1      38.133  34.481  38.539  1.00  0.00    -0.200 F 
ENDBRANCH  44  68
BRANCH  56  79
ATOM     79  C   UNL A   1      44.390  27.318  34.612  1.00  0.00     0.064 A 
ATOM     80  C   UNL A   1      44.119  26.118  35.286  1.00  0.00     0.173 A 
ATOM     81  C   UNL A   1      45.639  27.923  34.815  1.00  0.00     0.173 A 
ATOM     82  F   UNL A   1      42.931  25.513  35.136  1.00  0.00    -0.203 F 
ATOM     83  C   UNL A   1      45.061  25.550  36.140  1.00  0.00     0.198 A 
ATOM     84  C   UNL A   1      46.587  27.340  35.652  1.00  0.00     0.198 A 
ATOM     85  F   UNL A   1      45.945  29.068  34.189  1.00  0.00    -0.203 F 
ATOM     86  F   UNL A   1      44.772  24.420  36.799  1.00  0.00    -0.200 F 
ATOM     87  C   UNL A   1      46.297  26.157  36.316  1.00  0.00     0.200 A 
ATOM     88  F   UNL A   1      47.784  27.922  35.813  1.00  0.00    -0.200 F 
ATOM     89  F   UNL A   1      47.206  25.604  37.130  1.00  0.00    -0.200 F 
ENDBRANCH  56  79
ENDBRANCH  30  31
ENDBRANCH  23  25
ENDBRANCH  22  23
ENDBRANCH  21  22
ENDBRANCH   1  21
TORSDOF 15
ENDMDL
MODEL 3
REMARK VINA RESULT:     -10.7      1.711      3.600
REMARK SMILES CC[C@H](C(=O)OCCOC(=O)c1ccc(-c2c3nc(c(-c4c(F)c(F)c(F)c(F)c4F)c4ccc([nH]4)c(-c4c(F)c(F)c(F)c(F)c4F)c4nc(c(-c5c(F)c(F)c(F)c(F)c5F)c5ccc2[nH]5)C=C4)C=C3)cc1)[N@H+](C)[C@H]1CC[C@H]([NH3+])CC1
REMARK SMILES IDX 7 1 6 2 4 3 5 4 3 5 2 6 1 7 75 8 76 9 77 11 78 12 83 13
REMARK SMILES IDX 79 14 82 15 80 16 81 17 8 21 9 22 10 23 11 24 12 25 13 26
REMARK SMILES IDX 74 27 14 28 73 29 15 30 16 31 17 32 67 33 18 34 72 35 66 36
REMARK SMILES IDX 68 37 19 38 71 39 65 40 64 41 20 43 52 44 32 45 51 46 33 47
REMARK SMILES IDX 36 48 50 49 69 50 34 51 35 52 49 54 70 55 37 56 21 57 22 58
REMARK SMILES IDX 30 59 23 60 24 61 28 62 31 63 25 64 26 65 29 66 27 67 53 68
REMARK SMILES IDX 54 69 62 70 55 71 56 72 60 73 63 74 57 75 58 76 61 77 59 78
REMARK SMILES IDX 38 79 39 80 47 81 40 82 41 83 45 84 48 85 42 86 43 87 46 88
REMARK SMILES IDX 44 89
REMARK H PARENT 75 10 81 18 81 19 81 20 68 42 36 53
REMARK Flexibility Score: inf
ROOT
ATOM      1  C   UNL A   1      31.801  28.772  27.217  1.00  0.00     0.274 C 
ENDROOT
BRANCH   1   2
ATOM      2  O   UNL A   1      32.398  27.641  26.544  1.00  0.00    -0.458 OA
BRANCH   2   3
ATOM      3  C   UNL A   1      31.550  26.619  26.214  1.00  0.00     0.365 C 
ATOM      4  O   UNL A   1      30.570  26.297  26.876  1.00  0.00    -0.245 OA
BRANCH   3   5
ATOM      5  C   UNL A   1      32.055  25.878  24.944  1.00  0.00     0.294 C 
BRANCH   5   6
ATOM      6  C   UNL A   1      31.716  24.376  25.111  1.00  0.00     0.074 C 
ATOM      7  C   UNL A   1      31.028  23.655  23.958  1.00  0.00     0.011 C 
ENDBRANCH   5   6
BRANCH   5   8
ATOM      8  N   UNL A   1      31.660  26.614  23.707  1.00  0.00    -0.323 N 
ATOM      9  C   UNL A   1      32.773  27.089  22.889  1.00  0.00     0.333 C 
ATOM     10  H   UNL A   1      31.237  25.880  23.139  1.00  0.00     0.348 HD
BRANCH   8  11
ATOM     11  C   UNL A   1      30.557  27.598  23.876  1.00  0.00     0.184 C 
ATOM     12  C   UNL A   1      29.188  26.965  23.502  1.00  0.00     0.071 C 
ATOM     13  C   UNL A   1      30.815  28.952  23.183  1.00  0.00     0.071 C 
ATOM     14  C   UNL A   1      28.033  27.964  23.433  1.00  0.00     0.071 C 
ATOM     15  C   UNL A   1      29.594  29.866  23.089  1.00  0.00     0.071 C 
ATOM     16  C   UNL A   1      28.399  29.120  22.502  1.00  0.00     0.181 C 
BRANCH  16  17
ATOM     17  N   UNL A   1      27.278  30.036  22.322  1.00  0.00    -0.355 N 
ATOM     18  H   UNL A   1      27.623  30.934  21.983  1.00  0.00     0.344 HD
ATOM     19  H   UNL A   1      26.801  30.169  23.214  1.00  0.00     0.344 HD
ATOM     20  H   UNL A   1      26.625  29.645  21.642  1.00  0.00     0.344 HD
ENDBRANCH  16  17
ENDBRANCH   8  11
ENDBRANCH   5   8
ENDBRANCH   3   5
ENDBRANCH   2   3
ENDBRANCH   1   2
BRANCH   1  21
ATOM     21  C   UNL A   1      31.910  30.044  26.378  1.00  0.00     0.275 C 
BRANCH  21  22
ATOM     22  O   UNL A   1      33.273  30.490  26.393  1.00  0.00    -0.458 OA
BRANCH  22  23
ATOM     23  C   UNL A   1      33.549  31.573  27.154  1.00  0.00     0.338 C 
ATOM     24  O   UNL A   1      32.918  32.608  27.251  1.00  0.00    -0.246 OA
BRANCH  23  25
ATOM     25  C   UNL A   1      34.775  31.268  27.909  1.00  0.00     0.060 A 
ATOM     26  C   UNL A   1      34.903  30.005  28.483  1.00  0.00     0.016 A 
ATOM     27  C   UNL A   1      35.778  32.223  28.069  1.00  0.00     0.016 A 
ATOM     28  C   UNL A   1      36.048  29.674  29.196  1.00  0.00     0.010 A 
ATOM     29  C   UNL A   1      36.941  31.881  28.770  1.00  0.00     0.010 A 
ATOM     30  C   UNL A   1      37.084  30.601  29.332  1.00  0.00    -0.014 A 
BRANCH  30  31
ATOM     31  C   UNL A   1      38.270  30.232  30.140  1.00  0.00     0.031 A 
ATOM     32  C   UNL A   1      39.324  29.359  29.533  1.00  0.00     0.074 A 
ATOM     33  C   UNL A   1      38.459  30.756  31.364  1.00  0.00     0.049 A 
ATOM     34  N   UNL A   1      40.361  28.797  30.096  1.00  0.00    -0.248 NA
ATOM     35  C   UNL A   1      39.205  29.103  28.089  1.00  0.00     0.031 C 
ATOM     36  C   UNL A   1      37.593  31.745  32.004  1.00  0.00     0.029 A 
ATOM     37  N   UNL A   1      39.458  30.542  32.282  1.00  0.00    -0.354 N 
ATOM     38  C   UNL A   1      40.999  28.092  29.087  1.00  0.00     0.074 A 
ATOM     39  C   UNL A   1      40.242  28.306  27.872  1.00  0.00     0.031 C 
ATOM     40  C   UNL A   1      38.107  32.065  33.204  1.00  0.00     0.029 A 
ATOM     41  C   UNL A   1      39.287  31.240  33.452  1.00  0.00     0.049 A 
ATOM     42  H   UNL A   1      40.224  29.945  32.117  1.00  0.00     0.167 HD
ATOM     43  C   UNL A   1      42.110  27.324  29.176  1.00  0.00     0.037 A 
ATOM     44  C   UNL A   1      39.973  31.176  34.610  1.00  0.00     0.037 A 
ATOM     45  C   UNL A   1      42.865  27.129  30.384  1.00  0.00     0.049 A 
ATOM     46  C   UNL A   1      41.106  30.192  34.733  1.00  0.00     0.074 A 
ATOM     47  C   UNL A   1      43.981  26.340  30.592  1.00  0.00     0.029 A 
ATOM     48  N   UNL A   1      42.576  27.741  31.596  1.00  0.00    -0.354 N 
ATOM     49  N   UNL A   1      41.646  29.434  33.810  1.00  0.00    -0.248 NA
ATOM     50  C   UNL A   1      41.695  30.023  36.069  1.00  0.00     0.031 C 
ATOM     51  C   UNL A   1      44.343  26.441  31.940  1.00  0.00     0.029 A 
ATOM     52  C   UNL A   1      43.473  27.323  32.563  1.00  0.00     0.049 A 
ATOM     53  H   UNL A   1      41.841  28.380  31.745  1.00  0.00     0.167 HD
ATOM     54  C   UNL A   1      42.630  28.693  34.452  1.00  0.00     0.074 A 
ATOM     55  C   UNL A   1      42.633  29.115  35.838  1.00  0.00     0.031 C 
ATOM     56  C   UNL A   1      43.449  27.741  33.942  1.00  0.00     0.037 A 
BRANCH  43  57
ATOM     57  C   UNL A   1      42.524  26.580  27.945  1.00  0.00     0.064 A 
ATOM     58  C   UNL A   1      43.448  27.107  27.033  1.00  0.00     0.173 A 
ATOM     59  C   UNL A   1      41.982  25.314  27.678  1.00  0.00     0.173 A 
ATOM     60  F   UNL A   1      43.976  28.324  27.234  1.00  0.00    -0.203 F 
ATOM     61  C   UNL A   1      43.799  26.401  25.884  1.00  0.00     0.198 A 
ATOM     62  C   UNL A   1      42.352  24.602  26.542  1.00  0.00     0.198 A 
ATOM     63  F   UNL A   1      41.090  24.769  28.520  1.00  0.00    -0.203 F 
ATOM     64  F   UNL A   1      44.651  26.941  25.002  1.00  0.00    -0.200 F 
ATOM     65  C   UNL A   1      43.255  25.148  25.643  1.00  0.00     0.200 A 
ATOM     66  F   UNL A   1      41.828  23.389  26.312  1.00  0.00    -0.200 F 
ATOM     67  F   UNL A   1      43.592  24.472  24.536  1.00  0.00    -0.200 F 
ENDBRANCH  43  57
BRANCH  44  68
ATOM     68  C   UNL A   1      39.552  32.000  35.774  1.00  0.00     0.064 A 
ATOM     69  C   UNL A   1      38.523  31.578  36.627  1.00  0.00     0.173 A 
ATOM     70  C   UNL A   1      40.160  33.236  36.048  1.00  0.00     0.173 A 
ATOM     71  F   UNL A   1      37.886  30.423  36.386  1.00  0.00    -0.203 F 
ATOM     72  C   UNL A   1      38.118  32.361  37.707  1.00  0.00     0.198 A 
ATOM     73  C   UNL A   1      39.774  34.003  37.144  1.00  0.00     0.198 A 
ATOM     74  F   UNL A   1      41.136  33.696  35.252  1.00  0.00    -0.203 F 
ATOM     75  F   UNL A   1      37.105  31.953  38.485  1.00  0.00    -0.200 F 
ATOM     76  C   UNL A   1      38.750  33.567  37.970  1.00  0.00     0.200 A 
ATOM     77  F   UNL A   1      40.392  35.164  37.397  1.00  0.00    -0.200 F 
ATOM     78  F   UNL A   1      38.364  34.316  39.013  1.00  0.00    -0.200 F 
ENDBRANCH  44  68
BRANCH  56  79
ATOM     79  C   UNL A   1      44.406  27.081  34.886  1.00  0.00     0.064 A 
ATOM     80  C   UNL A   1      45.657  27.652  35.166  1.00  0.00     0.173 A 
ATOM     81  C   UNL A   1      44.052  25.903  35.558  1.00  0.00     0.173 A 
ATOM     82  F   UNL A   1      46.046  28.769  34.533  1.00  0.00    -0.203 F 
ATOM     83  C   UNL A   1      46.524  27.058  36.079  1.00  0.00     0.198 A 
ATOM     84  C   UNL A   1      44.913  25.325  36.488  1.00  0.00     0.198 A 
ATOM     85  F   UNL A   1      42.866  25.323  35.327  1.00  0.00    -0.203 F 
ATOM     86  F   UNL A   1      47.727  27.601  36.309  1.00  0.00    -0.200 F 
ATOM     87  C   UNL A   1      46.149  25.900  36.745  1.00  0.00     0.200 A 
ATOM     88  F   UNL A   1      44.545  24.212  37.138  1.00  0.00    -0.200 F 
ATOM     89  F   UNL A   1      46.981  25.336  37.631  1.00  0.00    -0.200 F 
ENDBRANCH  56  79
ENDBRANCH  30  31
ENDBRANCH  23  25
ENDBRANCH  22  23
ENDBRANCH  21  22
ENDBRANCH   1  21
TORSDOF 15
ENDMDL
