MODEL 1
REMARK VINA RESULT:     -11.8      0.000      0.000
REMARK SMILES O=C(OCCOC(=O)[C@@]1(Cc2ccccc2Cl)CCC[NH2+]1)c1ccc(-c2c3nc(c(-c4c(F)c(F)c(F)c(F)c4F)c4ccc([nH]4)c(-c4c(F)c(F)c(F)c(F)c4F)c4nc(c(-c5c(F)c(F)c(F)c(F)c5F)c5ccc2[nH]5)C=C4)C=C3)cc1
REMARK SMILES IDX 4 1 3 2 2 3 1 4 22 5 23 6 84 7 24 8 83 9 25 10 26 11 27 12
REMARK SMILES IDX 77 13 28 14 82 15 76 16 78 17 29 18 81 19 75 20 74 21 30 23
REMARK SMILES IDX 62 24 42 25 61 26 43 27 46 28 60 29 79 30 44 31 45 32 59 34
REMARK SMILES IDX 80 35 47 36 31 37 32 38 40 39 33 40 34 41 38 42 41 43 35 44
REMARK SMILES IDX 36 45 39 46 37 47 63 48 64 49 72 50 65 51 66 52 70 53 73 54
REMARK SMILES IDX 67 55 68 56 71 57 69 58 48 59 49 60 57 61 50 62 51 63 55 64
REMARK SMILES IDX 58 65 52 66 53 67 56 68 54 69 5 70 6 71 7 72 8 73 9 74 18 75
REMARK SMILES IDX 21 76 19 77 20 78 10 81 11 82 12 83 16 84 13 85 15 86 17 87
REMARK SMILES IDX 14 88
REMARK H PARENT 78 22 46 33 21 79 21 80
REMARK Flexibility Score: inf
ROOT
ATOM      1  C   UNL A   1      31.430  32.360  26.873  1.00  0.00     0.275 C 
ENDROOT
BRANCH   1   2
ATOM      2  O   UNL A   1      32.446  33.371  26.872  1.00  0.00    -0.458 OA
BRANCH   2   3
ATOM      3  C   UNL A   1      32.969  33.929  27.992  1.00  0.00     0.338 C 
ATOM      4  O   UNL A   1      32.530  34.993  28.423  1.00  0.00    -0.246 OA
BRANCH   3   5
ATOM      5  C   UNL A   1      34.229  33.393  28.581  1.00  0.00     0.060 A 
ATOM      6  C   UNL A   1      35.524  33.844  28.301  1.00  0.00     0.016 A 
ATOM      7  C   UNL A   1      34.080  32.299  29.439  1.00  0.00     0.016 A 
ATOM      8  C   UNL A   1      36.640  33.279  28.938  1.00  0.00     0.010 A 
ATOM      9  C   UNL A   1      35.188  31.737  30.071  1.00  0.00     0.010 A 
ATOM     10  C   UNL A   1      36.483  32.225  29.841  1.00  0.00    -0.014 A 
BRANCH  10  11
ATOM     11  C   UNL A   1      37.650  31.528  30.446  1.00  0.00     0.031 A 
ATOM     12  C   UNL A   1      38.106  31.952  31.816  1.00  0.00     0.074 A 
ATOM     13  C   UNL A   1      38.340  30.578  29.782  1.00  0.00     0.049 A 
ATOM     14  N   UNL A   1      39.109  31.513  32.534  1.00  0.00    -0.248 NA
ATOM     15  C   UNL A   1      37.340  33.034  32.456  1.00  0.00     0.031 C 
ATOM     16  C   UNL A   1      38.037  30.075  28.445  1.00  0.00     0.029 A 
ATOM     17  N   UNL A   1      39.474  29.886  30.141  1.00  0.00    -0.354 N 
ATOM     18  C   UNL A   1      39.072  32.251  33.709  1.00  0.00     0.074 A 
ATOM     19  C   UNL A   1      38.045  33.254  33.552  1.00  0.00     0.031 C 
ATOM     20  C   UNL A   1      38.989  29.201  28.070  1.00  0.00     0.029 A 
ATOM     21  C   UNL A   1      39.952  29.054  29.156  1.00  0.00     0.049 A 
ATOM     22  H   UNL A   1      39.903  29.978  31.022  1.00  0.00     0.167 HD
ATOM     23  C   UNL A   1      39.769  32.063  34.853  1.00  0.00     0.037 A 
ATOM     24  C   UNL A   1      41.032  28.249  29.144  1.00  0.00     0.037 A 
ATOM     25  C   UNL A   1      40.769  31.049  35.026  1.00  0.00     0.049 A 
ATOM     26  C   UNL A   1      41.851  28.098  30.395  1.00  0.00     0.074 A 
ATOM     27  C   UNL A   1      41.475  30.711  36.165  1.00  0.00     0.029 A 
ATOM     28  N   UNL A   1      41.207  30.208  34.014  1.00  0.00    -0.354 N 
ATOM     29  N   UNL A   1      41.718  28.706  31.549  1.00  0.00    -0.248 NA
ATOM     30  C   UNL A   1      42.935  27.106  30.360  1.00  0.00     0.031 C 
ATOM     31  C   UNL A   1      42.361  29.678  35.834  1.00  0.00     0.029 A 
ATOM     32  C   UNL A   1      42.182  29.355  34.498  1.00  0.00     0.049 A 
ATOM     33  H   UNL A   1      40.873  30.217  33.088  1.00  0.00     0.167 HD
ATOM     34  C   UNL A   1      42.642  28.114  32.398  1.00  0.00     0.074 A 
ATOM     35  C   UNL A   1      43.356  27.126  31.617  1.00  0.00     0.031 C 
ATOM     36  C   UNL A   1      42.854  28.349  33.717  1.00  0.00     0.037 A 
BRANCH  23  37
ATOM     37  C   UNL A   1      39.406  32.954  36.003  1.00  0.00     0.064 A 
ATOM     38  C   UNL A   1      40.079  34.171  36.213  1.00  0.00     0.173 A 
ATOM     39  C   UNL A   1      38.447  32.562  36.946  1.00  0.00     0.173 A 
ATOM     40  F   UNL A   1      41.020  34.579  35.347  1.00  0.00    -0.203 F 
ATOM     41  C   UNL A   1      39.854  34.927  37.358  1.00  0.00     0.198 A 
ATOM     42  C   UNL A   1      38.199  33.341  38.075  1.00  0.00     0.198 A 
ATOM     43  F   UNL A   1      37.774  31.414  36.790  1.00  0.00    -0.203 F 
ATOM     44  F   UNL A   1      40.575  36.034  37.580  1.00  0.00    -0.200 F 
ATOM     45  C   UNL A   1      38.914  34.510  38.289  1.00  0.00     0.200 A 
ATOM     46  F   UNL A   1      37.287  32.943  38.972  1.00  0.00    -0.200 F 
ATOM     47  F   UNL A   1      38.714  35.226  39.404  1.00  0.00    -0.200 F 
ENDBRANCH  23  37
BRANCH  24  48
ATOM     48  C   UNL A   1      41.357  27.444  27.939  1.00  0.00     0.064 A 
ATOM     49  C   UNL A   1      40.850  26.148  27.778  1.00  0.00     0.173 A 
ATOM     50  C   UNL A   1      42.212  27.939  26.946  1.00  0.00     0.173 A 
ATOM     51  F   UNL A   1      40.059  25.617  28.722  1.00  0.00    -0.203 F 
ATOM     52  C   UNL A   1      41.195  25.373  26.672  1.00  0.00     0.198 A 
ATOM     53  C   UNL A   1      42.537  27.173  25.827  1.00  0.00     0.198 A 
ATOM     54  F   UNL A   1      42.759  29.155  27.077  1.00  0.00    -0.203 F 
ATOM     55  F   UNL A   1      40.732  24.119  26.563  1.00  0.00    -0.200 F 
ATOM     56  C   UNL A   1      42.033  25.888  25.693  1.00  0.00     0.200 A 
ATOM     57  F   UNL A   1      43.349  27.676  24.886  1.00  0.00    -0.200 F 
ATOM     58  F   UNL A   1      42.366  25.142  24.632  1.00  0.00    -0.200 F 
ENDBRANCH  24  48
BRANCH  36  59
ATOM     59  C   UNL A   1      43.826  27.458  34.428  1.00  0.00     0.064 A 
ATOM     60  C   UNL A   1      45.168  27.817  34.610  1.00  0.00     0.173 A 
ATOM     61  C   UNL A   1      43.385  26.246  34.983  1.00  0.00     0.173 A 
ATOM     62  F   UNL A   1      45.640  28.956  34.080  1.00  0.00    -0.203 F 
ATOM     63  C   UNL A   1      46.038  26.988  35.312  1.00  0.00     0.198 A 
ATOM     64  C   UNL A   1      44.250  25.434  35.706  1.00  0.00     0.198 A 
ATOM     65  F   UNL A   1      42.108  25.861  34.835  1.00  0.00    -0.203 F 
ATOM     66  F   UNL A   1      47.327  27.331  35.442  1.00  0.00    -0.200 F 
ATOM     67  C   UNL A   1      45.577  25.802  35.866  1.00  0.00     0.200 A 
ATOM     68  F   UNL A   1      43.800  24.295  36.250  1.00  0.00    -0.200 F 
ATOM     69  F   UNL A   1      46.415  25.012  36.551  1.00  0.00    -0.200 F 
ENDBRANCH  36  59
ENDBRANCH  10  11
ENDBRANCH   3   5
ENDBRANCH   2   3
ENDBRANCH   1   2
BRANCH   1  70
ATOM     70  C   UNL A   1      31.961  30.946  26.628  1.00  0.00     0.274 C 
BRANCH  70  71
ATOM     71  O   UNL A   1      31.427  30.354  25.432  1.00  0.00    -0.457 OA
BRANCH  71  72
ATOM     72  C   UNL A   1      31.472  28.986  25.367  1.00  0.00     0.368 C 
ATOM     73  O   UNL A   1      31.406  28.258  26.351  1.00  0.00    -0.245 OA
BRANCH  72  74
ATOM     74  C   UNL A   1      31.624  28.469  23.893  1.00  0.00     0.198 C 
ATOM     75  C   UNL A   1      30.566  27.392  23.627  1.00  0.00     0.087 C 
ATOM     76  N   UNL A   1      31.258  29.597  22.994  1.00  0.00    -0.332 N 
ATOM     77  C   UNL A   1      29.356  28.197  23.184  1.00  0.00     0.068 C 
ATOM     78  C   UNL A   1      29.977  29.296  22.354  1.00  0.00     0.261 C 
ATOM     79  H   UNL A   1      31.978  29.716  22.282  1.00  0.00     0.347 HD
ATOM     80  H   UNL A   1      31.180  30.459  23.535  1.00  0.00     0.347 HD
BRANCH  74  81
ATOM     81  C   UNL A   1      33.085  27.982  23.704  1.00  0.00     0.118 C 
BRANCH  81  82
ATOM     82  C   UNL A   1      33.471  26.520  23.882  1.00  0.00    -0.022 A 
ATOM     83  C   UNL A   1      33.937  26.121  25.150  1.00  0.00     0.005 A 
ATOM     84  C   UNL A   1      33.498  25.559  22.855  1.00  0.00     0.044 A 
ATOM     85  C   UNL A   1      34.440  24.836  25.372  1.00  0.00     0.000 A 
ATOM     86  C   UNL A   1      34.024  24.281  23.076  1.00  0.00     0.021 A 
ATOM     87  Cl  UNL A   1      32.903  25.842  21.269  1.00  0.00    -0.084 Cl
ATOM     88  C   UNL A   1      34.498  23.920  24.330  1.00  0.00     0.002 A 
ENDBRANCH  81  82
ENDBRANCH  74  81
ENDBRANCH  72  74
ENDBRANCH  71  72
ENDBRANCH  70  71
ENDBRANCH   1  70
TORSDOF 13
ENDMDL
MODEL 2
REMARK VINA RESULT:     -11.6      0.925      1.988
REMARK SMILES O=C(OCCOC(=O)[C@@]1(Cc2ccccc2Cl)CCC[NH2+]1)c1ccc(-c2c3nc(c(-c4c(F)c(F)c(F)c(F)c4F)c4ccc([nH]4)c(-c4c(F)c(F)c(F)c(F)c4F)c4nc(c(-c5c(F)c(F)c(F)c(F)c5F)c5ccc2[nH]5)C=C4)C=C3)cc1
REMARK SMILES IDX 4 1 3 2 2 3 1 4 22 5 23 6 84 7 24 8 83 9 25 10 26 11 27 12
REMARK SMILES IDX 77 13 28 14 82 15 76 16 78 17 29 18 81 19 75 20 74 21 30 23
REMARK SMILES IDX 62 24 42 25 61 26 43 27 46 28 60 29 79 30 44 31 45 32 59 34
REMARK SMILES IDX 80 35 47 36 31 37 32 38 40 39 33 40 34 41 38 42 41 43 35 44
REMARK SMILES IDX 36 45 39 46 37 47 63 48 64 49 72 50 65 51 66 52 70 53 73 54
REMARK SMILES IDX 67 55 68 56 71 57 69 58 48 59 49 60 57 61 50 62 51 63 55 64
REMARK SMILES IDX 58 65 52 66 53 67 56 68 54 69 5 70 6 71 7 72 8 73 9 74 18 75
REMARK SMILES IDX 21 76 19 77 20 78 10 81 11 82 12 83 16 84 13 85 15 86 17 87
REMARK SMILES IDX 14 88
REMARK H PARENT 78 22 46 33 21 79 21 80
REMARK Flexibility Score: inf
ROOT
ATOM      1  C   UNL A   1      32.063  32.670  26.835  1.00  0.00     0.275 C 
ENDROOT
BRANCH   1   2
ATOM      2  O   UNL A   1      32.720  33.333  27.923  1.00  0.00    -0.458 OA
BRANCH   2   3
ATOM      3  C   UNL A   1      34.018  33.726  27.904  1.00  0.00     0.338 C 
ATOM      4  O   UNL A   1      34.372  34.681  27.217  1.00  0.00    -0.246 OA
BRANCH   3   5
ATOM      5  C   UNL A   1      35.072  32.871  28.522  1.00  0.00     0.060 A 
ATOM      6  C   UNL A   1      34.863  31.652  29.177  1.00  0.00     0.016 A 
ATOM      7  C   UNL A   1      36.371  33.390  28.487  1.00  0.00     0.016 A 
ATOM      8  C   UNL A   1      35.939  30.919  29.701  1.00  0.00     0.010 A 
ATOM      9  C   UNL A   1      37.439  32.662  29.008  1.00  0.00     0.010 A 
ATOM     10  C   UNL A   1      37.243  31.411  29.610  1.00  0.00    -0.014 A 
BRANCH  10  11
ATOM     11  C   UNL A   1      38.391  30.716  30.253  1.00  0.00     0.031 A 
ATOM     12  C   UNL A   1      38.769  31.106  31.657  1.00  0.00     0.074 A 
ATOM     13  C   UNL A   1      39.133  29.800  29.598  1.00  0.00     0.049 A 
ATOM     14  N   UNL A   1      39.743  30.663  32.412  1.00  0.00    -0.248 NA
ATOM     15  C   UNL A   1      37.951  32.154  32.289  1.00  0.00     0.031 C 
ATOM     16  C   UNL A   1      38.907  29.333  28.233  1.00  0.00     0.029 A 
ATOM     17  N   UNL A   1      40.260  29.118  29.993  1.00  0.00    -0.354 N 
ATOM     18  C   UNL A   1      39.632  31.364  33.605  1.00  0.00     0.074 A 
ATOM     19  C   UNL A   1      38.595  32.353  33.426  1.00  0.00     0.031 C 
ATOM     20  C   UNL A   1      39.894  28.488  27.880  1.00  0.00     0.029 A 
ATOM     21  C   UNL A   1      40.804  28.325  29.009  1.00  0.00     0.049 A 
ATOM     22  H   UNL A   1      40.642  29.190  30.897  1.00  0.00     0.167 HD
ATOM     23  C   UNL A   1      40.274  31.153  34.776  1.00  0.00     0.037 A 
ATOM     24  C   UNL A   1      41.898  27.541  29.028  1.00  0.00     0.037 A 
ATOM     25  C   UNL A   1      41.283  30.153  34.971  1.00  0.00     0.049 A 
ATOM     26  C   UNL A   1      42.656  27.367  30.315  1.00  0.00     0.074 A 
ATOM     27  C   UNL A   1      41.937  29.792  36.133  1.00  0.00     0.029 A 
ATOM     28  N   UNL A   1      41.788  29.351  33.957  1.00  0.00    -0.354 N 
ATOM     29  N   UNL A   1      42.453  27.935  31.477  1.00  0.00    -0.248 NA
ATOM     30  C   UNL A   1      43.760  26.396  30.305  1.00  0.00     0.031 C 
ATOM     31  C   UNL A   1      42.859  28.786  35.817  1.00  0.00     0.029 A 
ATOM     32  C   UNL A   1      42.755  28.502  34.465  1.00  0.00     0.049 A 
ATOM     33  H   UNL A   1      41.502  29.383  33.016  1.00  0.00     0.167 HD
ATOM     34  C   UNL A   1      43.345  27.334  32.355  1.00  0.00     0.074 A 
ATOM     35  C   UNL A   1      44.116  26.384  31.582  1.00  0.00     0.031 C 
ATOM     36  C   UNL A   1      43.485  27.532  33.689  1.00  0.00     0.037 A 
BRANCH  23  37
ATOM     37  C   UNL A   1      39.836  32.001  35.933  1.00  0.00     0.064 A 
ATOM     38  C   UNL A   1      38.709  31.650  36.698  1.00  0.00     0.173 A 
ATOM     39  C   UNL A   1      40.484  33.206  36.231  1.00  0.00     0.173 A 
ATOM     40  F   UNL A   1      38.043  30.514  36.438  1.00  0.00    -0.203 F 
ATOM     41  C   UNL A   1      38.209  32.508  37.673  1.00  0.00     0.198 A 
ATOM     42  C   UNL A   1      40.000  34.046  37.232  1.00  0.00     0.198 A 
ATOM     43  F   UNL A   1      41.565  33.584  35.535  1.00  0.00    -0.203 F 
ATOM     44  F   UNL A   1      37.081  32.194  38.324  1.00  0.00    -0.200 F 
ATOM     45  C   UNL A   1      38.855  33.706  37.938  1.00  0.00     0.200 A 
ATOM     46  F   UNL A   1      40.626  35.202  37.495  1.00  0.00    -0.200 F 
ATOM     47  F   UNL A   1      38.360  34.543  38.860  1.00  0.00    -0.200 F 
ENDBRANCH  23  37
BRANCH  24  48
ATOM     48  C   UNL A   1      42.300  26.780  27.818  1.00  0.00     0.064 A 
ATOM     49  C   UNL A   1      41.825  25.481  27.591  1.00  0.00     0.173 A 
ATOM     50  C   UNL A   1      43.197  27.319  26.887  1.00  0.00     0.173 A 
ATOM     51  F   UNL A   1      40.995  24.909  28.475  1.00  0.00    -0.203 F 
ATOM     52  C   UNL A   1      42.240  24.747  26.481  1.00  0.00     0.198 A 
ATOM     53  C   UNL A   1      43.593  26.594  25.764  1.00  0.00     0.198 A 
ATOM     54  F   UNL A   1      43.715  28.539  27.084  1.00  0.00    -0.203 F 
ATOM     55  F   UNL A   1      41.805  23.490  26.310  1.00  0.00    -0.200 F 
ATOM     56  C   UNL A   1      43.119  25.306  25.564  1.00  0.00     0.200 A 
ATOM     57  F   UNL A   1      44.444  27.139  24.882  1.00  0.00    -0.200 F 
ATOM     58  F   UNL A   1      43.520  24.599  24.499  1.00  0.00    -0.200 F 
ENDBRANCH  24  48
BRANCH  36  59
ATOM     59  C   UNL A   1      44.437  26.638  34.422  1.00  0.00     0.064 A 
ATOM     60  C   UNL A   1      44.049  25.386  34.918  1.00  0.00     0.173 A 
ATOM     61  C   UNL A   1      45.777  27.026  34.582  1.00  0.00     0.173 A 
ATOM     62  F   UNL A   1      42.775  24.982  34.807  1.00  0.00    -0.203 F 
ATOM     63  C   UNL A   1      44.967  24.559  35.558  1.00  0.00     0.198 A 
ATOM     64  C   UNL A   1      46.697  26.185  35.198  1.00  0.00     0.198 A 
ATOM     65  F   UNL A   1      46.195  28.216  34.123  1.00  0.00    -0.203 F 
ATOM     66  F   UNL A   1      44.568  23.381  36.059  1.00  0.00    -0.200 F 
ATOM     67  C   UNL A   1      46.291  24.954  35.690  1.00  0.00     0.200 A 
ATOM     68  F   UNL A   1      47.977  26.565  35.314  1.00  0.00    -0.200 F 
ATOM     69  F   UNL A   1      47.174  24.150  36.297  1.00  0.00    -0.200 F 
ENDBRANCH  36  59
ENDBRANCH  10  11
ENDBRANCH   3   5
ENDBRANCH   2   3
ENDBRANCH   1   2
BRANCH   1  70
ATOM     70  C   UNL A   1      32.145  31.144  26.897  1.00  0.00     0.274 C 
BRANCH  70  71
ATOM     71  O   UNL A   1      31.864  30.523  25.631  1.00  0.00    -0.457 OA
BRANCH  71  72
ATOM     72  C   UNL A   1      31.718  29.160  25.650  1.00  0.00     0.368 C 
ATOM     73  O   UNL A   1      31.485  28.517  26.668  1.00  0.00    -0.245 OA
BRANCH  72  74
ATOM     74  C   UNL A   1      31.892  28.528  24.224  1.00  0.00     0.198 C 
ATOM     75  C   UNL A   1      30.814  27.458  24.015  1.00  0.00     0.087 C 
ATOM     76  N   UNL A   1      31.577  29.591  23.233  1.00  0.00    -0.332 N 
ATOM     77  C   UNL A   1      29.636  28.254  23.480  1.00  0.00     0.068 C 
ATOM     78  C   UNL A   1      30.304  29.271  22.585  1.00  0.00     0.261 C 
ATOM     79  H   UNL A   1      32.316  29.637  22.532  1.00  0.00     0.347 HD
ATOM     80  H   UNL A   1      31.507  30.494  23.704  1.00  0.00     0.347 HD
BRANCH  74  81
ATOM     81  C   UNL A   1      33.345  27.993  24.111  1.00  0.00     0.118 C 
BRANCH  81  82
ATOM     82  C   UNL A   1      33.659  26.506  24.184  1.00  0.00    -0.022 A 
ATOM     83  C   UNL A   1      34.083  25.993  25.426  1.00  0.00     0.005 A 
ATOM     84  C   UNL A   1      33.661  25.624  23.089  1.00  0.00     0.044 A 
ATOM     85  C   UNL A   1      34.522  24.672  25.559  1.00  0.00     0.000 A 
ATOM     86  C   UNL A   1      34.122  24.309  23.221  1.00  0.00     0.021 A 
ATOM     87  Cl  UNL A   1      33.109  26.051  21.520  1.00  0.00    -0.084 Cl
ATOM     88  C   UNL A   1      34.556  23.834  24.452  1.00  0.00     0.002 A 
ENDBRANCH  81  82
ENDBRANCH  74  81
ENDBRANCH  72  74
ENDBRANCH  71  72
ENDBRANCH  70  71
ENDBRANCH   1  70
TORSDOF 13
ENDMDL
MODEL 3
REMARK VINA RESULT:     -11.5      4.144      6.861
REMARK SMILES O=C(OCCOC(=O)[C@@]1(Cc2ccccc2Cl)CCC[NH2+]1)c1ccc(-c2c3nc(c(-c4c(F)c(F)c(F)c(F)c4F)c4ccc([nH]4)c(-c4c(F)c(F)c(F)c(F)c4F)c4nc(c(-c5c(F)c(F)c(F)c(F)c5F)c5ccc2[nH]5)C=C4)C=C3)cc1
REMARK SMILES IDX 4 1 3 2 2 3 1 4 22 5 23 6 84 7 24 8 83 9 25 10 26 11 27 12
REMARK SMILES IDX 77 13 28 14 82 15 76 16 78 17 29 18 81 19 75 20 74 21 30 23
REMARK SMILES IDX 62 24 42 25 61 26 43 27 46 28 60 29 79 30 44 31 45 32 59 34
REMARK SMILES IDX 80 35 47 36 31 37 32 38 40 39 33 40 34 41 38 42 41 43 35 44
REMARK SMILES IDX 36 45 39 46 37 47 63 48 64 49 72 50 65 51 66 52 70 53 73 54
REMARK SMILES IDX 67 55 68 56 71 57 69 58 48 59 49 60 57 61 50 62 51 63 55 64
REMARK SMILES IDX 58 65 52 66 53 67 56 68 54 69 5 70 6 71 7 72 8 73 9 74 18 75
REMARK SMILES IDX 21 76 19 77 20 78 10 81 11 82 12 83 16 84 13 85 15 86 17 87
REMARK SMILES IDX 14 88
REMARK H PARENT 78 22 46 33 21 79 21 80
REMARK Flexibility Score: inf
ROOT
ATOM      1  C   UNL A   1      33.922  33.029  27.980  1.00  0.00     0.275 C 
ENDROOT
BRANCH   1   2
ATOM      2  O   UNL A   1      33.730  31.667  28.382  1.00  0.00    -0.458 OA
BRANCH   2   3
ATOM      3  C   UNL A   1      34.308  30.602  27.772  1.00  0.00     0.338 C 
ATOM      4  O   UNL A   1      33.671  29.920  26.972  1.00  0.00    -0.246 OA
BRANCH   3   5
ATOM      5  C   UNL A   1      35.634  30.099  28.231  1.00  0.00     0.060 A 
ATOM      6  C   UNL A   1      35.927  29.599  29.505  1.00  0.00     0.016 A 
ATOM      7  C   UNL A   1      36.677  30.208  27.305  1.00  0.00     0.016 A 
ATOM      8  C   UNL A   1      37.211  29.128  29.818  1.00  0.00     0.010 A 
ATOM      9  C   UNL A   1      37.952  29.740  27.618  1.00  0.00     0.010 A 
ATOM     10  C   UNL A   1      38.237  29.181  28.872  1.00  0.00    -0.014 A 
BRANCH  10  11
ATOM     11  C   UNL A   1      39.635  28.797  29.205  1.00  0.00     0.031 A 
ATOM     12  C   UNL A   1      40.493  29.787  29.945  1.00  0.00     0.074 A 
ATOM     13  C   UNL A   1      40.168  27.621  28.814  1.00  0.00     0.049 A 
ATOM     14  N   UNL A   1      41.744  29.690  30.321  1.00  0.00    -0.248 NA
ATOM     15  C   UNL A   1      39.863  31.072  30.289  1.00  0.00     0.031 C 
ATOM     16  C   UNL A   1      39.474  26.569  28.075  1.00  0.00     0.029 A 
ATOM     17  N   UNL A   1      41.444  27.128  28.959  1.00  0.00    -0.354 N 
ATOM     18  C   UNL A   1      42.031  30.888  30.959  1.00  0.00     0.074 A 
ATOM     19  C   UNL A   1      40.879  31.746  30.799  1.00  0.00     0.031 C 
ATOM     20  C   UNL A   1      40.341  25.584  27.780  1.00  0.00     0.029 A 
ATOM     21  C   UNL A   1      41.646  25.917  28.340  1.00  0.00     0.049 A 
ATOM     22  H   UNL A   1      42.148  27.600  29.460  1.00  0.00     0.167 HD
ATOM     23  C   UNL A   1      43.119  31.222  31.690  1.00  0.00     0.037 A 
ATOM     24  C   UNL A   1      42.753  25.155  28.257  1.00  0.00     0.037 A 
ATOM     25  C   UNL A   1      44.253  30.365  31.880  1.00  0.00     0.049 A 
ATOM     26  C   UNL A   1      43.988  25.567  29.009  1.00  0.00     0.074 A 
ATOM     27  C   UNL A   1      45.370  30.563  32.669  1.00  0.00     0.029 A 
ATOM     28  N   UNL A   1      44.409  29.134  31.259  1.00  0.00    -0.354 N 
ATOM     29  N   UNL A   1      44.198  26.643  29.727  1.00  0.00    -0.248 NA
ATOM     30  C   UNL A   1      45.119  24.629  28.988  1.00  0.00     0.031 C 
ATOM     31  C   UNL A   1      46.217  29.460  32.504  1.00  0.00     0.029 A 
ATOM     32  C   UNL A   1      45.611  28.563  31.638  1.00  0.00     0.049 A 
ATOM     33  H   UNL A   1      43.761  28.728  30.640  1.00  0.00     0.167 HD
ATOM     34  C   UNL A   1      45.448  26.475  30.307  1.00  0.00     0.074 A 
ATOM     35  C   UNL A   1      45.965  25.210  29.828  1.00  0.00     0.031 C 
ATOM     36  C   UNL A   1      46.092  27.284  31.184  1.00  0.00     0.037 A 
BRANCH  23  37
ATOM     37  C   UNL A   1      43.075  32.558  32.371  1.00  0.00     0.064 A 
ATOM     38  C   UNL A   1      42.509  32.696  33.651  1.00  0.00     0.173 A 
ATOM     39  C   UNL A   1      43.518  33.715  31.720  1.00  0.00     0.173 A 
ATOM     40  F   UNL A   1      42.052  31.617  34.307  1.00  0.00    -0.203 F 
ATOM     41  C   UNL A   1      42.328  33.951  34.224  1.00  0.00     0.198 A 
ATOM     42  C   UNL A   1      43.366  34.968  32.312  1.00  0.00     0.198 A 
ATOM     43  F   UNL A   1      44.069  33.638  30.500  1.00  0.00    -0.203 F 
ATOM     44  F   UNL A   1      41.702  34.063  35.403  1.00  0.00    -0.200 F 
ATOM     45  C   UNL A   1      42.756  35.086  33.552  1.00  0.00     0.200 A 
ATOM     46  F   UNL A   1      43.785  36.066  31.668  1.00  0.00    -0.200 F 
ATOM     47  F   UNL A   1      42.560  36.296  34.093  1.00  0.00    -0.200 F 
ENDBRANCH  23  37
BRANCH  24  48
ATOM     48  C   UNL A   1      42.731  23.872  27.509  1.00  0.00     0.064 A 
ATOM     49  C   UNL A   1      43.123  23.813  26.165  1.00  0.00     0.173 A 
ATOM     50  C   UNL A   1      42.279  22.691  28.110  1.00  0.00     0.173 A 
ATOM     51  F   UNL A   1      43.526  24.927  25.537  1.00  0.00    -0.203 F 
ATOM     52  C   UNL A   1      43.055  22.620  25.448  1.00  0.00     0.198 A 
ATOM     53  C   UNL A   1      42.235  21.492  27.399  1.00  0.00     0.198 A 
ATOM     54  F   UNL A   1      41.849  22.706  29.379  1.00  0.00    -0.203 F 
ATOM     55  F   UNL A   1      43.395  22.600  24.151  1.00  0.00    -0.200 F 
ATOM     56  C   UNL A   1      42.617  21.458  26.067  1.00  0.00     0.200 A 
ATOM     57  F   UNL A   1      41.809  20.372  28.003  1.00  0.00    -0.200 F 
ATOM     58  F   UNL A   1      42.550  20.312  25.377  1.00  0.00    -0.200 F 
ENDBRANCH  24  48
BRANCH  36  59
ATOM     59  C   UNL A   1      47.379  26.785  31.765  1.00  0.00     0.064 A 
ATOM     60  C   UNL A   1      47.411  25.906  32.855  1.00  0.00     0.173 A 
ATOM     61  C   UNL A   1      48.599  27.157  31.179  1.00  0.00     0.173 A 
ATOM     62  F   UNL A   1      46.271  25.539  33.460  1.00  0.00    -0.203 F 
ATOM     63  C   UNL A   1      48.622  25.426  33.347  1.00  0.00     0.198 A 
ATOM     64  C   UNL A   1      49.805  26.655  31.656  1.00  0.00     0.198 A 
ATOM     65  F   UNL A   1      48.619  27.997  30.133  1.00  0.00    -0.203 F 
ATOM     66  F   UNL A   1      48.634  24.616  34.415  1.00  0.00    -0.200 F 
ATOM     67  C   UNL A   1      49.816  25.793  32.743  1.00  0.00     0.200 A 
ATOM     68  F   UNL A   1      50.955  27.002  31.064  1.00  0.00    -0.200 F 
ATOM     69  F   UNL A   1      50.978  25.320  33.212  1.00  0.00    -0.200 F 
ENDBRANCH  36  59
ENDBRANCH  10  11
ENDBRANCH   3   5
ENDBRANCH   2   3
ENDBRANCH   1   2
BRANCH   1  70
ATOM     70  C   UNL A   1      33.804  34.038  29.124  1.00  0.00     0.274 C 
BRANCH  70  71
ATOM     71  O   UNL A   1      34.055  33.448  30.410  1.00  0.00    -0.457 OA
BRANCH  71  72
ATOM     72  C   UNL A   1      34.842  34.178  31.263  1.00  0.00     0.368 C 
ATOM     73  O   UNL A   1      34.520  35.273  31.713  1.00  0.00    -0.245 OA
BRANCH  72  74
ATOM     74  C   UNL A   1      36.195  33.453  31.583  1.00  0.00     0.198 C 
ATOM     75  C   UNL A   1      36.724  32.791  30.306  1.00  0.00     0.087 C 
ATOM     76  N   UNL A   1      37.191  34.509  31.910  1.00  0.00    -0.332 N 
ATOM     77  C   UNL A   1      37.518  33.903  29.642  1.00  0.00     0.068 C 
ATOM     78  C   UNL A   1      38.164  34.595  30.820  1.00  0.00     0.261 C 
ATOM     79  H   UNL A   1      37.670  34.272  32.778  1.00  0.00     0.347 HD
ATOM     80  H   UNL A   1      36.719  35.406  32.024  1.00  0.00     0.347 HD
BRANCH  74  81
ATOM     81  C   UNL A   1      35.944  32.463  32.752  1.00  0.00     0.118 C 
BRANCH  81  82
ATOM     82  C   UNL A   1      37.082  31.938  33.616  1.00  0.00    -0.022 A 
ATOM     83  C   UNL A   1      37.785  30.810  33.148  1.00  0.00     0.005 A 
ATOM     84  C   UNL A   1      37.420  32.423  34.892  1.00  0.00     0.044 A 
ATOM     85  C   UNL A   1      38.754  30.177  33.933  1.00  0.00     0.000 A 
ATOM     86  C   UNL A   1      38.374  31.773  35.683  1.00  0.00     0.021 A 
ATOM     87  Cl  UNL A   1      36.723  33.828  35.593  1.00  0.00    -0.084 Cl
ATOM     88  C   UNL A   1      39.037  30.650  35.207  1.00  0.00     0.002 A 
ENDBRANCH  81  82
ENDBRANCH  74  81
ENDBRANCH  72  74
ENDBRANCH  71  72
ENDBRANCH  70  71
ENDBRANCH   1  70
TORSDOF 13
ENDMDL
