MODEL 1
REMARK VINA RESULT:     -11.7      0.000      0.000
REMARK SMILES O=C(C[C@@H]1C(=O)NCC[NH+]1Cc1ccc(F)c(F)c1)OCCOC(=O)c1ccc(-c2c3nc(c(-c4c(F)c(F)c(F)c(F)c4F)c4ccc([nH]4)c(-c4c(F)c(F)c(F)c(F)c4F)c4nc(c(-c5c(F)c(F)c(F)c(F)c5F)c5ccc2[nH]5)C=C4)C=C3)cc1
REMARK SMILES IDX 21 1 20 2 2 3 1 4 3 5 4 6 5 7 10 8 6 9 7 10 9 11 8 13 11 15
REMARK SMILES IDX 12 16 13 17 19 18 14 19 17 20 15 21 18 22 16 23 22 24 23 25
REMARK SMILES IDX 24 26 25 27 26 28 27 29 88 30 28 31 87 32 29 33 30 34 31 35
REMARK SMILES IDX 81 36 32 37 86 38 80 39 82 40 33 41 85 42 79 43 78 44 34 46
REMARK SMILES IDX 66 47 46 48 65 49 47 50 50 51 64 52 83 53 48 54 49 55 63 57
REMARK SMILES IDX 84 58 51 59 35 60 36 61 44 62 37 63 38 64 42 65 45 66 39 67
REMARK SMILES IDX 40 68 43 69 41 70 67 71 68 72 76 73 69 74 70 75 74 76 77 77
REMARK SMILES IDX 71 78 72 79 75 80 73 81 52 82 53 83 61 84 54 85 55 86 59 87
REMARK SMILES IDX 62 88 56 89 57 90 60 91 58 92
REMARK H PARENT 10 12 7 14 82 45 50 56
REMARK Flexibility Score: inf
ROOT
ATOM      1  C   UNL A   1      40.376  19.873  26.335  1.00  0.00     0.274 C 
ENDROOT
BRANCH   1   2
ATOM      2  O   UNL A   1      41.365  19.422  25.388  1.00  0.00    -0.462 OA
BRANCH   2   3
ATOM      3  C   UNL A   1      42.526  18.817  25.704  1.00  0.00     0.312 C 
ATOM      4  O   UNL A   1      42.546  17.593  25.845  1.00  0.00    -0.252 OA
BRANCH   3   5
ATOM      5  C   UNL A   1      43.785  19.601  25.953  1.00  0.00     0.198 C 
BRANCH   5   6
ATOM      6  C   UNL A   1      44.316  20.597  24.919  1.00  0.00     0.285 C 
ATOM      7  C   UNL A   1      45.854  20.435  24.749  1.00  0.00     0.279 C 
ATOM      8  N   UNL A   1      43.880  21.994  24.820  1.00  0.00    -0.319 N 
ATOM      9  O   UNL A   1      46.428  19.353  24.882  1.00  0.00    -0.268 OA
ATOM     10  N   UNL A   1      46.592  21.501  24.317  1.00  0.00    -0.345 N 
ATOM     11  C   UNL A   1      44.532  22.746  23.758  1.00  0.00     0.284 C 
ATOM     12  H   UNL A   1      43.448  21.858  25.734  1.00  0.00     0.349 HD
ATOM     13  C   UNL A   1      46.036  22.805  24.044  1.00  0.00     0.177 C 
ATOM     14  H   UNL A   1      47.560  21.372  24.184  1.00  0.00     0.163 HD
BRANCH   8  15
ATOM     15  C   UNL A   1      42.868  22.647  25.627  1.00  0.00     0.299 C 
BRANCH  15  16
ATOM     16  C   UNL A   1      43.303  22.861  27.068  1.00  0.00     0.009 A 
ATOM     17  C   UNL A   1      42.459  22.536  28.145  1.00  0.00     0.013 A 
ATOM     18  C   UNL A   1      44.560  23.402  27.369  1.00  0.00     0.052 A 
ATOM     19  C   UNL A   1      42.790  22.889  29.457  1.00  0.00     0.043 A 
ATOM     20  C   UNL A   1      44.889  23.757  28.674  1.00  0.00     0.159 A 
ATOM     21  C   UNL A   1      43.996  23.527  29.709  1.00  0.00     0.158 A 
ATOM     22  F   UNL A   1      46.072  24.335  28.922  1.00  0.00    -0.204 F 
ATOM     23  F   UNL A   1      44.293  23.903  30.959  1.00  0.00    -0.204 F 
ENDBRANCH  15  16
ENDBRANCH   8  15
ENDBRANCH   5   6
ENDBRANCH   3   5
ENDBRANCH   2   3
ENDBRANCH   1   2
BRANCH   1  24
ATOM     24  C   UNL A   1      39.467  20.981  25.797  1.00  0.00     0.275 C 
BRANCH  24  25
ATOM     25  O   UNL A   1      39.485  22.121  26.670  1.00  0.00    -0.458 OA
BRANCH  25  26
ATOM     26  C   UNL A   1      38.853  23.230  26.206  1.00  0.00     0.338 C 
ATOM     27  O   UNL A   1      37.871  23.270  25.494  1.00  0.00    -0.246 OA
BRANCH  26  28
ATOM     28  C   UNL A   1      39.444  24.418  26.865  1.00  0.00     0.060 A 
ATOM     29  C   UNL A   1      39.225  24.576  28.239  1.00  0.00     0.016 A 
ATOM     30  C   UNL A   1      40.231  25.342  26.169  1.00  0.00     0.016 A 
ATOM     31  C   UNL A   1      39.769  25.667  28.916  1.00  0.00     0.010 A 
ATOM     32  C   UNL A   1      40.762  26.446  26.844  1.00  0.00     0.010 A 
ATOM     33  C   UNL A   1      40.510  26.627  28.214  1.00  0.00    -0.014 A 
BRANCH  33  34
ATOM     34  C   UNL A   1      40.853  27.910  28.871  1.00  0.00     0.031 A 
ATOM     35  C   UNL A   1      42.276  28.128  29.303  1.00  0.00     0.074 A 
ATOM     36  C   UNL A   1      39.935  28.873  29.061  1.00  0.00     0.049 A 
ATOM     37  N   UNL A   1      42.816  29.164  29.891  1.00  0.00    -0.248 NA
ATOM     38  C   UNL A   1      43.216  27.028  29.031  1.00  0.00     0.031 C 
ATOM     39  C   UNL A   1      38.536  28.803  28.651  1.00  0.00     0.029 A 
ATOM     40  N   UNL A   1      40.054  30.108  29.652  1.00  0.00    -0.354 N 
ATOM     41  C   UNL A   1      44.160  28.850  30.037  1.00  0.00     0.074 A 
ATOM     42  C   UNL A   1      44.348  27.513  29.516  1.00  0.00     0.031 C 
ATOM     43  C   UNL A   1      37.921  29.946  29.007  1.00  0.00     0.029 A 
ATOM     44  C   UNL A   1      38.879  30.818  29.688  1.00  0.00     0.049 A 
ATOM     45  H   UNL A   1      40.902  30.451  30.016  1.00  0.00     0.167 HD
ATOM     46  C   UNL A   1      45.154  29.612  30.547  1.00  0.00     0.037 A 
ATOM     47  C   UNL A   1      38.612  32.027  30.218  1.00  0.00     0.037 A 
ATOM     48  C   UNL A   1      44.972  30.931  31.089  1.00  0.00     0.049 A 
ATOM     49  C   UNL A   1      39.716  32.816  30.877  1.00  0.00     0.074 A 
ATOM     50  C   UNL A   1      45.921  31.776  31.636  1.00  0.00     0.029 A 
ATOM     51  N   UNL A   1      43.755  31.591  31.159  1.00  0.00    -0.354 N 
ATOM     52  N   UNL A   1      40.989  32.523  30.991  1.00  0.00    -0.248 NA
ATOM     53  C   UNL A   1      39.346  34.104  31.483  1.00  0.00     0.031 C 
ATOM     54  C   UNL A   1      45.270  32.930  32.080  1.00  0.00     0.029 A 
ATOM     55  C   UNL A   1      43.924  32.824  31.767  1.00  0.00     0.049 A 
ATOM     56  H   UNL A   1      42.897  31.236  30.828  1.00  0.00     0.167 HD
ATOM     57  C   UNL A   1      41.573  33.596  31.652  1.00  0.00     0.074 A 
ATOM     58  C   UNL A   1      40.518  34.553  31.911  1.00  0.00     0.031 C 
ATOM     59  C   UNL A   1      42.868  33.773  32.010  1.00  0.00     0.037 A 
BRANCH  46  60
ATOM     60  C   UNL A   1      46.533  29.031  30.552  1.00  0.00     0.064 A 
ATOM     61  C   UNL A   1      47.389  29.218  29.458  1.00  0.00     0.173 A 
ATOM     62  C   UNL A   1      46.990  28.252  31.625  1.00  0.00     0.173 A 
ATOM     63  F   UNL A   1      46.996  29.956  28.409  1.00  0.00    -0.203 F 
ATOM     64  C   UNL A   1      48.652  28.634  29.433  1.00  0.00     0.198 A 
ATOM     65  C   UNL A   1      48.263  27.689  31.607  1.00  0.00     0.198 A 
ATOM     66  F   UNL A   1      46.211  28.061  32.699  1.00  0.00    -0.203 F 
ATOM     67  F   UNL A   1      49.447  28.807  28.368  1.00  0.00    -0.200 F 
ATOM     68  C   UNL A   1      49.089  27.874  30.508  1.00  0.00     0.200 A 
ATOM     69  F   UNL A   1      48.692  26.973  32.654  1.00  0.00    -0.200 F 
ATOM     70  F   UNL A   1      50.310  27.322  30.487  1.00  0.00    -0.200 F 
ENDBRANCH  46  60
BRANCH  47  71
ATOM     71  C   UNL A   1      37.236  32.581  30.145  1.00  0.00     0.064 A 
ATOM     72  C   UNL A   1      36.813  33.341  29.045  1.00  0.00     0.173 A 
ATOM     73  C   UNL A   1      36.309  32.346  31.171  1.00  0.00     0.173 A 
ATOM     74  F   UNL A   1      37.659  33.587  28.034  1.00  0.00    -0.203 F 
ATOM     75  C   UNL A   1      35.520  33.856  28.980  1.00  0.00     0.198 A 
ATOM     76  C   UNL A   1      35.010  32.843  31.095  1.00  0.00     0.198 A 
ATOM     77  F   UNL A   1      36.659  31.601  32.230  1.00  0.00    -0.203 F 
ATOM     78  F   UNL A   1      35.148  34.595  27.927  1.00  0.00    -0.200 F 
ATOM     79  C   UNL A   1      34.619  33.602  30.003  1.00  0.00     0.200 A 
ATOM     80  F   UNL A   1      34.134  32.574  32.071  1.00  0.00    -0.200 F 
ATOM     81  F   UNL A   1      33.370  34.083  29.931  1.00  0.00    -0.200 F 
ENDBRANCH  47  71
BRANCH  59  82
ATOM     82  C   UNL A   1      43.241  35.052  32.700  1.00  0.00     0.064 A 
ATOM     83  C   UNL A   1      43.117  35.169  34.093  1.00  0.00     0.173 A 
ATOM     84  C   UNL A   1      43.625  36.189  31.976  1.00  0.00     0.173 A 
ATOM     85  F   UNL A   1      42.743  34.111  34.829  1.00  0.00    -0.203 F 
ATOM     86  C   UNL A   1      43.347  36.383  34.733  1.00  0.00     0.198 A 
ATOM     87  C   UNL A   1      43.879  37.396  32.623  1.00  0.00     0.198 A 
ATOM     88  F   UNL A   1      43.768  36.125  30.644  1.00  0.00    -0.203 F 
ATOM     89  F   UNL A   1      43.186  36.480  36.061  1.00  0.00    -0.200 F 
ATOM     90  C   UNL A   1      43.729  37.494  33.999  1.00  0.00     0.200 A 
ATOM     91  F   UNL A   1      44.269  38.464  31.914  1.00  0.00    -0.200 F 
ATOM     92  F   UNL A   1      43.953  38.662  34.617  1.00  0.00    -0.200 F 
ENDBRANCH  59  82
ENDBRANCH  33  34
ENDBRANCH  26  28
ENDBRANCH  25  26
ENDBRANCH  24  25
ENDBRANCH   1  24
TORSDOF 14
ENDMDL
MODEL 2
REMARK VINA RESULT:     -11.6      3.947     11.586
REMARK SMILES O=C(C[C@@H]1C(=O)NCC[NH+]1Cc1ccc(F)c(F)c1)OCCOC(=O)c1ccc(-c2c3nc(c(-c4c(F)c(F)c(F)c(F)c4F)c4ccc([nH]4)c(-c4c(F)c(F)c(F)c(F)c4F)c4nc(c(-c5c(F)c(F)c(F)c(F)c5F)c5ccc2[nH]5)C=C4)C=C3)cc1
REMARK SMILES IDX 21 1 20 2 2 3 1 4 3 5 4 6 5 7 10 8 6 9 7 10 9 11 8 13 11 15
REMARK SMILES IDX 12 16 13 17 19 18 14 19 17 20 15 21 18 22 16 23 22 24 23 25
REMARK SMILES IDX 24 26 25 27 26 28 27 29 88 30 28 31 87 32 29 33 30 34 31 35
REMARK SMILES IDX 81 36 32 37 86 38 80 39 82 40 33 41 85 42 79 43 78 44 34 46
REMARK SMILES IDX 66 47 46 48 65 49 47 50 50 51 64 52 83 53 48 54 49 55 63 57
REMARK SMILES IDX 84 58 51 59 35 60 36 61 44 62 37 63 38 64 42 65 45 66 39 67
REMARK SMILES IDX 40 68 43 69 41 70 67 71 68 72 76 73 69 74 70 75 74 76 77 77
REMARK SMILES IDX 71 78 72 79 75 80 73 81 52 82 53 83 61 84 54 85 55 86 59 87
REMARK SMILES IDX 62 88 56 89 57 90 60 91 58 92
REMARK H PARENT 10 12 7 14 82 45 50 56
REMARK Flexibility Score: inf
ROOT
ATOM      1  C   UNL A   1      33.782  33.651  27.779  1.00  0.00     0.274 C 
ENDROOT
BRANCH   1   2
ATOM      2  O   UNL A   1      32.752  34.439  28.409  1.00  0.00    -0.462 OA
BRANCH   2   3
ATOM      3  C   UNL A   1      32.964  35.435  29.290  1.00  0.00     0.312 C 
ATOM      4  O   UNL A   1      32.206  36.408  29.290  1.00  0.00    -0.252 OA
BRANCH   3   5
ATOM      5  C   UNL A   1      34.138  35.424  30.230  1.00  0.00     0.198 C 
BRANCH   5   6
ATOM      6  C   UNL A   1      34.031  34.804  31.625  1.00  0.00     0.285 C 
ATOM      7  C   UNL A   1      34.057  35.912  32.716  1.00  0.00     0.279 C 
ATOM      8  N   UNL A   1      34.731  33.583  32.040  1.00  0.00    -0.319 N 
ATOM      9  O   UNL A   1      33.598  37.041  32.530  1.00  0.00    -0.268 OA
ATOM     10  N   UNL A   1      34.495  35.599  33.972  1.00  0.00    -0.345 N 
ATOM     11  C   UNL A   1      34.474  33.191  33.418  1.00  0.00     0.284 C 
ATOM     12  H   UNL A   1      35.285  33.688  31.190  1.00  0.00     0.349 HD
ATOM     13  C   UNL A   1      34.983  34.295  34.351  1.00  0.00     0.177 C 
ATOM     14  H   UNL A   1      34.475  36.304  34.660  1.00  0.00     0.163 HD
BRANCH   8  15
ATOM     15  C   UNL A   1      35.586  32.750  31.217  1.00  0.00     0.299 C 
BRANCH  15  16
ATOM     16  C   UNL A   1      36.868  33.447  30.795  1.00  0.00     0.009 A 
ATOM     17  C   UNL A   1      37.223  33.573  29.439  1.00  0.00     0.013 A 
ATOM     18  C   UNL A   1      37.748  33.977  31.747  1.00  0.00     0.052 A 
ATOM     19  C   UNL A   1      38.477  34.061  29.062  1.00  0.00     0.043 A 
ATOM     20  C   UNL A   1      38.999  34.459  31.373  1.00  0.00     0.159 A 
ATOM     21  C   UNL A   1      39.372  34.475  30.038  1.00  0.00     0.158 A 
ATOM     22  F   UNL A   1      39.846  34.898  32.314  1.00  0.00    -0.204 F 
ATOM     23  F   UNL A   1      40.589  34.900  29.677  1.00  0.00    -0.204 F 
ENDBRANCH  15  16
ENDBRANCH   8  15
ENDBRANCH   5   6
ENDBRANCH   3   5
ENDBRANCH   2   3
ENDBRANCH   1   2
BRANCH   1  24
ATOM     24  C   UNL A   1      33.872  32.217  28.309  1.00  0.00     0.275 C 
BRANCH  24  25
ATOM     25  O   UNL A   1      34.413  31.340  27.309  1.00  0.00    -0.458 OA
BRANCH  25  26
ATOM     26  C   UNL A   1      34.518  30.034  27.664  1.00  0.00     0.338 C 
ATOM     27  O   UNL A   1      33.708  29.151  27.464  1.00  0.00    -0.246 OA
BRANCH  26  28
ATOM     28  C   UNL A   1      35.885  29.797  28.184  1.00  0.00     0.060 A 
ATOM     29  C   UNL A   1      36.960  30.035  27.319  1.00  0.00     0.016 A 
ATOM     30  C   UNL A   1      36.121  29.389  29.501  1.00  0.00     0.016 A 
ATOM     31  C   UNL A   1      38.270  29.843  27.757  1.00  0.00     0.010 A 
ATOM     32  C   UNL A   1      37.434  29.180  29.936  1.00  0.00     0.010 A 
ATOM     33  C   UNL A   1      38.512  29.381  29.057  1.00  0.00    -0.014 A 
BRANCH  33  34
ATOM     34  C   UNL A   1      39.871  28.923  29.430  1.00  0.00     0.031 A 
ATOM     35  C   UNL A   1      40.667  29.767  30.384  1.00  0.00     0.074 A 
ATOM     36  C   UNL A   1      40.384  27.774  28.956  1.00  0.00     0.049 A 
ATOM     37  N   UNL A   1      41.871  29.575  30.860  1.00  0.00    -0.248 NA
ATOM     38  C   UNL A   1      40.015  30.994  30.871  1.00  0.00     0.031 C 
ATOM     39  C   UNL A   1      39.700  26.847  28.060  1.00  0.00     0.029 A 
ATOM     40  N   UNL A   1      41.611  27.194  29.172  1.00  0.00    -0.354 N 
ATOM     41  C   UNL A   1      42.108  30.640  31.716  1.00  0.00     0.074 A 
ATOM     42  C   UNL A   1      40.945  31.499  31.666  1.00  0.00     0.031 C 
ATOM     43  C   UNL A   1      40.519  25.813  27.797  1.00  0.00     0.029 A 
ATOM     44  C   UNL A   1      41.792  26.017  28.491  1.00  0.00     0.049 A 
ATOM     45  H   UNL A   1      42.296  27.587  29.760  1.00  0.00     0.167 HD
ATOM     46  C   UNL A   1      43.193  30.877  32.487  1.00  0.00     0.037 A 
ATOM     47  C   UNL A   1      42.866  25.206  28.430  1.00  0.00     0.037 A 
ATOM     48  C   UNL A   1      44.363  30.042  32.525  1.00  0.00     0.049 A 
ATOM     49  C   UNL A   1      44.106  25.546  29.218  1.00  0.00     0.074 A 
ATOM     50  C   UNL A   1      45.516  30.209  33.271  1.00  0.00     0.029 A 
ATOM     51  N   UNL A   1      44.530  28.889  31.775  1.00  0.00    -0.354 N 
ATOM     52  N   UNL A   1      44.315  26.543  30.044  1.00  0.00    -0.248 NA
ATOM     53  C   UNL A   1      45.262  24.648  29.066  1.00  0.00     0.031 C 
ATOM     54  C   UNL A   1      46.400  29.179  32.939  1.00  0.00     0.029 A 
ATOM     55  C   UNL A   1      45.780  28.346  32.021  1.00  0.00     0.049 A 
ATOM     56  H   UNL A   1      43.860  28.511  31.159  1.00  0.00     0.167 HD
ATOM     57  C   UNL A   1      45.607  26.377  30.527  1.00  0.00     0.074 A 
ATOM     58  C   UNL A   1      46.136  25.180  29.909  1.00  0.00     0.031 C 
ATOM     59  C   UNL A   1      46.292  27.148  31.408  1.00  0.00     0.037 A 
BRANCH  46  60
ATOM     60  C   UNL A   1      43.170  32.099  33.351  1.00  0.00     0.064 A 
ATOM     61  C   UNL A   1      42.666  32.038  34.658  1.00  0.00     0.173 A 
ATOM     62  C   UNL A   1      43.607  33.340  32.867  1.00  0.00     0.173 A 
ATOM     63  F   UNL A   1      42.236  30.872  35.164  1.00  0.00    -0.203 F 
ATOM     64  C   UNL A   1      42.590  33.182  35.447  1.00  0.00     0.198 A 
ATOM     65  C   UNL A   1      43.552  34.478  33.667  1.00  0.00     0.198 A 
ATOM     66  F   UNL A   1      44.112  33.442  31.630  1.00  0.00    -0.203 F 
ATOM     67  F   UNL A   1      42.085  33.107  36.686  1.00  0.00    -0.200 F 
ATOM     68  C   UNL A   1      43.036  34.399  34.953  1.00  0.00     0.200 A 
ATOM     69  F   UNL A   1      44.003  35.648  33.198  1.00  0.00    -0.200 F 
ATOM     70  F   UNL A   1      42.973  35.497  35.718  1.00  0.00    -0.200 F 
ENDBRANCH  46  60
BRANCH  47  71
ATOM     71  C   UNL A   1      42.822  23.978  27.594  1.00  0.00     0.064 A 
ATOM     72  C   UNL A   1      43.154  24.012  26.232  1.00  0.00     0.173 A 
ATOM     73  C   UNL A   1      42.460  22.742  28.148  1.00  0.00     0.173 A 
ATOM     74  F   UNL A   1      43.514  25.168  25.657  1.00  0.00    -0.203 F 
ATOM     75  C   UNL A   1      43.113  22.858  25.453  1.00  0.00     0.198 A 
ATOM     76  C   UNL A   1      42.442  21.584  27.373  1.00  0.00     0.198 A 
ATOM     77  F   UNL A   1      42.162  22.655  29.453  1.00  0.00    -0.203 F 
ATOM     78  F   UNL A   1      43.416  22.921  24.149  1.00  0.00    -0.200 F 
ATOM     79  C   UNL A   1      42.763  21.644  26.026  1.00  0.00     0.200 A 
ATOM     80  F   UNL A   1      42.128  20.410  27.935  1.00  0.00    -0.200 F 
ATOM     81  F   UNL A   1      42.741  20.531  25.279  1.00  0.00    -0.200 F 
ENDBRANCH  47  71
BRANCH  59  82
ATOM     82  C   UNL A   1      47.681  26.723  31.784  1.00  0.00     0.064 A 
ATOM     83  C   UNL A   1      48.788  27.206  31.069  1.00  0.00     0.173 A 
ATOM     84  C   UNL A   1      47.908  25.768  32.784  1.00  0.00     0.173 A 
ATOM     85  F   UNL A   1      48.621  28.114  30.097  1.00  0.00    -0.203 F 
ATOM     86  C   UNL A   1      50.071  26.732  31.331  1.00  0.00     0.198 A 
ATOM     87  C   UNL A   1      49.196  25.315  33.060  1.00  0.00     0.198 A 
ATOM     88  F   UNL A   1      46.883  25.285  33.502  1.00  0.00    -0.203 F 
ATOM     89  F   UNL A   1      51.109  27.180  30.610  1.00  0.00    -0.200 F 
ATOM     90  C   UNL A   1      50.274  25.789  32.326  1.00  0.00     0.200 A 
ATOM     91  F   UNL A   1      49.394  24.419  34.036  1.00  0.00    -0.200 F 
ATOM     92  F   UNL A   1      51.509  25.336  32.579  1.00  0.00    -0.200 F 
ENDBRANCH  59  82
ENDBRANCH  33  34
ENDBRANCH  26  28
ENDBRANCH  25  26
ENDBRANCH  24  25
ENDBRANCH   1  24
TORSDOF 14
ENDMDL
MODEL 3
REMARK VINA RESULT:     -11.6      4.886      8.625
REMARK SMILES O=C(C[C@@H]1C(=O)NCC[NH+]1Cc1ccc(F)c(F)c1)OCCOC(=O)c1ccc(-c2c3nc(c(-c4c(F)c(F)c(F)c(F)c4F)c4ccc([nH]4)c(-c4c(F)c(F)c(F)c(F)c4F)c4nc(c(-c5c(F)c(F)c(F)c(F)c5F)c5ccc2[nH]5)C=C4)C=C3)cc1
REMARK SMILES IDX 21 1 20 2 2 3 1 4 3 5 4 6 5 7 10 8 6 9 7 10 9 11 8 13 11 15
REMARK SMILES IDX 12 16 13 17 19 18 14 19 17 20 15 21 18 22 16 23 22 24 23 25
REMARK SMILES IDX 24 26 25 27 26 28 27 29 88 30 28 31 87 32 29 33 30 34 31 35
REMARK SMILES IDX 81 36 32 37 86 38 80 39 82 40 33 41 85 42 79 43 78 44 34 46
REMARK SMILES IDX 66 47 46 48 65 49 47 50 50 51 64 52 83 53 48 54 49 55 63 57
REMARK SMILES IDX 84 58 51 59 35 60 36 61 44 62 37 63 38 64 42 65 45 66 39 67
REMARK SMILES IDX 40 68 43 69 41 70 67 71 68 72 76 73 69 74 70 75 74 76 77 77
REMARK SMILES IDX 71 78 72 79 75 80 73 81 52 82 53 83 61 84 54 85 55 86 59 87
REMARK SMILES IDX 62 88 56 89 57 90 60 91 58 92
REMARK H PARENT 10 12 7 14 82 45 50 56
REMARK Flexibility Score: inf
ROOT
ATOM      1  C   UNL A   1      31.498  28.756  24.987  1.00  0.00     0.274 C 
ENDROOT
BRANCH   1   2
ATOM      2  O   UNL A   1      32.391  27.697  25.385  1.00  0.00    -0.462 OA
BRANCH   2   3
ATOM      3  C   UNL A   1      32.045  26.627  26.128  1.00  0.00     0.312 C 
ATOM      4  O   UNL A   1      31.072  26.708  26.880  1.00  0.00    -0.252 OA
BRANCH   3   5
ATOM      5  C   UNL A   1      32.852  25.359  26.112  1.00  0.00     0.198 C 
BRANCH   5   6
ATOM      6  C   UNL A   1      32.348  24.107  25.388  1.00  0.00     0.285 C 
ATOM      7  C   UNL A   1      31.700  23.118  26.399  1.00  0.00     0.279 C 
ATOM      8  N   UNL A   1      33.082  23.423  24.318  1.00  0.00    -0.319 N 
ATOM      9  O   UNL A   1      31.113  23.494  27.416  1.00  0.00    -0.268 OA
ATOM     10  N   UNL A   1      31.670  21.785  26.100  1.00  0.00    -0.345 N 
ATOM     11  C   UNL A   1      32.400  22.252  23.786  1.00  0.00     0.284 C 
ATOM     12  H   UNL A   1      33.886  23.986  24.595  1.00  0.00     0.349 HD
ATOM     13  C   UNL A   1      32.247  21.217  24.905  1.00  0.00     0.177 C 
ATOM     14  H   UNL A   1      31.228  21.177  26.736  1.00  0.00     0.163 HD
BRANCH   8  15
ATOM     15  C   UNL A   1      34.351  23.822  23.742  1.00  0.00     0.299 C 
BRANCH  15  16
ATOM     16  C   UNL A   1      35.548  23.268  24.497  1.00  0.00     0.009 A 
ATOM     17  C   UNL A   1      36.232  24.036  25.456  1.00  0.00     0.013 A 
ATOM     18  C   UNL A   1      36.017  21.970  24.251  1.00  0.00     0.052 A 
ATOM     19  C   UNL A   1      37.428  23.589  26.023  1.00  0.00     0.043 A 
ATOM     20  C   UNL A   1      37.210  21.525  24.812  1.00  0.00     0.159 A 
ATOM     21  C   UNL A   1      37.926  22.342  25.672  1.00  0.00     0.158 A 
ATOM     22  F   UNL A   1      37.668  20.304  24.505  1.00  0.00    -0.204 F 
ATOM     23  F   UNL A   1      39.095  21.933  26.183  1.00  0.00    -0.204 F 
ENDBRANCH  15  16
ENDBRANCH   8  15
ENDBRANCH   5   6
ENDBRANCH   3   5
ENDBRANCH   2   3
ENDBRANCH   1   2
BRANCH   1  24
ATOM     24  C   UNL A   1      31.639  30.028  25.827  1.00  0.00     0.275 C 
BRANCH  24  25
ATOM     25  O   UNL A   1      33.024  30.353  26.028  1.00  0.00    -0.458 OA
BRANCH  25  26
ATOM     26  C   UNL A   1      33.274  31.334  26.933  1.00  0.00     0.338 C 
ATOM     27  O   UNL A   1      32.527  32.229  27.270  1.00  0.00    -0.246 OA
BRANCH  26  28
ATOM     28  C   UNL A   1      34.562  31.037  27.603  1.00  0.00     0.060 A 
ATOM     29  C   UNL A   1      34.855  29.697  27.885  1.00  0.00     0.016 A 
ATOM     30  C   UNL A   1      35.488  32.038  27.916  1.00  0.00     0.016 A 
ATOM     31  C   UNL A   1      36.058  29.356  28.502  1.00  0.00     0.010 A 
ATOM     32  C   UNL A   1      36.687  31.699  28.549  1.00  0.00     0.010 A 
ATOM     33  C   UNL A   1      36.965  30.359  28.869  1.00  0.00    -0.014 A 
BRANCH  33  34
ATOM     34  C   UNL A   1      38.104  30.026  29.757  1.00  0.00     0.031 A 
ATOM     35  C   UNL A   1      39.149  29.077  29.243  1.00  0.00     0.074 A 
ATOM     36  C   UNL A   1      38.227  30.567  30.981  1.00  0.00     0.049 A 
ATOM     37  N   UNL A   1      40.234  28.639  29.829  1.00  0.00    -0.248 NA
ATOM     38  C   UNL A   1      38.945  28.554  27.882  1.00  0.00     0.031 C 
ATOM     39  C   UNL A   1      37.306  31.530  31.578  1.00  0.00     0.029 A 
ATOM     40  N   UNL A   1      39.190  30.378  31.942  1.00  0.00    -0.354 N 
ATOM     41  C   UNL A   1      40.850  27.811  28.901  1.00  0.00     0.074 A 
ATOM     42  C   UNL A   1      40.001  27.771  27.730  1.00  0.00     0.031 C 
ATOM     43  C   UNL A   1      37.747  31.846  32.810  1.00  0.00     0.029 A 
ATOM     44  C   UNL A   1      38.968  31.092  33.093  1.00  0.00     0.049 A 
ATOM     45  H   UNL A   1      39.966  29.785  31.817  1.00  0.00     0.167 HD
ATOM     46  C   UNL A   1      42.025  27.151  29.008  1.00  0.00     0.037 A 
ATOM     47  C   UNL A   1      39.669  31.122  34.244  1.00  0.00     0.037 A 
ATOM     48  C   UNL A   1      42.863  27.165  30.176  1.00  0.00     0.049 A 
ATOM     49  C   UNL A   1      40.922  30.294  34.379  1.00  0.00     0.074 A 
ATOM     50  C   UNL A   1      44.069  26.519  30.379  1.00  0.00     0.029 A 
ATOM     51  N   UNL A   1      42.573  27.854  31.343  1.00  0.00    -0.354 N 
ATOM     52  N   UNL A   1      41.512  29.532  33.489  1.00  0.00    -0.248 NA
ATOM     53  C   UNL A   1      41.610  30.331  35.679  1.00  0.00     0.031 C 
ATOM     54  C   UNL A   1      44.487  26.780  31.686  1.00  0.00     0.029 A 
ATOM     55  C   UNL A   1      43.566  27.628  32.282  1.00  0.00     0.049 A 
ATOM     56  H   UNL A   1      41.779  28.421  31.485  1.00  0.00     0.167 HD
ATOM     57  C   UNL A   1      42.646  29.024  34.110  1.00  0.00     0.074 A 
ATOM     58  C   UNL A   1      42.670  29.567  35.451  1.00  0.00     0.031 C 
ATOM     59  C   UNL A   1      43.585  28.183  33.610  1.00  0.00     0.037 A 
BRANCH  46  60
ATOM     60  C   UNL A   1      42.473  26.347  27.828  1.00  0.00     0.064 A 
ATOM     61  C   UNL A   1      42.072  25.012  27.682  1.00  0.00     0.173 A 
ATOM     62  C   UNL A   1      43.335  26.889  26.864  1.00  0.00     0.173 A 
ATOM     63  F   UNL A   1      41.247  24.451  28.579  1.00  0.00    -0.203 F 
ATOM     64  C   UNL A   1      42.529  24.242  26.617  1.00  0.00     0.198 A 
ATOM     65  C   UNL A   1      43.773  26.123  25.787  1.00  0.00     0.198 A 
ATOM     66  F   UNL A   1      43.731  28.166  26.955  1.00  0.00    -0.203 F 
ATOM     67  F   UNL A   1      42.152  22.961  26.506  1.00  0.00    -0.200 F 
ATOM     68  C   UNL A   1      43.375  24.799  25.669  1.00  0.00     0.200 A 
ATOM     69  F   UNL A   1      44.572  26.667  24.861  1.00  0.00    -0.200 F 
ATOM     70  F   UNL A   1      43.806  24.060  24.637  1.00  0.00    -0.200 F 
ENDBRANCH  46  60
BRANCH  47  71
ATOM     71  C   UNL A   1      39.208  31.974  35.370  1.00  0.00     0.064 A 
ATOM     72  C   UNL A   1      38.406  31.454  36.397  1.00  0.00     0.173 A 
ATOM     73  C   UNL A   1      39.574  33.325  35.449  1.00  0.00     0.173 A 
ATOM     74  F   UNL A   1      38.035  30.166  36.372  1.00  0.00    -0.203 F 
ATOM     75  C   UNL A   1      37.978  32.256  37.453  1.00  0.00     0.198 A 
ATOM     76  C   UNL A   1      39.164  34.121  36.516  1.00  0.00     0.198 A 
ATOM     77  F   UNL A   1      40.363  33.860  34.505  1.00  0.00    -0.203 F 
ATOM     78  F   UNL A   1      37.197  31.740  38.410  1.00  0.00    -0.200 F 
ATOM     79  C   UNL A   1      38.362  33.588  37.513  1.00  0.00     0.200 A 
ATOM     80  F   UNL A   1      39.558  35.399  36.586  1.00  0.00    -0.200 F 
ATOM     81  F   UNL A   1      37.964  34.355  38.538  1.00  0.00    -0.200 F 
ENDBRANCH  47  71
BRANCH  59  82
ATOM     82  C   UNL A   1      44.737  27.807  34.495  1.00  0.00     0.064 A 
ATOM     83  C   UNL A   1      45.909  28.578  34.499  1.00  0.00     0.173 A 
ATOM     84  C   UNL A   1      44.718  26.635  35.263  1.00  0.00     0.173 A 
ATOM     85  F   UNL A   1      45.980  29.705  33.773  1.00  0.00    -0.203 F 
ATOM     86  C   UNL A   1      47.027  28.178  35.225  1.00  0.00     0.198 A 
ATOM     87  C   UNL A   1      45.830  26.251  36.008  1.00  0.00     0.198 A 
ATOM     88  F   UNL A   1      43.617  25.870  35.300  1.00  0.00    -0.203 F 
ATOM     89  F   UNL A   1      48.149  28.911  35.185  1.00  0.00    -0.200 F 
ATOM     90  C   UNL A   1      46.987  27.017  35.980  1.00  0.00     0.200 A 
ATOM     91  F   UNL A   1      45.782  25.138  36.753  1.00  0.00    -0.200 F 
ATOM     92  F   UNL A   1      48.062  26.634  36.681  1.00  0.00    -0.200 F 
ENDBRANCH  59  82
ENDBRANCH  33  34
ENDBRANCH  26  28
ENDBRANCH  25  26
ENDBRANCH  24  25
ENDBRANCH   1  24
TORSDOF 14
ENDMDL
