MODEL 1
REMARK VINA RESULT:     -13.2      0.000      0.000
REMARK SMILES Cc1c(C[NH2+]Cc2cccc(F)c2)c(C(=O)OCCOC(=O)c2ccc(-c3c4nc(c(-c5c(F)c(F)c(F)c(F)c5F)c5ccc([nH]5)c(-c5c(F)c(F)c(F)c(F)c5F)c5nc(c(-c6c(F)c(F)c(F)c(F)c6F)c6ccc3[nH]6)C=C5)C=C4)cc2)c(C)n1Cc1c(F)cccc1Cl
REMARK SMILES IDX 18 1 17 2 15 3 16 4 14 5 1 6 2 7 3 8 88 9 86 10 87 11 4 12
REMARK SMILES IDX 5 13 6 16 7 17 8 18 13 19 9 20 11 21 10 22 12 23 89 24 90 25
REMARK SMILES IDX 91 26 96 27 92 28 93 29 95 30 97 31 94 32 19 33 20 34 21 35
REMARK SMILES IDX 22 36 23 37 24 38 85 39 25 40 84 41 26 42 27 43 28 44 78 45
REMARK SMILES IDX 29 46 83 47 77 48 79 49 30 50 82 51 76 52 75 53 31 55 63 56
REMARK SMILES IDX 43 57 62 58 44 59 47 60 61 61 80 62 45 63 46 64 60 66 81 67
REMARK SMILES IDX 48 68 32 69 33 70 41 71 34 72 35 73 39 74 42 75 36 76 37 77
REMARK SMILES IDX 40 78 38 79 64 80 65 81 73 82 66 83 67 84 71 85 74 86 68 87
REMARK SMILES IDX 69 88 72 89 70 90 49 91 50 92 58 93 51 94 52 95 56 96 59 97
REMARK SMILES IDX 53 98 54 99 57 100 55 101
REMARK H PARENT 5 14 5 15 79 54 47 65
REMARK Flexibility Score: inf
ROOT
ATOM      1  C   UNL A   1      36.588  23.491  25.932  1.00  0.00     0.275 C 
ENDROOT
BRANCH   1   2
ATOM      2  O   UNL A   1      36.339  24.226  24.698  1.00  0.00    -0.458 OA
BRANCH   2   3
ATOM      3  C   UNL A   1      35.370  23.735  23.876  1.00  0.00     0.340 C 
ATOM      4  O   UNL A   1      35.620  22.988  22.917  1.00  0.00    -0.246 OA
BRANCH   3   5
ATOM      5  C   UNL A   1      34.003  24.097  24.277  1.00  0.00     0.089 A 
ATOM      6  C   UNL A   1      30.613  23.407  25.712  1.00  0.00     0.065 C 
ATOM      7  C   UNL A   1      31.895  23.916  25.138  1.00  0.00     0.025 A 
ATOM      8  C   UNL A   1      33.118  23.259  25.028  1.00  0.00     0.042 A 
ATOM      9  N   UNL A   1      32.039  25.183  24.574  1.00  0.00    -0.343 N 
ATOM     10  C   UNL A   1      33.256  25.211  23.893  1.00  0.00     0.030 A 
ATOM     11  C   UNL A   1      33.637  26.232  22.880  1.00  0.00     0.065 C 
BRANCH   8  12
ATOM     12  C   UNL A   1      33.495  21.893  25.523  1.00  0.00     0.300 C 
BRANCH  12  13
ATOM     13  N   UNL A   1      33.508  21.008  24.370  1.00  0.00    -0.339 N 
ATOM     14  H   UNL A   1      34.389  20.493  24.372  1.00  0.00     0.346 HD
ATOM     15  H   UNL A   1      33.396  21.599  23.546  1.00  0.00     0.346 HD
BRANCH  13  16
ATOM     16  C   UNL A   1      32.419  20.046  24.341  1.00  0.00     0.297 C 
BRANCH  16  17
ATOM     17  C   UNL A   1      32.816  18.593  24.494  1.00  0.00     0.009 A 
ATOM     18  C   UNL A   1      32.568  17.839  25.653  1.00  0.00     0.010 A 
ATOM     19  C   UNL A   1      33.465  17.963  23.422  1.00  0.00     0.048 A 
ATOM     20  C   UNL A   1      33.023  16.525  25.773  1.00  0.00     0.004 A 
ATOM     21  C   UNL A   1      33.894  16.645  23.541  1.00  0.00     0.123 A 
ATOM     22  C   UNL A   1      33.694  15.928  24.713  1.00  0.00     0.039 A 
ATOM     23  F   UNL A   1      34.520  16.062  22.509  1.00  0.00    -0.207 F 
ENDBRANCH  16  17
ENDBRANCH  13  16
ENDBRANCH  12  13
ENDBRANCH   8  12
BRANCH   9  24
ATOM     24  C   UNL A   1      30.980  26.221  24.540  1.00  0.00     0.162 C 
BRANCH  24  25
ATOM     25  C   UNL A   1      31.307  27.492  25.301  1.00  0.00     0.026 A 
ATOM     26  C   UNL A   1      31.605  27.423  26.669  1.00  0.00     0.129 A 
ATOM     27  C   UNL A   1      31.403  28.766  24.716  1.00  0.00     0.048 A 
ATOM     28  F   UNL A   1      31.750  26.238  27.267  1.00  0.00    -0.207 F 
ATOM     29  C   UNL A   1      31.857  28.551  27.451  1.00  0.00     0.040 A 
ATOM     30  C   UNL A   1      31.687  29.907  25.490  1.00  0.00     0.021 A 
ATOM     31  Cl  UNL A   1      31.290  29.020  23.010  1.00  0.00    -0.084 Cl
ATOM     32  C   UNL A   1      31.884  29.804  26.864  1.00  0.00     0.005 A 
ENDBRANCH  24  25
ENDBRANCH   9  24
ENDBRANCH   3   5
ENDBRANCH   2   3
ENDBRANCH   1   2
BRANCH   1  33
ATOM     33  C   UNL A   1      37.493  22.244  25.689  1.00  0.00     0.275 C 
BRANCH  33  34
ATOM     34  O   UNL A   1      38.965  22.423  25.550  1.00  0.00    -0.458 OA
BRANCH  34  35
ATOM     35  C   UNL A   1      39.708  22.517  26.714  1.00  0.00     0.338 C 
ATOM     36  O   UNL A   1      40.132  21.535  27.310  1.00  0.00    -0.246 OA
BRANCH  35  37
ATOM     37  C   UNL A   1      39.953  23.936  27.299  1.00  0.00     0.060 A 
ATOM     38  C   UNL A   1      39.267  24.394  28.415  1.00  0.00     0.016 A 
ATOM     39  C   UNL A   1      40.624  24.968  26.595  1.00  0.00     0.016 A 
ATOM     40  C   UNL A   1      39.322  25.792  28.832  1.00  0.00     0.010 A 
ATOM     41  C   UNL A   1      40.632  26.406  26.995  1.00  0.00     0.010 A 
ATOM     42  C   UNL A   1      39.983  26.894  28.148  1.00  0.00    -0.014 A 
BRANCH  42  43
ATOM     43  C   UNL A   1      39.460  28.466  28.492  1.00  0.00     0.031 A 
ATOM     44  C   UNL A   1      40.780  29.151  28.632  1.00  0.00     0.074 A 
ATOM     45  C   UNL A   1      38.360  29.325  28.783  1.00  0.00     0.049 A 
ATOM     46  N   UNL A   1      41.650  28.713  29.503  1.00  0.00    -0.248 NA
ATOM     47  C   UNL A   1      41.341  30.009  27.588  1.00  0.00     0.031 C 
ATOM     48  C   UNL A   1      36.929  28.975  28.931  1.00  0.00     0.029 A 
ATOM     49  N   UNL A   1      38.238  30.766  29.027  1.00  0.00    -0.354 N 
ATOM     50  C   UNL A   1      42.768  29.486  29.336  1.00  0.00     0.074 A 
ATOM     51  C   UNL A   1      42.614  30.051  28.001  1.00  0.00     0.031 C 
ATOM     52  C   UNL A   1      36.119  30.073  29.089  1.00  0.00     0.029 A 
ATOM     53  C   UNL A   1      36.881  31.328  29.139  1.00  0.00     0.049 A 
ATOM     54  H   UNL A   1      39.035  31.338  29.114  1.00  0.00     0.167 HD
ATOM     55  C   UNL A   1      43.214  30.102  30.468  1.00  0.00     0.037 A 
ATOM     56  C   UNL A   1      36.393  32.641  29.347  1.00  0.00     0.037 A 
ATOM     57  C   UNL A   1      42.847  31.491  30.515  1.00  0.00     0.049 A 
ATOM     58  C   UNL A   1      37.486  33.390  29.970  1.00  0.00     0.074 A 
ATOM     59  C   UNL A   1      42.743  32.481  29.556  1.00  0.00     0.029 A 
ATOM     60  N   UNL A   1      42.048  31.888  31.565  1.00  0.00    -0.354 N 
ATOM     61  N   UNL A   1      37.724  33.288  31.240  1.00  0.00    -0.248 NA
ATOM     62  C   UNL A   1      38.248  34.415  29.264  1.00  0.00     0.031 C 
ATOM     63  C   UNL A   1      41.466  33.032  29.782  1.00  0.00     0.029 A 
ATOM     64  C   UNL A   1      41.067  32.710  31.072  1.00  0.00     0.049 A 
ATOM     65  H   UNL A   1      42.161  31.626  32.507  1.00  0.00     0.167 HD
ATOM     66  C   UNL A   1      38.978  33.784  31.340  1.00  0.00     0.074 A 
ATOM     67  C   UNL A   1      39.128  34.703  30.226  1.00  0.00     0.031 C 
ATOM     68  C   UNL A   1      39.874  32.905  31.842  1.00  0.00     0.037 A 
BRANCH  55  69
ATOM     69  C   UNL A   1      43.246  29.238  31.700  1.00  0.00     0.064 A 
ATOM     70  C   UNL A   1      42.091  28.736  32.337  1.00  0.00     0.173 A 
ATOM     71  C   UNL A   1      44.481  28.899  32.257  1.00  0.00     0.173 A 
ATOM     72  F   UNL A   1      40.868  29.187  32.015  1.00  0.00    -0.203 F 
ATOM     73  C   UNL A   1      42.175  27.816  33.374  1.00  0.00     0.198 A 
ATOM     74  C   UNL A   1      44.560  28.036  33.350  1.00  0.00     0.198 A 
ATOM     75  F   UNL A   1      45.610  29.431  31.764  1.00  0.00    -0.203 F 
ATOM     76  F   UNL A   1      41.055  27.303  33.904  1.00  0.00    -0.200 F 
ATOM     77  C   UNL A   1      43.412  27.464  33.880  1.00  0.00     0.200 A 
ATOM     78  F   UNL A   1      45.751  27.769  33.903  1.00  0.00    -0.200 F 
ATOM     79  F   UNL A   1      43.493  26.614  34.913  1.00  0.00    -0.200 F 
ENDBRANCH  55  69
BRANCH  56  80
ATOM     80  C   UNL A   1      35.145  33.646  29.395  1.00  0.00     0.064 A 
ATOM     81  C   UNL A   1      34.943  34.649  28.431  1.00  0.00     0.173 A 
ATOM     82  C   UNL A   1      34.463  33.948  30.641  1.00  0.00     0.173 A 
ATOM     83  F   UNL A   1      35.512  34.535  27.226  1.00  0.00    -0.203 F 
ATOM     84  C   UNL A   1      34.223  35.853  28.705  1.00  0.00     0.198 A 
ATOM     85  C   UNL A   1      33.799  35.163  30.926  1.00  0.00     0.198 A 
ATOM     86  F   UNL A   1      34.468  33.087  31.667  1.00  0.00    -0.203 F 
ATOM     87  F   UNL A   1      34.107  36.795  27.755  1.00  0.00    -0.200 F 
ATOM     88  C   UNL A   1      33.694  36.127  29.958  1.00  0.00     0.200 A 
ATOM     89  F   UNL A   1      33.330  35.409  32.161  1.00  0.00    -0.200 F 
ATOM     90  F   UNL A   1      33.118  37.311  30.234  1.00  0.00    -0.200 F 
ENDBRANCH  56  80
BRANCH  68  91
ATOM     91  C   UNL A   1      39.408  32.044  33.001  1.00  0.00     0.064 A 
ATOM     92  C   UNL A   1      39.681  32.514  34.290  1.00  0.00     0.173 A 
ATOM     93  C   UNL A   1      38.650  30.850  32.922  1.00  0.00     0.173 A 
ATOM     94  F   UNL A   1      40.430  33.615  34.448  1.00  0.00    -0.203 F 
ATOM     95  C   UNL A   1      39.216  31.857  35.428  1.00  0.00     0.198 A 
ATOM     96  C   UNL A   1      38.147  30.217  34.062  1.00  0.00     0.198 A 
ATOM     97  F   UNL A   1      38.387  30.255  31.753  1.00  0.00    -0.203 F 
ATOM     98  F   UNL A   1      39.539  32.328  36.640  1.00  0.00    -0.200 F 
ATOM     99  C   UNL A   1      38.434  30.720  35.315  1.00  0.00     0.200 A 
ATOM    100  F   UNL A   1      37.388  29.117  33.942  1.00  0.00    -0.200 F 
ATOM    101  F   UNL A   1      37.975  30.104  36.413  1.00  0.00    -0.200 F 
ENDBRANCH  68  91
ENDBRANCH  42  43
ENDBRANCH  35  37
ENDBRANCH  34  35
ENDBRANCH  33  34
ENDBRANCH   1  33
TORSDOF 17
ENDMDL
MODEL 2
REMARK VINA RESULT:     -12.6      1.574      4.668
REMARK SMILES Cc1c(C[NH2+]Cc2cccc(F)c2)c(C(=O)OCCOC(=O)c2ccc(-c3c4nc(c(-c5c(F)c(F)c(F)c(F)c5F)c5ccc([nH]5)c(-c5c(F)c(F)c(F)c(F)c5F)c5nc(c(-c6c(F)c(F)c(F)c(F)c6F)c6ccc3[nH]6)C=C5)C=C4)cc2)c(C)n1Cc1c(F)cccc1Cl
REMARK SMILES IDX 18 1 17 2 15 3 16 4 14 5 1 6 2 7 3 8 88 9 86 10 87 11 4 12
REMARK SMILES IDX 5 13 6 16 7 17 8 18 13 19 9 20 11 21 10 22 12 23 89 24 90 25
REMARK SMILES IDX 91 26 96 27 92 28 93 29 95 30 97 31 94 32 19 33 20 34 21 35
REMARK SMILES IDX 22 36 23 37 24 38 85 39 25 40 84 41 26 42 27 43 28 44 78 45
REMARK SMILES IDX 29 46 83 47 77 48 79 49 30 50 82 51 76 52 75 53 31 55 63 56
REMARK SMILES IDX 43 57 62 58 44 59 47 60 61 61 80 62 45 63 46 64 60 66 81 67
REMARK SMILES IDX 48 68 32 69 33 70 41 71 34 72 35 73 39 74 42 75 36 76 37 77
REMARK SMILES IDX 40 78 38 79 64 80 65 81 73 82 66 83 67 84 71 85 74 86 68 87
REMARK SMILES IDX 69 88 72 89 70 90 49 91 50 92 58 93 51 94 52 95 56 96 59 97
REMARK SMILES IDX 53 98 54 99 57 100 55 101
REMARK H PARENT 5 14 5 15 79 54 47 65
REMARK Flexibility Score: inf
ROOT
ATOM      1  C   UNL A   1      37.780  22.799  25.348  1.00  0.00     0.275 C 
ENDROOT
BRANCH   1   2
ATOM      2  O   UNL A   1      36.588  22.656  26.175  1.00  0.00    -0.458 OA
BRANCH   2   3
ATOM      3  C   UNL A   1      35.487  23.361  25.793  1.00  0.00     0.340 C 
ATOM      4  O   UNL A   1      35.390  24.588  25.951  1.00  0.00    -0.246 OA
BRANCH   3   5
ATOM      5  C   UNL A   1      34.469  22.557  25.103  1.00  0.00     0.089 A 
ATOM      6  C   UNL A   1      32.013  21.849  22.365  1.00  0.00     0.065 C 
ATOM      7  C   UNL A   1      32.948  21.903  23.530  1.00  0.00     0.025 A 
ATOM      8  C   UNL A   1      33.941  22.839  23.802  1.00  0.00     0.042 A 
ATOM      9  N   UNL A   1      32.927  20.985  24.578  1.00  0.00    -0.343 N 
ATOM     10  C   UNL A   1      33.719  21.494  25.607  1.00  0.00     0.030 A 
ATOM     11  C   UNL A   1      33.694  21.011  27.015  1.00  0.00     0.065 C 
BRANCH   8  12
ATOM     12  C   UNL A   1      34.390  24.000  22.963  1.00  0.00     0.300 C 
BRANCH  12  13
ATOM     13  N   UNL A   1      33.289  24.948  22.918  1.00  0.00    -0.339 N 
ATOM     14  H   UNL A   1      32.531  24.585  23.497  1.00  0.00     0.346 HD
ATOM     15  H   UNL A   1      33.027  25.044  21.937  1.00  0.00     0.346 HD
BRANCH  13  16
ATOM     16  C   UNL A   1      33.625  26.280  23.390  1.00  0.00     0.297 C 
BRANCH  16  17
ATOM     17  C   UNL A   1      32.987  26.698  24.698  1.00  0.00     0.009 A 
ATOM     18  C   UNL A   1      31.669  26.371  25.057  1.00  0.00     0.010 A 
ATOM     19  C   UNL A   1      33.751  27.453  25.600  1.00  0.00     0.048 A 
ATOM     20  C   UNL A   1      31.103  26.847  26.241  1.00  0.00     0.004 A 
ATOM     21  C   UNL A   1      33.186  27.904  26.789  1.00  0.00     0.123 A 
ATOM     22  C   UNL A   1      31.864  27.622  27.107  1.00  0.00     0.039 A 
ATOM     23  F   UNL A   1      33.927  28.631  27.636  1.00  0.00    -0.207 F 
ENDBRANCH  16  17
ENDBRANCH  13  16
ENDBRANCH  12  13
ENDBRANCH   8  12
BRANCH   9  24
ATOM     24  C   UNL A   1      32.046  19.793  24.644  1.00  0.00     0.162 C 
BRANCH  24  25
ATOM     25  C   UNL A   1      32.756  18.464  24.475  1.00  0.00     0.026 A 
ATOM     26  C   UNL A   1      33.085  17.705  25.607  1.00  0.00     0.129 A 
ATOM     27  C   UNL A   1      33.065  17.879  23.235  1.00  0.00     0.048 A 
ATOM     28  F   UNL A   1      32.643  18.072  26.813  1.00  0.00    -0.207 F 
ATOM     29  C   UNL A   1      33.790  16.503  25.540  1.00  0.00     0.040 A 
ATOM     30  C   UNL A   1      33.749  16.651  23.155  1.00  0.00     0.021 A 
ATOM     31  Cl  UNL A   1      32.544  18.552  21.731  1.00  0.00    -0.084 Cl
ATOM     32  C   UNL A   1      34.139  15.977  24.308  1.00  0.00     0.005 A 
ENDBRANCH  24  25
ENDBRANCH   9  24
ENDBRANCH   3   5
ENDBRANCH   2   3
ENDBRANCH   1   2
BRANCH   1  33
ATOM     33  C   UNL A   1      38.832  21.689  25.655  1.00  0.00     0.275 C 
BRANCH  33  34
ATOM     34  O   UNL A   1      39.764  21.861  26.803  1.00  0.00    -0.458 OA
BRANCH  34  35
ATOM     35  C   UNL A   1      40.781  22.789  26.665  1.00  0.00     0.338 C 
ATOM     36  O   UNL A   1      41.756  22.602  25.947  1.00  0.00    -0.246 OA
BRANCH  35  37
ATOM     37  C   UNL A   1      40.688  24.092  27.508  1.00  0.00     0.060 A 
ATOM     38  C   UNL A   1      39.502  24.488  28.110  1.00  0.00     0.016 A 
ATOM     39  C   UNL A   1      41.666  25.118  27.473  1.00  0.00     0.016 A 
ATOM     40  C   UNL A   1      39.347  25.812  28.706  1.00  0.00     0.010 A 
ATOM     41  C   UNL A   1      41.483  26.489  28.036  1.00  0.00     0.010 A 
ATOM     42  C   UNL A   1      40.308  26.906  28.694  1.00  0.00    -0.014 A 
BRANCH  42  43
ATOM     43  C   UNL A   1      39.722  28.475  28.938  1.00  0.00     0.031 A 
ATOM     44  C   UNL A   1      41.013  29.211  29.086  1.00  0.00     0.074 A 
ATOM     45  C   UNL A   1      38.586  29.309  29.145  1.00  0.00     0.049 A 
ATOM     46  N   UNL A   1      41.866  28.848  30.007  1.00  0.00    -0.248 NA
ATOM     47  C   UNL A   1      41.583  30.033  28.017  1.00  0.00     0.031 C 
ATOM     48  C   UNL A   1      37.162  28.920  29.263  1.00  0.00     0.029 A 
ATOM     49  N   UNL A   1      38.409  30.756  29.309  1.00  0.00    -0.354 N 
ATOM     50  C   UNL A   1      42.964  29.648  29.838  1.00  0.00     0.074 A 
ATOM     51  C   UNL A   1      42.839  30.139  28.471  1.00  0.00     0.031 C 
ATOM     52  C   UNL A   1      36.312  29.996  29.336  1.00  0.00     0.029 A 
ATOM     53  C   UNL A   1      37.031  31.277  29.346  1.00  0.00     0.049 A 
ATOM     54  H   UNL A   1      39.183  31.358  29.393  1.00  0.00     0.167 HD
ATOM     55  C   UNL A   1      43.349  30.337  30.950  1.00  0.00     0.037 A 
ATOM     56  C   UNL A   1      36.494  32.582  29.469  1.00  0.00     0.037 A 
ATOM     57  C   UNL A   1      42.936  31.713  30.913  1.00  0.00     0.049 A 
ATOM     58  C   UNL A   1      37.540  33.398  30.087  1.00  0.00     0.074 A 
ATOM     59  C   UNL A   1      42.835  32.648  29.899  1.00  0.00     0.029 A 
ATOM     60  N   UNL A   1      42.087  32.136  31.912  1.00  0.00    -0.354 N 
ATOM     61  N   UNL A   1      37.735  33.370  31.369  1.00  0.00    -0.248 NA
ATOM     62  C   UNL A   1      38.293  34.411  29.355  1.00  0.00     0.031 C 
ATOM     63  C   UNL A   1      41.533  33.167  30.053  1.00  0.00     0.029 A 
ATOM     64  C   UNL A   1      41.099  32.898  31.344  1.00  0.00     0.049 A 
ATOM     65  H   UNL A   1      42.176  31.927  32.870  1.00  0.00     0.167 HD
ATOM     66  C   UNL A   1      38.968  33.912  31.485  1.00  0.00     0.074 A 
ATOM     67  C   UNL A   1      39.128  34.778  30.330  1.00  0.00     0.031 C 
ATOM     68  C   UNL A   1      39.874  33.091  32.062  1.00  0.00     0.037 A 
BRANCH  55  69
ATOM     69  C   UNL A   1      43.366  29.539  32.227  1.00  0.00     0.064 A 
ATOM     70  C   UNL A   1      42.231  28.892  32.763  1.00  0.00     0.173 A 
ATOM     71  C   UNL A   1      44.564  29.416  32.932  1.00  0.00     0.173 A 
ATOM     72  F   UNL A   1      41.000  29.138  32.284  1.00  0.00    -0.203 F 
ATOM     73  C   UNL A   1      42.329  28.039  33.854  1.00  0.00     0.198 A 
ATOM     74  C   UNL A   1      44.642  28.620  34.076  1.00  0.00     0.198 A 
ATOM     75  F   UNL A   1      45.651  30.094  32.535  1.00  0.00    -0.203 F 
ATOM     76  F   UNL A   1      41.243  27.383  34.288  1.00  0.00    -0.200 F 
ATOM     77  C   UNL A   1      43.537  27.902  34.511  1.00  0.00     0.200 A 
ATOM     78  F   UNL A   1      45.787  28.561  34.769  1.00  0.00    -0.200 F 
ATOM     79  F   UNL A   1      43.623  27.117  35.593  1.00  0.00    -0.200 F 
ENDBRANCH  55  69
BRANCH  56  80
ATOM     80  C   UNL A   1      35.213  33.544  29.421  1.00  0.00     0.064 A 
ATOM     81  C   UNL A   1      35.030  34.513  28.419  1.00  0.00     0.173 A 
ATOM     82  C   UNL A   1      34.456  33.858  30.620  1.00  0.00     0.173 A 
ATOM     83  F   UNL A   1      35.666  34.385  27.249  1.00  0.00    -0.203 F 
ATOM     84  C   UNL A   1      34.258  35.699  28.619  1.00  0.00     0.198 A 
ATOM     85  C   UNL A   1      33.739  35.057  30.834  1.00  0.00     0.198 A 
ATOM     86  F   UNL A   1      34.435  33.026  31.671  1.00  0.00    -0.203 F 
ATOM     87  F   UNL A   1      34.163  36.610  27.637  1.00  0.00    -0.200 F 
ATOM     88  C   UNL A   1      33.654  35.990  29.834  1.00  0.00     0.200 A 
ATOM     89  F   UNL A   1      33.197  35.321  32.036  1.00  0.00    -0.200 F 
ATOM     90  F   UNL A   1      33.027  37.160  30.044  1.00  0.00    -0.200 F 
ENDBRANCH  56  80
BRANCH  68  91
ATOM     91  C   UNL A   1      39.395  32.276  33.249  1.00  0.00     0.064 A 
ATOM     92  C   UNL A   1      39.518  32.862  34.512  1.00  0.00     0.173 A 
ATOM     93  C   UNL A   1      38.758  31.011  33.209  1.00  0.00     0.173 A 
ATOM     94  F   UNL A   1      40.149  34.039  34.637  1.00  0.00    -0.203 F 
ATOM     95  C   UNL A   1      39.024  32.247  35.662  1.00  0.00     0.198 A 
ATOM     96  C   UNL A   1      38.223  30.417  34.355  1.00  0.00     0.198 A 
ATOM     97  F   UNL A   1      38.645  30.310  32.075  1.00  0.00    -0.203 F 
ATOM     98  F   UNL A   1      39.203  32.834  36.853  1.00  0.00    -0.200 F 
ATOM     99  C   UNL A   1      38.359  31.035  35.582  1.00  0.00     0.200 A 
ATOM    100  F   UNL A   1      37.578  29.243  34.268  1.00  0.00    -0.200 F 
ATOM    101  F   UNL A   1      37.871  30.458  36.689  1.00  0.00    -0.200 F 
ENDBRANCH  68  91
ENDBRANCH  42  43
ENDBRANCH  35  37
ENDBRANCH  34  35
ENDBRANCH  33  34
ENDBRANCH   1  33
TORSDOF 17
ENDMDL
MODEL 3
REMARK VINA RESULT:     -12.6      4.416     10.265
REMARK SMILES Cc1c(C[NH2+]Cc2cccc(F)c2)c(C(=O)OCCOC(=O)c2ccc(-c3c4nc(c(-c5c(F)c(F)c(F)c(F)c5F)c5ccc([nH]5)c(-c5c(F)c(F)c(F)c(F)c5F)c5nc(c(-c6c(F)c(F)c(F)c(F)c6F)c6ccc3[nH]6)C=C5)C=C4)cc2)c(C)n1Cc1c(F)cccc1Cl
REMARK SMILES IDX 18 1 17 2 15 3 16 4 14 5 1 6 2 7 3 8 88 9 86 10 87 11 4 12
REMARK SMILES IDX 5 13 6 16 7 17 8 18 13 19 9 20 11 21 10 22 12 23 89 24 90 25
REMARK SMILES IDX 91 26 96 27 92 28 93 29 95 30 97 31 94 32 19 33 20 34 21 35
REMARK SMILES IDX 22 36 23 37 24 38 85 39 25 40 84 41 26 42 27 43 28 44 78 45
REMARK SMILES IDX 29 46 83 47 77 48 79 49 30 50 82 51 76 52 75 53 31 55 63 56
REMARK SMILES IDX 43 57 62 58 44 59 47 60 61 61 80 62 45 63 46 64 60 66 81 67
REMARK SMILES IDX 48 68 32 69 33 70 41 71 34 72 35 73 39 74 42 75 36 76 37 77
REMARK SMILES IDX 40 78 38 79 64 80 65 81 73 82 66 83 67 84 71 85 74 86 68 87
REMARK SMILES IDX 69 88 72 89 70 90 49 91 50 92 58 93 51 94 52 95 56 96 59 97
REMARK SMILES IDX 53 98 54 99 57 100 55 101
REMARK H PARENT 5 14 5 15 79 54 47 65
REMARK Flexibility Score: inf
ROOT
ATOM      1  C   UNL A   1      33.977  28.574  26.208  1.00  0.00     0.275 C 
ENDROOT
BRANCH   1   2
ATOM      2  O   UNL A   1      33.336  27.576  27.057  1.00  0.00    -0.458 OA
BRANCH   2   3
ATOM      3  C   UNL A   1      32.070  27.203  26.719  1.00  0.00     0.340 C 
ATOM      4  O   UNL A   1      31.064  27.655  27.288  1.00  0.00    -0.246 OA
BRANCH   3   5
ATOM      5  C   UNL A   1      32.001  26.292  25.568  1.00  0.00     0.089 A 
ATOM      6  C   UNL A   1      31.397  25.436  21.972  1.00  0.00     0.065 C 
ATOM      7  C   UNL A   1      31.722  25.549  23.426  1.00  0.00     0.025 A 
ATOM      8  C   UNL A   1      31.813  26.698  24.208  1.00  0.00     0.042 A 
ATOM      9  N   UNL A   1      31.962  24.451  24.251  1.00  0.00    -0.343 N 
ATOM     10  C   UNL A   1      31.944  24.898  25.572  1.00  0.00     0.030 A 
ATOM     11  C   UNL A   1      31.814  24.016  26.764  1.00  0.00     0.065 C 
BRANCH   8  12
ATOM     12  C   UNL A   1      31.684  28.132  23.785  1.00  0.00     0.300 C 
BRANCH  12  13
ATOM     13  N   UNL A   1      30.339  28.561  24.130  1.00  0.00    -0.339 N 
ATOM     14  H   UNL A   1      30.402  29.465  24.598  1.00  0.00     0.346 HD
ATOM     15  H   UNL A   1      29.943  27.833  24.725  1.00  0.00     0.346 HD
BRANCH  13  16
ATOM     16  C   UNL A   1      29.444  28.699  22.994  1.00  0.00     0.297 C 
BRANCH  16  17
ATOM     17  C   UNL A   1      29.026  30.112  22.648  1.00  0.00     0.009 A 
ATOM     18  C   UNL A   1      29.145  31.195  23.536  1.00  0.00     0.010 A 
ATOM     19  C   UNL A   1      28.492  30.357  21.375  1.00  0.00     0.048 A 
ATOM     20  C   UNL A   1      28.674  32.464  23.196  1.00  0.00     0.004 A 
ATOM     21  C   UNL A   1      28.047  31.631  21.036  1.00  0.00     0.123 A 
ATOM     22  C   UNL A   1      28.117  32.681  21.942  1.00  0.00     0.039 A 
ATOM     23  F   UNL A   1      27.532  31.845  19.818  1.00  0.00    -0.207 F 
ENDBRANCH  16  17
ENDBRANCH  13  16
ENDBRANCH  12  13
ENDBRANCH   8  12
BRANCH   9  24
ATOM     24  C   UNL A   1      32.011  23.041  23.792  1.00  0.00     0.162 C 
BRANCH  24  25
ATOM     25  C   UNL A   1      33.243  22.271  24.227  1.00  0.00     0.026 A 
ATOM     26  C   UNL A   1      33.104  20.980  24.755  1.00  0.00     0.129 A 
ATOM     27  C   UNL A   1      34.563  22.733  24.081  1.00  0.00     0.048 A 
ATOM     28  F   UNL A   1      31.915  20.372  24.735  1.00  0.00    -0.207 F 
ATOM     29  C   UNL A   1      34.179  20.231  25.233  1.00  0.00     0.040 A 
ATOM     30  C   UNL A   1      35.658  21.973  24.532  1.00  0.00     0.021 A 
ATOM     31  Cl  UNL A   1      34.951  24.199  23.252  1.00  0.00    -0.084 Cl
ATOM     32  C   UNL A   1      35.465  20.734  25.136  1.00  0.00     0.005 A 
ENDBRANCH  24  25
ENDBRANCH   9  24
ENDBRANCH   3   5
ENDBRANCH   2   3
ENDBRANCH   1   2
BRANCH   1  33
ATOM     33  C   UNL A   1      33.418  30.005  26.477  1.00  0.00     0.275 C 
BRANCH  33  34
ATOM     34  O   UNL A   1      33.673  30.657  27.791  1.00  0.00    -0.458 OA
BRANCH  34  35
ATOM     35  C   UNL A   1      34.804  31.446  27.902  1.00  0.00     0.338 C 
ATOM     36  O   UNL A   1      34.798  32.650  27.671  1.00  0.00    -0.246 OA
BRANCH  35  37
ATOM     37  C   UNL A   1      36.138  30.745  28.282  1.00  0.00     0.060 A 
ATOM     38  C   UNL A   1      37.095  30.430  27.327  1.00  0.00     0.016 A 
ATOM     39  C   UNL A   1      36.354  30.095  29.523  1.00  0.00     0.016 A 
ATOM     40  C   UNL A   1      38.238  29.575  27.636  1.00  0.00     0.010 A 
ATOM     41  C   UNL A   1      37.495  29.178  29.817  1.00  0.00     0.010 A 
ATOM     42  C   UNL A   1      38.508  28.875  28.884  1.00  0.00    -0.014 A 
BRANCH  42  43
ATOM     43  C   UNL A   1      39.547  27.541  28.833  1.00  0.00     0.031 A 
ATOM     44  C   UNL A   1      40.436  27.864  29.989  1.00  0.00     0.074 A 
ATOM     45  C   UNL A   1      39.959  26.371  28.132  1.00  0.00     0.049 A 
ATOM     46  N   UNL A   1      41.082  28.999  30.015  1.00  0.00    -0.248 NA
ATOM     47  C   UNL A   1      40.317  27.200  31.288  1.00  0.00     0.031 C 
ATOM     48  C   UNL A   1      39.454  25.839  26.846  1.00  0.00     0.029 A 
ATOM     49  N   UNL A   1      40.961  25.332  28.396  1.00  0.00    -0.354 N 
ATOM     50  C   UNL A   1      41.734  29.032  31.219  1.00  0.00     0.074 A 
ATOM     51  C   UNL A   1      41.018  28.061  32.037  1.00  0.00     0.031 C 
ATOM     52  C   UNL A   1      39.991  24.617  26.519  1.00  0.00     0.029 A 
ATOM     53  C   UNL A   1      40.989  24.165  27.497  1.00  0.00     0.049 A 
ATOM     54  H   UNL A   1      41.593  25.413  29.146  1.00  0.00     0.167 HD
ATOM     55  C   UNL A   1      43.079  29.240  31.138  1.00  0.00     0.037 A 
ATOM     56  C   UNL A   1      41.783  22.993  27.461  1.00  0.00     0.037 A 
ATOM     57  C   UNL A   1      43.831  28.027  31.308  1.00  0.00     0.049 A 
ATOM     58  C   UNL A   1      43.008  23.306  28.199  1.00  0.00     0.074 A 
ATOM     59  C   UNL A   1      43.664  26.907  32.101  1.00  0.00     0.029 A 
ATOM     60  N   UNL A   1      44.628  27.636  30.255  1.00  0.00    -0.354 N 
ATOM     61  N   UNL A   1      43.974  23.964  27.637  1.00  0.00    -0.248 NA
ATOM     62  C   UNL A   1      43.301  22.756  29.519  1.00  0.00     0.031 C 
ATOM     63  C   UNL A   1      43.795  25.835  31.196  1.00  0.00     0.029 A 
ATOM     64  C   UNL A   1      44.462  26.288  30.067  1.00  0.00     0.049 A 
ATOM     65  H   UNL A   1      45.215  28.224  29.727  1.00  0.00     0.167 HD
ATOM     66  C   UNL A   1      44.701  24.373  28.702  1.00  0.00     0.074 A 
ATOM     67  C   UNL A   1      44.448  23.399  29.748  1.00  0.00     0.031 C 
ATOM     68  C   UNL A   1      44.816  25.716  28.801  1.00  0.00     0.037 A 
BRANCH  55  69
ATOM     69  C   UNL A   1      43.506  30.321  30.183  1.00  0.00     0.064 A 
ATOM     70  C   UNL A   1      43.978  31.588  30.591  1.00  0.00     0.173 A 
ATOM     71  C   UNL A   1      43.445  30.075  28.810  1.00  0.00     0.173 A 
ATOM     72  F   UNL A   1      43.860  31.996  31.865  1.00  0.00    -0.203 F 
ATOM     73  C   UNL A   1      44.508  32.494  29.681  1.00  0.00     0.198 A 
ATOM     74  C   UNL A   1      43.906  31.019  27.892  1.00  0.00     0.198 A 
ATOM     75  F   UNL A   1      42.907  28.933  28.355  1.00  0.00    -0.203 F 
ATOM     76  F   UNL A   1      45.016  33.656  30.116  1.00  0.00    -0.200 F 
ATOM     77  C   UNL A   1      44.474  32.208  28.330  1.00  0.00     0.200 A 
ATOM     78  F   UNL A   1      43.786  30.785  26.578  1.00  0.00    -0.200 F 
ATOM     79  F   UNL A   1      44.941  33.101  27.447  1.00  0.00    -0.200 F 
ENDBRANCH  55  69
BRANCH  56  80
ATOM     80  C   UNL A   1      42.056  21.544  26.831  1.00  0.00     0.064 A 
ATOM     81  C   UNL A   1      41.852  20.355  27.553  1.00  0.00     0.173 A 
ATOM     82  C   UNL A   1      42.989  21.358  25.734  1.00  0.00     0.173 A 
ATOM     83  F   UNL A   1      41.028  20.351  28.607  1.00  0.00    -0.203 F 
ATOM     84  C   UNL A   1      42.562  19.146  27.271  1.00  0.00     0.198 A 
ATOM     85  C   UNL A   1      43.730  20.178  25.493  1.00  0.00     0.198 A 
ATOM     86  F   UNL A   1      43.268  22.351  24.878  1.00  0.00    -0.203 F 
ATOM     87  F   UNL A   1      42.358  18.058  28.029  1.00  0.00    -0.200 F 
ATOM     88  C   UNL A   1      43.527  19.072  26.277  1.00  0.00     0.200 A 
ATOM     89  F   UNL A   1      44.682  20.154  24.545  1.00  0.00    -0.200 F 
ATOM     90  F   UNL A   1      44.267  17.965  26.097  1.00  0.00    -0.200 F 
ENDBRANCH  56  80
BRANCH  68  91
ATOM     91  C   UNL A   1      45.048  26.477  27.509  1.00  0.00     0.064 A 
ATOM     92  C   UNL A   1      46.376  26.721  27.146  1.00  0.00     0.173 A 
ATOM     93  C   UNL A   1      44.062  26.900  26.584  1.00  0.00     0.173 A 
ATOM     94  F   UNL A   1      47.365  26.390  27.989  1.00  0.00    -0.203 F 
ATOM     95  C   UNL A   1      46.710  27.325  25.935  1.00  0.00     0.198 A 
ATOM     96  C   UNL A   1      44.400  27.464  25.350  1.00  0.00     0.198 A 
ATOM     97  F   UNL A   1      42.754  26.795  26.845  1.00  0.00    -0.203 F 
ATOM     98  F   UNL A   1      47.996  27.571  25.653  1.00  0.00    -0.200 F 
ATOM     99  C   UNL A   1      45.724  27.679  25.028  1.00  0.00     0.200 A 
ATOM    100  F   UNL A   1      43.437  27.802  24.478  1.00  0.00    -0.200 F 
ATOM    101  F   UNL A   1      46.054  28.242  23.858  1.00  0.00    -0.200 F 
ENDBRANCH  68  91
ENDBRANCH  42  43
ENDBRANCH  35  37
ENDBRANCH  34  35
ENDBRANCH  33  34
ENDBRANCH   1  33
TORSDOF 17
ENDMDL
