MODEL 1
REMARK VINA RESULT:     -13.0      0.000      0.000
REMARK SMILES O=C(OCCOC(=O)c1cc(-c2ccccc2)nc(Nc2nc3ccccc3s2)n1)c1ccc(-c2c3nc(c(-c4c(F)c(F)c(F)c(F)c4F)c4ccc([nH]4)c(-c4c(F)c(F)c(F)c(F)c4F)c4nc(c(-c5c(F)c(F)c(F)c(F)c5F)c5ccc2[nH]5)C=C4)C=C3)cc1
REMARK SMILES IDX 4 1 3 2 2 3 1 4 31 5 32 6 93 7 33 8 92 9 34 10 35 11 36 12
REMARK SMILES IDX 86 13 37 14 91 15 85 16 87 17 38 18 90 19 84 20 83 21 39 23
REMARK SMILES IDX 71 24 51 25 70 26 52 27 55 28 69 29 88 30 53 31 54 32 68 34
REMARK SMILES IDX 89 35 56 36 40 37 41 38 49 39 42 40 43 41 47 42 50 43 44 44
REMARK SMILES IDX 45 45 48 46 46 47 72 48 73 49 81 50 74 51 75 52 79 53 82 54
REMARK SMILES IDX 76 55 77 56 80 57 78 58 57 59 58 60 66 61 59 62 60 63 64 64
REMARK SMILES IDX 67 65 61 66 62 67 65 68 63 69 5 70 6 71 7 72 8 73 9 74 10 75
REMARK SMILES IDX 30 76 11 77 19 78 18 79 12 80 13 81 17 82 14 83 16 84 15 85
REMARK SMILES IDX 20 86 21 88 22 89 29 90 23 91 28 92 24 93 27 94 25 95 26 96
REMARK H PARENT 87 22 55 33 20 87
REMARK Flexibility Score: inf
ROOT
ATOM      1  C   UNL A   1      38.698  20.250  25.258  1.00  0.00     0.275 C 
ENDROOT
BRANCH   1   2
ATOM      2  O   UNL A   1      39.681  19.499  25.992  1.00  0.00    -0.458 OA
BRANCH   2   3
ATOM      3  C   UNL A   1      41.026  19.646  26.014  1.00  0.00     0.338 C 
ATOM      4  O   UNL A   1      41.741  18.696  25.708  1.00  0.00    -0.246 OA
BRANCH   3   5
ATOM      5  C   UNL A   1      41.699  20.890  26.493  1.00  0.00     0.060 A 
ATOM      6  C   UNL A   1      41.757  21.311  27.823  1.00  0.00     0.016 A 
ATOM      7  C   UNL A   1      42.249  21.728  25.511  1.00  0.00     0.016 A 
ATOM      8  C   UNL A   1      42.414  22.494  28.181  1.00  0.00     0.010 A 
ATOM      9  C   UNL A   1      42.898  22.918  25.861  1.00  0.00     0.010 A 
ATOM     10  C   UNL A   1      42.989  23.310  27.205  1.00  0.00    -0.014 A 
BRANCH  10  11
ATOM     11  C   UNL A   1      43.496  24.660  27.562  1.00  0.00     0.031 A 
ATOM     12  C   UNL A   1      42.472  25.741  27.794  1.00  0.00     0.074 A 
ATOM     13  C   UNL A   1      44.818  24.902  27.703  1.00  0.00     0.049 A 
ATOM     14  N   UNL A   1      42.645  27.006  28.072  1.00  0.00    -0.248 NA
ATOM     15  C   UNL A   1      41.053  25.336  27.732  1.00  0.00     0.031 C 
ATOM     16  C   UNL A   1      45.885  23.902  27.608  1.00  0.00     0.029 A 
ATOM     17  N   UNL A   1      45.502  26.076  27.922  1.00  0.00    -0.354 N 
ATOM     18  C   UNL A   1      41.370  27.525  28.271  1.00  0.00     0.074 A 
ATOM     19  C   UNL A   1      40.424  26.472  27.990  1.00  0.00     0.031 C 
ATOM     20  C   UNL A   1      47.083  24.513  27.685  1.00  0.00     0.029 A 
ATOM     21  C   UNL A   1      46.875  25.946  27.834  1.00  0.00     0.049 A 
ATOM     22  H   UNL A   1      45.054  26.929  28.121  1.00  0.00     0.167 HD
ATOM     23  C   UNL A   1      41.032  28.759  28.710  1.00  0.00     0.037 A 
ATOM     24  C   UNL A   1      47.833  26.898  27.839  1.00  0.00     0.037 A 
ATOM     25  C   UNL A   1      42.001  29.787  28.970  1.00  0.00     0.049 A 
ATOM     26  C   UNL A   1      47.396  28.320  28.045  1.00  0.00     0.074 A 
ATOM     27  C   UNL A   1      41.807  31.058  29.475  1.00  0.00     0.029 A 
ATOM     28  N   UNL A   1      43.361  29.652  28.722  1.00  0.00    -0.354 N 
ATOM     29  N   UNL A   1      46.190  28.794  28.247  1.00  0.00    -0.248 NA
ATOM     30  C   UNL A   1      48.457  29.334  28.067  1.00  0.00     0.031 C 
ATOM     31  C   UNL A   1      43.043  31.711  29.479  1.00  0.00     0.029 A 
ATOM     32  C   UNL A   1      44.014  30.830  29.026  1.00  0.00     0.049 A 
ATOM     33  H   UNL A   1      43.795  28.836  28.380  1.00  0.00     0.167 HD
ATOM     34  C   UNL A   1      46.353  30.145  28.501  1.00  0.00     0.074 A 
ATOM     35  C   UNL A   1      47.769  30.425  28.366  1.00  0.00     0.031 C 
ATOM     36  C   UNL A   1      45.426  31.061  28.873  1.00  0.00     0.037 A 
BRANCH  23  37
ATOM     37  C   UNL A   1      39.579  29.048  28.958  1.00  0.00     0.064 A 
ATOM     38  C   UNL A   1      38.721  29.429  27.913  1.00  0.00     0.173 A 
ATOM     39  C   UNL A   1      39.021  28.895  30.236  1.00  0.00     0.173 A 
ATOM     40  F   UNL A   1      39.203  29.600  26.672  1.00  0.00    -0.203 F 
ATOM     41  C   UNL A   1      37.367  29.665  28.142  1.00  0.00     0.198 A 
ATOM     42  C   UNL A   1      37.662  29.108  30.456  1.00  0.00     0.198 A 
ATOM     43  F   UNL A   1      39.793  28.529  31.271  1.00  0.00    -0.203 F 
ATOM     44  F   UNL A   1      36.577  30.061  27.134  1.00  0.00    -0.200 F 
ATOM     45  C   UNL A   1      36.837  29.497  29.412  1.00  0.00     0.200 A 
ATOM     46  F   UNL A   1      37.148  28.935  31.683  1.00  0.00    -0.200 F 
ATOM     47  F   UNL A   1      35.532  29.712  29.628  1.00  0.00    -0.200 F 
ENDBRANCH  23  37
BRANCH  24  48
ATOM     48  C   UNL A   1      49.281  26.589  27.658  1.00  0.00     0.064 A 
ATOM     49  C   UNL A   1      49.833  26.349  26.395  1.00  0.00     0.173 A 
ATOM     50  C   UNL A   1      50.130  26.406  28.760  1.00  0.00     0.173 A 
ATOM     51  F   UNL A   1      49.052  26.391  25.307  1.00  0.00    -0.203 F 
ATOM     52  C   UNL A   1      51.180  26.000  26.246  1.00  0.00     0.198 A 
ATOM     53  C   UNL A   1      51.486  26.118  28.614  1.00  0.00     0.198 A 
ATOM     54  F   UNL A   1      49.624  26.392  29.995  1.00  0.00    -0.203 F 
ATOM     55  F   UNL A   1      51.665  25.715  25.030  1.00  0.00    -0.200 F 
ATOM     56  C   UNL A   1      52.012  25.912  27.353  1.00  0.00     0.200 A 
ATOM     57  F   UNL A   1      52.264  25.997  29.698  1.00  0.00    -0.200 F 
ATOM     58  F   UNL A   1      53.303  25.586  27.210  1.00  0.00    -0.200 F 
ENDBRANCH  24  48
BRANCH  36  59
ATOM     59  C   UNL A   1      45.943  32.414  29.242  1.00  0.00     0.064 A 
ATOM     60  C   UNL A   1      46.411  32.702  30.530  1.00  0.00     0.173 A 
ATOM     61  C   UNL A   1      45.982  33.427  28.273  1.00  0.00     0.173 A 
ATOM     62  F   UNL A   1      46.360  31.769  31.491  1.00  0.00    -0.203 F 
ATOM     63  C   UNL A   1      46.886  33.971  30.840  1.00  0.00     0.198 A 
ATOM     64  C   UNL A   1      46.488  34.684  28.580  1.00  0.00     0.198 A 
ATOM     65  F   UNL A   1      45.539  33.193  27.029  1.00  0.00    -0.203 F 
ATOM     66  F   UNL A   1      47.281  34.247  32.090  1.00  0.00    -0.200 F 
ATOM     67  C   UNL A   1      46.933  34.957  29.864  1.00  0.00     0.200 A 
ATOM     68  F   UNL A   1      46.541  35.631  27.632  1.00  0.00    -0.200 F 
ATOM     69  F   UNL A   1      47.397  36.177  30.165  1.00  0.00    -0.200 F 
ENDBRANCH  36  59
ENDBRANCH  10  11
ENDBRANCH   3   5
ENDBRANCH   2   3
ENDBRANCH   1   2
BRANCH   1  70
ATOM     70  C   UNL A   1      38.502  21.690  25.733  1.00  0.00     0.275 C 
BRANCH  70  71
ATOM     71  O   UNL A   1      37.122  22.088  25.781  1.00  0.00    -0.457 OA
BRANCH  71  72
ATOM     72  C   UNL A   1      36.760  23.015  24.849  1.00  0.00     0.357 C 
ATOM     73  O   UNL A   1      37.450  23.393  23.913  1.00  0.00    -0.244 OA
BRANCH  72  74
ATOM     74  C   UNL A   1      35.358  23.462  25.087  1.00  0.00     0.154 A 
ATOM     75  C   UNL A   1      35.066  24.766  25.424  1.00  0.00     0.065 A 
ATOM     76  N   UNL A   1      34.428  22.487  24.965  1.00  0.00    -0.206 NA
ATOM     77  C   UNL A   1      33.729  25.013  25.615  1.00  0.00     0.077 A 
ATOM     78  C   UNL A   1      33.159  22.825  25.182  1.00  0.00     0.230 A 
ATOM     79  N   UNL A   1      32.786  24.065  25.454  1.00  0.00    -0.213 NA
BRANCH  77  80
ATOM     80  C   UNL A   1      33.125  26.274  26.033  1.00  0.00     0.000 A 
ATOM     81  C   UNL A   1      33.970  27.390  26.227  1.00  0.00     0.010 A 
ATOM     82  C   UNL A   1      31.787  26.369  26.423  1.00  0.00     0.010 A 
ATOM     83  C   UNL A   1      33.520  28.541  26.854  1.00  0.00     0.001 A 
ATOM     84  C   UNL A   1      31.341  27.516  27.080  1.00  0.00     0.001 A 
ATOM     85  C   UNL A   1      32.218  28.577  27.320  1.00  0.00     0.000 A 
ENDBRANCH  77  80
BRANCH  78  86
ATOM     86  N   UNL A   1      32.113  21.926  25.114  1.00  0.00    -0.300 N 
ATOM     87  H   UNL A   1      31.208  22.263  25.304  1.00  0.00     0.172 HD
BRANCH  86  88
ATOM     88  C   UNL A   1      32.245  20.633  24.812  1.00  0.00     0.190 A 
ATOM     89  N   UNL A   1      32.242  19.654  25.685  1.00  0.00    -0.220 NA
ATOM     90  S   UNL A   1      32.368  20.137  23.171  1.00  0.00    -0.097 S 
ATOM     91  C   UNL A   1      32.604  18.475  25.075  1.00  0.00     0.084 A 
ATOM     92  C   UNL A   1      32.795  18.556  23.697  1.00  0.00     0.056 A 
ATOM     93  C   UNL A   1      32.833  17.250  25.725  1.00  0.00     0.030 A 
ATOM     94  C   UNL A   1      33.272  17.471  22.950  1.00  0.00     0.021 A 
ATOM     95  C   UNL A   1      33.343  16.171  25.001  1.00  0.00     0.002 A 
ATOM     96  C   UNL A   1      33.574  16.288  23.633  1.00  0.00     0.002 A 
ENDBRANCH  86  88
ENDBRANCH  78  86
ENDBRANCH  72  74
ENDBRANCH  71  72
ENDBRANCH  70  71
ENDBRANCH   1  70
TORSDOF 14
ENDMDL
MODEL 2
REMARK VINA RESULT:     -12.9      5.932     10.731
REMARK SMILES O=C(OCCOC(=O)c1cc(-c2ccccc2)nc(Nc2nc3ccccc3s2)n1)c1ccc(-c2c3nc(c(-c4c(F)c(F)c(F)c(F)c4F)c4ccc([nH]4)c(-c4c(F)c(F)c(F)c(F)c4F)c4nc(c(-c5c(F)c(F)c(F)c(F)c5F)c5ccc2[nH]5)C=C4)C=C3)cc1
REMARK SMILES IDX 4 1 3 2 2 3 1 4 31 5 32 6 93 7 33 8 92 9 34 10 35 11 36 12
REMARK SMILES IDX 86 13 37 14 91 15 85 16 87 17 38 18 90 19 84 20 83 21 39 23
REMARK SMILES IDX 71 24 51 25 70 26 52 27 55 28 69 29 88 30 53 31 54 32 68 34
REMARK SMILES IDX 89 35 56 36 40 37 41 38 49 39 42 40 43 41 47 42 50 43 44 44
REMARK SMILES IDX 45 45 48 46 46 47 72 48 73 49 81 50 74 51 75 52 79 53 82 54
REMARK SMILES IDX 76 55 77 56 80 57 78 58 57 59 58 60 66 61 59 62 60 63 64 64
REMARK SMILES IDX 67 65 61 66 62 67 65 68 63 69 5 70 6 71 7 72 8 73 9 74 10 75
REMARK SMILES IDX 30 76 11 77 19 78 18 79 12 80 13 81 17 82 14 83 16 84 15 85
REMARK SMILES IDX 20 86 21 88 22 89 29 90 23 91 28 92 24 93 27 94 25 95 26 96
REMARK H PARENT 87 22 55 33 20 87
REMARK Flexibility Score: inf
ROOT
ATOM      1  C   UNL A   1      34.414  33.220  28.605  1.00  0.00     0.275 C 
ENDROOT
BRANCH   1   2
ATOM      2  O   UNL A   1      33.837  31.916  28.419  1.00  0.00    -0.458 OA
BRANCH   2   3
ATOM      3  C   UNL A   1      34.368  30.825  27.819  1.00  0.00     0.338 C 
ATOM      4  O   UNL A   1      33.703  30.210  26.990  1.00  0.00    -0.246 OA
BRANCH   3   5
ATOM      5  C   UNL A   1      35.701  30.264  28.188  1.00  0.00     0.060 A 
ATOM      6  C   UNL A   1      36.023  29.708  29.429  1.00  0.00     0.016 A 
ATOM      7  C   UNL A   1      36.721  30.375  27.231  1.00  0.00     0.016 A 
ATOM      8  C   UNL A   1      37.303  29.202  29.686  1.00  0.00     0.010 A 
ATOM      9  C   UNL A   1      38.005  29.880  27.485  1.00  0.00     0.010 A 
ATOM     10  C   UNL A   1      38.307  29.285  28.719  1.00  0.00    -0.014 A 
BRANCH  10  11
ATOM     11  C   UNL A   1      39.710  28.942  29.066  1.00  0.00     0.031 A 
ATOM     12  C   UNL A   1      40.510  29.985  29.804  1.00  0.00     0.074 A 
ATOM     13  C   UNL A   1      40.238  27.737  28.761  1.00  0.00     0.049 A 
ATOM     14  N   UNL A   1      41.760  29.959  30.185  1.00  0.00    -0.248 NA
ATOM     15  C   UNL A   1      39.796  31.218  30.193  1.00  0.00     0.031 C 
ATOM     16  C   UNL A   1      39.517  26.618  28.146  1.00  0.00     0.029 A 
ATOM     17  N   UNL A   1      41.519  27.254  28.892  1.00  0.00    -0.354 N 
ATOM     18  C   UNL A   1      41.959  31.136  30.899  1.00  0.00     0.074 A 
ATOM     19  C   UNL A   1      40.739  31.903  30.822  1.00  0.00     0.031 C 
ATOM     20  C   UNL A   1      40.379  25.618  27.881  1.00  0.00     0.029 A 
ATOM     21  C   UNL A   1      41.713  26.019  28.304  1.00  0.00     0.049 A 
ATOM     22  H   UNL A   1      42.233  27.744  29.361  1.00  0.00     0.167 HD
ATOM     23  C   UNL A   1      43.052  31.507  31.605  1.00  0.00     0.037 A 
ATOM     24  C   UNL A   1      42.857  25.327  28.107  1.00  0.00     0.037 A 
ATOM     25  C   UNL A   1      44.254  30.723  31.651  1.00  0.00     0.049 A 
ATOM     26  C   UNL A   1      44.124  25.911  28.661  1.00  0.00     0.074 A 
ATOM     27  C   UNL A   1      45.411  30.946  32.373  1.00  0.00     0.029 A 
ATOM     28  N   UNL A   1      44.450  29.559  30.918  1.00  0.00    -0.354 N 
ATOM     29  N   UNL A   1      44.295  27.016  29.347  1.00  0.00    -0.248 NA
ATOM     30  C   UNL A   1      45.350  25.131  28.453  1.00  0.00     0.031 C 
ATOM     31  C   UNL A   1      46.327  29.946  32.033  1.00  0.00     0.029 A 
ATOM     32  C   UNL A   1      45.724  29.073  31.140  1.00  0.00     0.049 A 
ATOM     33  H   UNL A   1      43.780  29.143  30.329  1.00  0.00     0.167 HD
ATOM     34  C   UNL A   1      45.627  27.025  29.722  1.00  0.00     0.074 A 
ATOM     35  C   UNL A   1      46.233  25.846  29.134  1.00  0.00     0.031 C 
ATOM     36  C   UNL A   1      46.281  27.895  30.529  1.00  0.00     0.037 A 
BRANCH  23  37
ATOM     37  C   UNL A   1      42.983  32.783  32.395  1.00  0.00     0.064 A 
ATOM     38  C   UNL A   1      43.212  34.030  31.789  1.00  0.00     0.173 A 
ATOM     39  C   UNL A   1      42.637  32.774  33.754  1.00  0.00     0.173 A 
ATOM     40  F   UNL A   1      43.556  34.098  30.492  1.00  0.00    -0.203 F 
ATOM     41  C   UNL A   1      43.116  35.214  32.516  1.00  0.00     0.198 A 
ATOM     42  C   UNL A   1      42.519  33.962  34.472  1.00  0.00     0.198 A 
ATOM     43  F   UNL A   1      42.404  31.613  34.383  1.00  0.00    -0.203 F 
ATOM     44  F   UNL A   1      43.373  36.388  31.923  1.00  0.00    -0.200 F 
ATOM     45  C   UNL A   1      42.762  35.179  33.856  1.00  0.00     0.200 A 
ATOM     46  F   UNL A   1      42.166  33.927  35.766  1.00  0.00    -0.200 F 
ATOM     47  F   UNL A   1      42.658  36.319  34.553  1.00  0.00    -0.200 F 
ENDBRANCH  23  37
BRANCH  24  48
ATOM     48  C   UNL A   1      42.900  24.026  27.378  1.00  0.00     0.064 A 
ATOM     49  C   UNL A   1      43.181  23.954  26.010  1.00  0.00     0.173 A 
ATOM     50  C   UNL A   1      42.540  22.826  28.010  1.00  0.00     0.173 A 
ATOM     51  F   UNL A   1      43.418  25.077  25.318  1.00  0.00    -0.203 F 
ATOM     52  C   UNL A   1      43.157  22.733  25.327  1.00  0.00     0.198 A 
ATOM     53  C   UNL A   1      42.573  21.599  27.349  1.00  0.00     0.198 A 
ATOM     54  F   UNL A   1      42.040  22.849  29.248  1.00  0.00    -0.203 F 
ATOM     55  F   UNL A   1      43.369  22.703  24.004  1.00  0.00    -0.200 F 
ATOM     56  C   UNL A   1      42.881  21.552  26.003  1.00  0.00     0.200 A 
ATOM     57  F   UNL A   1      42.264  20.475  28.010  1.00  0.00    -0.200 F 
ATOM     58  F   UNL A   1      42.867  20.382  25.351  1.00  0.00    -0.200 F 
ENDBRANCH  24  48
BRANCH  36  59
ATOM     59  C   UNL A   1      47.688  27.541  30.885  1.00  0.00     0.064 A 
ATOM     60  C   UNL A   1      47.990  26.673  31.942  1.00  0.00     0.173 A 
ATOM     61  C   UNL A   1      48.747  28.072  30.133  1.00  0.00     0.173 A 
ATOM     62  F   UNL A   1      47.007  26.170  32.703  1.00  0.00    -0.203 F 
ATOM     63  C   UNL A   1      49.310  26.363  32.246  1.00  0.00     0.198 A 
ATOM     64  C   UNL A   1      50.063  27.732  30.420  1.00  0.00     0.198 A 
ATOM     65  F   UNL A   1      48.501  28.909  29.114  1.00  0.00    -0.203 F 
ATOM     66  F   UNL A   1      49.585  25.574  33.293  1.00  0.00    -0.200 F 
ATOM     67  C   UNL A   1      50.344  26.885  31.480  1.00  0.00     0.200 A 
ATOM     68  F   UNL A   1      51.058  28.230  29.672  1.00  0.00    -0.200 F 
ATOM     69  F   UNL A   1      51.615  26.578  31.772  1.00  0.00    -0.200 F 
ENDBRANCH  36  59
ENDBRANCH  10  11
ENDBRANCH   3   5
ENDBRANCH   2   3
ENDBRANCH   1   2
BRANCH   1  70
ATOM     70  C   UNL A   1      34.567  33.653  30.064  1.00  0.00     0.275 C 
BRANCH  70  71
ATOM     71  O   UNL A   1      34.476  32.560  30.992  1.00  0.00    -0.457 OA
BRANCH  71  72
ATOM     72  C   UNL A   1      34.403  32.926  32.304  1.00  0.00     0.357 C 
ATOM     73  O   UNL A   1      33.454  33.480  32.838  1.00  0.00    -0.244 OA
BRANCH  72  74
ATOM     74  C   UNL A   1      35.630  32.488  33.028  1.00  0.00     0.154 A 
ATOM     75  C   UNL A   1      36.293  31.328  32.685  1.00  0.00     0.065 A 
ATOM     76  N   UNL A   1      36.009  33.303  34.039  1.00  0.00    -0.206 NA
ATOM     77  C   UNL A   1      37.400  31.064  33.452  1.00  0.00     0.077 A 
ATOM     78  C   UNL A   1      37.091  32.953  34.731  1.00  0.00     0.230 A 
ATOM     79  N   UNL A   1      37.816  31.888  34.433  1.00  0.00    -0.213 NA
BRANCH  77  80
ATOM     80  C   UNL A   1      38.262  29.890  33.364  1.00  0.00     0.000 A 
ATOM     81  C   UNL A   1      39.616  30.021  33.747  1.00  0.00     0.010 A 
ATOM     82  C   UNL A   1      37.851  28.705  32.748  1.00  0.00     0.010 A 
ATOM     83  C   UNL A   1      40.549  29.037  33.464  1.00  0.00     0.001 A 
ATOM     84  C   UNL A   1      38.795  27.726  32.437  1.00  0.00     0.001 A 
ATOM     85  C   UNL A   1      40.140  27.914  32.766  1.00  0.00     0.000 A 
ENDBRANCH  77  80
BRANCH  78  86
ATOM     86  N   UNL A   1      37.574  33.679  35.801  1.00  0.00    -0.300 N 
ATOM     87  H   UNL A   1      37.819  34.619  35.642  1.00  0.00     0.172 HD
BRANCH  86  88
ATOM     88  C   UNL A   1      37.732  33.195  37.035  1.00  0.00     0.190 A 
ATOM     89  N   UNL A   1      37.005  32.241  37.565  1.00  0.00    -0.220 NA
ATOM     90  S   UNL A   1      39.004  33.774  38.034  1.00  0.00    -0.097 S 
ATOM     91  C   UNL A   1      37.286  32.122  38.907  1.00  0.00     0.084 A 
ATOM     92  C   UNL A   1      38.311  32.945  39.372  1.00  0.00     0.056 A 
ATOM     93  C   UNL A   1      36.607  31.296  39.819  1.00  0.00     0.030 A 
ATOM     94  C   UNL A   1      38.639  33.021  40.732  1.00  0.00     0.021 A 
ATOM     95  C   UNL A   1      36.898  31.388  41.181  1.00  0.00     0.002 A 
ATOM     96  C   UNL A   1      37.892  32.253  41.630  1.00  0.00     0.002 A 
ENDBRANCH  86  88
ENDBRANCH  78  86
ENDBRANCH  72  74
ENDBRANCH  71  72
ENDBRANCH  70  71
ENDBRANCH   1  70
TORSDOF 14
ENDMDL
MODEL 3
REMARK VINA RESULT:     -12.9      4.990     11.193
REMARK SMILES O=C(OCCOC(=O)c1cc(-c2ccccc2)nc(Nc2nc3ccccc3s2)n1)c1ccc(-c2c3nc(c(-c4c(F)c(F)c(F)c(F)c4F)c4ccc([nH]4)c(-c4c(F)c(F)c(F)c(F)c4F)c4nc(c(-c5c(F)c(F)c(F)c(F)c5F)c5ccc2[nH]5)C=C4)C=C3)cc1
REMARK SMILES IDX 4 1 3 2 2 3 1 4 31 5 32 6 93 7 33 8 92 9 34 10 35 11 36 12
REMARK SMILES IDX 86 13 37 14 91 15 85 16 87 17 38 18 90 19 84 20 83 21 39 23
REMARK SMILES IDX 71 24 51 25 70 26 52 27 55 28 69 29 88 30 53 31 54 32 68 34
REMARK SMILES IDX 89 35 56 36 40 37 41 38 49 39 42 40 43 41 47 42 50 43 44 44
REMARK SMILES IDX 45 45 48 46 46 47 72 48 73 49 81 50 74 51 75 52 79 53 82 54
REMARK SMILES IDX 76 55 77 56 80 57 78 58 57 59 58 60 66 61 59 62 60 63 64 64
REMARK SMILES IDX 67 65 61 66 62 67 65 68 63 69 5 70 6 71 7 72 8 73 9 74 10 75
REMARK SMILES IDX 30 76 11 77 19 78 18 79 12 80 13 81 17 82 14 83 16 84 15 85
REMARK SMILES IDX 20 86 21 88 22 89 29 90 23 91 28 92 24 93 27 94 25 95 26 96
REMARK H PARENT 87 22 55 33 20 87
REMARK Flexibility Score: inf
ROOT
ATOM      1  C   UNL A   1      41.297  21.236  26.571  1.00  0.00     0.275 C 
ENDROOT
BRANCH   1   2
ATOM      2  O   UNL A   1      40.218  21.757  25.775  1.00  0.00    -0.458 OA
BRANCH   2   3
ATOM      3  C   UNL A   1      39.244  22.630  26.124  1.00  0.00     0.338 C 
ATOM      4  O   UNL A   1      38.074  22.362  25.863  1.00  0.00    -0.246 OA
BRANCH   3   5
ATOM      5  C   UNL A   1      39.529  23.964  26.729  1.00  0.00     0.060 A 
ATOM      6  C   UNL A   1      40.238  24.994  26.107  1.00  0.00     0.016 A 
ATOM      7  C   UNL A   1      39.108  24.160  28.054  1.00  0.00     0.016 A 
ATOM      8  C   UNL A   1      40.456  26.217  26.752  1.00  0.00     0.010 A 
ATOM      9  C   UNL A   1      39.332  25.377  28.708  1.00  0.00     0.010 A 
ATOM     10  C   UNL A   1      40.008  26.421  28.058  1.00  0.00    -0.014 A 
BRANCH  10  11
ATOM     11  C   UNL A   1      40.421  27.633  28.811  1.00  0.00     0.031 A 
ATOM     12  C   UNL A   1      41.806  27.633  29.407  1.00  0.00     0.074 A 
ATOM     13  C   UNL A   1      39.604  28.701  28.931  1.00  0.00     0.049 A 
ATOM     14  N   UNL A   1      42.395  28.539  30.142  1.00  0.00    -0.248 NA
ATOM     15  C   UNL A   1      42.657  26.463  29.111  1.00  0.00     0.031 C 
ATOM     16  C   UNL A   1      38.288  28.846  28.302  1.00  0.00     0.029 A 
ATOM     17  N   UNL A   1      39.738  29.863  29.656  1.00  0.00    -0.354 N 
ATOM     18  C   UNL A   1      43.690  28.074  30.344  1.00  0.00     0.074 A 
ATOM     19  C   UNL A   1      43.782  26.766  29.741  1.00  0.00     0.031 C 
ATOM     20  C   UNL A   1      37.706  29.984  28.730  1.00  0.00     0.029 A 
ATOM     21  C   UNL A   1      38.603  30.650  29.664  1.00  0.00     0.049 A 
ATOM     22  H   UNL A   1      40.567  30.110  30.127  1.00  0.00     0.167 HD
ATOM     23  C   UNL A   1      44.725  28.719  30.931  1.00  0.00     0.037 A 
ATOM     24  C   UNL A   1      38.328  31.761  30.383  1.00  0.00     0.037 A 
ATOM     25  C   UNL A   1      44.595  30.018  31.529  1.00  0.00     0.049 A 
ATOM     26  C   UNL A   1      39.417  32.304  31.262  1.00  0.00     0.074 A 
ATOM     27  C   UNL A   1      45.569  30.813  32.102  1.00  0.00     0.029 A 
ATOM     28  N   UNL A   1      43.392  30.704  31.643  1.00  0.00    -0.354 N 
ATOM     29  N   UNL A   1      40.640  31.863  31.431  1.00  0.00    -0.248 NA
ATOM     30  C   UNL A   1      39.101  33.522  32.017  1.00  0.00     0.031 C 
ATOM     31  C   UNL A   1      44.945  31.955  32.612  1.00  0.00     0.029 A 
ATOM     32  C   UNL A   1      43.592  31.896  32.312  1.00  0.00     0.049 A 
ATOM     33  H   UNL A   1      42.527  30.386  31.297  1.00  0.00     0.167 HD
ATOM     34  C   UNL A   1      41.267  32.792  32.245  1.00  0.00     0.074 A 
ATOM     35  C   UNL A   1      40.269  33.787  32.585  1.00  0.00     0.031 C 
ATOM     36  C   UNL A   1      42.565  32.852  32.628  1.00  0.00     0.037 A 
BRANCH  23  37
ATOM     37  C   UNL A   1      46.070  28.050  30.925  1.00  0.00     0.064 A 
ATOM     38  C   UNL A   1      46.399  27.065  31.872  1.00  0.00     0.173 A 
ATOM     39  C   UNL A   1      47.022  28.351  29.941  1.00  0.00     0.173 A 
ATOM     40  F   UNL A   1      45.529  26.744  32.843  1.00  0.00    -0.203 F 
ATOM     41  C   UNL A   1      47.635  26.423  31.844  1.00  0.00     0.198 A 
ATOM     42  C   UNL A   1      48.248  27.690  29.902  1.00  0.00     0.198 A 
ATOM     43  F   UNL A   1      46.760  29.280  29.009  1.00  0.00    -0.203 F 
ATOM     44  F   UNL A   1      47.938  25.512  32.779  1.00  0.00    -0.200 F 
ATOM     45  C   UNL A   1      48.556  26.731  30.855  1.00  0.00     0.200 A 
ATOM     46  F   UNL A   1      49.134  27.981  28.938  1.00  0.00    -0.200 F 
ATOM     47  F   UNL A   1      49.740  26.105  30.821  1.00  0.00    -0.200 F 
ENDBRANCH  23  37
BRANCH  24  48
ATOM     48  C   UNL A   1      37.008  32.454  30.327  1.00  0.00     0.064 A 
ATOM     49  C   UNL A   1      36.704  33.385  29.329  1.00  0.00     0.173 A 
ATOM     50  C   UNL A   1      36.057  32.292  31.346  1.00  0.00     0.173 A 
ATOM     51  F   UNL A   1      37.614  33.677  28.389  1.00  0.00    -0.203 F 
ATOM     52  C   UNL A   1      35.486  34.074  29.325  1.00  0.00     0.198 A 
ATOM     53  C   UNL A   1      34.818  32.930  31.314  1.00  0.00     0.198 A 
ATOM     54  F   UNL A   1      36.370  31.600  32.444  1.00  0.00    -0.203 F 
ATOM     55  F   UNL A   1      35.248  35.005  28.392  1.00  0.00    -0.200 F 
ATOM     56  C   UNL A   1      34.532  33.824  30.302  1.00  0.00     0.200 A 
ATOM     57  F   UNL A   1      33.926  32.706  32.290  1.00  0.00    -0.200 F 
ATOM     58  F   UNL A   1      33.362  34.477  30.293  1.00  0.00    -0.200 F 
ENDBRANCH  24  48
BRANCH  36  59
ATOM     59  C   UNL A   1      42.979  34.079  33.375  1.00  0.00     0.064 A 
ATOM     60  C   UNL A   1      43.289  35.277  32.720  1.00  0.00     0.173 A 
ATOM     61  C   UNL A   1      43.045  34.046  34.776  1.00  0.00     0.173 A 
ATOM     62  F   UNL A   1      43.267  35.338  31.380  1.00  0.00    -0.203 F 
ATOM     63  C   UNL A   1      43.669  36.400  33.445  1.00  0.00     0.198 A 
ATOM     64  C   UNL A   1      43.394  35.181  35.498  1.00  0.00     0.198 A 
ATOM     65  F   UNL A   1      42.759  32.917  35.442  1.00  0.00    -0.203 F 
ATOM     66  F   UNL A   1      44.014  37.523  32.801  1.00  0.00    -0.200 F 
ATOM     67  C   UNL A   1      43.712  36.354  34.832  1.00  0.00     0.200 A 
ATOM     68  F   UNL A   1      43.425  35.136  36.837  1.00  0.00    -0.200 F 
ATOM     69  F   UNL A   1      44.073  37.441  35.527  1.00  0.00    -0.200 F 
ENDBRANCH  36  59
ENDBRANCH  10  11
ENDBRANCH   3   5
ENDBRANCH   2   3
ENDBRANCH   1   2
BRANCH   1  70
ATOM     70  C   UNL A   1      42.689  21.716  26.158  1.00  0.00     0.275 C 
BRANCH  70  71
ATOM     71  O   UNL A   1      42.673  22.587  25.015  1.00  0.00    -0.457 OA
BRANCH  71  72
ATOM     72  C   UNL A   1      43.873  22.723  24.381  1.00  0.00     0.357 C 
ATOM     73  O   UNL A   1      44.356  21.928  23.589  1.00  0.00    -0.244 OA
BRANCH  72  74
ATOM     74  C   UNL A   1      44.494  24.031  24.736  1.00  0.00     0.154 A 
ATOM     75  C   UNL A   1      43.726  25.129  25.060  1.00  0.00     0.065 A 
ATOM     76  N   UNL A   1      45.846  24.042  24.690  1.00  0.00    -0.206 NA
ATOM     77  C   UNL A   1      44.451  26.256  25.356  1.00  0.00     0.077 A 
ATOM     78  C   UNL A   1      46.456  25.189  24.983  1.00  0.00     0.230 A 
ATOM     79  N   UNL A   1      45.797  26.273  25.359  1.00  0.00    -0.213 NA
BRANCH  77  80
ATOM     80  C   UNL A   1      43.918  27.576  25.676  1.00  0.00     0.000 A 
ATOM     81  C   UNL A   1      44.654  28.401  26.556  1.00  0.00     0.010 A 
ATOM     82  C   UNL A   1      42.634  27.976  25.297  1.00  0.00     0.010 A 
ATOM     83  C   UNL A   1      44.107  29.552  27.100  1.00  0.00     0.001 A 
ATOM     84  C   UNL A   1      42.071  29.118  25.867  1.00  0.00     0.001 A 
ATOM     85  C   UNL A   1      42.798  29.878  26.788  1.00  0.00     0.000 A 
ENDBRANCH  77  80
BRANCH  78  86
ATOM     86  N   UNL A   1      47.827  25.347  24.953  1.00  0.00    -0.300 N 
ATOM     87  H   UNL A   1      48.359  24.855  25.618  1.00  0.00     0.172 HD
BRANCH  86  88
ATOM     88  C   UNL A   1      48.480  26.123  24.084  1.00  0.00     0.190 A 
ATOM     89  N   UNL A   1      48.197  26.222  22.808  1.00  0.00    -0.220 NA
ATOM     90  S   UNL A   1      49.756  27.140  24.623  1.00  0.00    -0.097 S 
ATOM     91  C   UNL A   1      49.178  26.937  22.159  1.00  0.00     0.084 A 
ATOM     92  C   UNL A   1      50.172  27.460  22.985  1.00  0.00     0.056 A 
ATOM     93  C   UNL A   1      49.273  27.130  20.771  1.00  0.00     0.030 A 
ATOM     94  C   UNL A   1      51.297  28.114  22.467  1.00  0.00     0.021 A 
ATOM     95  C   UNL A   1      50.406  27.747  20.237  1.00  0.00     0.002 A 
ATOM     96  C   UNL A   1      51.411  28.219  21.076  1.00  0.00     0.002 A 
ENDBRANCH  86  88
ENDBRANCH  78  86
ENDBRANCH  72  74
ENDBRANCH  71  72
ENDBRANCH  70  71
ENDBRANCH   1  70
TORSDOF 14
ENDMDL
