MODEL 1
REMARK VINA RESULT:     -12.1      0.000      0.000
REMARK SMILES COC(=O)C[C@@H](NC(=O)c1ccccc1C(=O)OCCOC(=O)c1ccc(-c2c3nc(c(-c4c(F)c(F)c(F)c(F)c4F)c4ccc([nH]4)c(-c4c(F)c(F)c(F)c(F)c4F)c4nc(c(-c5c(F)c(F)c(F)c(F)c5F)c5ccc2[nH]5)C=C4)C=C3)cc1)c1cccc(C)c1C
REMARK SMILES IDX 18 1 16 2 17 3 15 4 10 5 11 6 12 7 14 8 13 9 8 10 7 11 9 13
REMARK SMILES IDX 6 14 5 15 3 16 4 17 2 18 1 19 87 20 88 21 93 22 89 23 91 24
REMARK SMILES IDX 94 25 90 26 92 27 19 28 20 29 21 30 22 31 23 32 24 33 25 34
REMARK SMILES IDX 86 35 26 36 85 37 27 38 28 39 29 40 79 41 30 42 84 43 78 44
REMARK SMILES IDX 80 45 31 46 83 47 77 48 76 49 32 51 64 52 44 53 63 54 45 55
REMARK SMILES IDX 48 56 62 57 81 58 46 59 47 60 61 62 82 63 49 64 33 65 34 66
REMARK SMILES IDX 42 67 35 68 36 69 40 70 43 71 37 72 38 73 41 74 39 75 65 76
REMARK SMILES IDX 66 77 74 78 67 79 68 80 72 81 75 82 69 83 70 84 73 85 71 86
REMARK SMILES IDX 50 87 51 88 59 89 52 90 53 91 57 92 60 93 54 94 55 95 58 96
REMARK SMILES IDX 56 97
REMARK H PARENT 7 12 80 50 48 61
REMARK Flexibility Score: inf
ROOT
ATOM      1  O   UNL A   1      33.264  28.273  25.160  1.00  0.00    -0.458 OA
ENDROOT
BRANCH   1   2
ATOM      2  C   UNL A   1      33.818  27.744  24.023  1.00  0.00     0.339 C 
ATOM      3  O   UNL A   1      34.233  28.451  23.116  1.00  0.00    -0.246 OA
BRANCH   2   4
ATOM      4  C   UNL A   1      34.048  26.252  24.055  1.00  0.00     0.072 A 
ATOM      5  C   UNL A   1      33.540  25.470  23.011  1.00  0.00     0.054 A 
ATOM      6  C   UNL A   1      33.738  24.086  22.906  1.00  0.00     0.015 A 
ATOM      7  C   UNL A   1      34.558  23.453  23.818  1.00  0.00     0.001 A 
ATOM      8  C   UNL A   1      34.847  25.582  24.993  1.00  0.00     0.016 A 
ATOM      9  C   UNL A   1      35.124  24.203  24.848  1.00  0.00     0.001 A 
BRANCH   5  10
ATOM     10  C   UNL A   1      32.798  26.030  21.906  1.00  0.00     0.252 C 
ATOM     11  N   UNL A   1      31.578  26.570  22.135  1.00  0.00    -0.345 N 
ATOM     12  H   UNL A   1      31.366  27.278  21.483  1.00  0.00     0.164 HD
ATOM     13  O   UNL A   1      33.339  26.122  20.807  1.00  0.00    -0.269 OA
BRANCH  11  14
ATOM     14  C   UNL A   1      30.474  26.374  23.111  1.00  0.00     0.124 C 
BRANCH  14  15
ATOM     15  C   UNL A   1      30.080  27.816  23.546  1.00  0.00     0.152 C 
BRANCH  15  16
ATOM     16  C   UNL A   1      30.197  28.813  22.406  1.00  0.00     0.307 C 
ATOM     17  O   UNL A   1      31.242  29.351  22.068  1.00  0.00    -0.252 OA
BRANCH  16  18
ATOM     18  O   UNL A   1      28.993  28.985  21.791  1.00  0.00    -0.469 OA
ATOM     19  C   UNL A   1      27.968  29.654  22.535  1.00  0.00     0.282 C 
ENDBRANCH  16  18
ENDBRANCH  15  16
ENDBRANCH  14  15
BRANCH  14  20
ATOM     20  C   UNL A   1      30.762  25.451  24.332  1.00  0.00    -0.022 A 
ATOM     21  C   UNL A   1      30.862  26.031  25.610  1.00  0.00     0.006 A 
ATOM     22  C   UNL A   1      30.843  24.021  24.293  1.00  0.00    -0.043 A 
ATOM     23  C   UNL A   1      31.020  25.265  26.772  1.00  0.00     0.001 A 
ATOM     24  C   UNL A   1      31.139  23.250  25.464  1.00  0.00    -0.048 A 
ATOM     25  C   UNL A   1      30.500  23.219  23.082  1.00  0.00     0.045 C 
ATOM     26  C   UNL A   1      31.190  23.890  26.699  1.00  0.00     0.004 A 
ATOM     27  C   UNL A   1      31.467  21.770  25.441  1.00  0.00     0.044 C 
ENDBRANCH  14  20
ENDBRANCH  11  14
ENDBRANCH   5  10
ENDBRANCH   2   4
ENDBRANCH   1   2
BRANCH   1  28
ATOM     28  C   UNL A   1      32.892  29.666  24.965  1.00  0.00     0.275 C 
BRANCH  28  29
ATOM     29  C   UNL A   1      31.779  30.146  25.903  1.00  0.00     0.275 C 
BRANCH  29  30
ATOM     30  O   UNL A   1      32.265  30.403  27.238  1.00  0.00    -0.458 OA
BRANCH  30  31
ATOM     31  C   UNL A   1      33.056  31.510  27.321  1.00  0.00     0.338 C 
ATOM     32  O   UNL A   1      32.666  32.669  27.204  1.00  0.00    -0.246 OA
BRANCH  31  33
ATOM     33  C   UNL A   1      34.435  31.175  27.764  1.00  0.00     0.060 A 
ATOM     34  C   UNL A   1      34.856  29.878  28.021  1.00  0.00     0.016 A 
ATOM     35  C   UNL A   1      35.332  32.214  28.007  1.00  0.00     0.016 A 
ATOM     36  C   UNL A   1      36.047  29.646  28.733  1.00  0.00     0.010 A 
ATOM     37  C   UNL A   1      36.597  31.955  28.566  1.00  0.00     0.010 A 
ATOM     38  C   UNL A   1      36.968  30.672  29.010  1.00  0.00    -0.014 A 
BRANCH  38  39
ATOM     39  C   UNL A   1      38.287  30.460  29.728  1.00  0.00     0.031 A 
ATOM     40  C   UNL A   1      39.359  29.555  29.132  1.00  0.00     0.074 A 
ATOM     41  C   UNL A   1      38.578  31.015  30.928  1.00  0.00     0.049 A 
ATOM     42  N   UNL A   1      40.333  28.901  29.723  1.00  0.00    -0.248 NA
ATOM     43  C   UNL A   1      39.318  29.353  27.675  1.00  0.00     0.031 C 
ATOM     44  C   UNL A   1      37.771  31.993  31.654  1.00  0.00     0.029 A 
ATOM     45  N   UNL A   1      39.653  30.802  31.774  1.00  0.00    -0.354 N 
ATOM     46  C   UNL A   1      40.951  28.138  28.733  1.00  0.00     0.074 A 
ATOM     47  C   UNL A   1      40.255  28.430  27.496  1.00  0.00     0.031 C 
ATOM     48  C   UNL A   1      38.382  32.322  32.799  1.00  0.00     0.029 A 
ATOM     49  C   UNL A   1      39.537  31.454  32.982  1.00  0.00     0.049 A 
ATOM     50  H   UNL A   1      40.425  30.239  31.537  1.00  0.00     0.167 HD
ATOM     51  C   UNL A   1      41.990  27.270  28.845  1.00  0.00     0.037 A 
ATOM     52  C   UNL A   1      40.190  31.316  34.154  1.00  0.00     0.037 A 
ATOM     53  C   UNL A   1      42.752  27.049  30.053  1.00  0.00     0.049 A 
ATOM     54  C   UNL A   1      41.275  30.289  34.298  1.00  0.00     0.074 A 
ATOM     55  C   UNL A   1      43.832  26.201  30.252  1.00  0.00     0.029 A 
ATOM     56  N   UNL A   1      42.538  27.698  31.257  1.00  0.00    -0.354 N 
ATOM     57  N   UNL A   1      41.758  29.466  33.402  1.00  0.00    -0.248 NA
ATOM     58  C   UNL A   1      41.883  30.153  35.629  1.00  0.00     0.031 C 
ATOM     59  C   UNL A   1      44.236  26.301  31.587  1.00  0.00     0.029 A 
ATOM     60  C   UNL A   1      43.451  27.256  32.206  1.00  0.00     0.049 A 
ATOM     61  H   UNL A   1      41.840  28.375  31.418  1.00  0.00     0.167 HD
ATOM     62  C   UNL A   1      42.737  28.728  34.055  1.00  0.00     0.074 A 
ATOM     63  C   UNL A   1      42.792  29.212  35.416  1.00  0.00     0.031 C 
ATOM     64  C   UNL A   1      43.514  27.734  33.562  1.00  0.00     0.037 A 
BRANCH  51  65
ATOM     65  C   UNL A   1      42.357  26.433  27.645  1.00  0.00     0.064 A 
ATOM     66  C   UNL A   1      43.393  26.783  26.768  1.00  0.00     0.173 A 
ATOM     67  C   UNL A   1      41.705  25.207  27.423  1.00  0.00     0.173 A 
ATOM     68  F   UNL A   1      44.052  27.939  26.927  1.00  0.00    -0.203 F 
ATOM     69  C   UNL A   1      43.744  25.952  25.703  1.00  0.00     0.198 A 
ATOM     70  C   UNL A   1      42.080  24.364  26.380  1.00  0.00     0.198 A 
ATOM     71  F   UNL A   1      40.718  24.809  28.241  1.00  0.00    -0.203 F 
ATOM     72  F   UNL A   1      44.710  26.328  24.853  1.00  0.00    -0.200 F 
ATOM     73  C   UNL A   1      43.094  24.741  25.515  1.00  0.00     0.200 A 
ATOM     74  F   UNL A   1      41.467  23.183  26.218  1.00  0.00    -0.200 F 
ATOM     75  F   UNL A   1      43.445  23.938  24.500  1.00  0.00    -0.200 F 
ENDBRANCH  51  65
BRANCH  52  76
ATOM     76  C   UNL A   1      39.746  32.112  35.333  1.00  0.00     0.064 A 
ATOM     77  C   UNL A   1      38.786  31.615  36.224  1.00  0.00     0.173 A 
ATOM     78  C   UNL A   1      40.291  33.378  35.601  1.00  0.00     0.173 A 
ATOM     79  F   UNL A   1      38.206  30.429  35.992  1.00  0.00    -0.203 F 
ATOM     80  C   UNL A   1      38.392  32.353  37.340  1.00  0.00     0.198 A 
ATOM     81  C   UNL A   1      39.929  34.095  36.739  1.00  0.00     0.198 A 
ATOM     82  F   UNL A   1      41.209  33.904  34.775  1.00  0.00    -0.203 F 
ATOM     83  F   UNL A   1      37.444  31.874  38.155  1.00  0.00    -0.200 F 
ATOM     84  C   UNL A   1      38.976  33.584  37.604  1.00  0.00     0.200 A 
ATOM     85  F   UNL A   1      40.513  35.272  36.999  1.00  0.00    -0.200 F 
ATOM     86  F   UNL A   1      38.616  34.280  38.691  1.00  0.00    -0.200 F 
ENDBRANCH  52  76
BRANCH  64  87
ATOM     87  C   UNL A   1      44.534  27.136  34.489  1.00  0.00     0.064 A 
ATOM     88  C   UNL A   1      45.817  27.687  34.632  1.00  0.00     0.173 A 
ATOM     89  C   UNL A   1      44.223  25.997  35.247  1.00  0.00     0.173 A 
ATOM     90  F   UNL A   1      46.172  28.764  33.915  1.00  0.00    -0.203 F 
ATOM     91  C   UNL A   1      46.760  27.100  35.472  1.00  0.00     0.198 A 
ATOM     92  C   UNL A   1      45.158  25.430  36.110  1.00  0.00     0.198 A 
ATOM     93  F   UNL A   1      43.010  25.431  35.150  1.00  0.00    -0.203 F 
ATOM     94  F   UNL A   1      47.996  27.609  35.547  1.00  0.00    -0.200 F 
ATOM     95  C   UNL A   1      46.427  25.975  36.215  1.00  0.00     0.200 A 
ATOM     96  F   UNL A   1      44.832  24.350  36.833  1.00  0.00    -0.200 F 
ATOM     97  F   UNL A   1      47.336  25.411  37.021  1.00  0.00    -0.200 F 
ENDBRANCH  64  87
ENDBRANCH  38  39
ENDBRANCH  31  33
ENDBRANCH  30  31
ENDBRANCH  29  30
ENDBRANCH  28  29
ENDBRANCH   1  28
TORSDOF 17
ENDMDL
MODEL 2
REMARK VINA RESULT:     -12.1      0.862      2.632
REMARK SMILES COC(=O)C[C@@H](NC(=O)c1ccccc1C(=O)OCCOC(=O)c1ccc(-c2c3nc(c(-c4c(F)c(F)c(F)c(F)c4F)c4ccc([nH]4)c(-c4c(F)c(F)c(F)c(F)c4F)c4nc(c(-c5c(F)c(F)c(F)c(F)c5F)c5ccc2[nH]5)C=C4)C=C3)cc1)c1cccc(C)c1C
REMARK SMILES IDX 18 1 16 2 17 3 15 4 10 5 11 6 12 7 14 8 13 9 8 10 7 11 9 13
REMARK SMILES IDX 6 14 5 15 3 16 4 17 2 18 1 19 87 20 88 21 93 22 89 23 91 24
REMARK SMILES IDX 94 25 90 26 92 27 19 28 20 29 21 30 22 31 23 32 24 33 25 34
REMARK SMILES IDX 86 35 26 36 85 37 27 38 28 39 29 40 79 41 30 42 84 43 78 44
REMARK SMILES IDX 80 45 31 46 83 47 77 48 76 49 32 51 64 52 44 53 63 54 45 55
REMARK SMILES IDX 48 56 62 57 81 58 46 59 47 60 61 62 82 63 49 64 33 65 34 66
REMARK SMILES IDX 42 67 35 68 36 69 40 70 43 71 37 72 38 73 41 74 39 75 65 76
REMARK SMILES IDX 66 77 74 78 67 79 68 80 72 81 75 82 69 83 70 84 73 85 71 86
REMARK SMILES IDX 50 87 51 88 59 89 52 90 53 91 57 92 60 93 54 94 55 95 58 96
REMARK SMILES IDX 56 97
REMARK H PARENT 7 12 80 50 48 61
REMARK Flexibility Score: inf
ROOT
ATOM      1  O   UNL A   1      33.221  28.022  25.101  1.00  0.00    -0.458 OA
ENDROOT
BRANCH   1   2
ATOM      2  C   UNL A   1      33.837  27.437  24.024  1.00  0.00     0.339 C 
ATOM      3  O   UNL A   1      34.347  28.098  23.132  1.00  0.00    -0.246 OA
BRANCH   2   4
ATOM      4  C   UNL A   1      34.002  25.938  24.117  1.00  0.00     0.072 A 
ATOM      5  C   UNL A   1      33.408  25.135  23.136  1.00  0.00     0.054 A 
ATOM      6  C   UNL A   1      33.539  23.740  23.087  1.00  0.00     0.015 A 
ATOM      7  C   UNL A   1      34.374  23.111  23.988  1.00  0.00     0.001 A 
ATOM      8  C   UNL A   1      34.816  25.275  25.046  1.00  0.00     0.016 A 
ATOM      9  C   UNL A   1      35.024  23.879  24.953  1.00  0.00     0.001 A 
BRANCH   5  10
ATOM     10  C   UNL A   1      32.638  25.678  22.043  1.00  0.00     0.252 C 
ATOM     11  N   UNL A   1      31.578  26.477  22.313  1.00  0.00    -0.345 N 
ATOM     12  H   UNL A   1      31.412  27.120  21.584  1.00  0.00     0.164 HD
ATOM     13  O   UNL A   1      33.031  25.511  20.892  1.00  0.00    -0.269 OA
BRANCH  11  14
ATOM     14  C   UNL A   1      30.600  26.640  23.421  1.00  0.00     0.124 C 
BRANCH  14  15
ATOM     15  C   UNL A   1      30.170  25.186  23.776  1.00  0.00     0.152 C 
BRANCH  15  16
ATOM     16  C   UNL A   1      30.551  24.804  25.195  1.00  0.00     0.307 C 
ATOM     17  O   UNL A   1      30.657  25.600  26.117  1.00  0.00    -0.252 OA
BRANCH  16  18
ATOM     18  O   UNL A   1      30.710  23.455  25.304  1.00  0.00    -0.469 OA
ATOM     19  C   UNL A   1      31.555  22.978  26.357  1.00  0.00     0.282 C 
ENDBRANCH  16  18
ENDBRANCH  15  16
ENDBRANCH  14  15
BRANCH  14  20
ATOM     20  C   UNL A   1      29.377  27.567  23.157  1.00  0.00    -0.022 A 
ATOM     21  C   UNL A   1      28.130  27.212  23.704  1.00  0.00     0.006 A 
ATOM     22  C   UNL A   1      29.418  28.826  22.476  1.00  0.00    -0.043 A 
ATOM     23  C   UNL A   1      27.003  28.037  23.599  1.00  0.00     0.001 A 
ATOM     24  C   UNL A   1      28.235  29.604  22.254  1.00  0.00    -0.048 A 
ATOM     25  C   UNL A   1      30.692  29.488  22.064  1.00  0.00     0.045 C 
ATOM     26  C   UNL A   1      27.044  29.206  22.855  1.00  0.00     0.004 A 
ATOM     27  C   UNL A   1      28.178  30.816  21.345  1.00  0.00     0.044 C 
ENDBRANCH  14  20
ENDBRANCH  11  14
ENDBRANCH   5  10
ENDBRANCH   2   4
ENDBRANCH   1   2
BRANCH   1  28
ATOM     28  C   UNL A   1      32.792  29.377  24.788  1.00  0.00     0.275 C 
BRANCH  28  29
ATOM     29  C   UNL A   1      31.679  29.899  25.703  1.00  0.00     0.275 C 
BRANCH  29  30
ATOM     30  O   UNL A   1      32.147  30.146  27.046  1.00  0.00    -0.458 OA
BRANCH  30  31
ATOM     31  C   UNL A   1      32.884  31.287  27.159  1.00  0.00     0.338 C 
ATOM     32  O   UNL A   1      32.441  32.428  27.058  1.00  0.00    -0.246 OA
BRANCH  31  33
ATOM     33  C   UNL A   1      34.271  31.009  27.616  1.00  0.00     0.060 A 
ATOM     34  C   UNL A   1      34.754  29.728  27.844  1.00  0.00     0.016 A 
ATOM     35  C   UNL A   1      35.111  32.084  27.904  1.00  0.00     0.016 A 
ATOM     36  C   UNL A   1      35.944  29.536  28.568  1.00  0.00     0.010 A 
ATOM     37  C   UNL A   1      36.378  31.873  28.476  1.00  0.00     0.010 A 
ATOM     38  C   UNL A   1      36.807  30.598  28.889  1.00  0.00    -0.014 A 
BRANCH  38  39
ATOM     39  C   UNL A   1      38.124  30.433  29.624  1.00  0.00     0.031 A 
ATOM     40  C   UNL A   1      39.232  29.561  29.044  1.00  0.00     0.074 A 
ATOM     41  C   UNL A   1      38.383  31.003  30.824  1.00  0.00     0.049 A 
ATOM     42  N   UNL A   1      40.219  28.941  29.649  1.00  0.00    -0.248 NA
ATOM     43  C   UNL A   1      39.214  29.351  27.587  1.00  0.00     0.031 C 
ATOM     44  C   UNL A   1      37.537  31.957  31.537  1.00  0.00     0.029 A 
ATOM     45  N   UNL A   1      39.455  30.828  31.684  1.00  0.00    -0.354 N 
ATOM     46  C   UNL A   1      40.873  28.195  28.670  1.00  0.00     0.074 A 
ATOM     47  C   UNL A   1      40.182  28.458  27.424  1.00  0.00     0.031 C 
ATOM     48  C   UNL A   1      38.124  32.310  32.687  1.00  0.00     0.029 A 
ATOM     49  C   UNL A   1      39.304  31.481  32.886  1.00  0.00     0.049 A 
ATOM     50  H   UNL A   1      40.247  30.289  31.458  1.00  0.00     0.167 HD
ATOM     51  C   UNL A   1      41.938  27.360  28.798  1.00  0.00     0.037 A 
ATOM     52  C   UNL A   1      39.948  31.369  34.066  1.00  0.00     0.037 A 
ATOM     53  C   UNL A   1      42.693  27.170  30.015  1.00  0.00     0.049 A 
ATOM     54  C   UNL A   1      41.063  30.379  34.227  1.00  0.00     0.074 A 
ATOM     55  C   UNL A   1      43.798  26.358  30.230  1.00  0.00     0.029 A 
ATOM     56  N   UNL A   1      42.445  27.817  31.214  1.00  0.00    -0.354 N 
ATOM     57  N   UNL A   1      41.583  29.568  33.341  1.00  0.00    -0.248 NA
ATOM     58  C   UNL A   1      41.661  30.268  35.566  1.00  0.00     0.031 C 
ATOM     59  C   UNL A   1      44.183  26.477  31.569  1.00  0.00     0.029 A 
ATOM     60  C   UNL A   1      43.360  27.409  32.174  1.00  0.00     0.049 A 
ATOM     61  H   UNL A   1      41.724  28.471  31.363  1.00  0.00     0.167 HD
ATOM     62  C   UNL A   1      42.578  28.865  34.009  1.00  0.00     0.074 A 
ATOM     63  C   UNL A   1      42.602  29.356  35.368  1.00  0.00     0.031 C 
ATOM     64  C   UNL A   1      43.393  27.895  33.529  1.00  0.00     0.037 A 
BRANCH  51  65
ATOM     65  C   UNL A   1      42.346  26.531  27.606  1.00  0.00     0.064 A 
ATOM     66  C   UNL A   1      43.379  26.911  26.738  1.00  0.00     0.173 A 
ATOM     67  C   UNL A   1      41.738  25.282  27.383  1.00  0.00     0.173 A 
ATOM     68  F   UNL A   1      43.996  28.091  26.897  1.00  0.00    -0.203 F 
ATOM     69  C   UNL A   1      43.769  26.088  25.680  1.00  0.00     0.198 A 
ATOM     70  C   UNL A   1      42.153  24.448  26.349  1.00  0.00     0.198 A 
ATOM     71  F   UNL A   1      40.757  24.856  28.193  1.00  0.00    -0.203 F 
ATOM     72  F   UNL A   1      44.731  26.492  24.839  1.00  0.00    -0.200 F 
ATOM     73  C   UNL A   1      43.162  24.855  25.492  1.00  0.00     0.200 A 
ATOM     74  F   UNL A   1      41.581  23.246  26.187  1.00  0.00    -0.200 F 
ATOM     75  F   UNL A   1      43.550  24.059  24.485  1.00  0.00    -0.200 F 
ENDBRANCH  51  65
BRANCH  52  76
ATOM     76  C   UNL A   1      39.465  32.155  35.237  1.00  0.00     0.064 A 
ATOM     77  C   UNL A   1      38.602  31.590  36.185  1.00  0.00     0.173 A 
ATOM     78  C   UNL A   1      39.875  33.483  35.439  1.00  0.00     0.173 A 
ATOM     79  F   UNL A   1      38.149  30.339  36.017  1.00  0.00    -0.203 F 
ATOM     80  C   UNL A   1      38.172  32.322  37.291  1.00  0.00     0.198 A 
ATOM     81  C   UNL A   1      39.481  34.198  36.567  1.00  0.00     0.198 A 
ATOM     82  F   UNL A   1      40.695  34.075  34.557  1.00  0.00    -0.203 F 
ATOM     83  F   UNL A   1      37.317  31.773  38.163  1.00  0.00    -0.200 F 
ATOM     84  C   UNL A   1      38.625  33.619  37.489  1.00  0.00     0.200 A 
ATOM     85  F   UNL A   1      39.940  35.441  36.762  1.00  0.00    -0.200 F 
ATOM     86  F   UNL A   1      38.233  34.311  38.567  1.00  0.00    -0.200 F 
ENDBRANCH  52  76
BRANCH  64  87
ATOM     87  C   UNL A   1      44.421  27.334  34.470  1.00  0.00     0.064 A 
ATOM     88  C   UNL A   1      44.177  26.179  35.229  1.00  0.00     0.173 A 
ATOM     89  C   UNL A   1      45.669  27.960  34.613  1.00  0.00     0.173 A 
ATOM     90  F   UNL A   1      42.993  25.554  35.145  1.00  0.00    -0.203 F 
ATOM     91  C   UNL A   1      45.131  25.692  36.120  1.00  0.00     0.198 A 
ATOM     92  C   UNL A   1      46.632  27.452  35.482  1.00  0.00     0.198 A 
ATOM     93  F   UNL A   1      45.955  29.065  33.909  1.00  0.00    -0.203 F 
ATOM     94  F   UNL A   1      44.853  24.622  36.877  1.00  0.00    -0.200 F 
ATOM     95  C   UNL A   1      46.359  26.326  36.242  1.00  0.00     0.200 A 
ATOM     96  F   UNL A   1      47.821  28.061  35.591  1.00  0.00    -0.200 F 
ATOM     97  F   UNL A   1      47.274  25.857  37.101  1.00  0.00    -0.200 F 
ENDBRANCH  64  87
ENDBRANCH  38  39
ENDBRANCH  31  33
ENDBRANCH  30  31
ENDBRANCH  29  30
ENDBRANCH  28  29
ENDBRANCH   1  28
TORSDOF 17
ENDMDL
MODEL 3
REMARK VINA RESULT:     -12.0      4.267      9.311
REMARK SMILES COC(=O)C[C@@H](NC(=O)c1ccccc1C(=O)OCCOC(=O)c1ccc(-c2c3nc(c(-c4c(F)c(F)c(F)c(F)c4F)c4ccc([nH]4)c(-c4c(F)c(F)c(F)c(F)c4F)c4nc(c(-c5c(F)c(F)c(F)c(F)c5F)c5ccc2[nH]5)C=C4)C=C3)cc1)c1cccc(C)c1C
REMARK SMILES IDX 18 1 16 2 17 3 15 4 10 5 11 6 12 7 14 8 13 9 8 10 7 11 9 13
REMARK SMILES IDX 6 14 5 15 3 16 4 17 2 18 1 19 87 20 88 21 93 22 89 23 91 24
REMARK SMILES IDX 94 25 90 26 92 27 19 28 20 29 21 30 22 31 23 32 24 33 25 34
REMARK SMILES IDX 86 35 26 36 85 37 27 38 28 39 29 40 79 41 30 42 84 43 78 44
REMARK SMILES IDX 80 45 31 46 83 47 77 48 76 49 32 51 64 52 44 53 63 54 45 55
REMARK SMILES IDX 48 56 62 57 81 58 46 59 47 60 61 62 82 63 49 64 33 65 34 66
REMARK SMILES IDX 42 67 35 68 36 69 40 70 43 71 37 72 38 73 41 74 39 75 65 76
REMARK SMILES IDX 66 77 74 78 67 79 68 80 72 81 75 82 69 83 70 84 73 85 71 86
REMARK SMILES IDX 50 87 51 88 59 89 52 90 53 91 57 92 60 93 54 94 55 95 58 96
REMARK SMILES IDX 56 97
REMARK H PARENT 7 12 80 50 48 61
REMARK Flexibility Score: inf
ROOT
ATOM      1  O   UNL A   1      35.099  22.111  26.324  1.00  0.00    -0.458 OA
ENDROOT
BRANCH   1   2
ATOM      2  C   UNL A   1      34.696  23.237  25.653  1.00  0.00     0.339 C 
ATOM      3  O   UNL A   1      35.391  24.242  25.600  1.00  0.00    -0.246 OA
BRANCH   2   4
ATOM      4  C   UNL A   1      33.435  23.081  24.838  1.00  0.00     0.072 A 
ATOM      5  C   UNL A   1      32.215  23.466  25.407  1.00  0.00     0.054 A 
ATOM      6  C   UNL A   1      30.989  23.420  24.728  1.00  0.00     0.015 A 
ATOM      7  C   UNL A   1      30.972  23.070  23.393  1.00  0.00     0.001 A 
ATOM      8  C   UNL A   1      33.390  22.692  23.492  1.00  0.00     0.016 A 
ATOM      9  C   UNL A   1      32.173  22.723  22.773  1.00  0.00     0.001 A 
BRANCH   5  10
ATOM     10  C   UNL A   1      32.111  24.002  26.744  1.00  0.00     0.252 C 
ATOM     11  N   UNL A   1      32.007  25.342  26.913  1.00  0.00    -0.345 N 
ATOM     12  H   UNL A   1      31.517  25.566  27.738  1.00  0.00     0.164 HD
ATOM     13  O   UNL A   1      31.994  23.230  27.691  1.00  0.00    -0.269 OA
BRANCH  11  14
ATOM     14  C   UNL A   1      32.436  26.562  26.180  1.00  0.00     0.124 C 
BRANCH  14  15
ATOM     15  C   UNL A   1      32.113  27.733  27.153  1.00  0.00     0.152 C 
BRANCH  15  16
ATOM     16  C   UNL A   1      33.216  28.777  27.182  1.00  0.00     0.307 C 
ATOM     17  O   UNL A   1      34.397  28.534  26.983  1.00  0.00    -0.252 OA
BRANCH  16  18
ATOM     18  O   UNL A   1      32.699  30.017  27.412  1.00  0.00    -0.469 OA
ATOM     19  C   UNL A   1      31.718  30.499  26.487  1.00  0.00     0.282 C 
ENDBRANCH  16  18
ENDBRANCH  15  16
ENDBRANCH  14  15
BRANCH  14  20
ATOM     20  C   UNL A   1      31.827  26.789  24.764  1.00  0.00    -0.022 A 
ATOM     21  C   UNL A   1      30.544  27.358  24.663  1.00  0.00     0.006 A 
ATOM     22  C   UNL A   1      32.502  26.559  23.522  1.00  0.00    -0.043 A 
ATOM     23  C   UNL A   1      29.964  27.687  23.431  1.00  0.00     0.001 A 
ATOM     24  C   UNL A   1      31.854  26.771  22.261  1.00  0.00    -0.048 A 
ATOM     25  C   UNL A   1      33.952  26.213  23.435  1.00  0.00     0.045 C 
ATOM     26  C   UNL A   1      30.597  27.369  22.240  1.00  0.00     0.004 A 
ATOM     27  C   UNL A   1      32.429  26.326  20.930  1.00  0.00     0.044 C 
ENDBRANCH  14  20
ENDBRANCH  11  14
ENDBRANCH   5  10
ENDBRANCH   2   4
ENDBRANCH   1   2
BRANCH   1  28
ATOM     28  C   UNL A   1      35.134  20.956  25.440  1.00  0.00     0.275 C 
BRANCH  28  29
ATOM     29  C   UNL A   1      36.550  20.520  25.048  1.00  0.00     0.275 C 
BRANCH  29  30
ATOM     30  O   UNL A   1      37.490  21.614  25.097  1.00  0.00    -0.458 OA
BRANCH  30  31
ATOM     31  C   UNL A   1      38.632  21.315  25.778  1.00  0.00     0.338 C 
ATOM     32  O   UNL A   1      39.225  20.241  25.729  1.00  0.00    -0.246 OA
BRANCH  31  33
ATOM     33  C   UNL A   1      39.204  22.509  26.455  1.00  0.00     0.060 A 
ATOM     34  C   UNL A   1      38.730  23.797  26.251  1.00  0.00     0.016 A 
ATOM     35  C   UNL A   1      40.317  22.344  27.279  1.00  0.00     0.016 A 
ATOM     36  C   UNL A   1      39.494  24.906  26.657  1.00  0.00     0.010 A 
ATOM     37  C   UNL A   1      40.979  23.460  27.822  1.00  0.00     0.010 A 
ATOM     38  C   UNL A   1      40.630  24.778  27.473  1.00  0.00    -0.014 A 
BRANCH  38  39
ATOM     39  C   UNL A   1      41.455  25.947  27.976  1.00  0.00     0.031 A 
ATOM     40  C   UNL A   1      40.814  27.040  28.826  1.00  0.00     0.074 A 
ATOM     41  C   UNL A   1      42.766  26.115  27.683  1.00  0.00     0.049 A 
ATOM     42  N   UNL A   1      41.174  28.291  28.998  1.00  0.00    -0.248 NA
ATOM     43  C   UNL A   1      39.599  26.671  29.570  1.00  0.00     0.031 C 
ATOM     44  C   UNL A   1      43.629  25.168  26.981  1.00  0.00     0.029 A 
ATOM     45  N   UNL A   1      43.607  27.187  27.929  1.00  0.00    -0.354 N 
ATOM     46  C   UNL A   1      40.182  28.880  29.782  1.00  0.00     0.074 A 
ATOM     47  C   UNL A   1      39.216  27.839  30.071  1.00  0.00     0.031 C 
ATOM     48  C   UNL A   1      44.866  25.671  26.885  1.00  0.00     0.029 A 
ATOM     49  C   UNL A   1      44.853  27.047  27.359  1.00  0.00     0.049 A 
ATOM     50  H   UNL A   1      43.341  27.973  28.459  1.00  0.00     0.167 HD
ATOM     51  C   UNL A   1      40.079  30.165  30.210  1.00  0.00     0.037 A 
ATOM     52  C   UNL A   1      45.848  27.927  27.126  1.00  0.00     0.037 A 
ATOM     53  C   UNL A   1      41.086  31.183  30.011  1.00  0.00     0.049 A 
ATOM     54  C   UNL A   1      45.689  29.367  27.518  1.00  0.00     0.074 A 
ATOM     55  C   UNL A   1      41.073  32.506  30.426  1.00  0.00     0.029 A 
ATOM     56  N   UNL A   1      42.298  30.987  29.369  1.00  0.00    -0.354 N 
ATOM     57  N   UNL A   1      44.690  29.953  28.127  1.00  0.00    -0.248 NA
ATOM     58  C   UNL A   1      46.790  30.274  27.160  1.00  0.00     0.031 C 
ATOM     59  C   UNL A   1      42.252  33.121  29.991  1.00  0.00     0.029 A 
ATOM     60  C   UNL A   1      43.028  32.167  29.360  1.00  0.00     0.049 A 
ATOM     61  H   UNL A   1      42.597  30.134  28.976  1.00  0.00     0.167 HD
ATOM     62  C   UNL A   1      45.047  31.290  28.240  1.00  0.00     0.074 A 
ATOM     63  C   UNL A   1      46.362  31.427  27.654  1.00  0.00     0.031 C 
ATOM     64  C   UNL A   1      44.339  32.311  28.781  1.00  0.00     0.037 A 
BRANCH  51  65
ATOM     65  C   UNL A   1      38.809  30.591  30.903  1.00  0.00     0.064 A 
ATOM     66  C   UNL A   1      38.680  30.613  32.299  1.00  0.00     0.173 A 
ATOM     67  C   UNL A   1      37.725  31.067  30.144  1.00  0.00     0.173 A 
ATOM     68  F   UNL A   1      39.678  30.170  33.077  1.00  0.00    -0.203 F 
ATOM     69  C   UNL A   1      37.509  31.070  32.905  1.00  0.00     0.198 A 
ATOM     70  C   UNL A   1      36.572  31.556  30.753  1.00  0.00     0.198 A 
ATOM     71  F   UNL A   1      37.798  31.089  28.804  1.00  0.00    -0.203 F 
ATOM     72  F   UNL A   1      37.394  31.043  34.240  1.00  0.00    -0.200 F 
ATOM     73  C   UNL A   1      36.461  31.549  32.133  1.00  0.00     0.200 A 
ATOM     74  F   UNL A   1      35.572  32.041  30.003  1.00  0.00    -0.200 F 
ATOM     75  F   UNL A   1      35.344  32.002  32.720  1.00  0.00    -0.200 F 
ENDBRANCH  51  65
BRANCH  52  76
ATOM     76  C   UNL A   1      47.054  27.481  26.374  1.00  0.00     0.064 A 
ATOM     77  C   UNL A   1      47.105  27.549  24.976  1.00  0.00     0.173 A 
ATOM     78  C   UNL A   1      48.189  26.995  27.045  1.00  0.00     0.173 A 
ATOM     79  F   UNL A   1      46.034  27.968  24.286  1.00  0.00    -0.203 F 
ATOM     80  C   UNL A   1      48.246  27.153  24.279  1.00  0.00     0.198 A 
ATOM     81  C   UNL A   1      49.342  26.641  26.350  1.00  0.00     0.198 A 
ATOM     82  F   UNL A   1      48.190  26.901  28.383  1.00  0.00    -0.203 F 
ATOM     83  F   UNL A   1      48.256  27.191  22.940  1.00  0.00    -0.200 F 
ATOM     84  C   UNL A   1      49.368  26.715  24.967  1.00  0.00     0.200 A 
ATOM     85  F   UNL A   1      50.429  26.240  27.023  1.00  0.00    -0.200 F 
ATOM     86  F   UNL A   1      50.472  26.360  24.297  1.00  0.00    -0.200 F 
ENDBRANCH  52  76
BRANCH  64  87
ATOM     87  C   UNL A   1      44.995  33.662  28.813  1.00  0.00     0.064 A 
ATOM     88  C   UNL A   1      44.798  34.604  27.791  1.00  0.00     0.173 A 
ATOM     89  C   UNL A   1      45.831  34.020  29.882  1.00  0.00     0.173 A 
ATOM     90  F   UNL A   1      44.023  34.305  26.738  1.00  0.00    -0.203 F 
ATOM     91  C   UNL A   1      45.440  35.840  27.823  1.00  0.00     0.198 A 
ATOM     92  C   UNL A   1      46.447  35.268  29.925  1.00  0.00     0.198 A 
ATOM     93  F   UNL A   1      46.052  33.158  30.885  1.00  0.00    -0.203 F 
ATOM     94  F   UNL A   1      45.283  36.700  26.808  1.00  0.00    -0.200 F 
ATOM     95  C   UNL A   1      46.260  36.173  28.892  1.00  0.00     0.200 A 
ATOM     96  F   UNL A   1      47.231  35.591  30.963  1.00  0.00    -0.200 F 
ATOM     97  F   UNL A   1      46.878  37.361  28.919  1.00  0.00    -0.200 F 
ENDBRANCH  64  87
ENDBRANCH  38  39
ENDBRANCH  31  33
ENDBRANCH  30  31
ENDBRANCH  29  30
ENDBRANCH  28  29
ENDBRANCH   1  28
TORSDOF 17
ENDMDL
