MODEL 1
REMARK VINA RESULT:     -12.1      0.000      0.000
REMARK SMILES C[NH2+]CCC(=O)N1Cc2nc[nH]c2C[C@H]1C(=O)OCCOC(=O)c1ccc(-c2c3nc(c(-c4c(F)c(F)c(F)c(F)c4F)c4ccc([nH]4)c(-c4c(F)c(F)c(F)c(F)c4F)c4nc(c(-c5c(F)c(F)c(F)c(F)c5F)c5ccc2[nH]5)C=C4)C=C3)cc1
REMARK SMILES IDX 19 1 18 2 16 3 17 4 15 5 7 6 8 7 9 8 14 9 10 10 13 11 11 12
REMARK SMILES IDX 12 13 5 15 6 16 4 17 3 18 2 19 1 20 20 23 21 24 22 25 23 26
REMARK SMILES IDX 24 27 25 28 86 29 26 30 85 31 27 32 28 33 29 34 79 35 30 36
REMARK SMILES IDX 84 37 78 38 80 39 31 40 83 41 77 42 76 43 32 45 64 46 44 47
REMARK SMILES IDX 63 48 45 49 48 50 62 51 81 52 46 53 47 54 61 56 82 57 49 58
REMARK SMILES IDX 33 59 34 60 42 61 35 62 36 63 40 64 43 65 37 66 38 67 41 68
REMARK SMILES IDX 39 69 65 70 66 71 74 72 67 73 68 74 72 75 75 76 69 77 70 78
REMARK SMILES IDX 73 79 71 80 50 81 51 82 59 83 52 84 53 85 57 86 60 87 54 88
REMARK SMILES IDX 55 89 58 90 56 91
REMARK H PARENT 12 14 2 21 2 22 80 44 48 55
REMARK Flexibility Score: inf
ROOT
ATOM      1  C   UNL A   1      34.353  29.093  26.399  1.00  0.00     0.274 C 
ENDROOT
BRANCH   1   2
ATOM      2  O   UNL A   1      33.644  27.847  26.531  1.00  0.00    -0.461 OA
BRANCH   2   3
ATOM      3  C   UNL A   1      33.152  27.283  25.398  1.00  0.00     0.329 C 
ATOM      4  O   UNL A   1      33.848  26.741  24.541  1.00  0.00    -0.250 OA
BRANCH   3   5
ATOM      5  C   UNL A   1      31.640  27.521  25.188  1.00  0.00     0.201 C 
ATOM      6  N   UNL A   1      30.948  27.154  23.910  1.00  0.00    -0.322 N 
ATOM      7  C   UNL A   1      30.985  25.733  23.503  1.00  0.00     0.178 C 
ATOM      8  C   UNL A   1      30.882  24.868  24.714  1.00  0.00     0.081 A 
ATOM      9  C   UNL A   1      30.944  26.783  26.378  1.00  0.00     0.093 C 
ATOM     10  N   UNL A   1      30.939  23.500  24.710  1.00  0.00    -0.240 NA
ATOM     11  C   UNL A   1      30.865  25.345  26.008  1.00  0.00     0.042 A 
ATOM     12  C   UNL A   1      30.928  23.157  25.981  1.00  0.00     0.197 A 
ATOM     13  N   UNL A   1      30.875  24.247  26.811  1.00  0.00    -0.348 N 
ATOM     14  H   UNL A   1      30.849  24.237  27.795  1.00  0.00     0.167 HD
BRANCH   6  15
ATOM     15  C   UNL A   1      29.812  27.871  23.548  1.00  0.00     0.229 C 
ATOM     16  O   UNL A   1      28.695  27.360  23.478  1.00  0.00    -0.275 OA
BRANCH  15  17
ATOM     17  C   UNL A   1      30.042  29.300  23.096  1.00  0.00     0.161 C 
BRANCH  17  18
ATOM     18  C   UNL A   1      29.179  29.751  21.913  1.00  0.00     0.270 C 
BRANCH  18  19
ATOM     19  N   UNL A   1      27.760  30.022  22.170  1.00  0.00    -0.348 N 
ATOM     20  C   UNL A   1      27.532  30.888  23.312  1.00  0.00     0.330 C 
ATOM     21  H   UNL A   1      27.362  30.468  21.343  1.00  0.00     0.346 HD
ATOM     22  H   UNL A   1      27.316  29.127  22.378  1.00  0.00     0.346 HD
ENDBRANCH  18  19
ENDBRANCH  17  18
ENDBRANCH  15  17
ENDBRANCH   6  15
ENDBRANCH   3   5
ENDBRANCH   2   3
ENDBRANCH   1   2
BRANCH   1  23
ATOM     23  C   UNL A   1      34.855  29.583  27.755  1.00  0.00     0.275 C 
BRANCH  23  24
ATOM     24  O   UNL A   1      35.992  30.453  27.655  1.00  0.00    -0.458 OA
BRANCH  24  25
ATOM     25  C   UNL A   1      36.961  30.176  28.551  1.00  0.00     0.338 C 
ATOM     26  O   UNL A   1      37.181  30.727  29.617  1.00  0.00    -0.246 OA
BRANCH  25  27
ATOM     27  C   UNL A   1      37.941  29.235  28.023  1.00  0.00     0.060 A 
ATOM     28  C   UNL A   1      38.089  28.063  28.764  1.00  0.00     0.016 A 
ATOM     29  C   UNL A   1      38.928  29.683  27.148  1.00  0.00     0.016 A 
ATOM     30  C   UNL A   1      39.312  27.444  28.808  1.00  0.00     0.010 A 
ATOM     31  C   UNL A   1      40.141  29.020  27.142  1.00  0.00     0.010 A 
ATOM     32  C   UNL A   1      40.358  27.969  28.046  1.00  0.00    -0.014 A 
BRANCH  32  33
ATOM     33  C   UNL A   1      41.660  27.320  28.179  1.00  0.00     0.031 A 
ATOM     34  C   UNL A   1      42.376  27.580  29.465  1.00  0.00     0.074 A 
ATOM     35  C   UNL A   1      42.090  26.430  27.263  1.00  0.00     0.049 A 
ATOM     36  N   UNL A   1      43.645  27.744  29.680  1.00  0.00    -0.248 NA
ATOM     37  C   UNL A   1      41.541  27.742  30.672  1.00  0.00     0.031 C 
ATOM     38  C   UNL A   1      41.366  25.953  26.079  1.00  0.00     0.029 A 
ATOM     39  N   UNL A   1      43.190  25.625  27.301  1.00  0.00    -0.354 N 
ATOM     40  C   UNL A   1      43.777  27.870  31.062  1.00  0.00     0.074 A 
ATOM     41  C   UNL A   1      42.453  27.987  31.607  1.00  0.00     0.031 C 
ATOM     42  C   UNL A   1      41.885  24.768  25.700  1.00  0.00     0.029 A 
ATOM     43  C   UNL A   1      43.031  24.474  26.543  1.00  0.00     0.049 A 
ATOM     44  H   UNL A   1      44.006  25.837  27.809  1.00  0.00     0.167 HD
ATOM     45  C   UNL A   1      44.949  27.636  31.707  1.00  0.00     0.037 A 
ATOM     46  C   UNL A   1      43.699  23.308  26.694  1.00  0.00     0.037 A 
ATOM     47  C   UNL A   1      46.090  27.883  30.872  1.00  0.00     0.049 A 
ATOM     48  C   UNL A   1      44.925  23.569  27.481  1.00  0.00     0.074 A 
ATOM     49  C   UNL A   1      46.580  28.988  30.201  1.00  0.00     0.029 A 
ATOM     50  N   UNL A   1      46.820  26.821  30.406  1.00  0.00    -0.354 N 
ATOM     51  N   UNL A   1      45.959  24.234  27.048  1.00  0.00    -0.248 NA
ATOM     52  C   UNL A   1      44.866  23.377  28.924  1.00  0.00     0.031 C 
ATOM     53  C   UNL A   1      47.245  28.469  29.052  1.00  0.00     0.029 A 
ATOM     54  C   UNL A   1      47.112  27.083  29.094  1.00  0.00     0.049 A 
ATOM     55  H   UNL A   1      47.084  26.023  30.918  1.00  0.00     0.167 HD
ATOM     56  C   UNL A   1      46.453  24.883  28.169  1.00  0.00     0.074 A 
ATOM     57  C   UNL A   1      45.830  24.218  29.304  1.00  0.00     0.031 C 
ATOM     58  C   UNL A   1      47.096  26.082  28.058  1.00  0.00     0.037 A 
BRANCH  45  59
ATOM     59  C   UNL A   1      45.017  26.843  32.991  1.00  0.00     0.064 A 
ATOM     60  C   UNL A   1      44.475  25.545  33.036  1.00  0.00     0.173 A 
ATOM     61  C   UNL A   1      45.323  27.417  34.248  1.00  0.00     0.173 A 
ATOM     62  F   UNL A   1      44.125  24.913  31.906  1.00  0.00    -0.203 F 
ATOM     63  C   UNL A   1      44.191  24.905  34.246  1.00  0.00     0.198 A 
ATOM     64  C   UNL A   1      45.091  26.753  35.449  1.00  0.00     0.198 A 
ATOM     65  F   UNL A   1      45.753  28.679  34.373  1.00  0.00    -0.203 F 
ATOM     66  F   UNL A   1      43.555  23.726  34.239  1.00  0.00    -0.200 F 
ATOM     67  C   UNL A   1      44.494  25.513  35.451  1.00  0.00     0.200 A 
ATOM     68  F   UNL A   1      45.378  27.367  36.606  1.00  0.00    -0.200 F 
ATOM     69  F   UNL A   1      44.163  24.928  36.610  1.00  0.00    -0.200 F 
ENDBRANCH  45  59
BRANCH  46  70
ATOM     70  C   UNL A   1      43.177  21.944  26.450  1.00  0.00     0.064 A 
ATOM     71  C   UNL A   1      43.777  21.098  25.507  1.00  0.00     0.173 A 
ATOM     72  C   UNL A   1      42.211  21.358  27.294  1.00  0.00     0.173 A 
ATOM     73  F   UNL A   1      44.751  21.562  24.710  1.00  0.00    -0.203 F 
ATOM     74  C   UNL A   1      43.425  19.749  25.407  1.00  0.00     0.198 A 
ATOM     75  C   UNL A   1      41.845  20.018  27.180  1.00  0.00     0.198 A 
ATOM     76  F   UNL A   1      41.664  22.050  28.305  1.00  0.00    -0.203 F 
ATOM     77  F   UNL A   1      44.056  18.958  24.529  1.00  0.00    -0.200 F 
ATOM     78  C   UNL A   1      42.458  19.211  26.241  1.00  0.00     0.200 A 
ATOM     79  F   UNL A   1      40.935  19.504  28.019  1.00  0.00    -0.200 F 
ATOM     80  F   UNL A   1      42.148  17.909  26.170  1.00  0.00    -0.200 F 
ENDBRANCH  46  70
BRANCH  58  81
ATOM     81  C   UNL A   1      47.536  26.509  26.690  1.00  0.00     0.064 A 
ATOM     82  C   UNL A   1      48.791  26.188  26.148  1.00  0.00     0.173 A 
ATOM     83  C   UNL A   1      46.613  27.151  25.856  1.00  0.00     0.173 A 
ATOM     84  F   UNL A   1      49.682  25.477  26.851  1.00  0.00    -0.203 F 
ATOM     85  C   UNL A   1      49.126  26.546  24.845  1.00  0.00     0.198 A 
ATOM     86  C   UNL A   1      46.936  27.477  24.542  1.00  0.00     0.198 A 
ATOM     87  F   UNL A   1      45.376  27.423  26.303  1.00  0.00    -0.203 F 
ATOM     88  F   UNL A   1      50.337  26.244  24.354  1.00  0.00    -0.200 F 
ATOM     89  C   UNL A   1      48.196  27.187  24.041  1.00  0.00     0.200 A 
ATOM     90  F   UNL A   1      46.019  28.050  23.751  1.00  0.00    -0.200 F 
ATOM     91  F   UNL A   1      48.505  27.500  22.774  1.00  0.00    -0.200 F 
ENDBRANCH  58  81
ENDBRANCH  32  33
ENDBRANCH  25  27
ENDBRANCH  24  25
ENDBRANCH  23  24
ENDBRANCH   1  23
TORSDOF 15
ENDMDL
MODEL 2
REMARK VINA RESULT:     -12.0      6.397     11.324
REMARK SMILES C[NH2+]CCC(=O)N1Cc2nc[nH]c2C[C@H]1C(=O)OCCOC(=O)c1ccc(-c2c3nc(c(-c4c(F)c(F)c(F)c(F)c4F)c4ccc([nH]4)c(-c4c(F)c(F)c(F)c(F)c4F)c4nc(c(-c5c(F)c(F)c(F)c(F)c5F)c5ccc2[nH]5)C=C4)C=C3)cc1
REMARK SMILES IDX 19 1 18 2 16 3 17 4 15 5 7 6 8 7 9 8 14 9 10 10 13 11 11 12
REMARK SMILES IDX 12 13 5 15 6 16 4 17 3 18 2 19 1 20 20 23 21 24 22 25 23 26
REMARK SMILES IDX 24 27 25 28 86 29 26 30 85 31 27 32 28 33 29 34 79 35 30 36
REMARK SMILES IDX 84 37 78 38 80 39 31 40 83 41 77 42 76 43 32 45 64 46 44 47
REMARK SMILES IDX 63 48 45 49 48 50 62 51 81 52 46 53 47 54 61 56 82 57 49 58
REMARK SMILES IDX 33 59 34 60 42 61 35 62 36 63 40 64 43 65 37 66 38 67 41 68
REMARK SMILES IDX 39 69 65 70 66 71 74 72 67 73 68 74 72 75 75 76 69 77 70 78
REMARK SMILES IDX 73 79 71 80 50 81 51 82 59 83 52 84 53 85 57 86 60 87 54 88
REMARK SMILES IDX 55 89 58 90 56 91
REMARK H PARENT 12 14 2 21 2 22 80 44 48 55
REMARK Flexibility Score: inf
ROOT
ATOM      1  C   UNL A   1      37.013  23.702  26.159  1.00  0.00     0.274 C 
ENDROOT
BRANCH   1   2
ATOM      2  O   UNL A   1      36.333  22.733  25.340  1.00  0.00    -0.461 OA
BRANCH   2   3
ATOM      3  C   UNL A   1      35.307  23.173  24.568  1.00  0.00     0.329 C 
ATOM      4  O   UNL A   1      35.178  24.338  24.194  1.00  0.00    -0.250 OA
BRANCH   3   5
ATOM      5  C   UNL A   1      34.209  22.113  24.326  1.00  0.00     0.201 C 
ATOM      6  N   UNL A   1      33.785  21.151  25.395  1.00  0.00    -0.322 N 
ATOM      7  C   UNL A   1      33.239  21.723  26.643  1.00  0.00     0.178 C 
ATOM      8  C   UNL A   1      32.422  22.930  26.321  1.00  0.00     0.081 A 
ATOM      9  C   UNL A   1      32.963  22.923  23.842  1.00  0.00     0.093 C 
ATOM     10  N   UNL A   1      31.815  23.737  27.245  1.00  0.00    -0.240 NA
ATOM     11  C   UNL A   1      32.302  23.468  25.057  1.00  0.00     0.042 A 
ATOM     12  C   UNL A   1      31.311  24.732  26.545  1.00  0.00     0.197 A 
ATOM     13  N   UNL A   1      31.574  24.608  25.205  1.00  0.00    -0.348 N 
ATOM     14  H   UNL A   1      31.293  25.223  24.490  1.00  0.00     0.167 HD
BRANCH   6  15
ATOM     15  C   UNL A   1      33.272  19.918  25.004  1.00  0.00     0.229 C 
ATOM     16  O   UNL A   1      32.074  19.645  25.065  1.00  0.00    -0.275 OA
BRANCH  15  17
ATOM     17  C   UNL A   1      34.292  18.861  24.629  1.00  0.00     0.161 C 
BRANCH  17  18
ATOM     18  C   UNL A   1      33.752  17.724  23.754  1.00  0.00     0.270 C 
BRANCH  18  19
ATOM     19  N   UNL A   1      32.696  16.875  24.317  1.00  0.00    -0.348 N 
ATOM     20  C   UNL A   1      33.189  15.880  25.251  1.00  0.00     0.330 C 
ATOM     21  H   UNL A   1      32.027  17.471  24.804  1.00  0.00     0.346 HD
ATOM     22  H   UNL A   1      32.270  16.370  23.539  1.00  0.00     0.346 HD
ENDBRANCH  18  19
ENDBRANCH  17  18
ENDBRANCH  15  17
ENDBRANCH   6  15
ENDBRANCH   3   5
ENDBRANCH   2   3
ENDBRANCH   1   2
BRANCH   1  23
ATOM     23  C   UNL A   1      38.517  23.441  26.182  1.00  0.00     0.275 C 
BRANCH  23  24
ATOM     24  O   UNL A   1      39.140  23.833  27.415  1.00  0.00    -0.458 OA
BRANCH  24  25
ATOM     25  C   UNL A   1      39.800  25.006  27.334  1.00  0.00     0.338 C 
ATOM     26  O   UNL A   1      40.886  25.226  26.825  1.00  0.00    -0.246 OA
BRANCH  25  27
ATOM     27  C   UNL A   1      39.176  26.042  28.148  1.00  0.00     0.060 A 
ATOM     28  C   UNL A   1      38.925  27.242  27.482  1.00  0.00     0.016 A 
ATOM     29  C   UNL A   1      39.259  25.973  29.536  1.00  0.00     0.016 A 
ATOM     30  C   UNL A   1      38.976  28.422  28.180  1.00  0.00     0.010 A 
ATOM     31  C   UNL A   1      39.244  27.158  30.249  1.00  0.00     0.010 A 
ATOM     32  C   UNL A   1      39.206  28.379  29.556  1.00  0.00    -0.014 A 
BRANCH  32  33
ATOM     33  C   UNL A   1      39.323  29.662  30.245  1.00  0.00     0.031 A 
ATOM     34  C   UNL A   1      40.665  30.314  30.161  1.00  0.00     0.074 A 
ATOM     35  C   UNL A   1      38.242  30.268  30.774  1.00  0.00     0.049 A 
ATOM     36  N   UNL A   1      41.302  31.000  31.057  1.00  0.00    -0.248 NA
ATOM     37  C   UNL A   1      41.428  30.110  28.912  1.00  0.00     0.031 C 
ATOM     38  C   UNL A   1      36.849  29.807  30.721  1.00  0.00     0.029 A 
ATOM     39  N   UNL A   1      38.136  31.518  31.310  1.00  0.00    -0.354 N 
ATOM     40  C   UNL A   1      42.466  31.445  30.431  1.00  0.00     0.074 A 
ATOM     41  C   UNL A   1      42.553  30.768  29.166  1.00  0.00     0.031 C 
ATOM     42  C   UNL A   1      36.034  30.862  30.919  1.00  0.00     0.029 A 
ATOM     43  C   UNL A   1      36.849  32.028  31.216  1.00  0.00     0.049 A 
ATOM     44  H   UNL A   1      38.889  32.004  31.717  1.00  0.00     0.167 HD
ATOM     45  C   UNL A   1      43.173  32.515  30.879  1.00  0.00     0.037 A 
ATOM     46  C   UNL A   1      36.492  33.332  31.238  1.00  0.00     0.037 A 
ATOM     47  C   UNL A   1      43.021  32.716  32.291  1.00  0.00     0.049 A 
ATOM     48  C   UNL A   1      37.609  34.112  31.817  1.00  0.00     0.074 A 
ATOM     49  C   UNL A   1      43.292  31.958  33.414  1.00  0.00     0.029 A 
ATOM     50  N   UNL A   1      42.273  33.774  32.739  1.00  0.00    -0.354 N 
ATOM     51  N   UNL A   1      37.971  34.077  33.068  1.00  0.00    -0.248 NA
ATOM     52  C   UNL A   1      38.579  34.701  30.903  1.00  0.00     0.031 C 
ATOM     53  C   UNL A   1      42.318  32.347  34.379  1.00  0.00     0.029 A 
ATOM     54  C   UNL A   1      41.512  33.313  33.780  1.00  0.00     0.049 A 
ATOM     55  H   UNL A   1      42.282  34.691  32.380  1.00  0.00     0.167 HD
ATOM     56  C   UNL A   1      39.345  34.255  33.041  1.00  0.00     0.074 A 
ATOM     57  C   UNL A   1      39.640  34.764  31.710  1.00  0.00     0.031 C 
ATOM     58  C   UNL A   1      40.143  33.702  34.000  1.00  0.00     0.037 A 
BRANCH  45  59
ATOM     59  C   UNL A   1      43.715  33.570  29.943  1.00  0.00     0.064 A 
ATOM     60  C   UNL A   1      42.827  34.297  29.128  1.00  0.00     0.173 A 
ATOM     61  C   UNL A   1      45.084  33.685  29.605  1.00  0.00     0.173 A 
ATOM     62  F   UNL A   1      41.504  34.242  29.341  1.00  0.00    -0.203 F 
ATOM     63  C   UNL A   1      43.270  35.018  28.015  1.00  0.00     0.198 A 
ATOM     64  C   UNL A   1      45.526  34.451  28.529  1.00  0.00     0.198 A 
ATOM     65  F   UNL A   1      46.036  32.978  30.226  1.00  0.00    -0.203 F 
ATOM     66  F   UNL A   1      42.378  35.585  27.194  1.00  0.00    -0.200 F 
ATOM     67  C   UNL A   1      44.619  35.089  27.714  1.00  0.00     0.200 A 
ATOM     68  F   UNL A   1      46.836  34.493  28.246  1.00  0.00    -0.200 F 
ATOM     69  F   UNL A   1      45.038  35.725  26.613  1.00  0.00    -0.200 F 
ENDBRANCH  45  59
BRANCH  46  70
ATOM     70  C   UNL A   1      35.366  33.959  30.510  1.00  0.00     0.064 A 
ATOM     71  C   UNL A   1      34.311  34.571  31.201  1.00  0.00     0.173 A 
ATOM     72  C   UNL A   1      35.407  34.166  29.116  1.00  0.00     0.173 A 
ATOM     73  F   UNL A   1      34.236  34.477  32.536  1.00  0.00    -0.203 F 
ATOM     74  C   UNL A   1      33.349  35.337  30.535  1.00  0.00     0.198 A 
ATOM     75  C   UNL A   1      34.436  34.912  28.450  1.00  0.00     0.198 A 
ATOM     76  F   UNL A   1      36.438  33.723  28.380  1.00  0.00    -0.203 F 
ATOM     77  F   UNL A   1      32.384  35.950  31.234  1.00  0.00    -0.200 F 
ATOM     78  C   UNL A   1      33.411  35.504  29.162  1.00  0.00     0.200 A 
ATOM     79  F   UNL A   1      34.531  35.095  27.126  1.00  0.00    -0.200 F 
ATOM     80  F   UNL A   1      32.510  36.268  28.529  1.00  0.00    -0.200 F 
ENDBRANCH  46  70
BRANCH  58  81
ATOM     81  C   UNL A   1      39.479  33.185  35.241  1.00  0.00     0.064 A 
ATOM     82  C   UNL A   1      39.171  33.996  36.346  1.00  0.00     0.173 A 
ATOM     83  C   UNL A   1      39.026  31.861  35.260  1.00  0.00     0.173 A 
ATOM     84  F   UNL A   1      39.476  35.300  36.348  1.00  0.00    -0.203 F 
ATOM     85  C   UNL A   1      38.488  33.484  37.447  1.00  0.00     0.198 A 
ATOM     86  C   UNL A   1      38.313  31.361  36.346  1.00  0.00     0.198 A 
ATOM     87  F   UNL A   1      39.236  31.061  34.202  1.00  0.00    -0.203 F 
ATOM     88  F   UNL A   1      38.220  34.273  38.498  1.00  0.00    -0.200 F 
ATOM     89  C   UNL A   1      38.056  32.168  37.444  1.00  0.00     0.200 A 
ATOM     90  F   UNL A   1      37.851  30.103  36.320  1.00  0.00    -0.200 F 
ATOM     91  F   UNL A   1      37.367  31.685  38.488  1.00  0.00    -0.200 F 
ENDBRANCH  58  81
ENDBRANCH  32  33
ENDBRANCH  25  27
ENDBRANCH  24  25
ENDBRANCH  23  24
ENDBRANCH   1  23
TORSDOF 15
ENDMDL
MODEL 3
REMARK VINA RESULT:     -11.9      0.980      2.847
REMARK SMILES C[NH2+]CCC(=O)N1Cc2nc[nH]c2C[C@H]1C(=O)OCCOC(=O)c1ccc(-c2c3nc(c(-c4c(F)c(F)c(F)c(F)c4F)c4ccc([nH]4)c(-c4c(F)c(F)c(F)c(F)c4F)c4nc(c(-c5c(F)c(F)c(F)c(F)c5F)c5ccc2[nH]5)C=C4)C=C3)cc1
REMARK SMILES IDX 19 1 18 2 16 3 17 4 15 5 7 6 8 7 9 8 14 9 10 10 13 11 11 12
REMARK SMILES IDX 12 13 5 15 6 16 4 17 3 18 2 19 1 20 20 23 21 24 22 25 23 26
REMARK SMILES IDX 24 27 25 28 86 29 26 30 85 31 27 32 28 33 29 34 79 35 30 36
REMARK SMILES IDX 84 37 78 38 80 39 31 40 83 41 77 42 76 43 32 45 64 46 44 47
REMARK SMILES IDX 63 48 45 49 48 50 62 51 81 52 46 53 47 54 61 56 82 57 49 58
REMARK SMILES IDX 33 59 34 60 42 61 35 62 36 63 40 64 43 65 37 66 38 67 41 68
REMARK SMILES IDX 39 69 65 70 66 71 74 72 67 73 68 74 72 75 75 76 69 77 70 78
REMARK SMILES IDX 73 79 71 80 50 81 51 82 59 83 52 84 53 85 57 86 60 87 54 88
REMARK SMILES IDX 55 89 58 90 56 91
REMARK H PARENT 12 14 2 21 2 22 80 44 48 55
REMARK Flexibility Score: inf
ROOT
ATOM      1  C   UNL A   1      34.560  28.944  26.380  1.00  0.00     0.274 C 
ENDROOT
BRANCH   1   2
ATOM      2  O   UNL A   1      33.415  29.438  25.660  1.00  0.00    -0.461 OA
BRANCH   2   3
ATOM      3  C   UNL A   1      32.340  28.616  25.552  1.00  0.00     0.329 C 
ATOM      4  O   UNL A   1      31.402  28.602  26.347  1.00  0.00    -0.250 OA
BRANCH   3   5
ATOM      5  C   UNL A   1      32.466  27.570  24.422  1.00  0.00     0.201 C 
ATOM      6  N   UNL A   1      31.408  26.538  24.173  1.00  0.00    -0.322 N 
ATOM      7  C   UNL A   1      30.051  27.024  23.845  1.00  0.00     0.178 C 
ATOM      8  C   UNL A   1      30.154  28.246  22.994  1.00  0.00     0.081 A 
ATOM      9  C   UNL A   1      32.684  28.405  23.118  1.00  0.00     0.093 C 
ATOM     10  N   UNL A   1      29.092  28.988  22.553  1.00  0.00    -0.240 NA
ATOM     11  C   UNL A   1      31.343  28.865  22.670  1.00  0.00     0.042 A 
ATOM     12  C   UNL A   1      29.632  30.025  21.947  1.00  0.00     0.197 A 
ATOM     13  N   UNL A   1      31.002  29.990  21.985  1.00  0.00    -0.348 N 
ATOM     14  H   UNL A   1      31.619  30.650  21.593  1.00  0.00     0.167 HD
BRANCH   6  15
ATOM     15  C   UNL A   1      31.789  25.331  23.594  1.00  0.00     0.229 C 
ATOM     16  O   UNL A   1      32.497  25.268  22.590  1.00  0.00    -0.275 OA
BRANCH  15  17
ATOM     17  C   UNL A   1      31.162  24.082  24.184  1.00  0.00     0.161 C 
BRANCH  17  18
ATOM     18  C   UNL A   1      32.146  23.129  24.870  1.00  0.00     0.270 C 
BRANCH  18  19
ATOM     19  N   UNL A   1      33.202  22.530  24.046  1.00  0.00    -0.348 N 
ATOM     20  C   UNL A   1      33.776  21.329  24.622  1.00  0.00     0.330 C 
ATOM     21  H   UNL A   1      32.807  22.295  23.136  1.00  0.00     0.346 HD
ATOM     22  H   UNL A   1      33.953  23.217  23.975  1.00  0.00     0.346 HD
ENDBRANCH  18  19
ENDBRANCH  17  18
ENDBRANCH  15  17
ENDBRANCH   6  15
ENDBRANCH   3   5
ENDBRANCH   2   3
ENDBRANCH   1   2
BRANCH   1  23
ATOM     23  C   UNL A   1      34.869  29.824  27.589  1.00  0.00     0.275 C 
BRANCH  23  24
ATOM     24  O   UNL A   1      36.121  30.517  27.479  1.00  0.00    -0.458 OA
BRANCH  24  25
ATOM     25  C   UNL A   1      37.027  30.138  28.402  1.00  0.00     0.338 C 
ATOM     26  O   UNL A   1      37.204  30.598  29.518  1.00  0.00    -0.246 OA
BRANCH  25  27
ATOM     27  C   UNL A   1      38.006  29.205  27.857  1.00  0.00     0.060 A 
ATOM     28  C   UNL A   1      38.146  28.016  28.572  1.00  0.00     0.016 A 
ATOM     29  C   UNL A   1      38.997  29.668  26.995  1.00  0.00     0.016 A 
ATOM     30  C   UNL A   1      39.367  27.391  28.606  1.00  0.00     0.010 A 
ATOM     31  C   UNL A   1      40.208  29.001  26.979  1.00  0.00     0.010 A 
ATOM     32  C   UNL A   1      40.418  27.929  27.860  1.00  0.00    -0.014 A 
BRANCH  32  33
ATOM     33  C   UNL A   1      41.717  27.273  27.984  1.00  0.00     0.031 A 
ATOM     34  C   UNL A   1      42.457  27.551  29.251  1.00  0.00     0.074 A 
ATOM     35  C   UNL A   1      42.124  26.361  27.078  1.00  0.00     0.049 A 
ATOM     36  N   UNL A   1      43.730  27.710  29.441  1.00  0.00    -0.248 NA
ATOM     37  C   UNL A   1      41.644  27.743  30.470  1.00  0.00     0.031 C 
ATOM     38  C   UNL A   1      41.375  25.867  25.916  1.00  0.00     0.029 A 
ATOM     39  N   UNL A   1      43.218  25.548  27.112  1.00  0.00    -0.354 N 
ATOM     40  C   UNL A   1      43.887  27.860  30.818  1.00  0.00     0.074 A 
ATOM     41  C   UNL A   1      42.574  28.000  31.383  1.00  0.00     0.031 C 
ATOM     42  C   UNL A   1      41.879  24.671  25.551  1.00  0.00     0.029 A 
ATOM     43  C   UNL A   1      43.037  24.384  26.380  1.00  0.00     0.049 A 
ATOM     44  H   UNL A   1      44.044  25.763  27.602  1.00  0.00     0.167 HD
ATOM     45  C   UNL A   1      45.069  27.630  31.447  1.00  0.00     0.037 A 
ATOM     46  C   UNL A   1      43.699  23.216  26.542  1.00  0.00     0.037 A 
ATOM     47  C   UNL A   1      46.197  27.852  30.588  1.00  0.00     0.049 A 
ATOM     48  C   UNL A   1      44.940  23.483  27.303  1.00  0.00     0.074 A 
ATOM     49  C   UNL A   1      46.684  28.939  29.887  1.00  0.00     0.029 A 
ATOM     50  N   UNL A   1      46.911  26.775  30.131  1.00  0.00    -0.354 N 
ATOM     51  N   UNL A   1      45.971  24.130  26.839  1.00  0.00    -0.248 NA
ATOM     52  C   UNL A   1      44.904  23.319  28.750  1.00  0.00     0.031 C 
ATOM     53  C   UNL A   1      47.325  28.393  28.738  1.00  0.00     0.029 A 
ATOM     54  C   UNL A   1      47.182  27.009  28.809  1.00  0.00     0.049 A 
ATOM     55  H   UNL A   1      47.177  25.985  30.653  1.00  0.00     0.167 HD
ATOM     56  C   UNL A   1      46.490  24.797  27.938  1.00  0.00     0.074 A 
ATOM     57  C   UNL A   1      45.881  24.159  29.097  1.00  0.00     0.031 C 
ATOM     58  C   UNL A   1      47.140  25.988  27.793  1.00  0.00     0.037 A 
BRANCH  45  59
ATOM     59  C   UNL A   1      45.153  26.861  32.746  1.00  0.00     0.064 A 
ATOM     60  C   UNL A   1      44.625  25.559  32.817  1.00  0.00     0.173 A 
ATOM     61  C   UNL A   1      45.460  27.462  33.989  1.00  0.00     0.173 A 
ATOM     62  F   UNL A   1      44.274  24.902  31.701  1.00  0.00    -0.203 F 
ATOM     63  C   UNL A   1      44.355  24.938  34.040  1.00  0.00     0.198 A 
ATOM     64  C   UNL A   1      45.243  26.817  35.204  1.00  0.00     0.198 A 
ATOM     65  F   UNL A   1      45.878  28.730  34.088  1.00  0.00    -0.203 F 
ATOM     66  F   UNL A   1      43.732  23.753  34.059  1.00  0.00    -0.200 F 
ATOM     67  C   UNL A   1      44.658  25.571  35.232  1.00  0.00     0.200 A 
ATOM     68  F   UNL A   1      45.530  27.455  36.348  1.00  0.00    -0.200 F 
ATOM     69  F   UNL A   1      44.341  25.005  36.404  1.00  0.00    -0.200 F 
ENDBRANCH  45  59
BRANCH  46  70
ATOM     70  C   UNL A   1      43.162  21.852  26.334  1.00  0.00     0.064 A 
ATOM     71  C   UNL A   1      43.768  20.966  25.432  1.00  0.00     0.173 A 
ATOM     72  C   UNL A   1      42.171  21.308  27.177  1.00  0.00     0.173 A 
ATOM     73  F   UNL A   1      44.765  21.388  24.641  1.00  0.00    -0.203 F 
ATOM     74  C   UNL A   1      43.399  19.619  25.372  1.00  0.00     0.198 A 
ATOM     75  C   UNL A   1      41.788  19.971  27.101  1.00  0.00     0.198 A 
ATOM     76  F   UNL A   1      41.613  22.042  28.152  1.00  0.00    -0.203 F 
ATOM     77  F   UNL A   1      44.036  18.790  24.534  1.00  0.00    -0.200 F 
ATOM     78  C   UNL A   1      42.408  19.124  26.203  1.00  0.00     0.200 A 
ATOM     79  F   UNL A   1      40.853  19.499  27.938  1.00  0.00    -0.200 F 
ATOM     80  F   UNL A   1      42.080  17.825  26.170  1.00  0.00    -0.200 F 
ENDBRANCH  46  70
BRANCH  58  81
ATOM     81  C   UNL A   1      47.559  26.385  26.410  1.00  0.00     0.064 A 
ATOM     82  C   UNL A   1      46.744  27.127  25.540  1.00  0.00     0.173 A 
ATOM     83  C   UNL A   1      48.872  26.119  26.002  1.00  0.00     0.173 A 
ATOM     84  F   UNL A   1      45.516  27.514  25.910  1.00  0.00    -0.203 F 
ATOM     85  C   UNL A   1      47.206  27.534  24.290  1.00  0.00     0.198 A 
ATOM     86  C   UNL A   1      49.344  26.557  24.768  1.00  0.00     0.198 A 
ATOM     87  F   UNL A   1      49.714  25.471  26.822  1.00  0.00    -0.203 F 
ATOM     88  F   UNL A   1      46.403  28.226  23.469  1.00  0.00    -0.200 F 
ATOM     89  C   UNL A   1      48.508  27.252  23.908  1.00  0.00     0.200 A 
ATOM     90  F   UNL A   1      50.617  26.328  24.421  1.00  0.00    -0.200 F 
ATOM     91  F   UNL A   1      48.965  27.674  22.720  1.00  0.00    -0.200 F 
ENDBRANCH  58  81
ENDBRANCH  32  33
ENDBRANCH  25  27
ENDBRANCH  24  25
ENDBRANCH  23  24
ENDBRANCH   1  23
TORSDOF 15
ENDMDL
