MODEL 1
REMARK VINA RESULT:     -13.2      0.000      0.000
REMARK SMILES CC[C@](C)(NC(=O)[C@](C)([NH3+])c1ccccc1)C(=O)OCCOC(=O)c1ccc(-c2c3nc(c(-c4c(F)c(F)c(F)c(F)c4F)c4ccc([nH]4)c(-c4c(F)c(F)c(F)c(F)c4F)c4nc(c(-c5c(F)c(F)c(F)c(F)c5F)c5ccc2[nH]5)C=C4)C=C3)cc1
REMARK SMILES IDX 20 1 19 2 17 3 18 4 3 5 4 6 2 7 1 8 5 9 6 10 7 12 8 13 9 14
REMARK SMILES IDX 10 15 11 19 12 20 16 21 13 22 15 23 14 24 21 25 22 26 23 27
REMARK SMILES IDX 24 28 25 29 26 30 87 31 27 32 86 33 28 34 29 35 30 36 80 37
REMARK SMILES IDX 31 38 85 39 79 40 81 41 32 42 84 43 78 44 77 45 33 47 65 48
REMARK SMILES IDX 45 49 64 50 46 51 49 52 63 53 82 54 47 55 48 56 62 58 83 59
REMARK SMILES IDX 50 60 34 61 35 62 43 63 36 64 37 65 41 66 44 67 38 68 39 69
REMARK SMILES IDX 42 70 40 71 66 72 67 73 75 74 68 75 69 76 73 77 76 78 70 79
REMARK SMILES IDX 71 80 74 81 72 82 51 83 52 84 60 85 53 86 54 87 58 88 61 89
REMARK SMILES IDX 55 90 56 91 59 92 57 93
REMARK H PARENT 5 11 10 16 10 17 10 18 81 46 49 57
REMARK Flexibility Score: inf
ROOT
ATOM      1  C   UNL A   1      31.690  28.506  27.466  1.00  0.00     0.274 C 
ENDROOT
BRANCH   1   2
ATOM      2  O   UNL A   1      31.411  26.892  26.944  1.00  0.00    -0.460 OA
BRANCH   2   3
ATOM      3  C   UNL A   1      31.427  25.469  25.720  1.00  0.00     0.331 C 
ATOM      4  O   UNL A   1      30.683  24.445  25.780  1.00  0.00    -0.249 OA
BRANCH   3   5
ATOM      5  C   UNL A   1      32.201  25.510  24.151  1.00  0.00     0.135 C 
ATOM      6  C   UNL A   1      33.145  26.764  24.204  1.00  0.00     0.047 C 
BRANCH   5   7
ATOM      7  C   UNL A   1      31.006  25.876  23.158  1.00  0.00     0.037 C 
ATOM      8  C   UNL A   1      30.903  27.272  22.538  1.00  0.00     0.007 C 
ENDBRANCH   5   7
BRANCH   5   9
ATOM      9  N   UNL A   1      32.972  24.506  23.310  1.00  0.00    -0.335 N 
ATOM     10  C   UNL A   1      34.084  23.771  23.632  1.00  0.00     0.286 C 
ATOM     11  H   UNL A   1      32.623  24.363  22.400  1.00  0.00     0.164 HD
ATOM     12  O   UNL A   1      34.883  23.466  22.747  1.00  0.00    -0.267 OA
BRANCH  10  13
ATOM     13  C   UNL A   1      34.160  23.210  25.056  1.00  0.00     0.196 C 
ATOM     14  C   UNL A   1      33.100  22.132  25.281  1.00  0.00     0.096 C 
BRANCH  13  15
ATOM     15  N   UNL A   1      33.876  24.308  26.008  1.00  0.00    -0.341 N 
ATOM     16  H   UNL A   1      34.385  25.145  25.724  1.00  0.00     0.345 HD
ATOM     17  H   UNL A   1      34.173  24.031  26.944  1.00  0.00     0.345 HD
ATOM     18  H   UNL A   1      32.875  24.504  26.013  1.00  0.00     0.345 HD
ENDBRANCH  13  15
BRANCH  13  19
ATOM     19  C   UNL A   1      35.564  22.725  25.229  1.00  0.00     0.022 A 
ATOM     20  C   UNL A   1      35.960  20.990  24.837  1.00  0.00     0.011 A 
ATOM     21  C   UNL A   1      36.845  23.780  25.964  1.00  0.00     0.011 A 
ATOM     22  C   UNL A   1      37.631  20.361  25.056  1.00  0.00     0.001 A 
ATOM     23  C   UNL A   1      38.562  23.141  26.156  1.00  0.00     0.001 A 
ATOM     24  C   UNL A   1      38.947  21.425  25.665  1.00  0.00     0.000 A 
ENDBRANCH  13  19
ENDBRANCH  10  13
ENDBRANCH   5   9
ENDBRANCH   3   5
ENDBRANCH   2   3
ENDBRANCH   1   2
BRANCH   1  25
ATOM     25  C   UNL A   1      31.692  29.613  26.330  1.00  0.00     0.275 C 
BRANCH  25  26
ATOM     26  O   UNL A   1      32.993  30.265  26.107  1.00  0.00    -0.458 OA
BRANCH  26  27
ATOM     27  C   UNL A   1      33.417  31.167  27.039  1.00  0.00     0.338 C 
ATOM     28  O   UNL A   1      32.727  32.051  27.521  1.00  0.00    -0.246 OA
BRANCH  27  29
ATOM     29  C   UNL A   1      34.818  30.907  27.545  1.00  0.00     0.060 A 
ATOM     30  C   UNL A   1      35.243  29.643  27.967  1.00  0.00     0.016 A 
ATOM     31  C   UNL A   1      35.669  31.977  27.824  1.00  0.00     0.016 A 
ATOM     32  C   UNL A   1      36.406  29.428  28.699  1.00  0.00     0.010 A 
ATOM     33  C   UNL A   1      36.897  31.760  28.483  1.00  0.00     0.010 A 
ATOM     34  C   UNL A   1      37.266  30.483  28.945  1.00  0.00    -0.014 A 
BRANCH  34  35
ATOM     35  C   UNL A   1      38.500  30.247  29.735  1.00  0.00     0.031 A 
ATOM     36  C   UNL A   1      39.579  29.382  29.160  1.00  0.00     0.074 A 
ATOM     37  C   UNL A   1      38.678  30.823  30.941  1.00  0.00     0.049 A 
ATOM     38  N   UNL A   1      40.570  28.779  29.760  1.00  0.00    -0.248 NA
ATOM     39  C   UNL A   1      39.528  29.164  27.705  1.00  0.00     0.031 C 
ATOM     40  C   UNL A   1      37.789  31.810  31.559  1.00  0.00     0.029 A 
ATOM     41  N   UNL A   1      39.668  30.642  31.875  1.00  0.00    -0.354 N 
ATOM     42  C   UNL A   1      41.208  28.038  28.775  1.00  0.00     0.074 A 
ATOM     43  C   UNL A   1      40.515  28.296  27.531  1.00  0.00     0.031 C 
ATOM     44  C   UNL A   1      38.264  32.135  32.771  1.00  0.00     0.029 A 
ATOM     45  C   UNL A   1      39.429  31.306  33.054  1.00  0.00     0.049 A 
ATOM     46  H   UNL A   1      40.471  30.094  31.716  1.00  0.00     0.167 HD
ATOM     47  C   UNL A   1      42.259  27.196  28.918  1.00  0.00     0.037 A 
ATOM     48  C   UNL A   1      40.032  31.199  34.254  1.00  0.00     0.037 A 
ATOM     49  C   UNL A   1      42.960  26.998  30.161  1.00  0.00     0.049 A 
ATOM     50  C   UNL A   1      41.155  30.211  34.411  1.00  0.00     0.074 A 
ATOM     51  C   UNL A   1      44.023  26.157  30.434  1.00  0.00     0.029 A 
ATOM     52  N   UNL A   1      42.671  27.672  31.341  1.00  0.00    -0.354 N 
ATOM     53  N   UNL A   1      41.686  29.413  33.517  1.00  0.00    -0.248 NA
ATOM     54  C   UNL A   1      41.748  30.096  35.749  1.00  0.00     0.031 C 
ATOM     55  C   UNL A   1      44.355  26.295  31.787  1.00  0.00     0.029 A 
ATOM     56  C   UNL A   1      43.532  27.261  32.345  1.00  0.00     0.049 A 
ATOM     57  H   UNL A   1      41.959  28.343  31.447  1.00  0.00     0.167 HD
ATOM     58  C   UNL A   1      42.694  28.720  34.173  1.00  0.00     0.074 A 
ATOM     59  C   UNL A   1      42.704  29.202  35.541  1.00  0.00     0.031 C 
ATOM     60  C   UNL A   1      43.534  27.771  33.692  1.00  0.00     0.037 A 
BRANCH  47  61
ATOM     61  C   UNL A   1      42.655  26.371  27.729  1.00  0.00     0.064 A 
ATOM     62  C   UNL A   1      42.078  25.123  27.451  1.00  0.00     0.173 A 
ATOM     63  C   UNL A   1      43.636  26.850  26.844  1.00  0.00     0.173 A 
ATOM     64  F   UNL A   1      41.153  24.610  28.275  1.00  0.00    -0.203 F 
ATOM     65  C   UNL A   1      42.487  24.376  26.348  1.00  0.00     0.198 A 
ATOM     66  C   UNL A   1      44.020  26.115  25.727  1.00  0.00     0.198 A 
ATOM     67  F   UNL A   1      44.221  28.037  27.064  1.00  0.00    -0.203 F 
ATOM     68  F   UNL A   1      41.959  23.163  26.131  1.00  0.00    -0.200 F 
ATOM     69  C   UNL A   1      43.451  24.875  25.484  1.00  0.00     0.200 A 
ATOM     70  F   UNL A   1      44.944  26.604  24.890  1.00  0.00    -0.200 F 
ATOM     71  F   UNL A   1      43.840  24.156  24.422  1.00  0.00    -0.200 F 
ENDBRANCH  47  61
BRANCH  48  72
ATOM     72  C   UNL A   1      39.542  31.996  35.410  1.00  0.00     0.064 A 
ATOM     73  C   UNL A   1      38.589  31.472  36.292  1.00  0.00     0.173 A 
ATOM     74  C   UNL A   1      40.013  33.295  35.657  1.00  0.00     0.173 A 
ATOM     75  F   UNL A   1      38.085  30.246  36.082  1.00  0.00    -0.203 F 
ATOM     76  C   UNL A   1      38.117  32.219  37.370  1.00  0.00     0.198 A 
ATOM     77  C   UNL A   1      39.564  34.029  36.754  1.00  0.00     0.198 A 
ATOM     78  F   UNL A   1      40.923  33.848  34.842  1.00  0.00    -0.203 F 
ATOM     79  F   UNL A   1      37.172  31.708  38.173  1.00  0.00    -0.200 F 
ATOM     80  C   UNL A   1      38.611  33.492  37.606  1.00  0.00     0.200 A 
ATOM     81  F   UNL A   1      40.056  35.254  36.984  1.00  0.00    -0.200 F 
ATOM     82  F   UNL A   1      38.164  34.206  38.648  1.00  0.00    -0.200 F 
ENDBRANCH  48  72
BRANCH  60  83
ATOM     83  C   UNL A   1      44.576  27.248  34.635  1.00  0.00     0.064 A 
ATOM     84  C   UNL A   1      44.381  26.074  35.378  1.00  0.00     0.173 A 
ATOM     85  C   UNL A   1      45.793  27.928  34.784  1.00  0.00     0.173 A 
ATOM     86  F   UNL A   1      43.225  25.399  35.282  1.00  0.00    -0.203 F 
ATOM     87  C   UNL A   1      45.356  25.618  36.260  1.00  0.00     0.198 A 
ATOM     88  C   UNL A   1      46.777  27.453  35.645  1.00  0.00     0.198 A 
ATOM     89  F   UNL A   1      46.030  29.052  34.091  1.00  0.00    -0.203 F 
ATOM     90  F   UNL A   1      45.126  24.526  37.003  1.00  0.00    -0.200 F 
ATOM     91  C   UNL A   1      46.554  26.304  36.390  1.00  0.00     0.200 A 
ATOM     92  F   UNL A   1      47.939  28.111  35.761  1.00  0.00    -0.200 F 
ATOM     93  F   UNL A   1      47.491  25.865  37.241  1.00  0.00    -0.200 F 
ENDBRANCH  60  83
ENDBRANCH  34  35
ENDBRANCH  27  29
ENDBRANCH  26  27
ENDBRANCH  25  26
ENDBRANCH   1  25
TORSDOF 16
ENDMDL
MODEL 2
REMARK VINA RESULT:     -13.1      1.025      2.189
REMARK SMILES CC[C@](C)(NC(=O)[C@](C)([NH3+])c1ccccc1)C(=O)OCCOC(=O)c1ccc(-c2c3nc(c(-c4c(F)c(F)c(F)c(F)c4F)c4ccc([nH]4)c(-c4c(F)c(F)c(F)c(F)c4F)c4nc(c(-c5c(F)c(F)c(F)c(F)c5F)c5ccc2[nH]5)C=C4)C=C3)cc1
REMARK SMILES IDX 20 1 19 2 17 3 18 4 3 5 4 6 2 7 1 8 5 9 6 10 7 12 8 13 9 14
REMARK SMILES IDX 10 15 11 19 12 20 16 21 13 22 15 23 14 24 21 25 22 26 23 27
REMARK SMILES IDX 24 28 25 29 26 30 87 31 27 32 86 33 28 34 29 35 30 36 80 37
REMARK SMILES IDX 31 38 85 39 79 40 81 41 32 42 84 43 78 44 77 45 33 47 65 48
REMARK SMILES IDX 45 49 64 50 46 51 49 52 63 53 82 54 47 55 48 56 62 58 83 59
REMARK SMILES IDX 50 60 34 61 35 62 43 63 36 64 37 65 41 66 44 67 38 68 39 69
REMARK SMILES IDX 42 70 40 71 66 72 67 73 75 74 68 75 69 76 73 77 76 78 70 79
REMARK SMILES IDX 71 80 74 81 72 82 51 83 52 84 60 85 53 86 54 87 58 88 61 89
REMARK SMILES IDX 55 90 56 91 59 92 57 93
REMARK H PARENT 5 11 10 16 10 17 10 18 81 46 49 57
REMARK Flexibility Score: inf
ROOT
ATOM      1  C   UNL A   1      31.687  28.191  27.450  1.00  0.00     0.274 C 
ENDROOT
BRANCH   1   2
ATOM      2  O   UNL A   1      31.405  26.935  26.311  1.00  0.00    -0.460 OA
BRANCH   2   3
ATOM      3  C   UNL A   1      31.329  26.172  24.598  1.00  0.00     0.331 C 
ATOM      4  O   UNL A   1      30.269  25.970  23.934  1.00  0.00    -0.249 OA
BRANCH   3   5
ATOM      5  C   UNL A   1      32.705  25.960  23.537  1.00  0.00     0.135 C 
ATOM      6  C   UNL A   1      33.900  25.620  24.497  1.00  0.00     0.047 C 
BRANCH   5   7
ATOM      7  C   UNL A   1      32.970  27.430  22.975  1.00  0.00     0.037 C 
ATOM      8  C   UNL A   1      34.034  28.329  23.607  1.00  0.00     0.007 C 
ENDBRANCH   5   7
BRANCH   5   9
ATOM      9  N   UNL A   1      32.983  25.126  22.297  1.00  0.00    -0.335 N 
ATOM     10  C   UNL A   1      33.088  23.766  22.167  1.00  0.00     0.286 C 
ATOM     11  H   UNL A   1      33.106  25.638  21.465  1.00  0.00     0.164 HD
ATOM     12  O   UNL A   1      33.830  23.297  21.304  1.00  0.00    -0.267 OA
BRANCH  10  13
ATOM     13  C   UNL A   1      32.119  22.909  22.988  1.00  0.00     0.196 C 
ATOM     14  C   UNL A   1      31.866  21.562  22.312  1.00  0.00     0.096 C 
BRANCH  13  15
ATOM     15  N   UNL A   1      30.818  23.614  23.059  1.00  0.00    -0.341 N 
ATOM     16  H   UNL A   1      30.977  24.611  23.200  1.00  0.00     0.345 HD
ATOM     17  H   UNL A   1      30.274  23.243  23.839  1.00  0.00     0.345 HD
ATOM     18  H   UNL A   1      30.305  23.470  22.189  1.00  0.00     0.345 HD
ENDBRANCH  13  15
BRANCH  13  19
ATOM     19  C   UNL A   1      32.723  22.800  24.351  1.00  0.00     0.022 A 
ATOM     20  C   UNL A   1      34.466  22.295  24.513  1.00  0.00     0.011 A 
ATOM     21  C   UNL A   1      31.721  23.009  25.850  1.00  0.00     0.011 A 
ATOM     22  C   UNL A   1      35.224  22.128  26.136  1.00  0.00     0.001 A 
ATOM     23  C   UNL A   1      32.509  22.868  27.509  1.00  0.00     0.001 A 
ATOM     24  C   UNL A   1      34.282  22.453  27.634  1.00  0.00     0.000 A 
ENDBRANCH  13  19
ENDBRANCH  10  13
ENDBRANCH   5   9
ENDBRANCH   3   5
ENDBRANCH   2   3
ENDBRANCH   1   2
BRANCH   1  25
ATOM     25  C   UNL A   1      31.635  29.670  26.880  1.00  0.00     0.275 C 
BRANCH  25  26
ATOM     26  O   UNL A   1      32.933  30.206  26.436  1.00  0.00    -0.458 OA
BRANCH  26  27
ATOM     27  C   UNL A   1      33.471  31.236  27.153  1.00  0.00     0.338 C 
ATOM     28  O   UNL A   1      32.874  32.251  27.473  1.00  0.00    -0.246 OA
BRANCH  27  29
ATOM     29  C   UNL A   1      34.873  30.966  27.648  1.00  0.00     0.060 A 
ATOM     30  C   UNL A   1      35.296  29.698  28.061  1.00  0.00     0.016 A 
ATOM     31  C   UNL A   1      35.731  32.031  27.927  1.00  0.00     0.016 A 
ATOM     32  C   UNL A   1      36.461  29.474  28.784  1.00  0.00     0.010 A 
ATOM     33  C   UNL A   1      36.963  31.805  28.577  1.00  0.00     0.010 A 
ATOM     34  C   UNL A   1      37.329  30.523  29.030  1.00  0.00    -0.014 A 
BRANCH  34  35
ATOM     35  C   UNL A   1      38.566  30.277  29.811  1.00  0.00     0.031 A 
ATOM     36  C   UNL A   1      39.634  29.403  29.228  1.00  0.00     0.074 A 
ATOM     37  C   UNL A   1      38.759  30.852  31.015  1.00  0.00     0.049 A 
ATOM     38  N   UNL A   1      40.624  28.791  29.821  1.00  0.00    -0.248 NA
ATOM     39  C   UNL A   1      39.570  29.184  27.774  1.00  0.00     0.031 C 
ATOM     40  C   UNL A   1      37.883  31.846  31.639  1.00  0.00     0.029 A 
ATOM     41  N   UNL A   1      39.755  30.663  31.942  1.00  0.00    -0.354 N 
ATOM     42  C   UNL A   1      41.248  28.044  28.831  1.00  0.00     0.074 A 
ATOM     43  C   UNL A   1      40.549  28.308  27.592  1.00  0.00     0.031 C 
ATOM     44  C   UNL A   1      38.370  32.168  32.848  1.00  0.00     0.029 A 
ATOM     45  C   UNL A   1      39.530  31.329  33.122  1.00  0.00     0.049 A 
ATOM     46  H   UNL A   1      40.551  30.108  31.777  1.00  0.00     0.167 HD
ATOM     47  C   UNL A   1      42.293  27.194  28.967  1.00  0.00     0.037 A 
ATOM     48  C   UNL A   1      40.141  31.218  34.317  1.00  0.00     0.037 A 
ATOM     49  C   UNL A   1      43.002  26.990  30.205  1.00  0.00     0.049 A 
ATOM     50  C   UNL A   1      41.257  30.220  34.467  1.00  0.00     0.074 A 
ATOM     51  C   UNL A   1      44.060  26.140  30.469  1.00  0.00     0.029 A 
ATOM     52  N   UNL A   1      42.728  27.667  31.386  1.00  0.00    -0.354 N 
ATOM     53  N   UNL A   1      41.774  29.417  33.569  1.00  0.00    -0.248 NA
ATOM     54  C   UNL A   1      41.859  30.101  35.800  1.00  0.00     0.031 C 
ATOM     55  C   UNL A   1      44.404  26.276  31.820  1.00  0.00     0.029 A 
ATOM     56  C   UNL A   1      43.593  27.250  32.384  1.00  0.00     0.049 A 
ATOM     57  H   UNL A   1      42.022  28.345  31.498  1.00  0.00     0.167 HD
ATOM     58  C   UNL A   1      42.781  28.716  34.218  1.00  0.00     0.074 A 
ATOM     59  C   UNL A   1      42.806  29.199  35.585  1.00  0.00     0.031 C 
ATOM     60  C   UNL A   1      43.609  27.760  33.731  1.00  0.00     0.037 A 
BRANCH  47  61
ATOM     61  C   UNL A   1      42.673  26.365  27.775  1.00  0.00     0.064 A 
ATOM     62  C   UNL A   1      43.676  26.755  26.875  1.00  0.00     0.173 A 
ATOM     63  C   UNL A   1      42.016  25.147  27.535  1.00  0.00     0.173 A 
ATOM     64  F   UNL A   1      44.320  27.919  27.046  1.00  0.00    -0.203 F 
ATOM     65  C   UNL A   1      43.987  25.969  25.768  1.00  0.00     0.198 A 
ATOM     66  C   UNL A   1      42.350  24.351  26.444  1.00  0.00     0.198 A 
ATOM     67  F   UNL A   1      41.047  24.728  28.363  1.00  0.00    -0.203 F 
ATOM     68  F   UNL A   1      44.913  26.386  24.892  1.00  0.00    -0.200 F 
ATOM     69  C   UNL A   1      43.330  24.766  25.556  1.00  0.00     0.200 A 
ATOM     70  F   UNL A   1      41.720  23.185  26.249  1.00  0.00    -0.200 F 
ATOM     71  F   UNL A   1      43.634  24.011  24.492  1.00  0.00    -0.200 F 
ENDBRANCH  47  61
BRANCH  48  72
ATOM     72  C   UNL A   1      39.667  32.019  35.476  1.00  0.00     0.064 A 
ATOM     73  C   UNL A   1      38.677  31.525  36.336  1.00  0.00     0.173 A 
ATOM     74  C   UNL A   1      40.188  33.294  35.750  1.00  0.00     0.173 A 
ATOM     75  F   UNL A   1      38.125  30.325  36.100  1.00  0.00    -0.203 F 
ATOM     76  C   UNL A   1      38.220  32.277  37.417  1.00  0.00     0.198 A 
ATOM     77  C   UNL A   1      39.754  34.031  36.850  1.00  0.00     0.198 A 
ATOM     78  F   UNL A   1      41.135  33.818  34.957  1.00  0.00    -0.203 F 
ATOM     79  F   UNL A   1      37.241  31.797  38.197  1.00  0.00    -0.200 F 
ATOM     80  C   UNL A   1      38.765  33.524  37.679  1.00  0.00     0.200 A 
ATOM     81  F   UNL A   1      40.293  35.230  37.105  1.00  0.00    -0.200 F 
ATOM     82  F   UNL A   1      38.332  34.243  38.723  1.00  0.00    -0.200 F 
ENDBRANCH  48  72
BRANCH  60  83
ATOM     83  C   UNL A   1      44.654  27.228  34.666  1.00  0.00     0.064 A 
ATOM     84  C   UNL A   1      45.902  27.851  34.814  1.00  0.00     0.173 A 
ATOM     85  C   UNL A   1      44.392  26.085  35.434  1.00  0.00     0.173 A 
ATOM     86  F   UNL A   1      46.204  28.938  34.086  1.00  0.00    -0.203 F 
ATOM     87  C   UNL A   1      46.862  27.328  35.675  1.00  0.00     0.198 A 
ATOM     88  C   UNL A   1      45.344  25.582  36.316  1.00  0.00     0.198 A 
ATOM     89  F   UNL A   1      43.212  25.456  35.333  1.00  0.00    -0.203 F 
ATOM     90  F   UNL A   1      48.070  27.906  35.759  1.00  0.00    -0.200 F 
ATOM     91  C   UNL A   1      46.582  26.198  36.428  1.00  0.00     0.200 A 
ATOM     92  F   UNL A   1      45.067  24.496  37.051  1.00  0.00    -0.200 F 
ATOM     93  F   UNL A   1      47.508  25.695  37.256  1.00  0.00    -0.200 F 
ENDBRANCH  60  83
ENDBRANCH  34  35
ENDBRANCH  27  29
ENDBRANCH  26  27
ENDBRANCH  25  26
ENDBRANCH   1  25
TORSDOF 16
ENDMDL
MODEL 3
REMARK VINA RESULT:     -13.1      0.299      1.766
REMARK SMILES CC[C@](C)(NC(=O)[C@](C)([NH3+])c1ccccc1)C(=O)OCCOC(=O)c1ccc(-c2c3nc(c(-c4c(F)c(F)c(F)c(F)c4F)c4ccc([nH]4)c(-c4c(F)c(F)c(F)c(F)c4F)c4nc(c(-c5c(F)c(F)c(F)c(F)c5F)c5ccc2[nH]5)C=C4)C=C3)cc1
REMARK SMILES IDX 20 1 19 2 17 3 18 4 3 5 4 6 2 7 1 8 5 9 6 10 7 12 8 13 9 14
REMARK SMILES IDX 10 15 11 19 12 20 16 21 13 22 15 23 14 24 21 25 22 26 23 27
REMARK SMILES IDX 24 28 25 29 26 30 87 31 27 32 86 33 28 34 29 35 30 36 80 37
REMARK SMILES IDX 31 38 85 39 79 40 81 41 32 42 84 43 78 44 77 45 33 47 65 48
REMARK SMILES IDX 45 49 64 50 46 51 49 52 63 53 82 54 47 55 48 56 62 58 83 59
REMARK SMILES IDX 50 60 34 61 35 62 43 63 36 64 37 65 41 66 44 67 38 68 39 69
REMARK SMILES IDX 42 70 40 71 66 72 67 73 75 74 68 75 69 76 73 77 76 78 70 79
REMARK SMILES IDX 71 80 74 81 72 82 51 83 52 84 60 85 53 86 54 87 58 88 61 89
REMARK SMILES IDX 55 90 56 91 59 92 57 93
REMARK H PARENT 5 11 10 16 10 17 10 18 81 46 49 57
REMARK Flexibility Score: inf
ROOT
ATOM      1  C   UNL A   1      31.565  28.638  27.547  1.00  0.00     0.274 C 
ENDROOT
BRANCH   1   2
ATOM      2  O   UNL A   1      31.359  27.019  27.006  1.00  0.00    -0.460 OA
BRANCH   2   3
ATOM      3  C   UNL A   1      31.602  25.566  25.843  1.00  0.00     0.331 C 
ATOM      4  O   UNL A   1      30.950  24.480  25.884  1.00  0.00    -0.249 OA
BRANCH   3   5
ATOM      5  C   UNL A   1      32.493  25.628  24.338  1.00  0.00     0.135 C 
ATOM      6  C   UNL A   1      33.578  26.742  24.563  1.00  0.00     0.047 C 
BRANCH   5   7
ATOM      7  C   UNL A   1      31.433  26.221  23.303  1.00  0.00     0.037 C 
ATOM      8  C   UNL A   1      31.700  26.175  21.797  1.00  0.00     0.007 C 
ENDBRANCH   5   7
BRANCH   5   9
ATOM      9  N   UNL A   1      33.198  24.602  23.467  1.00  0.00    -0.335 N 
ATOM     10  C   UNL A   1      34.252  23.778  23.770  1.00  0.00     0.286 C 
ATOM     11  H   UNL A   1      32.848  24.516  22.551  1.00  0.00     0.164 HD
ATOM     12  O   UNL A   1      35.035  23.447  22.880  1.00  0.00    -0.267 OA
BRANCH  10  13
ATOM     13  C   UNL A   1      34.275  23.163  25.173  1.00  0.00     0.196 C 
ATOM     14  C   UNL A   1      33.183  22.105  25.329  1.00  0.00     0.096 C 
BRANCH  13  15
ATOM     15  N   UNL A   1      33.992  24.232  26.158  1.00  0.00    -0.341 N 
ATOM     16  H   UNL A   1      33.647  23.816  27.023  1.00  0.00     0.345 HD
ATOM     17  H   UNL A   1      33.286  24.864  25.779  1.00  0.00     0.345 HD
ATOM     18  H   UNL A   1      34.847  24.755  26.348  1.00  0.00     0.345 HD
ENDBRANCH  13  15
BRANCH  13  19
ATOM     19  C   UNL A   1      35.661  22.637  25.365  1.00  0.00     0.022 A 
ATOM     20  C   UNL A   1      36.965  23.762  25.959  1.00  0.00     0.011 A 
ATOM     21  C   UNL A   1      36.108  20.946  24.875  1.00  0.00     0.011 A 
ATOM     22  C   UNL A   1      38.651  23.174  26.180  1.00  0.00     0.001 A 
ATOM     23  C   UNL A   1      37.828  20.340  25.133  1.00  0.00     0.001 A 
ATOM     24  C   UNL A   1      39.090  21.467  25.820  1.00  0.00     0.000 A 
ENDBRANCH  13  19
ENDBRANCH  10  13
ENDBRANCH   5   9
ENDBRANCH   3   5
ENDBRANCH   2   3
ENDBRANCH   1   2
BRANCH   1  25
ATOM     25  C   UNL A   1      31.745  29.731  26.412  1.00  0.00     0.275 C 
BRANCH  25  26
ATOM     26  O   UNL A   1      33.125  30.211  26.231  1.00  0.00    -0.458 OA
BRANCH  26  27
ATOM     27  C   UNL A   1      33.589  31.150  27.107  1.00  0.00     0.338 C 
ATOM     28  O   UNL A   1      32.929  32.074  27.554  1.00  0.00    -0.246 OA
BRANCH  27  29
ATOM     29  C   UNL A   1      34.993  30.883  27.600  1.00  0.00     0.060 A 
ATOM     30  C   UNL A   1      35.420  29.614  28.006  1.00  0.00     0.016 A 
ATOM     31  C   UNL A   1      35.848  31.949  27.883  1.00  0.00     0.016 A 
ATOM     32  C   UNL A   1      36.587  29.390  28.727  1.00  0.00     0.010 A 
ATOM     33  C   UNL A   1      37.081  31.723  28.531  1.00  0.00     0.010 A 
ATOM     34  C   UNL A   1      37.451  30.441  28.977  1.00  0.00    -0.014 A 
BRANCH  34  35
ATOM     35  C   UNL A   1      38.690  30.195  29.756  1.00  0.00     0.031 A 
ATOM     36  C   UNL A   1      39.757  29.322  29.171  1.00  0.00     0.074 A 
ATOM     37  C   UNL A   1      38.884  30.770  30.960  1.00  0.00     0.049 A 
ATOM     38  N   UNL A   1      40.749  28.710  29.762  1.00  0.00    -0.248 NA
ATOM     39  C   UNL A   1      39.690  29.103  27.717  1.00  0.00     0.031 C 
ATOM     40  C   UNL A   1      38.009  31.764  31.586  1.00  0.00     0.029 A 
ATOM     41  N   UNL A   1      39.882  30.581  31.885  1.00  0.00    -0.354 N 
ATOM     42  C   UNL A   1      41.371  27.964  28.771  1.00  0.00     0.074 A 
ATOM     43  C   UNL A   1      40.669  28.228  27.533  1.00  0.00     0.031 C 
ATOM     44  C   UNL A   1      38.498  32.085  32.794  1.00  0.00     0.029 A 
ATOM     45  C   UNL A   1      39.658  31.247  33.066  1.00  0.00     0.049 A 
ATOM     46  H   UNL A   1      40.678  30.027  31.718  1.00  0.00     0.167 HD
ATOM     47  C   UNL A   1      42.417  27.114  28.904  1.00  0.00     0.037 A 
ATOM     48  C   UNL A   1      40.272  31.135  34.260  1.00  0.00     0.037 A 
ATOM     49  C   UNL A   1      43.128  26.910  30.141  1.00  0.00     0.049 A 
ATOM     50  C   UNL A   1      41.389  30.139  34.407  1.00  0.00     0.074 A 
ATOM     51  C   UNL A   1      44.187  26.061  30.404  1.00  0.00     0.029 A 
ATOM     52  N   UNL A   1      42.855  27.587  31.323  1.00  0.00    -0.354 N 
ATOM     53  N   UNL A   1      41.905  29.336  33.508  1.00  0.00    -0.248 NA
ATOM     54  C   UNL A   1      41.993  30.019  35.739  1.00  0.00     0.031 C 
ATOM     55  C   UNL A   1      44.533  26.197  31.754  1.00  0.00     0.029 A 
ATOM     56  C   UNL A   1      43.722  27.170  32.319  1.00  0.00     0.049 A 
ATOM     57  H   UNL A   1      42.150  28.264  31.436  1.00  0.00     0.167 HD
ATOM     58  C   UNL A   1      42.913  28.635  34.155  1.00  0.00     0.074 A 
ATOM     59  C   UNL A   1      42.940  29.118  35.522  1.00  0.00     0.031 C 
ATOM     60  C   UNL A   1      43.741  27.680  33.666  1.00  0.00     0.037 A 
BRANCH  47  61
ATOM     61  C   UNL A   1      42.795  26.286  27.712  1.00  0.00     0.064 A 
ATOM     62  C   UNL A   1      42.198  25.048  27.433  1.00  0.00     0.173 A 
ATOM     63  C   UNL A   1      43.780  26.752  26.825  1.00  0.00     0.173 A 
ATOM     64  F   UNL A   1      41.267  24.547  28.259  1.00  0.00    -0.203 F 
ATOM     65  C   UNL A   1      42.590  24.298  26.327  1.00  0.00     0.198 A 
ATOM     66  C   UNL A   1      44.148  26.013  25.704  1.00  0.00     0.198 A 
ATOM     67  F   UNL A   1      44.385  27.928  27.045  1.00  0.00    -0.203 F 
ATOM     68  F   UNL A   1      42.042  23.094  26.109  1.00  0.00    -0.200 F 
ATOM     69  C   UNL A   1      43.559  24.783  25.460  1.00  0.00     0.200 A 
ATOM     70  F   UNL A   1      45.077  26.490  24.865  1.00  0.00    -0.200 F 
ATOM     71  F   UNL A   1      43.932  24.060  24.395  1.00  0.00    -0.200 F 
ENDBRANCH  47  61
BRANCH  48  72
ATOM     72  C   UNL A   1      39.800  31.937  35.420  1.00  0.00     0.064 A 
ATOM     73  C   UNL A   1      40.399  33.162  35.740  1.00  0.00     0.173 A 
ATOM     74  C   UNL A   1      38.743  31.498  36.234  1.00  0.00     0.173 A 
ATOM     75  F   UNL A   1      41.432  33.611  35.012  1.00  0.00    -0.203 F 
ATOM     76  C   UNL A   1      39.968  33.912  36.833  1.00  0.00     0.198 A 
ATOM     77  C   UNL A   1      38.292  32.263  37.307  1.00  0.00     0.198 A 
ATOM     78  F   UNL A   1      38.136  30.330  35.976  1.00  0.00    -0.203 F 
ATOM     79  F   UNL A   1      40.590  35.058  37.142  1.00  0.00    -0.200 F 
ATOM     80  C   UNL A   1      38.910  33.466  37.610  1.00  0.00     0.200 A 
ATOM     81  F   UNL A   1      37.260  31.835  38.046  1.00  0.00    -0.200 F 
ATOM     82  F   UNL A   1      38.490  34.192  38.656  1.00  0.00    -0.200 F 
ENDBRANCH  48  72
BRANCH  60  83
ATOM     83  C   UNL A   1      44.788  27.148  34.599  1.00  0.00     0.064 A 
ATOM     84  C   UNL A   1      46.044  27.759  34.729  1.00  0.00     0.173 A 
ATOM     85  C   UNL A   1      44.519  26.018  35.385  1.00  0.00     0.173 A 
ATOM     86  F   UNL A   1      46.352  28.832  33.985  1.00  0.00    -0.203 F 
ATOM     87  C   UNL A   1      47.005  27.236  35.588  1.00  0.00     0.198 A 
ATOM     88  C   UNL A   1      45.473  25.516  36.265  1.00  0.00     0.198 A 
ATOM     89  F   UNL A   1      43.331  25.402  35.301  1.00  0.00    -0.203 F 
ATOM     90  F   UNL A   1      48.220  27.800  35.655  1.00  0.00    -0.200 F 
ATOM     91  C   UNL A   1      46.718  26.119  36.359  1.00  0.00     0.200 A 
ATOM     92  F   UNL A   1      45.190  24.442  37.016  1.00  0.00    -0.200 F 
ATOM     93  F   UNL A   1      47.646  25.616  37.185  1.00  0.00    -0.200 F 
ENDBRANCH  60  83
ENDBRANCH  34  35
ENDBRANCH  27  29
ENDBRANCH  26  27
ENDBRANCH  25  26
ENDBRANCH   1  25
TORSDOF 16
ENDMDL
