MODEL 1
REMARK VINA RESULT:     -11.8      0.000      0.000
REMARK SMILES O=C(OCCOC(=O)c1ccc2ncccc2n1)c1ccc(-c2c3nc(c(-c4c(F)c(F)c(F)c(F)c4F)c4ccc([nH]4)c(-c4c(F)c(F)c(F)c(F)c4F)c4nc(c(-c5c(F)c(F)c(F)c(F)c5F)c5ccc2[nH]5)C=C4)C=C3)cc1
REMARK SMILES IDX 4 1 3 2 2 3 1 4 19 5 20 6 81 7 21 8 80 9 22 10 23 11 24 12
REMARK SMILES IDX 74 13 25 14 79 15 73 16 75 17 26 18 78 19 72 20 71 21 27 23
REMARK SMILES IDX 59 24 39 25 58 26 40 27 43 28 57 29 76 30 41 31 42 32 56 34
REMARK SMILES IDX 77 35 44 36 28 37 29 38 37 39 30 40 31 41 35 42 38 43 32 44
REMARK SMILES IDX 33 45 36 46 34 47 60 48 61 49 69 50 62 51 63 52 67 53 70 54
REMARK SMILES IDX 64 55 65 56 68 57 66 58 45 59 46 60 54 61 47 62 48 63 52 64
REMARK SMILES IDX 55 65 49 66 50 67 53 68 51 69 5 70 6 71 7 72 8 73 9 74 10 75
REMARK SMILES IDX 18 76 11 77 17 78 12 79 16 80 13 81 15 82 14 83
REMARK H PARENT 75 22 43 33
REMARK Flexibility Score: inf
ROOT
ATOM      1  C   UNL A   1      43.847  21.762  25.497  1.00  0.00     0.275 C 
ENDROOT
BRANCH   1   2
ATOM      2  O   UNL A   1      43.454  22.971  24.827  1.00  0.00    -0.458 OA
BRANCH   2   3
ATOM      3  C   UNL A   1      44.015  24.194  24.995  1.00  0.00     0.338 C 
ATOM      4  O   UNL A   1      45.120  24.439  24.518  1.00  0.00    -0.246 OA
BRANCH   3   5
ATOM      5  C   UNL A   1      43.427  25.188  25.939  1.00  0.00     0.060 A 
ATOM      6  C   UNL A   1      43.882  26.497  26.125  1.00  0.00     0.016 A 
ATOM      7  C   UNL A   1      42.394  24.718  26.767  1.00  0.00     0.016 A 
ATOM      8  C   UNL A   1      43.289  27.332  27.079  1.00  0.00     0.010 A 
ATOM      9  C   UNL A   1      41.796  25.549  27.718  1.00  0.00     0.010 A 
ATOM     10  C   UNL A   1      42.253  26.860  27.888  1.00  0.00    -0.014 A 
BRANCH  10  11
ATOM     11  C   UNL A   1      41.763  27.673  29.024  1.00  0.00     0.031 A 
ATOM     12  C   UNL A   1      42.455  27.543  30.348  1.00  0.00     0.074 A 
ATOM     13  C   UNL A   1      40.726  28.516  28.879  1.00  0.00     0.049 A 
ATOM     14  N   UNL A   1      42.205  28.151  31.478  1.00  0.00    -0.248 NA
ATOM     15  C   UNL A   1      43.596  26.614  30.400  1.00  0.00     0.031 C 
ATOM     16  C   UNL A   1      40.010  28.764  27.633  1.00  0.00     0.029 A 
ATOM     17  N   UNL A   1      40.076  29.299  29.799  1.00  0.00    -0.354 N 
ATOM     18  C   UNL A   1      43.180  27.709  32.361  1.00  0.00     0.074 A 
ATOM     19  C   UNL A   1      43.978  26.727  31.661  1.00  0.00     0.031 C 
ATOM     20  C   UNL A   1      38.969  29.579  27.876  1.00  0.00     0.029 A 
ATOM     21  C   UNL A   1      38.959  29.920  29.296  1.00  0.00     0.049 A 
ATOM     22  H   UNL A   1      40.381  29.407  30.729  1.00  0.00     0.167 HD
ATOM     23  C   UNL A   1      43.410  28.114  33.631  1.00  0.00     0.037 A 
ATOM     24  C   UNL A   1      38.028  30.667  29.920  1.00  0.00     0.037 A 
ATOM     25  C   UNL A   1      42.591  29.064  34.331  1.00  0.00     0.049 A 
ATOM     26  C   UNL A   1      38.220  31.000  31.373  1.00  0.00     0.074 A 
ATOM     27  C   UNL A   1      42.734  29.551  35.617  1.00  0.00     0.029 A 
ATOM     28  N   UNL A   1      41.453  29.656  33.800  1.00  0.00    -0.354 N 
ATOM     29  N   UNL A   1      39.186  30.637  32.182  1.00  0.00    -0.248 NA
ATOM     30  C   UNL A   1      37.216  31.875  31.993  1.00  0.00     0.031 C 
ATOM     31  C   UNL A   1      41.659  30.409  35.878  1.00  0.00     0.029 A 
ATOM     32  C   UNL A   1      40.869  30.487  34.740  1.00  0.00     0.049 A 
ATOM     33  H   UNL A   1      41.112  29.507  32.888  1.00  0.00     0.167 HD
ATOM     34  C   UNL A   1      38.939  31.279  33.388  1.00  0.00     0.074 A 
ATOM     35  C   UNL A   1      37.720  32.043  33.209  1.00  0.00     0.031 C 
ATOM     36  C   UNL A   1      39.668  31.256  34.530  1.00  0.00     0.037 A 
BRANCH  23  37
ATOM     37  C   UNL A   1      44.598  27.516  34.319  1.00  0.00     0.064 A 
ATOM     38  C   UNL A   1      45.884  28.052  34.146  1.00  0.00     0.173 A 
ATOM     39  C   UNL A   1      44.464  26.375  35.121  1.00  0.00     0.173 A 
ATOM     40  F   UNL A   1      46.066  29.132  33.370  1.00  0.00    -0.203 F 
ATOM     41  C   UNL A   1      46.997  27.443  34.718  1.00  0.00     0.198 A 
ATOM     42  C   UNL A   1      45.577  25.781  35.712  1.00  0.00     0.198 A 
ATOM     43  F   UNL A   1      43.256  25.822  35.314  1.00  0.00    -0.203 F 
ATOM     44  F   UNL A   1      48.223  27.936  34.486  1.00  0.00    -0.200 F 
ATOM     45  C   UNL A   1      46.843  26.309  35.501  1.00  0.00     0.200 A 
ATOM     46  F   UNL A   1      45.427  24.687  36.470  1.00  0.00    -0.200 F 
ATOM     47  F   UNL A   1      47.916  25.714  36.038  1.00  0.00    -0.200 F 
ENDBRANCH  23  37
BRANCH  24  48
ATOM     48  C   UNL A   1      36.848  31.160  29.165  1.00  0.00     0.064 A 
ATOM     49  C   UNL A   1      35.785  30.308  28.838  1.00  0.00     0.173 A 
ATOM     50  C   UNL A   1      36.761  32.499  28.757  1.00  0.00     0.173 A 
ATOM     51  F   UNL A   1      35.830  29.015  29.191  1.00  0.00    -0.203 F 
ATOM     52  C   UNL A   1      34.684  30.775  28.122  1.00  0.00     0.198 A 
ATOM     53  C   UNL A   1      35.653  32.969  28.057  1.00  0.00     0.198 A 
ATOM     54  F   UNL A   1      37.753  33.354  29.045  1.00  0.00    -0.203 F 
ATOM     55  F   UNL A   1      33.695  29.933  27.795  1.00  0.00    -0.200 F 
ATOM     56  C   UNL A   1      34.616  32.105  27.735  1.00  0.00     0.200 A 
ATOM     57  F   UNL A   1      35.586  34.257  27.693  1.00  0.00    -0.200 F 
ATOM     58  F   UNL A   1      33.556  32.553  27.049  1.00  0.00    -0.200 F 
ENDBRANCH  24  48
BRANCH  36  59
ATOM     59  C   UNL A   1      39.206  32.129  35.656  1.00  0.00     0.064 A 
ATOM     60  C   UNL A   1      38.384  31.640  36.681  1.00  0.00     0.173 A 
ATOM     61  C   UNL A   1      39.643  33.460  35.737  1.00  0.00     0.173 A 
ATOM     62  F   UNL A   1      37.927  30.380  36.636  1.00  0.00    -0.203 F 
ATOM     63  C   UNL A   1      38.005  32.458  37.741  1.00  0.00     0.198 A 
ATOM     64  C   UNL A   1      39.283  34.267  36.812  1.00  0.00     0.198 A 
ATOM     65  F   UNL A   1      40.434  33.971  34.781  1.00  0.00    -0.203 F 
ATOM     66  F   UNL A   1      37.192  31.982  38.694  1.00  0.00    -0.200 F 
ATOM     67  C   UNL A   1      38.462  33.766  37.810  1.00  0.00     0.200 A 
ATOM     68  F   UNL A   1      39.734  35.527  36.882  1.00  0.00    -0.200 F 
ATOM     69  F   UNL A   1      38.106  34.548  38.839  1.00  0.00    -0.200 F 
ENDBRANCH  36  59
ENDBRANCH  10  11
ENDBRANCH   3   5
ENDBRANCH   2   3
ENDBRANCH   1   2
BRANCH   1  70
ATOM     70  C   UNL A   1      42.667  20.943  26.019  1.00  0.00     0.275 C 
BRANCH  70  71
ATOM     71  O   UNL A   1      41.397  21.543  25.719  1.00  0.00    -0.457 OA
BRANCH  71  72
ATOM     72  C   UNL A   1      40.501  21.527  26.747  1.00  0.00     0.357 C 
ATOM     73  O   UNL A   1      40.689  21.089  27.871  1.00  0.00    -0.244 OA
BRANCH  72  74
ATOM     74  C   UNL A   1      39.256  22.203  26.304  1.00  0.00     0.149 A 
ATOM     75  C   UNL A   1      39.046  23.543  26.580  1.00  0.00     0.038 A 
ATOM     76  N   UNL A   1      38.349  21.419  25.668  1.00  0.00    -0.239 NA
ATOM     77  C   UNL A   1      37.822  24.097  26.207  1.00  0.00     0.033 A 
ATOM     78  C   UNL A   1      37.159  21.971  25.366  1.00  0.00     0.090 A 
ATOM     79  C   UNL A   1      36.831  23.319  25.628  1.00  0.00     0.089 A 
ATOM     80  C   UNL A   1      36.157  21.186  24.820  1.00  0.00     0.032 A 
ATOM     81  N   UNL A   1      35.621  23.855  25.380  1.00  0.00    -0.255 NA
ATOM     82  C   UNL A   1      34.889  21.711  24.576  1.00  0.00     0.022 A 
ATOM     83  C   UNL A   1      34.671  23.042  24.871  1.00  0.00     0.112 A 
ENDBRANCH  72  74
ENDBRANCH  71  72
ENDBRANCH  70  71
ENDBRANCH   1  70
TORSDOF 11
ENDMDL
MODEL 2
REMARK VINA RESULT:     -11.6      4.307      6.338
REMARK SMILES O=C(OCCOC(=O)c1ccc2ncccc2n1)c1ccc(-c2c3nc(c(-c4c(F)c(F)c(F)c(F)c4F)c4ccc([nH]4)c(-c4c(F)c(F)c(F)c(F)c4F)c4nc(c(-c5c(F)c(F)c(F)c(F)c5F)c5ccc2[nH]5)C=C4)C=C3)cc1
REMARK SMILES IDX 4 1 3 2 2 3 1 4 19 5 20 6 81 7 21 8 80 9 22 10 23 11 24 12
REMARK SMILES IDX 74 13 25 14 79 15 73 16 75 17 26 18 78 19 72 20 71 21 27 23
REMARK SMILES IDX 59 24 39 25 58 26 40 27 43 28 57 29 76 30 41 31 42 32 56 34
REMARK SMILES IDX 77 35 44 36 28 37 29 38 37 39 30 40 31 41 35 42 38 43 32 44
REMARK SMILES IDX 33 45 36 46 34 47 60 48 61 49 69 50 62 51 63 52 67 53 70 54
REMARK SMILES IDX 64 55 65 56 68 57 66 58 45 59 46 60 54 61 47 62 48 63 52 64
REMARK SMILES IDX 55 65 49 66 50 67 53 68 51 69 5 70 6 71 7 72 8 73 9 74 10 75
REMARK SMILES IDX 18 76 11 77 17 78 12 79 16 80 13 81 15 82 14 83
REMARK H PARENT 75 22 43 33
REMARK Flexibility Score: inf
ROOT
ATOM      1  C   UNL A   1      41.090  19.575  27.042  1.00  0.00     0.275 C 
ENDROOT
BRANCH   1   2
ATOM      2  O   UNL A   1      41.203  20.999  27.197  1.00  0.00    -0.458 OA
BRANCH   2   3
ATOM      3  C   UNL A   1      40.258  21.913  26.869  1.00  0.00     0.338 C 
ATOM      4  O   UNL A   1      39.374  21.630  26.066  1.00  0.00    -0.246 OA
BRANCH   3   5
ATOM      5  C   UNL A   1      40.388  23.339  27.287  1.00  0.00     0.060 A 
ATOM      6  C   UNL A   1      39.776  24.428  26.658  1.00  0.00     0.016 A 
ATOM      7  C   UNL A   1      41.280  23.596  28.341  1.00  0.00     0.016 A 
ATOM      8  C   UNL A   1      40.009  25.735  27.100  1.00  0.00     0.010 A 
ATOM      9  C   UNL A   1      41.513  24.898  28.790  1.00  0.00     0.010 A 
ATOM     10  C   UNL A   1      40.887  25.978  28.159  1.00  0.00    -0.014 A 
BRANCH  10  11
ATOM     11  C   UNL A   1      41.284  27.364  28.496  1.00  0.00     0.031 A 
ATOM     12  C   UNL A   1      42.739  27.722  28.453  1.00  0.00     0.074 A 
ATOM     13  C   UNL A   1      40.366  28.288  28.830  1.00  0.00     0.049 A 
ATOM     14  N   UNL A   1      43.321  28.866  28.705  1.00  0.00    -0.248 NA
ATOM     15  C   UNL A   1      43.665  26.649  28.052  1.00  0.00     0.031 C 
ATOM     16  C   UNL A   1      38.925  28.071  28.856  1.00  0.00     0.029 A 
ATOM     17  N   UNL A   1      40.516  29.590  29.238  1.00  0.00    -0.354 N 
ATOM     18  C   UNL A   1      44.669  28.660  28.456  1.00  0.00     0.074 A 
ATOM     19  C   UNL A   1      44.833  27.267  28.106  1.00  0.00     0.031 C 
ATOM     20  C   UNL A   1      38.321  29.174  29.334  1.00  0.00     0.029 A 
ATOM     21  C   UNL A   1      39.339  30.177  29.631  1.00  0.00     0.049 A 
ATOM     22  H   UNL A   1      41.383  30.057  29.247  1.00  0.00     0.167 HD
ATOM     23  C   UNL A   1      45.677  29.563  28.481  1.00  0.00     0.037 A 
ATOM     24  C   UNL A   1      39.116  31.385  30.183  1.00  0.00     0.037 A 
ATOM     25  C   UNL A   1      45.513  30.938  28.864  1.00  0.00     0.049 A 
ATOM     26  C   UNL A   1      40.270  32.337  30.335  1.00  0.00     0.074 A 
ATOM     27  C   UNL A   1      46.461  31.941  28.921  1.00  0.00     0.029 A 
ATOM     28  N   UNL A   1      44.311  31.495  29.279  1.00  0.00    -0.354 N 
ATOM     29  N   UNL A   1      41.533  32.159  30.027  1.00  0.00    -0.248 NA
ATOM     30  C   UNL A   1      39.968  33.669  30.877  1.00  0.00     0.031 C 
ATOM     31  C   UNL A   1      45.841  33.098  29.409  1.00  0.00     0.029 A 
ATOM     32  C   UNL A   1      44.497  32.823  29.618  1.00  0.00     0.049 A 
ATOM     33  H   UNL A   1      43.452  31.015  29.327  1.00  0.00     0.167 HD
ATOM     34  C   UNL A   1      42.165  33.368  30.284  1.00  0.00     0.074 A 
ATOM     35  C   UNL A   1      41.148  34.268  30.791  1.00  0.00     0.031 C 
ATOM     36  C   UNL A   1      43.463  33.707  30.097  1.00  0.00     0.037 A 
BRANCH  23  37
ATOM     37  C   UNL A   1      47.032  29.066  28.080  1.00  0.00     0.064 A 
ATOM     38  C   UNL A   1      47.373  28.897  26.729  1.00  0.00     0.173 A 
ATOM     39  C   UNL A   1      47.982  28.712  29.048  1.00  0.00     0.173 A 
ATOM     40  F   UNL A   1      46.488  29.202  25.766  1.00  0.00    -0.203 F 
ATOM     41  C   UNL A   1      48.601  28.355  26.363  1.00  0.00     0.198 A 
ATOM     42  C   UNL A   1      49.219  28.192  28.677  1.00  0.00     0.198 A 
ATOM     43  F   UNL A   1      47.702  28.852  30.353  1.00  0.00    -0.203 F 
ATOM     44  F   UNL A   1      48.880  28.143  25.068  1.00  0.00    -0.200 F 
ATOM     45  C   UNL A   1      49.523  28.003  27.336  1.00  0.00     0.200 A 
ATOM     46  F   UNL A   1      50.111  27.855  29.618  1.00  0.00    -0.200 F 
ATOM     47  F   UNL A   1      50.699  27.466  26.985  1.00  0.00    -0.200 F 
ENDBRANCH  23  37
BRANCH  24  48
ATOM     48  C   UNL A   1      37.745  31.762  30.610  1.00  0.00     0.064 A 
ATOM     49  C   UNL A   1      37.362  31.713  31.956  1.00  0.00     0.173 A 
ATOM     50  C   UNL A   1      36.788  32.182  29.674  1.00  0.00     0.173 A 
ATOM     51  F   UNL A   1      38.237  31.300  32.886  1.00  0.00    -0.203 F 
ATOM     52  C   UNL A   1      36.071  32.059  32.350  1.00  0.00     0.198 A 
ATOM     53  C   UNL A   1      35.503  32.545  30.070  1.00  0.00     0.198 A 
ATOM     54  F   UNL A   1      37.105  32.246  28.373  1.00  0.00    -0.203 F 
ATOM     55  F   UNL A   1      35.721  31.973  33.641  1.00  0.00    -0.200 F 
ATOM     56  C   UNL A   1      35.143  32.478  31.408  1.00  0.00     0.200 A 
ATOM     57  F   UNL A   1      34.613  32.959  29.159  1.00  0.00    -0.200 F 
ATOM     58  F   UNL A   1      33.903  32.814  31.788  1.00  0.00    -0.200 F 
ENDBRANCH  24  48
BRANCH  36  59
ATOM     59  C   UNL A   1      43.849  35.127  30.378  1.00  0.00     0.064 A 
ATOM     60  C   UNL A   1      43.745  36.127  29.401  1.00  0.00     0.173 A 
ATOM     61  C   UNL A   1      44.275  35.498  31.662  1.00  0.00     0.173 A 
ATOM     62  F   UNL A   1      43.361  35.816  28.155  1.00  0.00    -0.203 F 
ATOM     63  C   UNL A   1      44.067  37.448  29.699  1.00  0.00     0.198 A 
ATOM     64  C   UNL A   1      44.570  36.824  31.962  1.00  0.00     0.198 A 
ATOM     65  F   UNL A   1      44.386  34.576  32.630  1.00  0.00    -0.203 F 
ATOM     66  F   UNL A   1      43.993  38.385  28.743  1.00  0.00    -0.200 F 
ATOM     67  C   UNL A   1      44.469  37.797  30.980  1.00  0.00     0.200 A 
ATOM     68  F   UNL A   1      44.949  37.160  33.203  1.00  0.00    -0.200 F 
ATOM     69  F   UNL A   1      44.766  39.072  31.266  1.00  0.00    -0.200 F 
ENDBRANCH  36  59
ENDBRANCH  10  11
ENDBRANCH   3   5
ENDBRANCH   2   3
ENDBRANCH   1   2
BRANCH   1  70
ATOM     70  C   UNL A   1      42.395  18.902  26.616  1.00  0.00     0.275 C 
BRANCH  70  71
ATOM     71  O   UNL A   1      42.755  19.197  25.257  1.00  0.00    -0.457 OA
BRANCH  71  72
ATOM     72  C   UNL A   1      44.095  19.178  25.005  1.00  0.00     0.357 C 
ATOM     73  O   UNL A   1      44.800  18.189  24.886  1.00  0.00    -0.244 OA
BRANCH  72  74
ATOM     74  C   UNL A   1      44.564  20.574  24.823  1.00  0.00     0.149 A 
ATOM     75  C   UNL A   1      45.909  20.846  24.636  1.00  0.00     0.038 A 
ATOM     76  N   UNL A   1      43.611  21.536  24.898  1.00  0.00    -0.239 NA
ATOM     77  C   UNL A   1      46.294  22.183  24.553  1.00  0.00     0.033 A 
ATOM     78  C   UNL A   1      44.021  22.818  24.863  1.00  0.00     0.090 A 
ATOM     79  C   UNL A   1      45.369  23.205  24.704  1.00  0.00     0.089 A 
ATOM     80  C   UNL A   1      43.103  23.838  25.050  1.00  0.00     0.032 A 
ATOM     81  N   UNL A   1      45.786  24.485  24.729  1.00  0.00    -0.255 NA
ATOM     82  C   UNL A   1      43.512  25.169  25.103  1.00  0.00     0.022 A 
ATOM     83  C   UNL A   1      44.856  25.440  24.939  1.00  0.00     0.112 A 
ENDBRANCH  72  74
ENDBRANCH  71  72
ENDBRANCH  70  71
ENDBRANCH   1  70
TORSDOF 11
ENDMDL
MODEL 3
REMARK VINA RESULT:     -11.5      4.844     10.710
REMARK SMILES O=C(OCCOC(=O)c1ccc2ncccc2n1)c1ccc(-c2c3nc(c(-c4c(F)c(F)c(F)c(F)c4F)c4ccc([nH]4)c(-c4c(F)c(F)c(F)c(F)c4F)c4nc(c(-c5c(F)c(F)c(F)c(F)c5F)c5ccc2[nH]5)C=C4)C=C3)cc1
REMARK SMILES IDX 4 1 3 2 2 3 1 4 19 5 20 6 81 7 21 8 80 9 22 10 23 11 24 12
REMARK SMILES IDX 74 13 25 14 79 15 73 16 75 17 26 18 78 19 72 20 71 21 27 23
REMARK SMILES IDX 59 24 39 25 58 26 40 27 43 28 57 29 76 30 41 31 42 32 56 34
REMARK SMILES IDX 77 35 44 36 28 37 29 38 37 39 30 40 31 41 35 42 38 43 32 44
REMARK SMILES IDX 33 45 36 46 34 47 60 48 61 49 69 50 62 51 63 52 67 53 70 54
REMARK SMILES IDX 64 55 65 56 68 57 66 58 45 59 46 60 54 61 47 62 48 63 52 64
REMARK SMILES IDX 55 65 49 66 50 67 53 68 51 69 5 70 6 71 7 72 8 73 9 74 10 75
REMARK SMILES IDX 18 76 11 77 17 78 12 79 16 80 13 81 15 82 14 83
REMARK H PARENT 75 22 43 33
REMARK Flexibility Score: inf
ROOT
ATOM      1  C   UNL A   1      33.278  33.339  27.927  1.00  0.00     0.275 C 
ENDROOT
BRANCH   1   2
ATOM      2  O   UNL A   1      34.136  32.368  28.548  1.00  0.00    -0.458 OA
BRANCH   2   3
ATOM      3  C   UNL A   1      34.471  31.158  28.038  1.00  0.00     0.338 C 
ATOM      4  O   UNL A   1      33.666  30.529  27.356  1.00  0.00    -0.246 OA
BRANCH   3   5
ATOM      5  C   UNL A   1      35.717  30.459  28.465  1.00  0.00     0.060 A 
ATOM      6  C   UNL A   1      35.889  29.773  29.672  1.00  0.00     0.016 A 
ATOM      7  C   UNL A   1      36.826  30.597  27.615  1.00  0.00     0.016 A 
ATOM      8  C   UNL A   1      37.121  29.196  29.999  1.00  0.00     0.010 A 
ATOM      9  C   UNL A   1      38.058  30.020  27.934  1.00  0.00     0.010 A 
ATOM     10  C   UNL A   1      38.215  29.327  29.139  1.00  0.00    -0.014 A 
BRANCH  10  11
ATOM     11  C   UNL A   1      39.561  28.891  29.573  1.00  0.00     0.031 A 
ATOM     12  C   UNL A   1      40.361  29.806  30.451  1.00  0.00     0.074 A 
ATOM     13  C   UNL A   1      40.061  27.701  29.198  1.00  0.00     0.049 A 
ATOM     14  N   UNL A   1      41.556  29.639  30.954  1.00  0.00    -0.248 NA
ATOM     15  C   UNL A   1      39.718  31.076  30.830  1.00  0.00     0.031 C 
ATOM     16  C   UNL A   1      39.359  26.710  28.391  1.00  0.00     0.029 A 
ATOM     17  N   UNL A   1      41.292  27.137  29.424  1.00  0.00    -0.354 N 
ATOM     18  C   UNL A   1      41.790  30.760  31.737  1.00  0.00     0.074 A 
ATOM     19  C   UNL A   1      40.649  31.635  31.585  1.00  0.00     0.031 C 
ATOM     20  C   UNL A   1      40.193  25.690  28.121  1.00  0.00     0.029 A 
ATOM     21  C   UNL A   1      41.482  25.956  28.750  1.00  0.00     0.049 A 
ATOM     22  H   UNL A   1      41.971  27.540  30.012  1.00  0.00     0.167 HD
ATOM     23  C   UNL A   1      42.848  31.019  32.540  1.00  0.00     0.037 A 
ATOM     24  C   UNL A   1      42.583  25.186  28.646  1.00  0.00     0.037 A 
ATOM     25  C   UNL A   1      43.994  30.162  32.659  1.00  0.00     0.049 A 
ATOM     26  C   UNL A   1      43.806  25.558  29.439  1.00  0.00     0.074 A 
ATOM     27  C   UNL A   1      45.119  30.323  33.446  1.00  0.00     0.029 A 
ATOM     28  N   UNL A   1      44.166  28.984  31.945  1.00  0.00    -0.354 N 
ATOM     29  N   UNL A   1      43.992  26.583  30.236  1.00  0.00    -0.248 NA
ATOM     30  C   UNL A   1      44.958  24.652  29.348  1.00  0.00     0.031 C 
ATOM     31  C   UNL A   1      45.991  29.260  33.178  1.00  0.00     0.029 A 
ATOM     32  C   UNL A   1      45.390  28.417  32.254  1.00  0.00     0.049 A 
ATOM     33  H   UNL A   1      43.513  28.607  31.312  1.00  0.00     0.167 HD
ATOM     34  C   UNL A   1      45.257  26.418  30.783  1.00  0.00     0.074 A 
ATOM     35  C   UNL A   1      45.801  25.201  30.213  1.00  0.00     0.031 C 
ATOM     36  C   UNL A   1      45.899  27.192  31.691  1.00  0.00     0.037 A 
BRANCH  23  37
ATOM     37  C   UNL A   1      42.787  32.284  33.340  1.00  0.00     0.064 A 
ATOM     38  C   UNL A   1      42.221  32.305  34.624  1.00  0.00     0.173 A 
ATOM     39  C   UNL A   1      43.254  33.493  32.806  1.00  0.00     0.173 A 
ATOM     40  F   UNL A   1      41.740  31.177  35.169  1.00  0.00    -0.203 F 
ATOM     41  C   UNL A   1      42.089  33.498  35.329  1.00  0.00     0.198 A 
ATOM     42  C   UNL A   1      43.142  34.681  33.524  1.00  0.00     0.198 A 
ATOM     43  F   UNL A   1      43.799  33.526  31.581  1.00  0.00    -0.203 F 
ATOM     44  F   UNL A   1      41.486  33.505  36.527  1.00  0.00    -0.200 F 
ATOM     45  C   UNL A   1      42.549  34.685  34.779  1.00  0.00     0.200 A 
ATOM     46  F   UNL A   1      43.589  35.827  32.993  1.00  0.00    -0.200 F 
ATOM     47  F   UNL A   1      42.407  35.835  35.450  1.00  0.00    -0.200 F 
ENDBRANCH  23  37
BRANCH  24  48
ATOM     48  C   UNL A   1      42.565  23.985  27.774  1.00  0.00     0.064 A 
ATOM     49  C   UNL A   1      42.881  24.069  26.412  1.00  0.00     0.173 A 
ATOM     50  C   UNL A   1      42.234  22.724  28.291  1.00  0.00     0.173 A 
ATOM     51  F   UNL A   1      43.187  25.256  25.868  1.00  0.00    -0.203 F 
ATOM     52  C   UNL A   1      42.853  22.939  25.596  1.00  0.00     0.198 A 
ATOM     53  C   UNL A   1      42.224  21.592  27.479  1.00  0.00     0.198 A 
ATOM     54  F   UNL A   1      41.924  22.590  29.589  1.00  0.00    -0.203 F 
ATOM     55  F   UNL A   1      43.128  23.052  24.290  1.00  0.00    -0.200 F 
ATOM     56  C   UNL A   1      42.529  21.700  26.131  1.00  0.00     0.200 A 
ATOM     57  F   UNL A   1      41.921  20.395  28.001  1.00  0.00    -0.200 F 
ATOM     58  F   UNL A   1      42.507  20.615  25.346  1.00  0.00    -0.200 F 
ENDBRANCH  24  48
BRANCH  36  59
ATOM     59  C   UNL A   1      47.234  26.715  32.177  1.00  0.00     0.064 A 
ATOM     60  C   UNL A   1      47.351  25.779  33.214  1.00  0.00     0.173 A 
ATOM     61  C   UNL A   1      48.408  27.163  31.554  1.00  0.00     0.173 A 
ATOM     62  F   UNL A   1      46.257  25.338  33.851  1.00  0.00    -0.203 F 
ATOM     63  C   UNL A   1      48.601  25.318  33.618  1.00  0.00     0.198 A 
ATOM     64  C   UNL A   1      49.653  26.679  31.943  1.00  0.00     0.198 A 
ATOM     65  F   UNL A   1      48.345  28.056  30.554  1.00  0.00    -0.203 F 
ATOM     66  F   UNL A   1      48.695  24.447  34.632  1.00  0.00    -0.200 F 
ATOM     67  C   UNL A   1      49.748  25.760  32.977  1.00  0.00     0.200 A 
ATOM     68  F   UNL A   1      50.760  27.101  31.315  1.00  0.00    -0.200 F 
ATOM     69  F   UNL A   1      50.949  25.304  33.359  1.00  0.00    -0.200 F 
ENDBRANCH  36  59
ENDBRANCH  10  11
ENDBRANCH   3   5
ENDBRANCH   2   3
ENDBRANCH   1   2
BRANCH   1  70
ATOM     70  C   UNL A   1      33.305  34.705  28.614  1.00  0.00     0.275 C 
BRANCH  70  71
ATOM     71  O   UNL A   1      32.544  34.730  29.831  1.00  0.00    -0.457 OA
BRANCH  71  72
ATOM     72  C   UNL A   1      32.879  35.732  30.693  1.00  0.00     0.357 C 
ATOM     73  O   UNL A   1      32.528  36.899  30.625  1.00  0.00    -0.244 OA
BRANCH  72  74
ATOM     74  C   UNL A   1      33.697  35.161  31.792  1.00  0.00     0.149 A 
ATOM     75  C   UNL A   1      33.936  35.890  32.944  1.00  0.00     0.038 A 
ATOM     76  N   UNL A   1      34.215  33.927  31.567  1.00  0.00    -0.239 NA
ATOM     77  C   UNL A   1      34.779  35.329  33.902  1.00  0.00     0.033 A 
ATOM     78  C   UNL A   1      35.063  33.434  32.490  1.00  0.00     0.090 A 
ATOM     79  C   UNL A   1      35.396  34.107  33.685  1.00  0.00     0.089 A 
ATOM     80  C   UNL A   1      35.707  32.231  32.256  1.00  0.00     0.032 A 
ATOM     81  N   UNL A   1      36.290  33.642  34.579  1.00  0.00    -0.255 NA
ATOM     82  C   UNL A   1      36.653  31.740  33.154  1.00  0.00     0.022 A 
ATOM     83  C   UNL A   1      36.909  32.477  34.293  1.00  0.00     0.112 A 
ENDBRANCH  72  74
ENDBRANCH  71  72
ENDBRANCH  70  71
ENDBRANCH   1  70
TORSDOF 11
ENDMDL
