MODEL 1
REMARK VINA RESULT:     -12.8      0.000      0.000
REMARK SMILES Cc1ccccc1NC(=O)c1ccccc1NC(=O)CCC(=O)OCCOC(=O)c1ccc(-c2c3nc(c(-c4c(F)c(F)c(F)c(F)c4F)c4ccc([nH]4)c(-c4c(F)c(F)c(F)c(F)c4F)c4nc(c(-c5c(F)c(F)c(F)c(F)c5F)c5ccc2[nH]5)C=C4)C=C3)cc1
REMARK SMILES IDX 24 1 22 2 23 3 21 4 20 5 18 6 17 7 19 9 16 10 11 11 12 12
REMARK SMILES IDX 13 13 15 14 14 15 9 16 8 17 10 19 7 20 1 21 2 22 3 23 4 24
REMARK SMILES IDX 6 25 5 26 25 27 26 28 27 29 28 30 29 31 30 32 31 33 92 34
REMARK SMILES IDX 32 35 91 36 33 37 34 38 35 39 85 40 36 41 90 42 84 43 86 44
REMARK SMILES IDX 37 45 89 46 83 47 82 48 38 50 70 51 50 52 69 53 51 54 54 55
REMARK SMILES IDX 68 56 87 57 52 58 53 59 67 61 88 62 55 63 39 64 40 65 48 66
REMARK SMILES IDX 41 67 42 68 46 69 49 70 43 71 44 72 47 73 45 74 71 75 72 76
REMARK SMILES IDX 80 77 73 78 74 79 78 80 81 81 75 82 76 83 79 84 77 85 56 86
REMARK SMILES IDX 57 87 65 88 58 89 59 90 63 91 66 92 60 93 61 94 64 95 62 96
REMARK H PARENT 17 8 8 18 86 49 54 60
REMARK Flexibility Score: inf
ROOT
ATOM      1  O   UNL A   1      34.791  31.206  27.390  1.00  0.00    -0.462 OA
ENDROOT
BRANCH   1   2
ATOM      2  C   UNL A   1      34.273  29.984  27.373  1.00  0.00     0.306 C 
ATOM      3  O   UNL A   1      35.012  29.052  27.503  1.00  0.00    -0.252 OA
BRANCH   2   4
ATOM      4  C   UNL A   1      32.846  29.621  27.241  1.00  0.00     0.132 C 
BRANCH   4   5
ATOM      5  C   UNL A   1      32.995  28.153  26.695  1.00  0.00     0.112 C 
BRANCH   5   6
ATOM      6  C   UNL A   1      31.669  27.534  27.022  1.00  0.00     0.224 C 
ATOM      7  N   UNL A   1      31.316  26.267  26.616  1.00  0.00    -0.325 N 
ATOM      8  H   UNL A   1      31.241  25.675  27.399  1.00  0.00     0.169 HD
ATOM      9  O   UNL A   1      31.218  27.978  28.086  1.00  0.00    -0.275 OA
BRANCH   7  10
ATOM     10  C   UNL A   1      31.024  25.528  25.423  1.00  0.00     0.054 A 
ATOM     11  C   UNL A   1      30.905  24.094  25.504  1.00  0.00     0.063 A 
ATOM     12  C   UNL A   1      30.916  23.306  24.318  1.00  0.00     0.016 A 
ATOM     13  C   UNL A   1      30.963  23.913  23.062  1.00  0.00     0.001 A 
ATOM     14  C   UNL A   1      30.936  26.115  24.154  1.00  0.00     0.027 A 
ATOM     15  C   UNL A   1      30.926  25.310  22.985  1.00  0.00     0.002 A 
BRANCH  11  16
ATOM     16  C   UNL A   1      30.998  23.293  26.773  1.00  0.00     0.257 C 
ATOM     17  N   UNL A   1      32.075  22.489  27.100  1.00  0.00    -0.322 N 
ATOM     18  H   UNL A   1      31.910  21.881  27.858  1.00  0.00     0.170 HD
ATOM     19  O   UNL A   1      30.016  23.274  27.521  1.00  0.00    -0.269 OA
BRANCH  17  20
ATOM     20  C   UNL A   1      33.368  22.382  26.541  1.00  0.00     0.044 A 
ATOM     21  C   UNL A   1      32.697  20.174  25.362  1.00  0.00     0.046 C 
ATOM     22  C   UNL A   1      33.627  21.330  25.635  1.00  0.00    -0.027 A 
ATOM     23  C   UNL A   1      34.742  21.450  24.780  1.00  0.00     0.005 A 
ATOM     24  C   UNL A   1      35.516  22.615  24.766  1.00  0.00     0.000 A 
ATOM     25  C   UNL A   1      34.269  23.455  26.645  1.00  0.00     0.026 A 
ATOM     26  C   UNL A   1      35.284  23.613  25.701  1.00  0.00     0.002 A 
ENDBRANCH  17  20
ENDBRANCH  11  16
ENDBRANCH   7  10
ENDBRANCH   5   6
ENDBRANCH   4   5
ENDBRANCH   2   4
ENDBRANCH   1   2
BRANCH   1  27
ATOM     27  C   UNL A   1      34.742  31.816  28.736  1.00  0.00     0.274 C 
BRANCH  27  28
ATOM     28  C   UNL A   1      35.611  31.322  30.037  1.00  0.00     0.275 C 
BRANCH  28  29
ATOM     29  O   UNL A   1      35.958  30.012  30.828  1.00  0.00    -0.458 OA
BRANCH  29  30
ATOM     30  C   UNL A   1      37.094  29.175  30.978  1.00  0.00     0.338 C 
ATOM     31  O   UNL A   1      37.431  28.670  32.036  1.00  0.00    -0.246 OA
BRANCH  30  32
ATOM     32  C   UNL A   1      37.892  29.048  29.723  1.00  0.00     0.060 A 
ATOM     33  C   UNL A   1      38.165  29.781  28.547  1.00  0.00     0.016 A 
ATOM     34  C   UNL A   1      38.731  28.047  29.936  1.00  0.00     0.016 A 
ATOM     35  C   UNL A   1      39.376  29.439  27.832  1.00  0.00     0.010 A 
ATOM     36  C   UNL A   1      39.949  28.541  29.800  1.00  0.00     0.010 A 
ATOM     37  C   UNL A   1      40.276  28.633  28.512  1.00  0.00    -0.014 A 
BRANCH  37  38
ATOM     38  C   UNL A   1      41.560  27.892  28.492  1.00  0.00     0.031 A 
ATOM     39  C   UNL A   1      41.381  26.455  28.169  1.00  0.00     0.074 A 
ATOM     40  C   UNL A   1      42.683  28.709  28.287  1.00  0.00     0.049 A 
ATOM     41  N   UNL A   1      41.472  25.434  28.958  1.00  0.00    -0.248 NA
ATOM     42  C   UNL A   1      40.797  26.056  26.866  1.00  0.00     0.031 C 
ATOM     43  C   UNL A   1      44.121  28.605  28.060  1.00  0.00     0.029 A 
ATOM     44  N   UNL A   1      42.629  30.143  28.292  1.00  0.00    -0.354 N 
ATOM     45  C   UNL A   1      41.610  24.356  28.084  1.00  0.00     0.074 A 
ATOM     46  C   UNL A   1      40.812  24.721  26.941  1.00  0.00     0.031 C 
ATOM     47  C   UNL A   1      44.721  29.713  28.592  1.00  0.00     0.029 A 
ATOM     48  C   UNL A   1      43.688  30.665  29.009  1.00  0.00     0.049 A 
ATOM     49  H   UNL A   1      41.933  30.680  27.848  1.00  0.00     0.167 HD
ATOM     50  C   UNL A   1      42.844  23.753  27.982  1.00  0.00     0.037 A 
ATOM     51  C   UNL A   1      43.321  31.158  30.229  1.00  0.00     0.037 A 
ATOM     52  C   UNL A   1      43.858  24.576  28.656  1.00  0.00     0.049 A 
ATOM     53  C   UNL A   1      43.538  30.020  31.192  1.00  0.00     0.074 A 
ATOM     54  C   UNL A   1      44.941  25.319  28.229  1.00  0.00     0.029 A 
ATOM     55  N   UNL A   1      43.613  24.985  29.959  1.00  0.00    -0.354 N 
ATOM     56  N   UNL A   1      43.495  28.763  30.834  1.00  0.00    -0.248 NA
ATOM     57  C   UNL A   1      43.996  30.202  32.556  1.00  0.00     0.031 C 
ATOM     58  C   UNL A   1      45.307  26.200  29.300  1.00  0.00     0.029 A 
ATOM     59  C   UNL A   1      44.389  26.061  30.332  1.00  0.00     0.049 A 
ATOM     60  H   UNL A   1      42.957  24.554  30.554  1.00  0.00     0.167 HD
ATOM     61  C   UNL A   1      44.030  27.986  31.803  1.00  0.00     0.074 A 
ATOM     62  C   UNL A   1      44.313  28.934  32.872  1.00  0.00     0.031 C 
ATOM     63  C   UNL A   1      44.210  26.637  31.667  1.00  0.00     0.037 A 
BRANCH  50  64
ATOM     64  C   UNL A   1      43.198  22.549  27.123  1.00  0.00     0.064 A 
ATOM     65  C   UNL A   1      42.463  21.347  27.270  1.00  0.00     0.173 A 
ATOM     66  C   UNL A   1      44.130  22.536  26.063  1.00  0.00     0.173 A 
ATOM     67  F   UNL A   1      41.502  21.229  28.195  1.00  0.00    -0.203 F 
ATOM     68  C   UNL A   1      42.649  20.235  26.443  1.00  0.00     0.198 A 
ATOM     69  C   UNL A   1      44.323  21.413  25.240  1.00  0.00     0.198 A 
ATOM     70  F   UNL A   1      44.856  23.615  25.750  1.00  0.00    -0.203 F 
ATOM     71  F   UNL A   1      41.898  19.140  26.627  1.00  0.00    -0.200 F 
ATOM     72  C   UNL A   1      43.577  20.267  25.426  1.00  0.00     0.200 A 
ATOM     73  F   UNL A   1      45.221  21.462  24.244  1.00  0.00    -0.200 F 
ATOM     74  F   UNL A   1      43.734  19.211  24.617  1.00  0.00    -0.200 F 
ENDBRANCH  50  64
BRANCH  51  75
ATOM     75  C   UNL A   1      42.110  32.083  30.145  1.00  0.00     0.064 A 
ATOM     76  C   UNL A   1      40.972  31.758  30.935  1.00  0.00     0.173 A 
ATOM     77  C   UNL A   1      42.112  33.375  29.593  1.00  0.00     0.173 A 
ATOM     78  F   UNL A   1      40.878  30.542  31.497  1.00  0.00    -0.203 F 
ATOM     79  C   UNL A   1      39.987  32.696  31.267  1.00  0.00     0.198 A 
ATOM     80  C   UNL A   1      41.082  34.298  29.875  1.00  0.00     0.198 A 
ATOM     81  F   UNL A   1      43.156  33.800  28.868  1.00  0.00    -0.203 F 
ATOM     82  F   UNL A   1      39.061  32.395  32.191  1.00  0.00    -0.200 F 
ATOM     83  C   UNL A   1      40.043  33.969  30.739  1.00  0.00     0.200 A 
ATOM     84  F   UNL A   1      41.175  35.562  29.430  1.00  0.00    -0.200 F 
ATOM     85  F   UNL A   1      39.173  34.906  31.148  1.00  0.00    -0.200 F 
ENDBRANCH  51  75
BRANCH  63  86
ATOM     86  C   UNL A   1      44.275  25.732  32.865  1.00  0.00     0.064 A 
ATOM     87  C   UNL A   1      45.370  24.895  33.125  1.00  0.00     0.173 A 
ATOM     88  C   UNL A   1      43.289  25.773  33.876  1.00  0.00     0.173 A 
ATOM     89  F   UNL A   1      46.495  24.949  32.401  1.00  0.00    -0.203 F 
ATOM     90  C   UNL A   1      45.371  24.003  34.187  1.00  0.00     0.198 A 
ATOM     91  C   UNL A   1      43.368  24.985  35.015  1.00  0.00     0.198 A 
ATOM     92  F   UNL A   1      42.228  26.589  33.820  1.00  0.00    -0.203 F 
ATOM     93  F   UNL A   1      46.360  23.107  34.289  1.00  0.00    -0.200 F 
ATOM     94  C   UNL A   1      44.373  24.052  35.138  1.00  0.00     0.200 A 
ATOM     95  F   UNL A   1      42.462  25.139  35.989  1.00  0.00    -0.200 F 
ATOM     96  F   UNL A   1      44.394  23.217  36.182  1.00  0.00    -0.200 F 
ENDBRANCH  63  86
ENDBRANCH  37  38
ENDBRANCH  30  32
ENDBRANCH  29  30
ENDBRANCH  28  29
ENDBRANCH  27  28
ENDBRANCH   1  27
TORSDOF 16
ENDMDL
MODEL 2
REMARK VINA RESULT:     -12.2      3.047      9.219
REMARK SMILES Cc1ccccc1NC(=O)c1ccccc1NC(=O)CCC(=O)OCCOC(=O)c1ccc(-c2c3nc(c(-c4c(F)c(F)c(F)c(F)c4F)c4ccc([nH]4)c(-c4c(F)c(F)c(F)c(F)c4F)c4nc(c(-c5c(F)c(F)c(F)c(F)c5F)c5ccc2[nH]5)C=C4)C=C3)cc1
REMARK SMILES IDX 24 1 22 2 23 3 21 4 20 5 18 6 17 7 19 9 16 10 11 11 12 12
REMARK SMILES IDX 13 13 15 14 14 15 9 16 8 17 10 19 7 20 1 21 2 22 3 23 4 24
REMARK SMILES IDX 6 25 5 26 25 27 26 28 27 29 28 30 29 31 30 32 31 33 92 34
REMARK SMILES IDX 32 35 91 36 33 37 34 38 35 39 85 40 36 41 90 42 84 43 86 44
REMARK SMILES IDX 37 45 89 46 83 47 82 48 38 50 70 51 50 52 69 53 51 54 54 55
REMARK SMILES IDX 68 56 87 57 52 58 53 59 67 61 88 62 55 63 39 64 40 65 48 66
REMARK SMILES IDX 41 67 42 68 46 69 49 70 43 71 44 72 47 73 45 74 71 75 72 76
REMARK SMILES IDX 80 77 73 78 74 79 78 80 81 81 75 82 76 83 79 84 77 85 56 86
REMARK SMILES IDX 57 87 65 88 58 89 59 90 63 91 66 92 60 93 61 94 64 95 62 96
REMARK H PARENT 17 8 8 18 86 49 54 60
REMARK Flexibility Score: inf
ROOT
ATOM      1  O   UNL A   1      42.181  22.003  26.716  1.00  0.00    -0.462 OA
ENDROOT
BRANCH   1   2
ATOM      2  C   UNL A   1      40.926  21.768  27.079  1.00  0.00     0.306 C 
ATOM      3  O   UNL A   1      40.661  20.700  27.549  1.00  0.00    -0.252 OA
BRANCH   2   4
ATOM      4  C   UNL A   1      39.784  22.704  27.001  1.00  0.00     0.132 C 
BRANCH   4   5
ATOM      5  C   UNL A   1      38.810  21.859  26.099  1.00  0.00     0.112 C 
BRANCH   5   6
ATOM      6  C   UNL A   1      37.602  22.740  25.988  1.00  0.00     0.224 C 
ATOM      7  N   UNL A   1      36.326  22.294  26.248  1.00  0.00    -0.325 N 
ATOM      8  H   UNL A   1      35.977  22.736  27.055  1.00  0.00     0.169 HD
ATOM      9  O   UNL A   1      37.889  23.923  26.213  1.00  0.00    -0.275 OA
BRANCH   7  10
ATOM     10  C   UNL A   1      35.340  21.394  25.726  1.00  0.00     0.054 A 
ATOM     11  C   UNL A   1      33.977  21.515  26.179  1.00  0.00     0.063 A 
ATOM     12  C   UNL A   1      33.042  20.472  25.925  1.00  0.00     0.016 A 
ATOM     13  C   UNL A   1      33.410  19.357  25.169  1.00  0.00     0.001 A 
ATOM     14  C   UNL A   1      35.644  20.334  24.861  1.00  0.00     0.027 A 
ATOM     15  C   UNL A   1      34.689  19.316  24.603  1.00  0.00     0.002 A 
BRANCH  11  16
ATOM     16  C   UNL A   1      33.476  22.570  27.125  1.00  0.00     0.257 C 
ATOM     17  N   UNL A   1      32.866  23.744  26.718  1.00  0.00    -0.322 N 
ATOM     18  H   UNL A   1      32.771  24.418  27.430  1.00  0.00     0.170 HD
ATOM     19  O   UNL A   1      33.708  22.429  28.329  1.00  0.00    -0.269 OA
BRANCH  17  20
ATOM     20  C   UNL A   1      32.357  24.149  25.464  1.00  0.00     0.044 A 
ATOM     21  C   UNL A   1      34.632  25.237  24.870  1.00  0.00     0.046 C 
ATOM     22  C   UNL A   1      33.233  24.772  24.548  1.00  0.00    -0.027 A 
ATOM     23  C   UNL A   1      32.862  24.802  23.189  1.00  0.00     0.005 A 
ATOM     24  C   UNL A   1      31.704  24.155  22.745  1.00  0.00     0.000 A 
ATOM     25  C   UNL A   1      31.109  23.676  25.026  1.00  0.00     0.026 A 
ATOM     26  C   UNL A   1      30.825  23.598  23.663  1.00  0.00     0.002 A 
ENDBRANCH  17  20
ENDBRANCH  11  16
ENDBRANCH   7  10
ENDBRANCH   5   6
ENDBRANCH   4   5
ENDBRANCH   2   4
ENDBRANCH   1   2
BRANCH   1  27
ATOM     27  C   UNL A   1      42.264  22.776  25.458  1.00  0.00     0.274 C 
BRANCH  27  28
ATOM     28  C   UNL A   1      43.282  24.032  25.178  1.00  0.00     0.275 C 
BRANCH  28  29
ATOM     29  O   UNL A   1      43.325  25.597  25.291  1.00  0.00    -0.458 OA
BRANCH  29  30
ATOM     30  C   UNL A   1      42.377  26.638  25.465  1.00  0.00     0.338 C 
ATOM     31  O   UNL A   1      42.245  27.572  24.692  1.00  0.00    -0.246 OA
BRANCH  30  32
ATOM     32  C   UNL A   1      41.614  26.523  26.742  1.00  0.00     0.060 A 
ATOM     33  C   UNL A   1      41.404  25.595  27.785  1.00  0.00     0.016 A 
ATOM     34  C   UNL A   1      41.223  27.753  27.034  1.00  0.00     0.016 A 
ATOM     35  C   UNL A   1      40.938  26.126  29.048  1.00  0.00     0.010 A 
ATOM     36  C   UNL A   1      41.740  28.042  28.215  1.00  0.00     0.010 A 
ATOM     37  C   UNL A   1      41.012  27.503  29.191  1.00  0.00    -0.014 A 
BRANCH  37  38
ATOM     38  C   UNL A   1      40.744  28.694  30.034  1.00  0.00     0.031 A 
ATOM     39  C   UNL A   1      39.577  29.477  29.556  1.00  0.00     0.074 A 
ATOM     40  C   UNL A   1      41.271  28.599  31.332  1.00  0.00     0.049 A 
ATOM     41  N   UNL A   1      39.567  30.621  28.954  1.00  0.00    -0.248 NA
ATOM     42  C   UNL A   1      38.235  28.849  29.505  1.00  0.00     0.031 C 
ATOM     43  C   UNL A   1      41.262  29.318  32.602  1.00  0.00     0.029 A 
ATOM     44  N   UNL A   1      42.154  27.549  31.752  1.00  0.00    -0.354 N 
ATOM     45  C   UNL A   1      38.251  31.057  29.100  1.00  0.00     0.074 A 
ATOM     46  C   UNL A   1      37.470  29.847  29.049  1.00  0.00     0.031 C 
ATOM     47  C   UNL A   1      42.453  29.087  33.234  1.00  0.00     0.029 A 
ATOM     48  C   UNL A   1      43.198  28.062  32.496  1.00  0.00     0.049 A 
ATOM     49  H   UNL A   1      42.033  26.595  31.539  1.00  0.00     0.167 HD
ATOM     50  C   UNL A   1      37.997  32.083  29.981  1.00  0.00     0.037 A 
ATOM     51  C   UNL A   1      44.382  28.087  31.817  1.00  0.00     0.037 A 
ATOM     52  C   UNL A   1      39.187  32.338  30.805  1.00  0.00     0.049 A 
ATOM     53  C   UNL A   1      44.454  29.463  31.206  1.00  0.00     0.074 A 
ATOM     54  C   UNL A   1      39.491  32.173  32.143  1.00  0.00     0.029 A 
ATOM     55  N   UNL A   1      40.403  32.526  30.164  1.00  0.00    -0.354 N 
ATOM     56  N   UNL A   1      43.394  30.172  30.917  1.00  0.00    -0.248 NA
ATOM     57  C   UNL A   1      45.689  30.207  31.054  1.00  0.00     0.031 C 
ATOM     58  C   UNL A   1      40.919  32.234  32.269  1.00  0.00     0.029 A 
ATOM     59  C   UNL A   1      41.480  32.335  31.003  1.00  0.00     0.049 A 
ATOM     60  H   UNL A   1      40.489  32.769  29.214  1.00  0.00     0.167 HD
ATOM     61  C   UNL A   1      43.745  31.458  30.688  1.00  0.00     0.074 A 
ATOM     62  C   UNL A   1      45.199  31.426  30.767  1.00  0.00     0.031 C 
ATOM     63  C   UNL A   1      42.834  32.452  30.457  1.00  0.00     0.037 A 
BRANCH  50  64
ATOM     64  C   UNL A   1      36.648  32.729  30.260  1.00  0.00     0.064 A 
ATOM     65  C   UNL A   1      35.965  32.426  31.463  1.00  0.00     0.173 A 
ATOM     66  C   UNL A   1      36.038  33.736  29.482  1.00  0.00     0.173 A 
ATOM     67  F   UNL A   1      36.453  31.533  32.333  1.00  0.00    -0.203 F 
ATOM     68  C   UNL A   1      34.780  33.062  31.847  1.00  0.00     0.198 A 
ATOM     69  C   UNL A   1      34.842  34.367  29.864  1.00  0.00     0.198 A 
ATOM     70  F   UNL A   1      36.593  34.184  28.350  1.00  0.00    -0.203 F 
ATOM     71  F   UNL A   1      34.204  32.740  33.013  1.00  0.00    -0.200 F 
ATOM     72  C   UNL A   1      34.219  34.034  31.049  1.00  0.00     0.200 A 
ATOM     73  F   UNL A   1      34.312  35.321  29.084  1.00  0.00    -0.200 F 
ATOM     74  F   UNL A   1      33.098  34.663  31.432  1.00  0.00    -0.200 F 
ENDBRANCH  50  64
BRANCH  51  75
ATOM     75  C   UNL A   1      44.696  26.756  31.141  1.00  0.00     0.064 A 
ATOM     76  C   UNL A   1      44.609  25.575  31.929  1.00  0.00     0.173 A 
ATOM     77  C   UNL A   1      44.780  26.549  29.753  1.00  0.00     0.173 A 
ATOM     78  F   UNL A   1      44.534  25.672  33.267  1.00  0.00    -0.203 F 
ATOM     79  C   UNL A   1      44.469  24.299  31.371  1.00  0.00     0.198 A 
ATOM     80  C   UNL A   1      44.707  25.255  29.195  1.00  0.00     0.198 A 
ATOM     81  F   UNL A   1      44.823  27.594  28.915  1.00  0.00    -0.203 F 
ATOM     82  F   UNL A   1      44.169  23.253  32.158  1.00  0.00    -0.200 F 
ATOM     83  C   UNL A   1      44.515  24.138  30.001  1.00  0.00     0.200 A 
ATOM     84  F   UNL A   1      44.668  25.102  27.861  1.00  0.00    -0.200 F 
ATOM     85  F   UNL A   1      44.260  22.939  29.456  1.00  0.00    -0.200 F 
ENDBRANCH  51  75
BRANCH  63  86
ATOM     86  C   UNL A   1      43.206  33.691  29.693  1.00  0.00     0.064 A 
ATOM     87  C   UNL A   1      43.273  34.959  30.289  1.00  0.00     0.173 A 
ATOM     88  C   UNL A   1      43.644  33.628  28.351  1.00  0.00     0.173 A 
ATOM     89  F   UNL A   1      43.149  35.131  31.611  1.00  0.00    -0.203 F 
ATOM     90  C   UNL A   1      43.531  36.102  29.546  1.00  0.00     0.198 A 
ATOM     91  C   UNL A   1      44.047  34.757  27.653  1.00  0.00     0.198 A 
ATOM     92  F   UNL A   1      43.727  32.477  27.670  1.00  0.00    -0.203 F 
ATOM     93  F   UNL A   1      43.411  37.302  30.128  1.00  0.00    -0.200 F 
ATOM     94  C   UNL A   1      43.925  36.002  28.229  1.00  0.00     0.200 A 
ATOM     95  F   UNL A   1      44.551  34.626  26.419  1.00  0.00    -0.200 F 
ATOM     96  F   UNL A   1      44.211  37.101  27.523  1.00  0.00    -0.200 F 
ENDBRANCH  63  86
ENDBRANCH  37  38
ENDBRANCH  30  32
ENDBRANCH  29  30
ENDBRANCH  28  29
ENDBRANCH  27  28
ENDBRANCH   1  27
TORSDOF 16
ENDMDL
MODEL 3
REMARK VINA RESULT:     -12.1      1.111      1.549
REMARK SMILES Cc1ccccc1NC(=O)c1ccccc1NC(=O)CCC(=O)OCCOC(=O)c1ccc(-c2c3nc(c(-c4c(F)c(F)c(F)c(F)c4F)c4ccc([nH]4)c(-c4c(F)c(F)c(F)c(F)c4F)c4nc(c(-c5c(F)c(F)c(F)c(F)c5F)c5ccc2[nH]5)C=C4)C=C3)cc1
REMARK SMILES IDX 24 1 22 2 23 3 21 4 20 5 18 6 17 7 19 9 16 10 11 11 12 12
REMARK SMILES IDX 13 13 15 14 14 15 9 16 8 17 10 19 7 20 1 21 2 22 3 23 4 24
REMARK SMILES IDX 6 25 5 26 25 27 26 28 27 29 28 30 29 31 30 32 31 33 92 34
REMARK SMILES IDX 32 35 91 36 33 37 34 38 35 39 85 40 36 41 90 42 84 43 86 44
REMARK SMILES IDX 37 45 89 46 83 47 82 48 38 50 70 51 50 52 69 53 51 54 54 55
REMARK SMILES IDX 68 56 87 57 52 58 53 59 67 61 88 62 55 63 39 64 40 65 48 66
REMARK SMILES IDX 41 67 42 68 46 69 49 70 43 71 44 72 47 73 45 74 71 75 72 76
REMARK SMILES IDX 80 77 73 78 74 79 78 80 81 81 75 82 76 83 79 84 77 85 56 86
REMARK SMILES IDX 57 87 65 88 58 89 59 90 63 91 66 92 60 93 61 94 64 95 62 96
REMARK H PARENT 17 8 8 18 86 49 54 60
REMARK Flexibility Score: inf
ROOT
ATOM      1  O   UNL A   1      33.944  32.043  28.711  1.00  0.00    -0.462 OA
ENDROOT
BRANCH   1   2
ATOM      2  C   UNL A   1      33.942  31.035  27.847  1.00  0.00     0.306 C 
ATOM      3  O   UNL A   1      34.995  30.606  27.473  1.00  0.00    -0.252 OA
BRANCH   2   4
ATOM      4  C   UNL A   1      32.763  30.332  27.297  1.00  0.00     0.132 C 
BRANCH   4   5
ATOM      5  C   UNL A   1      33.400  28.920  27.025  1.00  0.00     0.112 C 
BRANCH   5   6
ATOM      6  C   UNL A   1      32.219  28.086  26.629  1.00  0.00     0.224 C 
ATOM      7  N   UNL A   1      32.270  27.149  25.621  1.00  0.00    -0.325 N 
ATOM      8  H   UNL A   1      32.169  26.247  26.001  1.00  0.00     0.169 HD
ATOM      9  O   UNL A   1      31.458  27.904  27.588  1.00  0.00    -0.275 OA
BRANCH   7  10
ATOM     10  C   UNL A   1      32.423  27.061  24.199  1.00  0.00     0.054 A 
ATOM     11  C   UNL A   1      31.469  26.290  23.442  1.00  0.00     0.063 A 
ATOM     12  C   UNL A   1      31.747  25.930  22.093  1.00  0.00     0.016 A 
ATOM     13  C   UNL A   1      32.907  26.382  21.462  1.00  0.00     0.001 A 
ATOM     14  C   UNL A   1      33.510  27.609  23.505  1.00  0.00     0.027 A 
ATOM     15  C   UNL A   1      33.756  27.255  22.152  1.00  0.00     0.002 A 
BRANCH  11  16
ATOM     16  C   UNL A   1      30.260  25.610  24.021  1.00  0.00     0.257 C 
ATOM     17  N   UNL A   1      30.179  24.248  24.255  1.00  0.00    -0.322 N 
ATOM     18  H   UNL A   1      29.269  23.925  24.449  1.00  0.00     0.170 HD
ATOM     19  O   UNL A   1      29.246  26.288  24.209  1.00  0.00    -0.269 OA
BRANCH  17  20
ATOM     20  C   UNL A   1      31.168  23.239  24.263  1.00  0.00     0.044 A 
ATOM     21  C   UNL A   1      30.813  22.885  26.806  1.00  0.00     0.046 C 
ATOM     22  C   UNL A   1      31.395  22.525  25.461  1.00  0.00    -0.027 A 
ATOM     23  C   UNL A   1      32.055  21.282  25.379  1.00  0.00     0.005 A 
ATOM     24  C   UNL A   1      32.395  20.730  24.140  1.00  0.00     0.000 A 
ATOM     25  C   UNL A   1      31.689  22.756  23.052  1.00  0.00     0.026 A 
ATOM     26  C   UNL A   1      32.219  21.468  22.978  1.00  0.00     0.002 A 
ENDBRANCH  17  20
ENDBRANCH  11  16
ENDBRANCH   7  10
ENDBRANCH   5   6
ENDBRANCH   4   5
ENDBRANCH   2   4
ENDBRANCH   1   2
BRANCH   1  27
ATOM     27  C   UNL A   1      35.275  32.257  29.318  1.00  0.00     0.274 C 
BRANCH  27  28
ATOM     28  C   UNL A   1      35.762  31.676  30.773  1.00  0.00     0.275 C 
BRANCH  28  29
ATOM     29  O   UNL A   1      36.866  30.748  31.392  1.00  0.00    -0.458 OA
BRANCH  29  30
ATOM     30  C   UNL A   1      37.287  29.403  31.224  1.00  0.00     0.338 C 
ATOM     31  O   UNL A   1      37.163  28.541  32.079  1.00  0.00    -0.246 OA
BRANCH  30  32
ATOM     32  C   UNL A   1      37.981  29.170  29.924  1.00  0.00     0.060 A 
ATOM     33  C   UNL A   1      38.150  29.797  28.671  1.00  0.00     0.016 A 
ATOM     34  C   UNL A   1      38.843  28.192  30.153  1.00  0.00     0.016 A 
ATOM     35  C   UNL A   1      39.301  29.398  27.890  1.00  0.00     0.010 A 
ATOM     36  C   UNL A   1      40.041  28.675  29.874  1.00  0.00     0.010 A 
ATOM     37  C   UNL A   1      40.261  28.656  28.561  1.00  0.00    -0.014 A 
BRANCH  37  38
ATOM     38  C   UNL A   1      41.546  27.918  28.500  1.00  0.00     0.031 A 
ATOM     39  C   UNL A   1      41.361  26.479  28.188  1.00  0.00     0.074 A 
ATOM     40  C   UNL A   1      42.659  28.738  28.253  1.00  0.00     0.049 A 
ATOM     41  N   UNL A   1      41.481  25.461  28.976  1.00  0.00    -0.248 NA
ATOM     42  C   UNL A   1      40.733  26.075  26.907  1.00  0.00     0.031 C 
ATOM     43  C   UNL A   1      44.089  28.637  27.978  1.00  0.00     0.029 A 
ATOM     44  N   UNL A   1      42.600  30.172  28.256  1.00  0.00    -0.354 N 
ATOM     45  C   UNL A   1      41.593  24.381  28.103  1.00  0.00     0.074 A 
ATOM     46  C   UNL A   1      40.755  24.740  26.986  1.00  0.00     0.031 C 
ATOM     47  C   UNL A   1      44.703  29.748  28.486  1.00  0.00     0.029 A 
ATOM     48  C   UNL A   1      43.681  30.699  28.934  1.00  0.00     0.049 A 
ATOM     49  H   UNL A   1      41.889  30.705  27.834  1.00  0.00     0.167 HD
ATOM     50  C   UNL A   1      42.824  23.781  27.960  1.00  0.00     0.037 A 
ATOM     51  C   UNL A   1      43.355  31.195  30.164  1.00  0.00     0.037 A 
ATOM     52  C   UNL A   1      43.858  24.609  28.596  1.00  0.00     0.049 A 
ATOM     53  C   UNL A   1      43.609  30.061  31.123  1.00  0.00     0.074 A 
ATOM     54  C   UNL A   1      44.924  25.354  28.130  1.00  0.00     0.029 A 
ATOM     55  N   UNL A   1      43.657  25.022  29.906  1.00  0.00    -0.354 N 
ATOM     56  N   UNL A   1      43.558  28.803  30.771  1.00  0.00    -0.248 NA
ATOM     57  C   UNL A   1      44.113  30.250  32.470  1.00  0.00     0.031 C 
ATOM     58  C   UNL A   1      45.324  26.239  29.185  1.00  0.00     0.029 A 
ATOM     59  C   UNL A   1      44.442  26.102  30.248  1.00  0.00     0.049 A 
ATOM     60  H   UNL A   1      43.023  24.592  30.524  1.00  0.00     0.167 HD
ATOM     61  C   UNL A   1      44.128  28.031  31.724  1.00  0.00     0.074 A 
ATOM     62  C   UNL A   1      44.444  28.984  32.780  1.00  0.00     0.031 C 
ATOM     63  C   UNL A   1      44.306  26.682  31.586  1.00  0.00     0.037 A 
BRANCH  50  64
ATOM     64  C   UNL A   1      43.152  22.575  27.094  1.00  0.00     0.064 A 
ATOM     65  C   UNL A   1      42.419  21.375  27.262  1.00  0.00     0.173 A 
ATOM     66  C   UNL A   1      44.055  22.558  26.009  1.00  0.00     0.173 A 
ATOM     67  F   UNL A   1      41.483  21.261  28.213  1.00  0.00    -0.203 F 
ATOM     68  C   UNL A   1      42.580  20.261  26.432  1.00  0.00     0.198 A 
ATOM     69  C   UNL A   1      44.223  21.434  25.182  1.00  0.00     0.198 A 
ATOM     70  F   UNL A   1      44.775  23.636  25.675  1.00  0.00    -0.203 F 
ATOM     71  F   UNL A   1      41.832  19.168  26.638  1.00  0.00    -0.200 F 
ATOM     72  C   UNL A   1      43.480  20.290  25.390  1.00  0.00     0.200 A 
ATOM     73  F   UNL A   1      45.094  21.480  24.163  1.00  0.00    -0.200 F 
ATOM     74  F   UNL A   1      43.613  19.232  24.579  1.00  0.00    -0.200 F 
ENDBRANCH  50  64
BRANCH  51  75
ATOM     75  C   UNL A   1      42.140  32.117  30.119  1.00  0.00     0.064 A 
ATOM     76  C   UNL A   1      41.055  31.826  30.992  1.00  0.00     0.173 A 
ATOM     77  C   UNL A   1      42.103  33.384  29.514  1.00  0.00     0.173 A 
ATOM     78  F   UNL A   1      40.999  30.634  31.610  1.00  0.00    -0.203 F 
ATOM     79  C   UNL A   1      40.091  32.777  31.346  1.00  0.00     0.198 A 
ATOM     80  C   UNL A   1      41.092  34.319  29.821  1.00  0.00     0.198 A 
ATOM     81  F   UNL A   1      43.098  33.778  28.707  1.00  0.00    -0.203 F 
ATOM     82  F   UNL A   1      39.226  32.516  32.340  1.00  0.00    -0.200 F 
ATOM     83  C   UNL A   1      40.110  34.027  30.763  1.00  0.00     0.200 A 
ATOM     84  F   UNL A   1      41.153  35.563  29.319  1.00  0.00    -0.200 F 
ATOM     85  F   UNL A   1      39.266  34.981  31.187  1.00  0.00    -0.200 F 
ENDBRANCH  51  75
BRANCH  63  86
ATOM     86  C   UNL A   1      44.415  25.781  32.784  1.00  0.00     0.064 A 
ATOM     87  C   UNL A   1      45.548  24.996  33.043  1.00  0.00     0.173 A 
ATOM     88  C   UNL A   1      43.430  25.776  33.797  1.00  0.00     0.173 A 
ATOM     89  F   UNL A   1      46.669  25.103  32.318  1.00  0.00    -0.203 F 
ATOM     90  C   UNL A   1      45.592  24.106  34.106  1.00  0.00     0.198 A 
ATOM     91  C   UNL A   1      43.547  24.994  34.936  1.00  0.00     0.198 A 
ATOM     92  F   UNL A   1      42.332  26.542  33.742  1.00  0.00    -0.203 F 
ATOM     93  F   UNL A   1      46.622  23.257  34.207  1.00  0.00    -0.200 F 
ATOM     94  C   UNL A   1      44.595  24.108  35.057  1.00  0.00     0.200 A 
ATOM     95  F   UNL A   1      42.636  25.106  35.911  1.00  0.00    -0.200 F 
ATOM     96  F   UNL A   1      44.655  23.276  36.102  1.00  0.00    -0.200 F 
ENDBRANCH  63  86
ENDBRANCH  37  38
ENDBRANCH  30  32
ENDBRANCH  29  30
ENDBRANCH  28  29
ENDBRANCH  27  28
ENDBRANCH   1  27
TORSDOF 16
ENDMDL
