MODEL 1
REMARK VINA RESULT:     -10.0      0.000      0.000
REMARK SMILES CCN(CC)S(=O)(=O)c1cccc(C(=O)N2C[C@H](O)C[C@H]2C(=O)OCCOC(=O)c2ccc(-c3c4nc(c(-c5c(F)c(F)c(F)c(F)c5F)c5ccc([nH]5)c(-c5c(F)c(F)c(F)c(F)c5F)c5nc(c(-c6c(F)c(F)c(F)c(F)c6F)c6ccc3[nH]6)C=C5)C=C4)cc2)c1
REMARK SMILES IDX 24 1 22 2 23 3 21 4 16 5 17 6 18 7 20 8 14 9 15 10 13 11
REMARK SMILES IDX 9 12 10 13 93 14 11 15 12 16 6 17 7 18 8 19 3 20 2 21 1 22
REMARK SMILES IDX 4 23 5 24 19 25 25 27 26 28 27 29 28 30 29 31 30 32 31 33
REMARK SMILES IDX 92 34 32 35 91 36 33 37 34 38 35 39 85 40 36 41 90 42 84 43
REMARK SMILES IDX 86 44 37 45 89 46 83 47 82 48 38 50 70 51 50 52 69 53 51 54
REMARK SMILES IDX 54 55 68 56 87 57 52 58 53 59 67 61 88 62 55 63 39 64 40 65
REMARK SMILES IDX 48 66 41 67 42 68 46 69 49 70 43 71 44 72 47 73 45 74 71 75
REMARK SMILES IDX 72 76 80 77 73 78 74 79 78 80 81 81 75 82 76 83 79 84 77 85
REMARK SMILES IDX 56 86 57 87 65 88 58 89 59 90 63 91 66 92 60 93 61 94 64 95
REMARK SMILES IDX 62 96
REMARK H PARENT 19 26 86 49 54 60
REMARK Flexibility Score: inf
ROOT
ATOM      1  O   UNL A   1      33.317  33.782  29.396  1.00  0.00    -0.461 OA
ENDROOT
BRANCH   1   2
ATOM      2  C   UNL A   1      33.474  35.088  29.707  1.00  0.00     0.329 C 
ATOM      3  O   UNL A   1      33.796  35.961  28.903  1.00  0.00    -0.250 OA
BRANCH   2   4
ATOM      4  C   UNL A   1      33.220  35.426  31.182  1.00  0.00     0.198 C 
ATOM      5  N   UNL A   1      34.077  34.952  32.265  1.00  0.00    -0.322 N 
ATOM      6  C   UNL A   1      34.577  36.047  33.082  1.00  0.00     0.152 C 
ATOM      7  C   UNL A   1      33.639  37.208  32.757  1.00  0.00     0.136 C 
ATOM      8  C   UNL A   1      33.267  36.959  31.303  1.00  0.00     0.071 C 
BRANCH   5   9
ATOM      9  C   UNL A   1      34.240  33.614  32.555  1.00  0.00     0.254 C 
ATOM     10  O   UNL A   1      33.281  32.920  32.877  1.00  0.00    -0.269 OA
BRANCH   9  11
ATOM     11  C   UNL A   1      35.609  33.002  32.490  1.00  0.00     0.041 A 
ATOM     12  C   UNL A   1      37.584  31.995  33.468  1.00  0.00     0.083 A 
ATOM     13  C   UNL A   1      38.235  31.983  32.236  1.00  0.00     0.022 A 
ATOM     14  C   UNL A   1      36.268  32.464  33.596  1.00  0.00     0.035 A 
ATOM     15  C   UNL A   1      37.568  32.480  31.119  1.00  0.00     0.002 A 
ATOM     16  C   UNL A   1      36.270  32.993  31.249  1.00  0.00     0.014 A 
BRANCH  12  17
ATOM     17  S   UNL A   1      38.441  31.502  34.946  1.00  0.00     0.243 S 
ATOM     18  O   UNL A   1      38.260  30.077  35.130  1.00  0.00    -0.207 OA
ATOM     19  O   UNL A   1      38.039  32.439  35.970  1.00  0.00    -0.207 OA
BRANCH  17  20
ATOM     20  N   UNL A   1      40.078  31.788  34.520  1.00  0.00    -0.198 NA
BRANCH  20  21
ATOM     21  C   UNL A   1      40.588  33.166  34.778  1.00  0.00     0.099 C 
ATOM     22  C   UNL A   1      40.800  33.962  33.504  1.00  0.00     0.022 C 
ENDBRANCH  20  21
BRANCH  20  23
ATOM     23  C   UNL A   1      41.080  30.740  34.889  1.00  0.00     0.099 C 
ATOM     24  C   UNL A   1      41.442  29.791  33.759  1.00  0.00     0.022 C 
ENDBRANCH  20  23
ENDBRANCH  17  20
ENDBRANCH  12  17
ENDBRANCH   9  11
ENDBRANCH   5   9
BRANCH   7  25
ATOM     25  O   UNL A   1      32.476  37.199  33.581  1.00  0.00    -0.391 OA
ATOM     26  H   UNL A   1      32.331  36.305  33.925  1.00  0.00     0.211 HD
ENDBRANCH   7  25
ENDBRANCH   2   4
ENDBRANCH   1   2
BRANCH   1  27
ATOM     27  C   UNL A   1      34.110  33.294  28.296  1.00  0.00     0.274 C 
BRANCH  27  28
ATOM     28  C   UNL A   1      33.693  31.878  27.898  1.00  0.00     0.275 C 
BRANCH  28  29
ATOM     29  O   UNL A   1      34.791  31.171  27.289  1.00  0.00    -0.458 OA
BRANCH  29  30
ATOM     30  C   UNL A   1      35.044  29.951  27.809  1.00  0.00     0.338 C 
ATOM     31  O   UNL A   1      34.276  29.016  27.959  1.00  0.00    -0.246 OA
BRANCH  30  32
ATOM     32  C   UNL A   1      36.450  29.837  28.199  1.00  0.00     0.060 A 
ATOM     33  C   UNL A   1      37.442  30.042  27.241  1.00  0.00     0.016 A 
ATOM     34  C   UNL A   1      36.766  29.327  29.457  1.00  0.00     0.016 A 
ATOM     35  C   UNL A   1      38.754  29.672  27.512  1.00  0.00     0.010 A 
ATOM     36  C   UNL A   1      38.093  29.018  29.751  1.00  0.00     0.010 A 
ATOM     37  C   UNL A   1      39.092  29.162  28.772  1.00  0.00    -0.014 A 
BRANCH  37  38
ATOM     38  C   UNL A   1      40.492  28.783  29.071  1.00  0.00     0.031 A 
ATOM     39  C   UNL A   1      41.411  29.756  29.750  1.00  0.00     0.074 A 
ATOM     40  C   UNL A   1      40.932  27.566  28.707  1.00  0.00     0.049 A 
ATOM     41  N   UNL A   1      42.700  29.671  29.956  1.00  0.00    -0.248 NA
ATOM     42  C   UNL A   1      40.801  30.996  30.254  1.00  0.00     0.031 C 
ATOM     43  C   UNL A   1      40.115  26.532  28.068  1.00  0.00     0.029 A 
ATOM     44  N   UNL A   1      42.176  26.997  28.806  1.00  0.00    -0.354 N 
ATOM     45  C   UNL A   1      43.061  30.853  30.589  1.00  0.00     0.074 A 
ATOM     46  C   UNL A   1      41.859  31.650  30.713  1.00  0.00     0.031 C 
ATOM     47  C   UNL A   1      40.878  25.455  27.833  1.00  0.00     0.029 A 
ATOM     48  C   UNL A   1      42.248  25.749  28.240  1.00  0.00     0.049 A 
ATOM     49  H   UNL A   1      42.940  27.440  29.240  1.00  0.00     0.167 HD
ATOM     50  C   UNL A   1      44.287  31.231  31.027  1.00  0.00     0.037 A 
ATOM     51  C   UNL A   1      43.308  24.950  28.028  1.00  0.00     0.037 A 
ATOM     52  C   UNL A   1      45.471  30.418  30.904  1.00  0.00     0.049 A 
ATOM     53  C   UNL A   1      44.666  25.413  28.474  1.00  0.00     0.074 A 
ATOM     54  C   UNL A   1      46.760  30.697  31.324  1.00  0.00     0.029 A 
ATOM     55  N   UNL A   1      45.508  29.160  30.315  1.00  0.00    -0.354 N 
ATOM     56  N   UNL A   1      45.004  26.536  29.061  1.00  0.00    -0.248 NA
ATOM     57  C   UNL A   1      45.789  24.503  28.223  1.00  0.00     0.031 C 
ATOM     58  C   UNL A   1      47.584  29.632  30.946  1.00  0.00     0.029 A 
ATOM     59  C   UNL A   1      46.802  28.662  30.340  1.00  0.00     0.049 A 
ATOM     60  H   UNL A   1      44.730  28.693  29.935  1.00  0.00     0.167 HD
ATOM     61  C   UNL A   1      46.374  26.462  29.265  1.00  0.00     0.074 A 
ATOM     62  C   UNL A   1      46.800  25.174  28.757  1.00  0.00     0.031 C 
ATOM     63  C   UNL A   1      47.204  27.379  29.821  1.00  0.00     0.037 A 
BRANCH  50  64
ATOM     64  C   UNL A   1      44.414  32.593  31.648  1.00  0.00     0.064 A 
ATOM     65  C   UNL A   1      44.600  33.748  30.873  1.00  0.00     0.173 A 
ATOM     66  C   UNL A   1      44.322  32.749  33.041  1.00  0.00     0.173 A 
ATOM     67  F   UNL A   1      44.707  33.656  29.539  1.00  0.00    -0.203 F 
ATOM     68  C   UNL A   1      44.723  35.001  31.470  1.00  0.00     0.198 A 
ATOM     69  C   UNL A   1      44.413  34.006  33.631  1.00  0.00     0.198 A 
ATOM     70  F   UNL A   1      44.138  31.679  33.830  1.00  0.00    -0.203 F 
ATOM     71  F   UNL A   1      44.953  36.083  30.713  1.00  0.00    -0.200 F 
ATOM     72  C   UNL A   1      44.623  35.130  32.847  1.00  0.00     0.200 A 
ATOM     73  F   UNL A   1      44.305  34.130  34.962  1.00  0.00    -0.200 F 
ATOM     74  F   UNL A   1      44.738  36.336  33.419  1.00  0.00    -0.200 F 
ENDBRANCH  50  64
BRANCH  51  75
ATOM     75  C   UNL A   1      43.119  23.650  27.337  1.00  0.00     0.064 A 
ATOM     76  C   UNL A   1      42.584  22.545  28.011  1.00  0.00     0.173 A 
ATOM     77  C   UNL A   1      43.439  23.496  25.979  1.00  0.00     0.173 A 
ATOM     78  F   UNL A   1      42.280  22.638  29.314  1.00  0.00    -0.203 F 
ATOM     79  C   UNL A   1      42.385  21.332  27.355  1.00  0.00     0.198 A 
ATOM     80  C   UNL A   1      43.211  22.292  25.317  1.00  0.00     0.198 A 
ATOM     81  F   UNL A   1      43.949  24.526  25.287  1.00  0.00    -0.203 F 
ATOM     82  F   UNL A   1      41.904  20.279  28.031  1.00  0.00    -0.200 F 
ATOM     83  C   UNL A   1      42.689  21.209  26.007  1.00  0.00     0.200 A 
ATOM     84  F   UNL A   1      43.489  22.186  24.011  1.00  0.00    -0.200 F 
ATOM     85  F   UNL A   1      42.483  20.046  25.374  1.00  0.00    -0.200 F 
ENDBRANCH  51  75
BRANCH  63  86
ATOM     86  C   UNL A   1      48.654  27.004  29.928  1.00  0.00     0.064 A 
ATOM     87  C   UNL A   1      49.149  26.292  31.031  1.00  0.00     0.173 A 
ATOM     88  C   UNL A   1      49.551  27.339  28.903  1.00  0.00     0.173 A 
ATOM     89  F   UNL A   1      48.334  25.966  32.045  1.00  0.00    -0.203 F 
ATOM     90  C   UNL A   1      50.497  25.953  31.115  1.00  0.00     0.198 A 
ATOM     91  C   UNL A   1      50.892  26.972  28.977  1.00  0.00     0.198 A 
ATOM     92  F   UNL A   1      49.126  28.015  27.826  1.00  0.00    -0.203 F 
ATOM     93  F   UNL A   1      50.959  25.319  32.202  1.00  0.00    -0.200 F 
ATOM     94  C   UNL A   1      51.365  26.287  30.086  1.00  0.00     0.200 A 
ATOM     95  F   UNL A   1      51.726  27.284  27.976  1.00  0.00    -0.200 F 
ATOM     96  F   UNL A   1      52.661  25.956  30.168  1.00  0.00    -0.200 F 
ENDBRANCH  63  86
ENDBRANCH  37  38
ENDBRANCH  30  32
ENDBRANCH  29  30
ENDBRANCH  28  29
ENDBRANCH  27  28
ENDBRANCH   1  27
TORSDOF 18
ENDMDL
MODEL 2
REMARK VINA RESULT:     -10.0      4.621      7.984
REMARK SMILES CCN(CC)S(=O)(=O)c1cccc(C(=O)N2C[C@H](O)C[C@H]2C(=O)OCCOC(=O)c2ccc(-c3c4nc(c(-c5c(F)c(F)c(F)c(F)c5F)c5ccc([nH]5)c(-c5c(F)c(F)c(F)c(F)c5F)c5nc(c(-c6c(F)c(F)c(F)c(F)c6F)c6ccc3[nH]6)C=C5)C=C4)cc2)c1
REMARK SMILES IDX 24 1 22 2 23 3 21 4 16 5 17 6 18 7 20 8 14 9 15 10 13 11
REMARK SMILES IDX 9 12 10 13 93 14 11 15 12 16 6 17 7 18 8 19 3 20 2 21 1 22
REMARK SMILES IDX 4 23 5 24 19 25 25 27 26 28 27 29 28 30 29 31 30 32 31 33
REMARK SMILES IDX 92 34 32 35 91 36 33 37 34 38 35 39 85 40 36 41 90 42 84 43
REMARK SMILES IDX 86 44 37 45 89 46 83 47 82 48 38 50 70 51 50 52 69 53 51 54
REMARK SMILES IDX 54 55 68 56 87 57 52 58 53 59 67 61 88 62 55 63 39 64 40 65
REMARK SMILES IDX 48 66 41 67 42 68 46 69 49 70 43 71 44 72 47 73 45 74 71 75
REMARK SMILES IDX 72 76 80 77 73 78 74 79 78 80 81 81 75 82 76 83 79 84 77 85
REMARK SMILES IDX 56 86 57 87 65 88 58 89 59 90 63 91 66 92 60 93 61 94 64 95
REMARK SMILES IDX 62 96
REMARK H PARENT 19 26 86 49 54 60
REMARK Flexibility Score: inf
ROOT
ATOM      1  O   UNL A   1      31.774  30.295  25.635  1.00  0.00    -0.461 OA
ENDROOT
BRANCH   1   2
ATOM      2  C   UNL A   1      32.286  29.045  25.673  1.00  0.00     0.329 C 
ATOM      3  O   UNL A   1      33.067  28.639  26.531  1.00  0.00    -0.250 OA
BRANCH   2   4
ATOM      4  C   UNL A   1      31.818  28.131  24.533  1.00  0.00     0.198 C 
ATOM      5  N   UNL A   1      30.740  27.157  24.686  1.00  0.00    -0.322 N 
ATOM      6  C   UNL A   1      29.692  27.345  23.695  1.00  0.00     0.152 C 
ATOM      7  C   UNL A   1      30.357  28.192  22.611  1.00  0.00     0.136 C 
ATOM      8  C   UNL A   1      31.342  29.047  23.392  1.00  0.00     0.071 C 
BRANCH   5   9
ATOM      9  C   UNL A   1      30.815  26.096  25.564  1.00  0.00     0.254 C 
ATOM     10  O   UNL A   1      30.345  26.182  26.694  1.00  0.00    -0.269 OA
BRANCH   9  11
ATOM     11  C   UNL A   1      31.492  24.826  25.138  1.00  0.00     0.041 A 
ATOM     12  C   UNL A   1      33.162  23.083  25.343  1.00  0.00     0.083 A 
ATOM     13  C   UNL A   1      32.749  22.493  24.150  1.00  0.00     0.022 A 
ATOM     14  C   UNL A   1      32.520  24.219  25.859  1.00  0.00     0.035 A 
ATOM     15  C   UNL A   1      31.696  23.070  23.445  1.00  0.00     0.002 A 
ATOM     16  C   UNL A   1      31.080  24.231  23.931  1.00  0.00     0.014 A 
BRANCH  12  17
ATOM     17  S   UNL A   1      34.589  22.467  26.207  1.00  0.00     0.243 S 
ATOM     18  O   UNL A   1      34.791  21.082  25.836  1.00  0.00    -0.207 OA
ATOM     19  O   UNL A   1      34.410  22.847  27.590  1.00  0.00    -0.207 OA
BRANCH  17  20
ATOM     20  N   UNL A   1      35.852  23.401  25.518  1.00  0.00    -0.198 NA
BRANCH  20  21
ATOM     21  C   UNL A   1      37.241  22.958  25.838  1.00  0.00     0.099 C 
ATOM     22  C   UNL A   1      38.095  24.074  26.411  1.00  0.00     0.022 C 
ENDBRANCH  20  21
BRANCH  20  23
ATOM     23  C   UNL A   1      35.709  23.804  24.084  1.00  0.00     0.099 C 
ATOM     24  C   UNL A   1      36.483  22.935  23.107  1.00  0.00     0.022 C 
ENDBRANCH  20  23
ENDBRANCH  17  20
ENDBRANCH  12  17
ENDBRANCH   9  11
ENDBRANCH   5   9
BRANCH   7  25
ATOM     25  O   UNL A   1      31.040  27.388  21.653  1.00  0.00    -0.391 OA
ATOM     26  H   UNL A   1      31.231  26.518  22.037  1.00  0.00     0.211 HD
ENDBRANCH   7  25
ENDBRANCH   2   4
ENDBRANCH   1   2
BRANCH   1  27
ATOM     27  C   UNL A   1      31.787  31.022  26.878  1.00  0.00     0.274 C 
BRANCH  27  28
ATOM     28  C   UNL A   1      32.172  32.486  26.661  1.00  0.00     0.275 C 
BRANCH  28  29
ATOM     29  O   UNL A   1      32.774  33.041  27.847  1.00  0.00    -0.458 OA
BRANCH  29  30
ATOM     30  C   UNL A   1      33.956  33.663  27.650  1.00  0.00     0.338 C 
ATOM     31  O   UNL A   1      34.165  34.754  27.147  1.00  0.00    -0.246 OA
BRANCH  30  32
ATOM     32  C   UNL A   1      35.061  32.843  28.150  1.00  0.00     0.060 A 
ATOM     33  C   UNL A   1      34.787  31.593  28.702  1.00  0.00     0.016 A 
ATOM     34  C   UNL A   1      36.331  33.408  28.256  1.00  0.00     0.016 A 
ATOM     35  C   UNL A   1      35.767  30.925  29.426  1.00  0.00     0.010 A 
ATOM     36  C   UNL A   1      37.332  32.708  28.927  1.00  0.00     0.010 A 
ATOM     37  C   UNL A   1      37.050  31.475  29.540  1.00  0.00    -0.014 A 
BRANCH  37  38
ATOM     38  C   UNL A   1      38.102  30.758  30.296  1.00  0.00     0.031 A 
ATOM     39  C   UNL A   1      38.351  31.083  31.740  1.00  0.00     0.074 A 
ATOM     40  C   UNL A   1      38.844  29.830  29.667  1.00  0.00     0.049 A 
ATOM     41  N   UNL A   1      39.318  30.681  32.524  1.00  0.00    -0.248 NA
ATOM     42  C   UNL A   1      37.390  31.990  32.385  1.00  0.00     0.031 C 
ATOM     43  C   UNL A   1      38.667  29.415  28.274  1.00  0.00     0.029 A 
ATOM     44  N   UNL A   1      39.903  29.079  30.108  1.00  0.00    -0.354 N 
ATOM     45  C   UNL A   1      39.098  31.304  33.746  1.00  0.00     0.074 A 
ATOM     46  C   UNL A   1      37.919  32.130  33.593  1.00  0.00     0.031 C 
ATOM     47  C   UNL A   1      39.585  28.485  27.974  1.00  0.00     0.029 A 
ATOM     48  C   UNL A   1      40.454  28.290  29.130  1.00  0.00     0.049 A 
ATOM     49  H   UNL A   1      40.234  29.104  31.035  1.00  0.00     0.167 HD
ATOM     50  C   UNL A   1      39.819  31.191  34.888  1.00  0.00     0.037 A 
ATOM     51  C   UNL A   1      41.564  27.531  29.147  1.00  0.00     0.037 A 
ATOM     52  C   UNL A   1      40.985  30.354  35.024  1.00  0.00     0.049 A 
ATOM     53  C   UNL A   1      42.377  27.463  30.408  1.00  0.00     0.074 A 
ATOM     54  C   UNL A   1      41.782  30.155  36.138  1.00  0.00     0.029 A 
ATOM     55  N   UNL A   1      41.520  29.575  34.006  1.00  0.00    -0.354 N 
ATOM     56  N   UNL A   1      42.172  28.063  31.556  1.00  0.00    -0.248 NA
ATOM     57  C   UNL A   1      43.576  26.618  30.376  1.00  0.00     0.031 C 
ATOM     58  C   UNL A   1      42.826  29.294  35.781  1.00  0.00     0.029 A 
ATOM     59  C   UNL A   1      42.651  28.912  34.461  1.00  0.00     0.049 A 
ATOM     60  H   UNL A   1      41.153  29.505  33.096  1.00  0.00     0.167 HD
ATOM     61  C   UNL A   1      43.205  27.657  32.388  1.00  0.00     0.074 A 
ATOM     62  C   UNL A   1      44.024  26.743  31.617  1.00  0.00     0.031 C 
ATOM     63  C   UNL A   1      43.454  28.012  33.673  1.00  0.00     0.037 A 
BRANCH  50  64
ATOM     64  C   UNL A   1      39.386  32.014  36.068  1.00  0.00     0.064 A 
ATOM     65  C   UNL A   1      39.939  33.275  36.336  1.00  0.00     0.173 A 
ATOM     66  C   UNL A   1      38.382  31.544  36.930  1.00  0.00     0.173 A 
ATOM     67  F   UNL A   1      40.909  33.767  35.553  1.00  0.00    -0.203 F 
ATOM     68  C   UNL A   1      39.528  34.019  37.441  1.00  0.00     0.198 A 
ATOM     69  C   UNL A   1      37.951  32.304  38.015  1.00  0.00     0.198 A 
ATOM     70  F   UNL A   1      37.813  30.347  36.718  1.00  0.00    -0.203 F 
ATOM     71  F   UNL A   1      40.108  35.197  37.707  1.00  0.00    -0.200 F 
ATOM     72  C   UNL A   1      38.531  33.536  38.275  1.00  0.00     0.200 A 
ATOM     73  F   UNL A   1      36.979  31.841  38.813  1.00  0.00    -0.200 F 
ATOM     74  F   UNL A   1      38.134  34.254  39.335  1.00  0.00    -0.200 F 
ENDBRANCH  50  64
BRANCH  51  75
ATOM     75  C   UNL A   1      41.974  26.806  27.918  1.00  0.00     0.064 A 
ATOM     76  C   UNL A   1      42.822  27.402  26.977  1.00  0.00     0.173 A 
ATOM     77  C   UNL A   1      41.549  25.490  27.676  1.00  0.00     0.173 A 
ATOM     78  F   UNL A   1      43.238  28.664  27.154  1.00  0.00    -0.203 F 
ATOM     79  C   UNL A   1      43.225  26.712  25.835  1.00  0.00     0.198 A 
ATOM     80  C   UNL A   1      41.977  24.791  26.550  1.00  0.00     0.198 A 
ATOM     81  F   UNL A   1      40.740  24.873  28.550  1.00  0.00    -0.203 F 
ATOM     82  F   UNL A   1      44.009  27.316  24.932  1.00  0.00    -0.200 F 
ATOM     83  C   UNL A   1      42.809  25.405  25.628  1.00  0.00     0.200 A 
ATOM     84  F   UNL A   1      41.588  23.523  26.365  1.00  0.00    -0.200 F 
ATOM     85  F   UNL A   1      43.209  24.737  24.536  1.00  0.00    -0.200 F 
ENDBRANCH  51  75
BRANCH  63  86
ATOM     86  C   UNL A   1      44.651  27.385  34.329  1.00  0.00     0.064 A 
ATOM     87  C   UNL A   1      45.907  28.008  34.312  1.00  0.00     0.173 A 
ATOM     88  C   UNL A   1      44.531  26.162  35.004  1.00  0.00     0.173 A 
ATOM     89  F   UNL A   1      46.077  29.169  33.663  1.00  0.00    -0.203 F 
ATOM     90  C   UNL A   1      47.007  27.413  34.925  1.00  0.00     0.198 A 
ATOM     91  C   UNL A   1      45.626  25.585  35.641  1.00  0.00     0.198 A 
ATOM     92  F   UNL A   1      43.349  25.529  35.053  1.00  0.00    -0.203 F 
ATOM     93  F   UNL A   1      48.210  28.000  34.851  1.00  0.00    -0.200 F 
ATOM     94  C   UNL A   1      46.864  26.207  35.594  1.00  0.00     0.200 A 
ATOM     95  F   UNL A   1      45.483  24.426  36.298  1.00  0.00    -0.200 F 
ATOM     96  F   UNL A   1      47.923  25.639  36.186  1.00  0.00    -0.200 F 
ENDBRANCH  63  86
ENDBRANCH  37  38
ENDBRANCH  30  32
ENDBRANCH  29  30
ENDBRANCH  28  29
ENDBRANCH  27  28
ENDBRANCH   1  27
TORSDOF 18
ENDMDL
MODEL 3
REMARK VINA RESULT:      -9.9      4.632     10.178
REMARK SMILES CCN(CC)S(=O)(=O)c1cccc(C(=O)N2C[C@H](O)C[C@H]2C(=O)OCCOC(=O)c2ccc(-c3c4nc(c(-c5c(F)c(F)c(F)c(F)c5F)c5ccc([nH]5)c(-c5c(F)c(F)c(F)c(F)c5F)c5nc(c(-c6c(F)c(F)c(F)c(F)c6F)c6ccc3[nH]6)C=C5)C=C4)cc2)c1
REMARK SMILES IDX 24 1 22 2 23 3 21 4 16 5 17 6 18 7 20 8 14 9 15 10 13 11
REMARK SMILES IDX 9 12 10 13 93 14 11 15 12 16 6 17 7 18 8 19 3 20 2 21 1 22
REMARK SMILES IDX 4 23 5 24 19 25 25 27 26 28 27 29 28 30 29 31 30 32 31 33
REMARK SMILES IDX 92 34 32 35 91 36 33 37 34 38 35 39 85 40 36 41 90 42 84 43
REMARK SMILES IDX 86 44 37 45 89 46 83 47 82 48 38 50 70 51 50 52 69 53 51 54
REMARK SMILES IDX 54 55 68 56 87 57 52 58 53 59 67 61 88 62 55 63 39 64 40 65
REMARK SMILES IDX 48 66 41 67 42 68 46 69 49 70 43 71 44 72 47 73 45 74 71 75
REMARK SMILES IDX 72 76 80 77 73 78 74 79 78 80 81 81 75 82 76 83 79 84 77 85
REMARK SMILES IDX 56 86 57 87 65 88 58 89 59 90 63 91 66 92 60 93 61 94 64 95
REMARK SMILES IDX 62 96
REMARK H PARENT 19 26 86 49 54 60
REMARK Flexibility Score: inf
ROOT
ATOM      1  O   UNL A   1      33.595  27.934  23.839  1.00  0.00    -0.461 OA
ENDROOT
BRANCH   1   2
ATOM      2  C   UNL A   1      33.498  26.968  22.899  1.00  0.00     0.329 C 
ATOM      3  O   UNL A   1      33.976  27.047  21.769  1.00  0.00    -0.250 OA
BRANCH   2   4
ATOM      4  C   UNL A   1      32.720  25.723  23.343  1.00  0.00     0.198 C 
ATOM      5  N   UNL A   1      32.230  25.535  24.706  1.00  0.00    -0.322 N 
ATOM      6  C   UNL A   1      30.799  25.279  24.739  1.00  0.00     0.152 C 
ATOM      7  C   UNL A   1      30.466  24.856  23.310  1.00  0.00     0.136 C 
ATOM      8  C   UNL A   1      31.453  25.653  22.471  1.00  0.00     0.071 C 
BRANCH   5   9
ATOM      9  C   UNL A   1      33.072  25.450  25.795  1.00  0.00     0.254 C 
ATOM     10  O   UNL A   1      33.282  26.428  26.505  1.00  0.00    -0.269 OA
BRANCH   9  11
ATOM     11  C   UNL A   1      33.752  24.149  26.106  1.00  0.00     0.041 A 
ATOM     12  C   UNL A   1      35.504  22.496  25.834  1.00  0.00     0.083 A 
ATOM     13  C   UNL A   1      34.858  21.614  26.700  1.00  0.00     0.022 A 
ATOM     14  C   UNL A   1      34.980  23.770  25.564  1.00  0.00     0.035 A 
ATOM     15  C   UNL A   1      33.653  22.003  27.278  1.00  0.00     0.002 A 
ATOM     16  C   UNL A   1      33.102  23.255  26.976  1.00  0.00     0.014 A 
BRANCH  12  17
ATOM     17  S   UNL A   1      36.971  21.995  24.964  1.00  0.00     0.243 S 
ATOM     18  O   UNL A   1      37.021  22.700  23.700  1.00  0.00    -0.207 OA
ATOM     19  O   UNL A   1      36.986  20.551  25.011  1.00  0.00    -0.207 OA
BRANCH  17  20
ATOM     20  N   UNL A   1      38.212  22.612  25.975  1.00  0.00    -0.198 NA
BRANCH  20  21
ATOM     21  C   UNL A   1      39.577  22.052  25.751  1.00  0.00     0.099 C 
ATOM     22  C   UNL A   1      40.029  21.140  26.877  1.00  0.00     0.022 C 
ENDBRANCH  20  21
BRANCH  20  23
ATOM     23  C   UNL A   1      38.243  24.091  26.205  1.00  0.00     0.099 C 
ATOM     24  C   UNL A   1      38.856  24.508  27.531  1.00  0.00     0.022 C 
ENDBRANCH  20  23
ENDBRANCH  17  20
ENDBRANCH  12  17
ENDBRANCH   9  11
ENDBRANCH   5   9
BRANCH   7  25
ATOM     25  O   UNL A   1      30.654  23.457  23.112  1.00  0.00    -0.391 OA
ATOM     26  H   UNL A   1      30.552  22.994  23.957  1.00  0.00     0.211 HD
ENDBRANCH   7  25
ENDBRANCH   2   4
ENDBRANCH   1   2
BRANCH   1  27
ATOM     27  C   UNL A   1      32.589  28.964  23.793  1.00  0.00     0.274 C 
BRANCH  27  28
ATOM     28  C   UNL A   1      32.324  29.544  25.184  1.00  0.00     0.275 C 
BRANCH  28  29
ATOM     29  O   UNL A   1      33.562  29.822  25.869  1.00  0.00    -0.458 OA
BRANCH  29  30
ATOM     30  C   UNL A   1      33.498  30.812  26.784  1.00  0.00     0.338 C 
ATOM     31  O   UNL A   1      32.681  31.712  26.872  1.00  0.00    -0.246 OA
BRANCH  30  32
ATOM     32  C   UNL A   1      34.586  30.688  27.755  1.00  0.00     0.060 A 
ATOM     33  C   UNL A   1      35.486  31.741  27.910  1.00  0.00     0.016 A 
ATOM     34  C   UNL A   1      34.826  29.451  28.350  1.00  0.00     0.016 A 
ATOM     35  C   UNL A   1      36.671  31.544  28.608  1.00  0.00     0.010 A 
ATOM     36  C   UNL A   1      35.984  29.273  29.106  1.00  0.00     0.010 A 
ATOM     37  C   UNL A   1      36.927  30.309  29.218  1.00  0.00    -0.014 A 
BRANCH  37  38
ATOM     38  C   UNL A   1      38.181  30.101  29.977  1.00  0.00     0.031 A 
ATOM     39  C   UNL A   1      39.283  29.260  29.402  1.00  0.00     0.074 A 
ATOM     40  C   UNL A   1      38.309  30.656  31.195  1.00  0.00     0.049 A 
ATOM     41  N   UNL A   1      40.383  28.835  29.970  1.00  0.00    -0.248 NA
ATOM     42  C   UNL A   1      39.123  28.830  28.005  1.00  0.00     0.031 C 
ATOM     43  C   UNL A   1      37.311  31.515  31.836  1.00  0.00     0.029 A 
ATOM     44  N   UNL A   1      39.319  30.570  32.117  1.00  0.00    -0.354 N 
ATOM     45  C   UNL A   1      41.033  28.068  29.012  1.00  0.00     0.074 A 
ATOM     46  C   UNL A   1      40.193  28.066  27.833  1.00  0.00     0.031 C 
ATOM     47  C   UNL A   1      37.760  31.878  33.047  1.00  0.00     0.029 A 
ATOM     48  C   UNL A   1      39.039  31.222  33.292  1.00  0.00     0.049 A 
ATOM     49  H   UNL A   1      40.162  30.089  31.952  1.00  0.00     0.167 HD
ATOM     50  C   UNL A   1      42.223  27.428  29.115  1.00  0.00     0.037 A 
ATOM     51  C   UNL A   1      39.715  31.249  34.454  1.00  0.00     0.037 A 
ATOM     52  C   UNL A   1      43.050  27.452  30.295  1.00  0.00     0.049 A 
ATOM     53  C   UNL A   1      41.006  30.488  34.561  1.00  0.00     0.074 A 
ATOM     54  C   UNL A   1      44.279  26.849  30.502  1.00  0.00     0.029 A 
ATOM     55  N   UNL A   1      42.728  28.116  31.471  1.00  0.00    -0.354 N 
ATOM     56  N   UNL A   1      41.610  29.755  33.657  1.00  0.00    -0.248 NA
ATOM     57  C   UNL A   1      41.706  30.554  35.849  1.00  0.00     0.031 C 
ATOM     58  C   UNL A   1      44.678  27.109  31.818  1.00  0.00     0.029 A 
ATOM     59  C   UNL A   1      43.725  27.919  32.416  1.00  0.00     0.049 A 
ATOM     60  H   UNL A   1      41.913  28.648  31.614  1.00  0.00     0.167 HD
ATOM     61  C   UNL A   1      42.767  29.285  34.258  1.00  0.00     0.074 A 
ATOM     62  C   UNL A   1      42.791  29.833  35.599  1.00  0.00     0.031 C 
ATOM     63  C   UNL A   1      43.723  28.470  33.747  1.00  0.00     0.037 A 
BRANCH  50  64
ATOM     64  C   UNL A   1      42.684  26.625  27.932  1.00  0.00     0.064 A 
ATOM     65  C   UNL A   1      42.397  25.257  27.806  1.00  0.00     0.173 A 
ATOM     66  C   UNL A   1      43.402  27.240  26.893  1.00  0.00     0.173 A 
ATOM     67  F   UNL A   1      41.724  24.617  28.774  1.00  0.00    -0.203 F 
ATOM     68  C   UNL A   1      42.840  24.529  26.704  1.00  0.00     0.198 A 
ATOM     69  C   UNL A   1      43.816  26.516  25.779  1.00  0.00     0.198 A 
ATOM     70  F   UNL A   1      43.699  28.547  26.958  1.00  0.00    -0.203 F 
ATOM     71  F   UNL A   1      42.601  23.212  26.632  1.00  0.00    -0.200 F 
ATOM     72  C   UNL A   1      43.544  25.159  25.689  1.00  0.00     0.200 A 
ATOM     73  F   UNL A   1      44.486  27.129  24.793  1.00  0.00    -0.200 F 
ATOM     74  F   UNL A   1      43.967  24.458  24.628  1.00  0.00    -0.200 F 
ENDBRANCH  50  64
BRANCH  51  75
ATOM     75  C   UNL A   1      39.159  32.002  35.607  1.00  0.00     0.064 A 
ATOM     76  C   UNL A   1      38.347  31.371  36.557  1.00  0.00     0.173 A 
ATOM     77  C   UNL A   1      39.454  33.361  35.796  1.00  0.00     0.173 A 
ATOM     78  F   UNL A   1      38.021  30.079  36.408  1.00  0.00    -0.203 F 
ATOM     79  C   UNL A   1      37.844  32.073  37.651  1.00  0.00     0.198 A 
ATOM     80  C   UNL A   1      38.977  34.054  36.906  1.00  0.00     0.198 A 
ATOM     81  F   UNL A   1      40.232  34.010  34.917  1.00  0.00    -0.203 F 
ATOM     82  F   UNL A   1      37.041  31.456  38.529  1.00  0.00    -0.200 F 
ATOM     83  C   UNL A   1      38.167  33.411  37.829  1.00  0.00     0.200 A 
ATOM     84  F   UNL A   1      39.308  35.340  37.083  1.00  0.00    -0.200 F 
ATOM     85  F   UNL A   1      37.695  34.081  38.890  1.00  0.00    -0.200 F 
ENDBRANCH  51  75
BRANCH  63  86
ATOM     86  C   UNL A   1      44.886  28.146  34.640  1.00  0.00     0.064 A 
ATOM     87  C   UNL A   1      44.896  26.998  35.445  1.00  0.00     0.173 A 
ATOM     88  C   UNL A   1      46.013  28.981  34.668  1.00  0.00     0.173 A 
ATOM     89  F   UNL A   1      43.835  26.179  35.467  1.00  0.00    -0.203 F 
ATOM     90  C   UNL A   1      45.983  26.713  36.268  1.00  0.00     0.198 A 
ATOM     91  C   UNL A   1      47.110  28.677  35.470  1.00  0.00     0.198 A 
ATOM     92  F   UNL A   1      46.054  30.089  33.913  1.00  0.00    -0.203 F 
ATOM     93  F   UNL A   1      45.950  25.638  37.069  1.00  0.00    -0.200 F 
ATOM     94  C   UNL A   1      47.090  27.547  36.274  1.00  0.00     0.200 A 
ATOM     95  F   UNL A   1      48.184  29.477  35.465  1.00  0.00    -0.200 F 
ATOM     96  F   UNL A   1      48.136  27.269  37.064  1.00  0.00    -0.200 F 
ENDBRANCH  63  86
ENDBRANCH  37  38
ENDBRANCH  30  32
ENDBRANCH  29  30
ENDBRANCH  28  29
ENDBRANCH  27  28
ENDBRANCH   1  27
TORSDOF 18
ENDMDL
