MODEL 1
REMARK VINA RESULT:     -12.4      0.000      0.000
REMARK SMILES O=C(OCCOC(=O)[C@@H]1CS[C@H](c2cccc([N+](=O)[O-])c2)[NH2+]1)c1ccc(-c2c3nc(c(-c4c(F)c(F)c(F)c(F)c4F)c4ccc([nH]4)c(-c4c(F)c(F)c(F)c(F)c4F)c4nc(c(-c5c(F)c(F)c(F)c(F)c5F)c5ccc2[nH]5)C=C4)C=C3)cc1
REMARK SMILES IDX 4 1 3 2 2 3 1 4 23 5 24 6 85 7 25 8 84 9 26 10 27 11 28 12
REMARK SMILES IDX 78 13 29 14 83 15 77 16 79 17 30 18 82 19 76 20 75 21 31 23
REMARK SMILES IDX 63 24 43 25 62 26 44 27 47 28 61 29 80 30 45 31 46 32 60 34
REMARK SMILES IDX 81 35 48 36 32 37 33 38 41 39 34 40 35 41 39 42 42 43 36 44
REMARK SMILES IDX 37 45 40 46 38 47 64 48 65 49 73 50 66 51 67 52 71 53 74 54
REMARK SMILES IDX 68 55 69 56 72 57 70 58 49 59 50 60 58 61 51 62 52 63 56 64
REMARK SMILES IDX 59 65 53 66 54 67 57 68 55 69 5 70 6 71 7 72 8 73 9 74 10 75
REMARK SMILES IDX 22 76 11 77 12 78 13 81 14 82 21 83 15 84 17 85 16 86 18 87
REMARK SMILES IDX 19 88 20 89
REMARK H PARENT 79 22 47 33 22 79 22 80
REMARK Flexibility Score: inf
ROOT
ATOM      1  C   UNL A   1      31.896  29.965  26.912  1.00  0.00     0.275 C 
ENDROOT
BRANCH   1   2
ATOM      2  O   UNL A   1      33.181  30.507  26.634  1.00  0.00    -0.458 OA
BRANCH   2   3
ATOM      3  C   UNL A   1      33.650  31.443  27.483  1.00  0.00     0.338 C 
ATOM      4  O   UNL A   1      33.150  32.540  27.714  1.00  0.00    -0.246 OA
BRANCH   3   5
ATOM      5  C   UNL A   1      35.034  31.026  27.824  1.00  0.00     0.060 A 
ATOM      6  C   UNL A   1      36.015  32.010  28.028  1.00  0.00     0.016 A 
ATOM      7  C   UNL A   1      35.303  29.698  28.166  1.00  0.00     0.016 A 
ATOM      8  C   UNL A   1      37.214  31.691  28.634  1.00  0.00     0.010 A 
ATOM      9  C   UNL A   1      36.500  29.380  28.813  1.00  0.00     0.010 A 
ATOM     10  C   UNL A   1      37.449  30.382  29.057  1.00  0.00    -0.014 A 
BRANCH  10  11
ATOM     11  C   UNL A   1      38.768  30.106  29.651  1.00  0.00     0.031 A 
ATOM     12  C   UNL A   1      39.041  30.641  31.016  1.00  0.00     0.074 A 
ATOM     13  C   UNL A   1      39.610  29.248  29.045  1.00  0.00     0.049 A 
ATOM     14  N   UNL A   1      39.959  30.282  31.870  1.00  0.00    -0.248 NA
ATOM     15  C   UNL A   1      38.140  31.701  31.499  1.00  0.00     0.031 C 
ATOM     16  C   UNL A   1      39.411  28.663  27.717  1.00  0.00     0.029 A 
ATOM     17  N   UNL A   1      40.778  28.684  29.484  1.00  0.00    -0.354 N 
ATOM     18  C   UNL A   1      39.713  31.034  33.007  1.00  0.00     0.074 A 
ATOM     19  C   UNL A   1      38.618  31.927  32.711  1.00  0.00     0.031 C 
ATOM     20  C   UNL A   1      40.419  27.816  27.452  1.00  0.00     0.029 A 
ATOM     21  C   UNL A   1      41.319  27.781  28.601  1.00  0.00     0.049 A 
ATOM     22  H   UNL A   1      41.190  28.905  30.351  1.00  0.00     0.167 HD
ATOM     23  C   UNL A   1      40.321  30.948  34.211  1.00  0.00     0.037 A 
ATOM     24  C   UNL A   1      42.402  26.992  28.732  1.00  0.00     0.037 A 
ATOM     25  C   UNL A   1      41.430  30.078  34.477  1.00  0.00     0.049 A 
ATOM     26  C   UNL A   1      43.120  26.982  30.055  1.00  0.00     0.074 A 
ATOM     27  C   UNL A   1      42.146  29.918  35.646  1.00  0.00     0.029 A 
ATOM     28  N   UNL A   1      41.993  29.226  33.535  1.00  0.00    -0.354 N 
ATOM     29  N   UNL A   1      42.827  27.628  31.159  1.00  0.00    -0.248 NA
ATOM     30  C   UNL A   1      44.297  26.111  30.164  1.00  0.00     0.031 C 
ATOM     31  C   UNL A   1      43.171  28.998  35.400  1.00  0.00     0.029 A 
ATOM     32  C   UNL A   1      43.068  28.556  34.089  1.00  0.00     0.049 A 
ATOM     33  H   UNL A   1      41.674  29.116  32.610  1.00  0.00     0.167 HD
ATOM     34  C   UNL A   1      43.759  27.219  32.102  1.00  0.00     0.074 A 
ATOM     35  C   UNL A   1      44.621  26.258  31.441  1.00  0.00     0.031 C 
ATOM     36  C   UNL A   1      43.893  27.597  33.397  1.00  0.00     0.037 A 
BRANCH  23  37
ATOM     37  C   UNL A   1      39.787  31.835  35.291  1.00  0.00     0.064 A 
ATOM     38  C   UNL A   1      38.768  31.396  36.152  1.00  0.00     0.173 A 
ATOM     39  C   UNL A   1      40.245  33.151  35.426  1.00  0.00     0.173 A 
ATOM     40  F   UNL A   1      38.277  30.153  36.038  1.00  0.00    -0.203 F 
ATOM     41  C   UNL A   1      38.202  32.258  37.086  1.00  0.00     0.198 A 
ATOM     42  C   UNL A   1      39.692  34.003  36.378  1.00  0.00     0.198 A 
ATOM     43  F   UNL A   1      41.208  33.619  34.618  1.00  0.00    -0.203 F 
ATOM     44  F   UNL A   1      37.186  31.839  37.854  1.00  0.00    -0.200 F 
ATOM     45  C   UNL A   1      38.665  33.560  37.199  1.00  0.00     0.200 A 
ATOM     46  F   UNL A   1      40.137  35.263  36.485  1.00  0.00    -0.200 F 
ATOM     47  F   UNL A   1      38.109  34.395  38.088  1.00  0.00    -0.200 F 
ENDBRANCH  23  37
BRANCH  24  48
ATOM     48  C   UNL A   1      42.837  26.119  27.611  1.00  0.00     0.064 A 
ATOM     49  C   UNL A   1      43.817  26.535  26.699  1.00  0.00     0.173 A 
ATOM     50  C   UNL A   1      42.264  24.852  27.416  1.00  0.00     0.173 A 
ATOM     51  F   UNL A   1      44.387  27.741  26.832  1.00  0.00    -0.203 F 
ATOM     52  C   UNL A   1      44.189  25.730  25.622  1.00  0.00     0.198 A 
ATOM     53  C   UNL A   1      42.652  24.040  26.353  1.00  0.00     0.198 A 
ATOM     54  F   UNL A   1      41.325  24.404  28.262  1.00  0.00    -0.203 F 
ATOM     55  F   UNL A   1      45.097  26.170  24.741  1.00  0.00    -0.200 F 
ATOM     56  C   UNL A   1      43.608  24.483  25.451  1.00  0.00     0.200 A 
ATOM     57  F   UNL A   1      42.094  22.831  26.197  1.00  0.00    -0.200 F 
ATOM     58  F   UNL A   1      43.962  23.711  24.414  1.00  0.00    -0.200 F 
ENDBRANCH  24  48
BRANCH  36  59
ATOM     59  C   UNL A   1      44.994  26.956  34.184  1.00  0.00     0.064 A 
ATOM     60  C   UNL A   1      44.812  25.721  34.822  1.00  0.00     0.173 A 
ATOM     61  C   UNL A   1      46.262  27.553  34.245  1.00  0.00     0.173 A 
ATOM     62  F   UNL A   1      43.612  25.122  34.802  1.00  0.00    -0.203 F 
ATOM     63  C   UNL A   1      45.859  25.112  35.505  1.00  0.00     0.198 A 
ATOM     64  C   UNL A   1      47.313  26.927  34.906  1.00  0.00     0.198 A 
ATOM     65  F   UNL A   1      46.484  28.732  33.644  1.00  0.00    -0.203 F 
ATOM     66  F   UNL A   1      45.656  23.948  36.138  1.00  0.00    -0.200 F 
ATOM     67  C   UNL A   1      47.110  25.710  35.538  1.00  0.00     0.200 A 
ATOM     68  F   UNL A   1      48.525  27.500  34.925  1.00  0.00    -0.200 F 
ATOM     69  F   UNL A   1      48.122  25.114  36.185  1.00  0.00    -0.200 F 
ENDBRANCH  36  59
ENDBRANCH  10  11
ENDBRANCH   3   5
ENDBRANCH   2   3
ENDBRANCH   1   2
BRANCH   1  70
ATOM     70  C   UNL A   1      31.894  28.540  27.508  1.00  0.00     0.274 C 
BRANCH  70  71
ATOM     71  O   UNL A   1      32.310  27.478  26.625  1.00  0.00    -0.458 OA
BRANCH  71  72
ATOM     72  C   UNL A   1      31.285  26.870  25.957  1.00  0.00     0.365 C 
ATOM     73  O   UNL A   1      30.425  26.187  26.508  1.00  0.00    -0.245 OA
BRANCH  72  74
ATOM     74  C   UNL A   1      31.245  27.151  24.448  1.00  0.00     0.304 C 
ATOM     75  C   UNL A   1      32.449  27.918  23.941  1.00  0.00     0.153 C 
ATOM     76  N   UNL A   1      30.017  27.893  24.103  1.00  0.00    -0.319 N 
ATOM     77  S   UNL A   1      31.918  28.529  22.332  1.00  0.00    -0.087 SA
ATOM     78  C   UNL A   1      30.161  28.539  22.796  1.00  0.00     0.274 C 
ATOM     79  H   UNL A   1      29.844  28.604  24.812  1.00  0.00     0.348 HD
ATOM     80  H   UNL A   1      29.236  27.238  24.064  1.00  0.00     0.348 HD
BRANCH  78  81
ATOM     81  C   UNL A   1      29.618  29.959  22.808  1.00  0.00     0.027 A 
ATOM     82  C   UNL A   1      29.670  30.732  23.986  1.00  0.00     0.011 A 
ATOM     83  C   UNL A   1      29.002  30.521  21.676  1.00  0.00     0.096 A 
ATOM     84  C   UNL A   1      29.131  32.026  24.033  1.00  0.00     0.008 A 
ATOM     85  C   UNL A   1      28.460  31.805  21.745  1.00  0.00     0.269 A 
ATOM     86  C   UNL A   1      28.518  32.572  22.908  1.00  0.00     0.085 A 
BRANCH  85  87
ATOM     87  N   UNL A   1      27.769  32.345  20.593  1.00  0.00     0.062 N 
ATOM     88  O   UNL A   1      27.433  33.535  20.646  1.00  0.00    -0.258 OA
ATOM     89  O   UNL A   1      27.509  31.553  19.677  1.00  0.00    -0.258 OA
ENDBRANCH  85  87
ENDBRANCH  78  81
ENDBRANCH  72  74
ENDBRANCH  71  72
ENDBRANCH  70  71
ENDBRANCH   1  70
TORSDOF 13
ENDMDL
MODEL 2
REMARK VINA RESULT:     -12.4      3.891      6.131
REMARK SMILES O=C(OCCOC(=O)[C@@H]1CS[C@H](c2cccc([N+](=O)[O-])c2)[NH2+]1)c1ccc(-c2c3nc(c(-c4c(F)c(F)c(F)c(F)c4F)c4ccc([nH]4)c(-c4c(F)c(F)c(F)c(F)c4F)c4nc(c(-c5c(F)c(F)c(F)c(F)c5F)c5ccc2[nH]5)C=C4)C=C3)cc1
REMARK SMILES IDX 4 1 3 2 2 3 1 4 23 5 24 6 85 7 25 8 84 9 26 10 27 11 28 12
REMARK SMILES IDX 78 13 29 14 83 15 77 16 79 17 30 18 82 19 76 20 75 21 31 23
REMARK SMILES IDX 63 24 43 25 62 26 44 27 47 28 61 29 80 30 45 31 46 32 60 34
REMARK SMILES IDX 81 35 48 36 32 37 33 38 41 39 34 40 35 41 39 42 42 43 36 44
REMARK SMILES IDX 37 45 40 46 38 47 64 48 65 49 73 50 66 51 67 52 71 53 74 54
REMARK SMILES IDX 68 55 69 56 72 57 70 58 49 59 50 60 58 61 51 62 52 63 56 64
REMARK SMILES IDX 59 65 53 66 54 67 57 68 55 69 5 70 6 71 7 72 8 73 9 74 10 75
REMARK SMILES IDX 22 76 11 77 12 78 13 81 14 82 21 83 15 84 17 85 16 86 18 87
REMARK SMILES IDX 19 88 20 89
REMARK H PARENT 79 22 47 33 22 79 22 80
REMARK Flexibility Score: inf
ROOT
ATOM      1  C   UNL A   1      34.075  32.736  28.480  1.00  0.00     0.275 C 
ENDROOT
BRANCH   1   2
ATOM      2  O   UNL A   1      34.765  31.955  27.513  1.00  0.00    -0.458 OA
BRANCH   2   3
ATOM      3  C   UNL A   1      34.537  30.626  27.521  1.00  0.00     0.338 C 
ATOM      4  O   UNL A   1      33.449  30.069  27.406  1.00  0.00    -0.246 OA
BRANCH   3   5
ATOM      5  C   UNL A   1      35.790  30.001  28.015  1.00  0.00     0.060 A 
ATOM      6  C   UNL A   1      36.963  30.120  27.251  1.00  0.00     0.016 A 
ATOM      7  C   UNL A   1      35.861  29.508  29.321  1.00  0.00     0.016 A 
ATOM      8  C   UNL A   1      38.193  29.828  27.804  1.00  0.00     0.010 A 
ATOM      9  C   UNL A   1      37.108  29.247  29.894  1.00  0.00     0.010 A 
ATOM     10  C   UNL A   1      38.275  29.421  29.137  1.00  0.00    -0.014 A 
BRANCH  10  11
ATOM     11  C   UNL A   1      39.615  29.080  29.643  1.00  0.00     0.031 A 
ATOM     12  C   UNL A   1      40.078  29.752  30.891  1.00  0.00     0.074 A 
ATOM     13  C   UNL A   1      40.302  28.063  29.089  1.00  0.00     0.049 A 
ATOM     14  N   UNL A   1      41.040  29.406  31.701  1.00  0.00    -0.248 NA
ATOM     15  C   UNL A   1      39.339  30.958  31.301  1.00  0.00     0.031 C 
ATOM     16  C   UNL A   1      39.912  27.338  27.877  1.00  0.00     0.029 A 
ATOM     17  N   UNL A   1      41.448  27.435  29.496  1.00  0.00    -0.354 N 
ATOM     18  C   UNL A   1      40.987  30.320  32.741  1.00  0.00     0.074 A 
ATOM     19  C   UNL A   1      39.959  31.284  32.423  1.00  0.00     0.031 C 
ATOM     20  C   UNL A   1      40.800  26.358  27.644  1.00  0.00     0.029 A 
ATOM     21  C   UNL A   1      41.806  26.372  28.702  1.00  0.00     0.049 A 
ATOM     22  H   UNL A   1      41.968  27.718  30.283  1.00  0.00     0.167 HD
ATOM     23  C   UNL A   1      41.704  30.324  33.885  1.00  0.00     0.037 A 
ATOM     24  C   UNL A   1      42.814  25.492  28.843  1.00  0.00     0.037 A 
ATOM     25  C   UNL A   1      42.745  29.377  34.169  1.00  0.00     0.049 A 
ATOM     26  C   UNL A   1      43.661  25.572  30.086  1.00  0.00     0.074 A 
ATOM     27  C   UNL A   1      43.558  29.291  35.281  1.00  0.00     0.029 A 
ATOM     28  N   UNL A   1      43.122  28.355  33.308  1.00  0.00    -0.354 N 
ATOM     29  N   UNL A   1      43.547  26.383  31.112  1.00  0.00    -0.248 NA
ATOM     30  C   UNL A   1      44.752  24.598  30.209  1.00  0.00     0.031 C 
ATOM     31  C   UNL A   1      44.459  28.240  35.074  1.00  0.00     0.029 A 
ATOM     32  C   UNL A   1      44.178  27.647  33.851  1.00  0.00     0.049 A 
ATOM     33  H   UNL A   1      42.700  28.163  32.439  1.00  0.00     0.167 HD
ATOM     34  C   UNL A   1      44.527  25.998  32.015  1.00  0.00     0.074 A 
ATOM     35  C   UNL A   1      45.219  24.871  31.420  1.00  0.00     0.031 C 
ATOM     36  C   UNL A   1      44.830  26.522  33.229  1.00  0.00     0.037 A 
BRANCH  23  37
ATOM     37  C   UNL A   1      41.374  31.395  34.875  1.00  0.00     0.064 A 
ATOM     38  C   UNL A   1      40.336  31.226  35.807  1.00  0.00     0.173 A 
ATOM     39  C   UNL A   1      42.048  32.622  34.852  1.00  0.00     0.173 A 
ATOM     40  F   UNL A   1      39.642  30.078  35.845  1.00  0.00    -0.203 F 
ATOM     41  C   UNL A   1      39.963  32.264  36.656  1.00  0.00     0.198 A 
ATOM     42  C   UNL A   1      41.687  33.649  35.719  1.00  0.00     0.198 A 
ATOM     43  F   UNL A   1      43.036  32.834  33.972  1.00  0.00    -0.203 F 
ATOM     44  F   UNL A   1      38.927  32.104  37.493  1.00  0.00    -0.200 F 
ATOM     45  C   UNL A   1      40.639  33.473  36.612  1.00  0.00     0.200 A 
ATOM     46  F   UNL A   1      42.338  34.820  35.676  1.00  0.00    -0.200 F 
ATOM     47  F   UNL A   1      40.269  34.478  37.419  1.00  0.00    -0.200 F 
ENDBRANCH  23  37
BRANCH  24  48
ATOM     48  C   UNL A   1      43.044  24.439  27.820  1.00  0.00     0.064 A 
ATOM     49  C   UNL A   1      43.730  24.716  26.629  1.00  0.00     0.173 A 
ATOM     50  C   UNL A   1      42.562  23.133  28.004  1.00  0.00     0.173 A 
ATOM     51  F   UNL A   1      44.199  25.950  26.398  1.00  0.00    -0.203 F 
ATOM     52  C   UNL A   1      43.903  23.736  25.651  1.00  0.00     0.198 A 
ATOM     53  C   UNL A   1      42.756  22.150  27.037  1.00  0.00     0.198 A 
ATOM     54  F   UNL A   1      41.903  22.814  29.127  1.00  0.00    -0.203 F 
ATOM     55  F   UNL A   1      44.525  24.039  24.504  1.00  0.00    -0.200 F 
ATOM     56  C   UNL A   1      43.418  22.454  25.857  1.00  0.00     0.200 A 
ATOM     57  F   UNL A   1      42.293  20.909  27.244  1.00  0.00    -0.200 F 
ATOM     58  F   UNL A   1      43.581  21.513  24.916  1.00  0.00    -0.200 F 
ENDBRANCH  24  48
BRANCH  36  59
ATOM     59  C   UNL A   1      45.939  25.870  33.996  1.00  0.00     0.064 A 
ATOM     60  C   UNL A   1      45.695  24.785  34.850  1.00  0.00     0.173 A 
ATOM     61  C   UNL A   1      47.265  26.293  33.822  1.00  0.00     0.173 A 
ATOM     62  F   UNL A   1      44.441  24.357  35.056  1.00  0.00    -0.203 F 
ATOM     63  C   UNL A   1      46.742  24.155  35.515  1.00  0.00     0.198 A 
ATOM     64  C   UNL A   1      48.311  25.643  34.468  1.00  0.00     0.198 A 
ATOM     65  F   UNL A   1      47.545  27.324  33.010  1.00  0.00    -0.203 F 
ATOM     66  F   UNL A   1      46.486  23.143  36.354  1.00  0.00    -0.200 F 
ATOM     67  C   UNL A   1      48.048  24.578  35.316  1.00  0.00     0.200 A 
ATOM     68  F   UNL A   1      49.574  26.044  34.265  1.00  0.00    -0.200 F 
ATOM     69  F   UNL A   1      49.056  23.960  35.947  1.00  0.00    -0.200 F 
ENDBRANCH  36  59
ENDBRANCH  10  11
ENDBRANCH   3   5
ENDBRANCH   2   3
ENDBRANCH   1   2
BRANCH   1  70
ATOM     70  C   UNL A   1      33.733  34.178  28.043  1.00  0.00     0.274 C 
BRANCH  70  71
ATOM     71  O   UNL A   1      34.078  35.226  28.973  1.00  0.00    -0.458 OA
BRANCH  71  72
ATOM     72  C   UNL A   1      33.006  35.917  29.462  1.00  0.00     0.365 C 
ATOM     73  O   UNL A   1      32.153  36.442  28.751  1.00  0.00    -0.245 OA
BRANCH  72  74
ATOM     74  C   UNL A   1      32.904  35.945  30.995  1.00  0.00     0.304 C 
ATOM     75  C   UNL A   1      33.421  37.225  31.614  1.00  0.00     0.153 C 
ATOM     76  N   UNL A   1      33.632  34.798  31.571  1.00  0.00    -0.319 N 
ATOM     77  S   UNL A   1      33.652  36.797  33.349  1.00  0.00    -0.087 SA
ATOM     78  C   UNL A   1      33.918  35.035  32.988  1.00  0.00     0.274 C 
ATOM     79  H   UNL A   1      34.509  34.669  31.068  1.00  0.00     0.348 HD
ATOM     80  H   UNL A   1      33.053  33.963  31.486  1.00  0.00     0.348 HD
BRANCH  78  81
ATOM     81  C   UNL A   1      35.336  34.621  33.353  1.00  0.00     0.027 A 
ATOM     82  C   UNL A   1      35.633  34.169  34.655  1.00  0.00     0.011 A 
ATOM     83  C   UNL A   1      36.393  34.728  32.432  1.00  0.00     0.096 A 
ATOM     84  C   UNL A   1      36.942  33.830  35.026  1.00  0.00     0.008 A 
ATOM     85  C   UNL A   1      37.691  34.398  32.824  1.00  0.00     0.269 A 
ATOM     86  C   UNL A   1      37.984  33.944  34.109  1.00  0.00     0.085 A 
BRANCH  85  87
ATOM     87  N   UNL A   1      38.780  34.578  31.887  1.00  0.00     0.062 N 
ATOM     88  O   UNL A   1      38.485  34.646  30.688  1.00  0.00    -0.258 OA
ATOM     89  O   UNL A   1      39.926  34.581  32.358  1.00  0.00    -0.258 OA
ENDBRANCH  85  87
ENDBRANCH  78  81
ENDBRANCH  72  74
ENDBRANCH  71  72
ENDBRANCH  70  71
ENDBRANCH   1  70
TORSDOF 13
ENDMDL
MODEL 3
REMARK VINA RESULT:     -12.4      5.884     11.278
REMARK SMILES O=C(OCCOC(=O)[C@@H]1CS[C@H](c2cccc([N+](=O)[O-])c2)[NH2+]1)c1ccc(-c2c3nc(c(-c4c(F)c(F)c(F)c(F)c4F)c4ccc([nH]4)c(-c4c(F)c(F)c(F)c(F)c4F)c4nc(c(-c5c(F)c(F)c(F)c(F)c5F)c5ccc2[nH]5)C=C4)C=C3)cc1
REMARK SMILES IDX 4 1 3 2 2 3 1 4 23 5 24 6 85 7 25 8 84 9 26 10 27 11 28 12
REMARK SMILES IDX 78 13 29 14 83 15 77 16 79 17 30 18 82 19 76 20 75 21 31 23
REMARK SMILES IDX 63 24 43 25 62 26 44 27 47 28 61 29 80 30 45 31 46 32 60 34
REMARK SMILES IDX 81 35 48 36 32 37 33 38 41 39 34 40 35 41 39 42 42 43 36 44
REMARK SMILES IDX 37 45 40 46 38 47 64 48 65 49 73 50 66 51 67 52 71 53 74 54
REMARK SMILES IDX 68 55 69 56 72 57 70 58 49 59 50 60 58 61 51 62 52 63 56 64
REMARK SMILES IDX 59 65 53 66 54 67 57 68 55 69 5 70 6 71 7 72 8 73 9 74 10 75
REMARK SMILES IDX 22 76 11 77 12 78 13 81 14 82 21 83 15 84 17 85 16 86 18 87
REMARK SMILES IDX 19 88 20 89
REMARK H PARENT 79 22 47 33 22 79 22 80
REMARK Flexibility Score: inf
ROOT
ATOM      1  C   UNL A   1      40.864  21.360  26.306  1.00  0.00     0.275 C 
ENDROOT
BRANCH   1   2
ATOM      2  O   UNL A   1      41.906  22.275  26.619  1.00  0.00    -0.458 OA
BRANCH   2   3
ATOM      3  C   UNL A   1      42.102  23.300  25.765  1.00  0.00     0.338 C 
ATOM      4  O   UNL A   1      42.634  23.241  24.660  1.00  0.00    -0.246 OA
BRANCH   3   5
ATOM      5  C   UNL A   1      41.850  24.536  26.548  1.00  0.00     0.060 A 
ATOM      6  C   UNL A   1      40.864  24.525  27.547  1.00  0.00     0.016 A 
ATOM      7  C   UNL A   1      42.733  25.617  26.459  1.00  0.00     0.016 A 
ATOM      8  C   UNL A   1      40.806  25.533  28.489  1.00  0.00     0.010 A 
ATOM      9  C   UNL A   1      42.701  26.618  27.431  1.00  0.00     0.010 A 
ATOM     10  C   UNL A   1      41.743  26.568  28.454  1.00  0.00    -0.014 A 
BRANCH  10  11
ATOM     11  C   UNL A   1      41.589  27.632  29.459  1.00  0.00     0.031 A 
ATOM     12  C   UNL A   1      40.437  28.567  29.310  1.00  0.00     0.074 A 
ATOM     13  C   UNL A   1      42.361  27.629  30.562  1.00  0.00     0.049 A 
ATOM     14  N   UNL A   1      39.901  29.358  30.199  1.00  0.00    -0.248 NA
ATOM     15  C   UNL A   1      39.778  28.595  27.993  1.00  0.00     0.031 C 
ATOM     16  C   UNL A   1      43.498  26.737  30.797  1.00  0.00     0.029 A 
ATOM     17  N   UNL A   1      42.279  28.371  31.710  1.00  0.00    -0.354 N 
ATOM     18  C   UNL A   1      38.813  29.934  29.564  1.00  0.00     0.074 A 
ATOM     19  C   UNL A   1      38.811  29.474  28.195  1.00  0.00     0.031 C 
ATOM     20  C   UNL A   1      44.004  26.977  32.018  1.00  0.00     0.029 A 
ATOM     21  C   UNL A   1      43.211  28.023  32.658  1.00  0.00     0.049 A 
ATOM     22  H   UNL A   1      41.616  29.087  31.844  1.00  0.00     0.167 HD
ATOM     23  C   UNL A   1      37.870  30.743  30.096  1.00  0.00     0.037 A 
ATOM     24  C   UNL A   1      43.373  28.478  33.915  1.00  0.00     0.037 A 
ATOM     25  C   UNL A   1      37.906  31.218  31.449  1.00  0.00     0.049 A 
ATOM     26  C   UNL A   1      42.360  29.451  34.456  1.00  0.00     0.074 A 
ATOM     27  C   UNL A   1      37.024  32.059  32.096  1.00  0.00     0.029 A 
ATOM     28  N   UNL A   1      38.905  30.895  32.359  1.00  0.00    -0.354 N 
ATOM     29  N   UNL A   1      41.279  29.924  33.881  1.00  0.00    -0.248 NA
ATOM     30  C   UNL A   1      42.566  29.929  35.829  1.00  0.00     0.031 C 
ATOM     31  C   UNL A   1      37.512  32.279  33.390  1.00  0.00     0.029 A 
ATOM     32  C   UNL A   1      38.676  31.543  33.559  1.00  0.00     0.049 A 
ATOM     33  H   UNL A   1      39.663  30.294  32.177  1.00  0.00     0.167 HD
ATOM     34  C   UNL A   1      40.659  30.726  34.828  1.00  0.00     0.074 A 
ATOM     35  C   UNL A   1      41.481  30.666  36.022  1.00  0.00     0.031 C 
ATOM     36  C   UNL A   1      39.515  31.446  34.727  1.00  0.00     0.037 A 
BRANCH  23  37
ATOM     37  C   UNL A   1      36.754  31.151  29.187  1.00  0.00     0.064 A 
ATOM     38  C   UNL A   1      36.625  32.479  28.748  1.00  0.00     0.173 A 
ATOM     39  C   UNL A   1      35.771  30.231  28.805  1.00  0.00     0.173 A 
ATOM     40  F   UNL A   1      37.527  33.403  29.115  1.00  0.00    -0.203 F 
ATOM     41  C   UNL A   1      35.529  32.877  27.988  1.00  0.00     0.198 A 
ATOM     42  C   UNL A   1      34.688  30.628  28.025  1.00  0.00     0.198 A 
ATOM     43  F   UNL A   1      35.845  28.955  29.209  1.00  0.00    -0.203 F 
ATOM     44  F   UNL A   1      35.391  34.163  27.635  1.00  0.00    -0.200 F 
ATOM     45  C   UNL A   1      34.562  31.951  27.627  1.00  0.00     0.200 A 
ATOM     46  F   UNL A   1      33.752  29.734  27.678  1.00  0.00    -0.200 F 
ATOM     47  F   UNL A   1      33.499  32.338  26.910  1.00  0.00    -0.200 F 
ENDBRANCH  23  37
BRANCH  24  48
ATOM     48  C   UNL A   1      44.497  27.988  34.754  1.00  0.00     0.064 A 
ATOM     49  C   UNL A   1      44.360  26.857  35.570  1.00  0.00     0.173 A 
ATOM     50  C   UNL A   1      45.732  28.657  34.773  1.00  0.00     0.173 A 
ATOM     51  F   UNL A   1      43.198  26.190  35.600  1.00  0.00    -0.203 F 
ATOM     52  C   UNL A   1      45.404  26.428  36.391  1.00  0.00     0.198 A 
ATOM     53  C   UNL A   1      46.781  28.215  35.575  1.00  0.00     0.198 A 
ATOM     54  F   UNL A   1      45.918  29.742  34.007  1.00  0.00    -0.203 F 
ATOM     55  F   UNL A   1      45.231  25.369  37.193  1.00  0.00    -0.200 F 
ATOM     56  C   UNL A   1      46.613  27.106  36.391  1.00  0.00     0.200 A 
ATOM     57  F   UNL A   1      47.951  28.868  35.565  1.00  0.00    -0.200 F 
ATOM     58  F   UNL A   1      47.614  26.696  37.182  1.00  0.00    -0.200 F 
ENDBRANCH  24  48
BRANCH  36  59
ATOM     59  C   UNL A   1      39.077  32.204  35.943  1.00  0.00     0.064 A 
ATOM     60  C   UNL A   1      38.255  31.615  36.913  1.00  0.00     0.173 A 
ATOM     61  C   UNL A   1      39.539  33.509  36.167  1.00  0.00     0.173 A 
ATOM     62  F   UNL A   1      37.778  30.375  36.732  1.00  0.00    -0.203 F 
ATOM     63  C   UNL A   1      37.900  32.313  38.063  1.00  0.00     0.198 A 
ATOM     64  C   UNL A   1      39.204  34.193  37.331  1.00  0.00     0.198 A 
ATOM     65  F   UNL A   1      40.333  34.110  35.268  1.00  0.00    -0.203 F 
ATOM     66  F   UNL A   1      37.085  31.747  38.963  1.00  0.00    -0.200 F 
ATOM     67  C   UNL A   1      38.382  33.596  38.275  1.00  0.00     0.200 A 
ATOM     68  F   UNL A   1      39.681  35.428  37.540  1.00  0.00    -0.200 F 
ATOM     69  F   UNL A   1      38.050  34.262  39.390  1.00  0.00    -0.200 F 
ENDBRANCH  36  59
ENDBRANCH  10  11
ENDBRANCH   3   5
ENDBRANCH   2   3
ENDBRANCH   1   2
BRANCH   1  70
ATOM     70  C   UNL A   1      41.169  19.879  26.619  1.00  0.00     0.274 C 
BRANCH  70  71
ATOM     71  O   UNL A   1      41.769  19.111  25.555  1.00  0.00    -0.458 OA
BRANCH  71  72
ATOM     72  C   UNL A   1      42.987  18.578  25.867  1.00  0.00     0.365 C 
ATOM     73  O   UNL A   1      43.157  17.734  26.743  1.00  0.00    -0.245 OA
BRANCH  72  74
ATOM     74  C   UNL A   1      44.148  19.071  24.990  1.00  0.00     0.304 C 
ATOM     75  C   UNL A   1      45.513  18.660  25.501  1.00  0.00     0.153 C 
ATOM     76  N   UNL A   1      44.099  20.540  24.865  1.00  0.00    -0.319 N 
ATOM     77  S   UNL A   1      46.644  19.752  24.622  1.00  0.00    -0.087 SA
ATOM     78  C   UNL A   1      45.396  21.059  24.422  1.00  0.00     0.274 C 
ATOM     79  H   UNL A   1      43.866  20.947  25.770  1.00  0.00     0.348 HD
ATOM     80  H   UNL A   1      43.390  20.790  24.175  1.00  0.00     0.348 HD
BRANCH  78  81
ATOM     81  C   UNL A   1      45.797  22.306  25.195  1.00  0.00     0.027 A 
ATOM     82  C   UNL A   1      45.393  22.474  26.535  1.00  0.00     0.011 A 
ATOM     83  C   UNL A   1      46.525  23.345  24.589  1.00  0.00     0.096 A 
ATOM     84  C   UNL A   1      45.710  23.637  27.251  1.00  0.00     0.008 A 
ATOM     85  C   UNL A   1      46.820  24.500  25.313  1.00  0.00     0.269 A 
ATOM     86  C   UNL A   1      46.427  24.663  26.641  1.00  0.00     0.085 A 
BRANCH  85  87
ATOM     87  N   UNL A   1      47.511  25.590  24.657  1.00  0.00     0.062 N 
ATOM     88  O   UNL A   1      47.593  26.658  25.276  1.00  0.00    -0.258 OA
ATOM     89  O   UNL A   1      47.904  25.385  23.500  1.00  0.00    -0.258 OA
ENDBRANCH  85  87
ENDBRANCH  78  81
ENDBRANCH  72  74
ENDBRANCH  71  72
ENDBRANCH  70  71
ENDBRANCH   1  70
TORSDOF 13
ENDMDL
