MODEL 1
REMARK VINA RESULT:     -12.4      0.000      0.000
REMARK SMILES CC(C)(C)OC(=O)N1CCC[C@](Cc2ccccc2)(C(=O)OCCOC(=O)c2ccc(-c3c4nc(c(-c5c(F)c(F)c(F)c(F)c5F)c5ccc([nH]5)c(-c5c(F)c(F)c(F)c(F)c5F)c5nc(c(-c6c(F)c(F)c(F)c(F)c6F)c6ccc3[nH]6)C=C5)C=C4)cc2)C1
REMARK SMILES IDX 23 1 22 2 20 3 21 4 12 5 8 6 9 7 91 8 10 9 11 10 6 11 7 12
REMARK SMILES IDX 5 13 2 14 1 15 3 16 4 17 13 18 14 19 15 20 19 21 16 22 18 23
REMARK SMILES IDX 17 24 24 25 25 26 26 27 27 28 28 29 29 30 90 31 30 32 89 33
REMARK SMILES IDX 31 34 32 35 33 36 83 37 34 38 88 39 82 40 84 41 35 42 87 43
REMARK SMILES IDX 81 44 80 45 36 47 68 48 48 49 67 50 49 51 52 52 66 53 85 54
REMARK SMILES IDX 50 55 51 56 65 58 86 59 53 60 37 61 38 62 46 63 39 64 40 65
REMARK SMILES IDX 44 66 47 67 41 68 42 69 45 70 43 71 69 72 70 73 78 74 71 75
REMARK SMILES IDX 72 76 76 77 79 78 73 79 74 80 77 81 75 82 54 83 55 84 63 85
REMARK SMILES IDX 56 86 57 87 61 88 64 89 58 90 59 91 62 92 60 93
REMARK H PARENT 84 46 52 57
REMARK Flexibility Score: inf
ROOT
ATOM      1  C   UNL A   1      31.818  28.364  26.718  1.00  0.00     0.274 C 
ENDROOT
BRANCH   1   2
ATOM      2  O   UNL A   1      32.101  27.813  25.415  1.00  0.00    -0.462 OA
BRANCH   2   3
ATOM      3  C   UNL A   1      31.040  27.359  24.701  1.00  0.00     0.314 C 
ATOM      4  O   UNL A   1      30.213  26.574  25.153  1.00  0.00    -0.252 OA
BRANCH   3   5
ATOM      5  C   UNL A   1      30.968  27.941  23.269  1.00  0.00     0.090 C 
ATOM      6  N   UNL A   1      32.819  26.620  22.233  1.00  0.00    -0.307 N 
ATOM      7  C   UNL A   1      33.661  27.785  22.020  1.00  0.00     0.123 C 
ATOM      8  C   UNL A   1      31.373  26.838  22.267  1.00  0.00     0.142 C 
ATOM      9  C   UNL A   1      33.375  28.871  23.040  1.00  0.00     0.023 C 
ATOM     10  C   UNL A   1      31.880  29.184  23.097  1.00  0.00     0.023 C 
BRANCH   6  11
ATOM     11  C   UNL A   1      33.407  25.376  22.351  1.00  0.00     0.410 C 
ATOM     12  O   UNL A   1      33.462  24.568  21.439  1.00  0.00    -0.224 OA
BRANCH  11  13
ATOM     13  O   UNL A   1      33.836  25.151  23.618  1.00  0.00    -0.444 OA
BRANCH  13  14
ATOM     14  C   UNL A   1      33.328  24.047  24.409  1.00  0.00     0.106 C 
ATOM     15  C   UNL A   1      33.374  24.557  25.857  1.00  0.00     0.056 C 
ATOM     16  C   UNL A   1      34.278  22.859  24.251  1.00  0.00     0.056 C 
ATOM     17  C   UNL A   1      31.878  23.656  24.095  1.00  0.00     0.056 C 
ENDBRANCH  13  14
ENDBRANCH  11  13
ENDBRANCH   6  11
BRANCH   5  18
ATOM     18  C   UNL A   1      29.462  28.346  23.098  1.00  0.00     0.056 C 
BRANCH  18  19
ATOM     19  C   UNL A   1      29.126  29.781  22.774  1.00  0.00    -0.047 A 
ATOM     20  C   UNL A   1      29.121  30.757  23.783  1.00  0.00     0.004 A 
ATOM     21  C   UNL A   1      28.761  30.152  21.475  1.00  0.00     0.004 A 
ATOM     22  C   UNL A   1      28.788  32.079  23.487  1.00  0.00     0.000 A 
ATOM     23  C   UNL A   1      28.446  31.477  21.176  1.00  0.00     0.000 A 
ATOM     24  C   UNL A   1      28.461  32.440  22.181  1.00  0.00     0.000 A 
ENDBRANCH  18  19
ENDBRANCH   5  18
ENDBRANCH   3   5
ENDBRANCH   2   3
ENDBRANCH   1   2
BRANCH   1  25
ATOM     25  C   UNL A   1      31.725  29.885  26.642  1.00  0.00     0.275 C 
BRANCH  25  26
ATOM     26  O   UNL A   1      33.036  30.429  26.401  1.00  0.00    -0.458 OA
BRANCH  26  27
ATOM     27  C   UNL A   1      33.364  31.519  27.129  1.00  0.00     0.338 C 
ATOM     28  O   UNL A   1      32.757  32.571  27.217  1.00  0.00    -0.246 OA
BRANCH  27  29
ATOM     29  C   UNL A   1      34.623  31.266  27.846  1.00  0.00     0.060 A 
ATOM     30  C   UNL A   1      35.531  32.301  28.070  1.00  0.00     0.016 A 
ATOM     31  C   UNL A   1      34.946  29.961  28.215  1.00  0.00     0.016 A 
ATOM     32  C   UNL A   1      36.792  32.031  28.589  1.00  0.00     0.010 A 
ATOM     33  C   UNL A   1      36.165  29.710  28.845  1.00  0.00     0.010 A 
ATOM     34  C   UNL A   1      37.105  30.740  29.029  1.00  0.00    -0.014 A 
BRANCH  34  35
ATOM     35  C   UNL A   1      38.379  30.461  29.738  1.00  0.00     0.031 A 
ATOM     36  C   UNL A   1      39.388  29.522  29.144  1.00  0.00     0.074 A 
ATOM     37  C   UNL A   1      38.587  30.995  30.959  1.00  0.00     0.049 A 
ATOM     38  N   UNL A   1      40.412  28.939  29.711  1.00  0.00    -0.248 NA
ATOM     39  C   UNL A   1      39.213  29.183  27.722  1.00  0.00     0.031 C 
ATOM     40  C   UNL A   1      37.702  31.952  31.629  1.00  0.00     0.029 A 
ATOM     41  N   UNL A   1      39.592  30.783  31.869  1.00  0.00    -0.354 N 
ATOM     42  C   UNL A   1      40.973  28.126  28.736  1.00  0.00     0.074 A 
ATOM     43  C   UNL A   1      40.178  28.293  27.536  1.00  0.00     0.031 C 
ATOM     44  C   UNL A   1      38.198  32.240  32.839  1.00  0.00     0.029 A 
ATOM     45  C   UNL A   1      39.377  31.416  33.070  1.00  0.00     0.049 A 
ATOM     46  H   UNL A   1      40.387  30.234  31.681  1.00  0.00     0.167 HD
ATOM     47  C   UNL A   1      42.049  27.311  28.843  1.00  0.00     0.037 A 
ATOM     48  C   UNL A   1      40.009  31.294  34.251  1.00  0.00     0.037 A 
ATOM     49  C   UNL A   1      42.846  27.182  30.037  1.00  0.00     0.049 A 
ATOM     50  C   UNL A   1      41.157  30.331  34.364  1.00  0.00     0.074 A 
ATOM     51  C   UNL A   1      43.983  26.420  30.238  1.00  0.00     0.029 A 
ATOM     52  N   UNL A   1      42.584  27.831  31.235  1.00  0.00    -0.354 N 
ATOM     53  N   UNL A   1      41.679  29.557  33.444  1.00  0.00    -0.248 NA
ATOM     54  C   UNL A   1      41.791  30.211  35.683  1.00  0.00     0.031 C 
ATOM     55  C   UNL A   1      44.378  26.565  31.572  1.00  0.00     0.029 A 
ATOM     56  C   UNL A   1      43.518  27.460  32.189  1.00  0.00     0.049 A 
ATOM     57  H   UNL A   1      41.843  28.462  31.386  1.00  0.00     0.167 HD
ATOM     58  C   UNL A   1      42.709  28.869  34.066  1.00  0.00     0.074 A 
ATOM     59  C   UNL A   1      42.753  29.333  35.437  1.00  0.00     0.031 C 
ATOM     60  C   UNL A   1      43.541  27.932  33.550  1.00  0.00     0.037 A 
BRANCH  47  61
ATOM     61  C   UNL A   1      42.413  26.462  27.659  1.00  0.00     0.064 A 
ATOM     62  C   UNL A   1      43.412  26.838  26.751  1.00  0.00     0.173 A 
ATOM     63  C   UNL A   1      41.786  25.220  27.466  1.00  0.00     0.173 A 
ATOM     64  F   UNL A   1      44.035  28.019  26.883  1.00  0.00    -0.203 F 
ATOM     65  C   UNL A   1      43.757  26.013  25.682  1.00  0.00     0.198 A 
ATOM     66  C   UNL A   1      42.153  24.385  26.414  1.00  0.00     0.198 A 
ATOM     67  F   UNL A   1      40.828  24.808  28.309  1.00  0.00    -0.203 F 
ATOM     68  F   UNL A   1      44.690  26.410  24.805  1.00  0.00    -0.200 F 
ATOM     69  C   UNL A   1      43.134  24.784  25.520  1.00  0.00     0.200 A 
ATOM     70  F   UNL A   1      41.559  23.193  26.268  1.00  0.00    -0.200 F 
ATOM     71  F   UNL A   1      43.477  23.986  24.499  1.00  0.00    -0.200 F 
ENDBRANCH  47  61
BRANCH  48  72
ATOM     72  C   UNL A   1      39.522  32.053  35.432  1.00  0.00     0.064 A 
ATOM     73  C   UNL A   1      39.977  33.352  35.692  1.00  0.00     0.173 A 
ATOM     74  C   UNL A   1      38.585  31.500  36.320  1.00  0.00     0.173 A 
ATOM     75  F   UNL A   1      40.890  33.914  34.888  1.00  0.00    -0.203 F 
ATOM     76  C   UNL A   1      39.524  34.063  36.802  1.00  0.00     0.198 A 
ATOM     77  C   UNL A   1      38.108  32.224  37.409  1.00  0.00     0.198 A 
ATOM     78  F   UNL A   1      38.116  30.259  36.116  1.00  0.00    -0.203 F 
ATOM     79  F   UNL A   1      40.009  35.286  37.053  1.00  0.00    -0.200 F 
ATOM     80  C   UNL A   1      38.584  33.502  37.655  1.00  0.00     0.200 A 
ATOM     81  F   UNL A   1      37.187  31.685  38.219  1.00  0.00    -0.200 F 
ATOM     82  F   UNL A   1      38.143  34.191  38.716  1.00  0.00    -0.200 F 
ENDBRANCH  48  72
BRANCH  60  83
ATOM     83  C   UNL A   1      44.582  27.365  34.469  1.00  0.00     0.064 A 
ATOM     84  C   UNL A   1      45.811  28.010  34.671  1.00  0.00     0.173 A 
ATOM     85  C   UNL A   1      44.332  26.184  35.185  1.00  0.00     0.173 A 
ATOM     86  F   UNL A   1      46.103  29.130  33.994  1.00  0.00    -0.203 F 
ATOM     87  C   UNL A   1      46.760  27.482  35.542  1.00  0.00     0.198 A 
ATOM     88  C   UNL A   1      45.271  25.676  36.076  1.00  0.00     0.198 A 
ATOM     89  F   UNL A   1      43.170  25.532  35.028  1.00  0.00    -0.203 F 
ATOM     90  F   UNL A   1      47.945  28.090  35.685  1.00  0.00    -0.200 F 
ATOM     91  C   UNL A   1      46.486  26.321  36.249  1.00  0.00     0.200 A 
ATOM     92  F   UNL A   1      44.999  24.560  36.769  1.00  0.00    -0.200 F 
ATOM     93  F   UNL A   1      47.397  25.819  37.095  1.00  0.00    -0.200 F 
ENDBRANCH  60  83
ENDBRANCH  34  35
ENDBRANCH  27  29
ENDBRANCH  26  27
ENDBRANCH  25  26
ENDBRANCH   1  25
TORSDOF 16
ENDMDL
MODEL 2
REMARK VINA RESULT:     -12.2      4.496     10.271
REMARK SMILES CC(C)(C)OC(=O)N1CCC[C@](Cc2ccccc2)(C(=O)OCCOC(=O)c2ccc(-c3c4nc(c(-c5c(F)c(F)c(F)c(F)c5F)c5ccc([nH]5)c(-c5c(F)c(F)c(F)c(F)c5F)c5nc(c(-c6c(F)c(F)c(F)c(F)c6F)c6ccc3[nH]6)C=C5)C=C4)cc2)C1
REMARK SMILES IDX 23 1 22 2 20 3 21 4 12 5 8 6 9 7 91 8 10 9 11 10 6 11 7 12
REMARK SMILES IDX 5 13 2 14 1 15 3 16 4 17 13 18 14 19 15 20 19 21 16 22 18 23
REMARK SMILES IDX 17 24 24 25 25 26 26 27 27 28 28 29 29 30 90 31 30 32 89 33
REMARK SMILES IDX 31 34 32 35 33 36 83 37 34 38 88 39 82 40 84 41 35 42 87 43
REMARK SMILES IDX 81 44 80 45 36 47 68 48 48 49 67 50 49 51 52 52 66 53 85 54
REMARK SMILES IDX 50 55 51 56 65 58 86 59 53 60 37 61 38 62 46 63 39 64 40 65
REMARK SMILES IDX 44 66 47 67 41 68 42 69 45 70 43 71 69 72 70 73 78 74 71 75
REMARK SMILES IDX 72 76 76 77 79 78 73 79 74 80 77 81 75 82 54 83 55 84 63 85
REMARK SMILES IDX 56 86 57 87 61 88 64 89 58 90 59 91 62 92 60 93
REMARK H PARENT 84 46 52 57
REMARK Flexibility Score: inf
ROOT
ATOM      1  C   UNL A   1      36.431  22.377  23.868  1.00  0.00     0.274 C 
ENDROOT
BRANCH   1   2
ATOM      2  O   UNL A   1      35.255  22.490  24.695  1.00  0.00    -0.462 OA
BRANCH   2   3
ATOM      3  C   UNL A   1      34.061  22.251  24.095  1.00  0.00     0.314 C 
ATOM      4  O   UNL A   1      33.740  22.744  23.018  1.00  0.00    -0.252 OA
BRANCH   3   5
ATOM      5  C   UNL A   1      33.156  21.283  24.891  1.00  0.00     0.090 C 
ATOM      6  N   UNL A   1      31.900  22.968  26.241  1.00  0.00    -0.307 N 
ATOM      7  C   UNL A   1      32.466  22.522  27.503  1.00  0.00     0.123 C 
ATOM      8  C   UNL A   1      31.806  21.982  25.166  1.00  0.00     0.142 C 
ATOM      9  C   UNL A   1      33.841  21.911  27.309  1.00  0.00     0.023 C 
ATOM     10  C   UNL A   1      33.809  20.835  26.225  1.00  0.00     0.023 C 
BRANCH   6  11
ATOM     11  C   UNL A   1      31.443  24.267  26.129  1.00  0.00     0.410 C 
ATOM     12  O   UNL A   1      30.711  24.797  26.947  1.00  0.00    -0.224 OA
BRANCH  11  13
ATOM     13  O   UNL A   1      31.850  24.833  24.965  1.00  0.00    -0.444 OA
BRANCH  13  14
ATOM     14  C   UNL A   1      32.745  25.974  24.945  1.00  0.00     0.106 C 
ATOM     15  C   UNL A   1      33.086  26.171  23.460  1.00  0.00     0.056 C 
ATOM     16  C   UNL A   1      34.011  25.611  25.721  1.00  0.00     0.056 C 
ATOM     17  C   UNL A   1      32.121  27.278  25.460  1.00  0.00     0.056 C 
ENDBRANCH  13  14
ENDBRANCH  11  13
ENDBRANCH   6  11
BRANCH   5  18
ATOM     18  C   UNL A   1      32.979  20.052  23.934  1.00  0.00     0.056 C 
BRANCH  18  19
ATOM     19  C   UNL A   1      33.334  18.676  24.443  1.00  0.00    -0.047 A 
ATOM     20  C   UNL A   1      32.390  17.909  25.144  1.00  0.00     0.004 A 
ATOM     21  C   UNL A   1      34.626  18.164  24.273  1.00  0.00     0.004 A 
ATOM     22  C   UNL A   1      32.726  16.648  25.634  1.00  0.00     0.000 A 
ATOM     23  C   UNL A   1      34.956  16.895  24.747  1.00  0.00     0.000 A 
ATOM     24  C   UNL A   1      34.006  16.137  25.426  1.00  0.00     0.000 A 
ENDBRANCH  18  19
ENDBRANCH   5  18
ENDBRANCH   3   5
ENDBRANCH   2   3
ENDBRANCH   1   2
BRANCH   1  25
ATOM     25  C   UNL A   1      37.389  21.341  24.448  1.00  0.00     0.275 C 
BRANCH  25  26
ATOM     26  O   UNL A   1      37.787  21.749  25.769  1.00  0.00    -0.458 OA
BRANCH  26  27
ATOM     27  C   UNL A   1      39.038  21.400  26.142  1.00  0.00     0.338 C 
ATOM     28  O   UNL A   1      39.539  20.290  26.138  1.00  0.00    -0.246 OA
BRANCH  27  29
ATOM     29  C   UNL A   1      39.768  22.600  26.583  1.00  0.00     0.060 A 
ATOM     30  C   UNL A   1      40.789  22.499  27.528  1.00  0.00     0.016 A 
ATOM     31  C   UNL A   1      39.365  23.850  26.120  1.00  0.00     0.016 A 
ATOM     32  C   UNL A   1      41.359  23.644  28.073  1.00  0.00     0.010 A 
ATOM     33  C   UNL A   1      40.019  24.994  26.580  1.00  0.00     0.010 A 
ATOM     34  C   UNL A   1      41.015  24.903  27.569  1.00  0.00    -0.014 A 
BRANCH  34  35
ATOM     35  C   UNL A   1      41.728  26.126  28.015  1.00  0.00     0.031 A 
ATOM     36  C   UNL A   1      40.999  27.191  28.784  1.00  0.00     0.074 A 
ATOM     37  C   UNL A   1      43.014  26.311  27.655  1.00  0.00     0.049 A 
ATOM     38  N   UNL A   1      41.350  28.428  29.020  1.00  0.00    -0.248 NA
ATOM     39  C   UNL A   1      39.694  26.816  29.351  1.00  0.00     0.031 C 
ATOM     40  C   UNL A   1      43.844  25.337  26.942  1.00  0.00     0.029 A 
ATOM     41  N   UNL A   1      43.840  27.397  27.809  1.00  0.00    -0.354 N 
ATOM     42  C   UNL A   1      40.291  28.995  29.717  1.00  0.00     0.074 A 
ATOM     43  C   UNL A   1      39.285  27.965  29.870  1.00  0.00     0.031 C 
ATOM     44  C   UNL A   1      45.054  25.867  26.717  1.00  0.00     0.029 A 
ATOM     45  C   UNL A   1      45.052  27.248  27.179  1.00  0.00     0.049 A 
ATOM     46  H   UNL A   1      43.589  28.201  28.320  1.00  0.00     0.167 HD
ATOM     47  C   UNL A   1      40.175  30.264  30.176  1.00  0.00     0.037 A 
ATOM     48  C   UNL A   1      46.027  28.142  26.931  1.00  0.00     0.037 A 
ATOM     49  C   UNL A   1      41.202  31.266  30.042  1.00  0.00     0.049 A 
ATOM     50  C   UNL A   1      45.845  29.561  27.390  1.00  0.00     0.074 A 
ATOM     51  C   UNL A   1      41.205  32.568  30.511  1.00  0.00     0.029 A 
ATOM     52  N   UNL A   1      42.409  31.076  29.384  1.00  0.00    -0.354 N 
ATOM     53  N   UNL A   1      44.840  30.096  28.040  1.00  0.00    -0.248 NA
ATOM     54  C   UNL A   1      46.923  30.503  27.066  1.00  0.00     0.031 C 
ATOM     55  C   UNL A   1      42.389  33.182  30.091  1.00  0.00     0.029 A 
ATOM     56  C   UNL A   1      43.150  32.248  29.406  1.00  0.00     0.049 A 
ATOM     57  H   UNL A   1      42.697  30.234  28.963  1.00  0.00     0.167 HD
ATOM     58  C   UNL A   1      45.168  31.432  28.213  1.00  0.00     0.074 A 
ATOM     59  C   UNL A   1      46.476  31.621  27.621  1.00  0.00     0.031 C 
ATOM     60  C   UNL A   1      44.448  32.416  28.806  1.00  0.00     0.037 A 
BRANCH  47  61
ATOM     61  C   UNL A   1      38.885  30.662  30.833  1.00  0.00     0.064 A 
ATOM     62  C   UNL A   1      38.718  30.638  32.224  1.00  0.00     0.173 A 
ATOM     63  C   UNL A   1      37.815  31.131  30.053  1.00  0.00     0.173 A 
ATOM     64  F   UNL A   1      39.705  30.189  33.015  1.00  0.00    -0.203 F 
ATOM     65  C   UNL A   1      37.523  31.050  32.810  1.00  0.00     0.198 A 
ATOM     66  C   UNL A   1      36.633  31.568  30.643  1.00  0.00     0.198 A 
ATOM     67  F   UNL A   1      37.923  31.180  28.717  1.00  0.00    -0.203 F 
ATOM     68  F   UNL A   1      37.373  30.984  34.141  1.00  0.00    -0.200 F 
ATOM     69  C   UNL A   1      36.485  31.523  32.020  1.00  0.00     0.200 A 
ATOM     70  F   UNL A   1      35.637  32.037  29.878  1.00  0.00    -0.200 F 
ATOM     71  F   UNL A   1      35.341  31.931  32.588  1.00  0.00    -0.200 F 
ENDBRANCH  47  61
BRANCH  48  72
ATOM     72  C   UNL A   1      47.225  27.732  26.154  1.00  0.00     0.064 A 
ATOM     73  C   UNL A   1      48.395  27.311  26.800  1.00  0.00     0.173 A 
ATOM     74  C   UNL A   1      47.223  27.743  24.750  1.00  0.00     0.173 A 
ATOM     75  F   UNL A   1      48.455  27.307  28.139  1.00  0.00    -0.203 F 
ATOM     76  C   UNL A   1      49.521  26.931  26.071  1.00  0.00     0.198 A 
ATOM     77  C   UNL A   1      48.337  27.330  24.023  1.00  0.00     0.198 A 
ATOM     78  F   UNL A   1      46.128  28.136  24.082  1.00  0.00    -0.203 F 
ATOM     79  F   UNL A   1      50.641  26.576  26.714  1.00  0.00    -0.200 F 
ATOM     80  C   UNL A   1      49.488  26.933  24.684  1.00  0.00     0.200 A 
ATOM     81  F   UNL A   1      48.294  27.317  22.684  1.00  0.00    -0.200 F 
ATOM     82  F   UNL A   1      50.568  26.558  23.986  1.00  0.00    -0.200 F 
ENDBRANCH  48  72
BRANCH  60  83
ATOM     83  C   UNL A   1      45.073  33.778  28.860  1.00  0.00     0.064 A 
ATOM     84  C   UNL A   1      45.929  34.151  29.906  1.00  0.00     0.173 A 
ATOM     85  C   UNL A   1      44.843  34.707  27.833  1.00  0.00     0.173 A 
ATOM     86  F   UNL A   1      46.163  33.305  30.920  1.00  0.00    -0.203 F 
ATOM     87  C   UNL A   1      46.517  35.413  29.933  1.00  0.00     0.198 A 
ATOM     88  C   UNL A   1      45.455  35.956  27.849  1.00  0.00     0.198 A 
ATOM     89  F   UNL A   1      44.034  34.396  26.809  1.00  0.00    -0.203 F 
ATOM     90  F   UNL A   1      47.295  35.764  30.965  1.00  0.00    -0.200 F 
ATOM     91  C   UNL A   1      46.286  36.310  28.901  1.00  0.00     0.200 A 
ATOM     92  F   UNL A   1      45.242  36.817  26.843  1.00  0.00    -0.200 F 
ATOM     93  F   UNL A   1      46.861  37.521  28.923  1.00  0.00    -0.200 F 
ENDBRANCH  60  83
ENDBRANCH  34  35
ENDBRANCH  27  29
ENDBRANCH  26  27
ENDBRANCH  25  26
ENDBRANCH   1  25
TORSDOF 16
ENDMDL
MODEL 3
REMARK VINA RESULT:     -12.2      4.518     10.276
REMARK SMILES CC(C)(C)OC(=O)N1CCC[C@](Cc2ccccc2)(C(=O)OCCOC(=O)c2ccc(-c3c4nc(c(-c5c(F)c(F)c(F)c(F)c5F)c5ccc([nH]5)c(-c5c(F)c(F)c(F)c(F)c5F)c5nc(c(-c6c(F)c(F)c(F)c(F)c6F)c6ccc3[nH]6)C=C5)C=C4)cc2)C1
REMARK SMILES IDX 23 1 22 2 20 3 21 4 12 5 8 6 9 7 91 8 10 9 11 10 6 11 7 12
REMARK SMILES IDX 5 13 2 14 1 15 3 16 4 17 13 18 14 19 15 20 19 21 16 22 18 23
REMARK SMILES IDX 17 24 24 25 25 26 26 27 27 28 28 29 29 30 90 31 30 32 89 33
REMARK SMILES IDX 31 34 32 35 33 36 83 37 34 38 88 39 82 40 84 41 35 42 87 43
REMARK SMILES IDX 81 44 80 45 36 47 68 48 48 49 67 50 49 51 52 52 66 53 85 54
REMARK SMILES IDX 50 55 51 56 65 58 86 59 53 60 37 61 38 62 46 63 39 64 40 65
REMARK SMILES IDX 44 66 47 67 41 68 42 69 45 70 43 71 69 72 70 73 78 74 71 75
REMARK SMILES IDX 72 76 76 77 79 78 73 79 74 80 77 81 75 82 54 83 55 84 63 85
REMARK SMILES IDX 56 86 57 87 61 88 64 89 58 90 59 91 62 92 60 93
REMARK H PARENT 84 46 52 57
REMARK Flexibility Score: inf
ROOT
ATOM      1  C   UNL A   1      36.324  21.923  24.002  1.00  0.00     0.274 C 
ENDROOT
BRANCH   1   2
ATOM      2  O   UNL A   1      35.146  22.400  24.683  1.00  0.00    -0.462 OA
BRANCH   2   3
ATOM      3  C   UNL A   1      33.953  22.155  24.082  1.00  0.00     0.314 C 
ATOM      4  O   UNL A   1      33.663  22.577  22.967  1.00  0.00    -0.252 OA
BRANCH   3   5
ATOM      5  C   UNL A   1      33.005  21.278  24.933  1.00  0.00     0.090 C 
ATOM      6  N   UNL A   1      31.885  23.092  26.237  1.00  0.00    -0.307 N 
ATOM      7  C   UNL A   1      32.449  22.661  27.505  1.00  0.00     0.123 C 
ATOM      8  C   UNL A   1      31.708  22.072  25.204  1.00  0.00     0.142 C 
ATOM      9  C   UNL A   1      33.777  21.956  27.311  1.00  0.00     0.023 C 
ATOM     10  C   UNL A   1      33.656  20.842  26.272  1.00  0.00     0.023 C 
BRANCH   6  11
ATOM     11  C   UNL A   1      31.509  24.411  26.080  1.00  0.00     0.410 C 
ATOM     12  O   UNL A   1      30.819  25.016  26.883  1.00  0.00    -0.224 OA
BRANCH  11  13
ATOM     13  O   UNL A   1      31.939  24.909  24.893  1.00  0.00    -0.444 OA
BRANCH  13  14
ATOM     14  C   UNL A   1      32.915  25.980  24.826  1.00  0.00     0.106 C 
ATOM     15  C   UNL A   1      33.344  26.018  23.351  1.00  0.00     0.056 C 
ATOM     16  C   UNL A   1      34.110  25.604  25.701  1.00  0.00     0.056 C 
ATOM     17  C   UNL A   1      32.362  27.365  25.189  1.00  0.00     0.056 C 
ENDBRANCH  13  14
ENDBRANCH  11  13
ENDBRANCH   6  11
BRANCH   5  18
ATOM     18  C   UNL A   1      32.732  20.025  24.030  1.00  0.00     0.056 C 
BRANCH  18  19
ATOM     19  C   UNL A   1      33.200  18.670  24.503  1.00  0.00    -0.047 A 
ATOM     20  C   UNL A   1      32.350  17.843  25.253  1.00  0.00     0.004 A 
ATOM     21  C   UNL A   1      34.508  18.239  24.248  1.00  0.00     0.004 A 
ATOM     22  C   UNL A   1      32.791  16.601  25.710  1.00  0.00     0.000 A 
ATOM     23  C   UNL A   1      34.943  16.990  24.689  1.00  0.00     0.000 A 
ATOM     24  C   UNL A   1      34.085  16.171  25.418  1.00  0.00     0.000 A 
ENDBRANCH  18  19
ENDBRANCH   5  18
ENDBRANCH   3   5
ENDBRANCH   2   3
ENDBRANCH   1   2
BRANCH   1  25
ATOM     25  C   UNL A   1      37.120  20.990  24.910  1.00  0.00     0.275 C 
BRANCH  25  26
ATOM     26  O   UNL A   1      37.779  21.766  25.927  1.00  0.00    -0.458 OA
BRANCH  26  27
ATOM     27  C   UNL A   1      39.065  21.438  26.179  1.00  0.00     0.338 C 
ATOM     28  O   UNL A   1      39.591  20.343  26.087  1.00  0.00    -0.246 OA
BRANCH  27  29
ATOM     29  C   UNL A   1      39.801  22.639  26.604  1.00  0.00     0.060 A 
ATOM     30  C   UNL A   1      40.834  22.543  27.536  1.00  0.00     0.016 A 
ATOM     31  C   UNL A   1      39.391  23.888  26.141  1.00  0.00     0.016 A 
ATOM     32  C   UNL A   1      41.410  23.691  28.068  1.00  0.00     0.010 A 
ATOM     33  C   UNL A   1      40.051  25.034  26.586  1.00  0.00     0.010 A 
ATOM     34  C   UNL A   1      41.060  24.948  27.563  1.00  0.00    -0.014 A 
BRANCH  34  35
ATOM     35  C   UNL A   1      41.779  26.173  27.994  1.00  0.00     0.031 A 
ATOM     36  C   UNL A   1      41.059  27.243  28.762  1.00  0.00     0.074 A 
ATOM     37  C   UNL A   1      43.061  26.354  27.620  1.00  0.00     0.049 A 
ATOM     38  N   UNL A   1      41.413  28.482  28.988  1.00  0.00    -0.248 NA
ATOM     39  C   UNL A   1      39.758  26.873  29.345  1.00  0.00     0.031 C 
ATOM     40  C   UNL A   1      43.883  25.375  26.905  1.00  0.00     0.029 A 
ATOM     41  N   UNL A   1      43.889  27.440  27.758  1.00  0.00    -0.354 N 
ATOM     42  C   UNL A   1      40.362  29.055  29.691  1.00  0.00     0.074 A 
ATOM     43  C   UNL A   1      39.356  28.026  29.861  1.00  0.00     0.031 C 
ATOM     44  C   UNL A   1      45.091  25.902  26.664  1.00  0.00     0.029 A 
ATOM     45  C   UNL A   1      45.095  27.285  27.117  1.00  0.00     0.049 A 
ATOM     46  H   UNL A   1      43.645  28.247  28.266  1.00  0.00     0.167 HD
ATOM     47  C   UNL A   1      40.251  30.326  30.143  1.00  0.00     0.037 A 
ATOM     48  C   UNL A   1      46.068  28.177  26.854  1.00  0.00     0.037 A 
ATOM     49  C   UNL A   1      41.278  31.327  29.991  1.00  0.00     0.049 A 
ATOM     50  C   UNL A   1      45.892  29.599  27.305  1.00  0.00     0.074 A 
ATOM     51  C   UNL A   1      41.287  32.631  30.453  1.00  0.00     0.029 A 
ATOM     52  N   UNL A   1      42.478  31.131  29.323  1.00  0.00    -0.354 N 
ATOM     53  N   UNL A   1      44.894  30.139  27.961  1.00  0.00    -0.248 NA
ATOM     54  C   UNL A   1      46.968  30.538  26.964  1.00  0.00     0.031 C 
ATOM     55  C   UNL A   1      42.467  33.241  30.017  1.00  0.00     0.029 A 
ATOM     56  C   UNL A   1      43.220  32.302  29.330  1.00  0.00     0.049 A 
ATOM     57  H   UNL A   1      42.761  30.286  28.905  1.00  0.00     0.167 HD
ATOM     58  C   UNL A   1      45.226  31.476  28.123  1.00  0.00     0.074 A 
ATOM     59  C   UNL A   1      46.527  31.660  27.515  1.00  0.00     0.031 C 
ATOM     60  C   UNL A   1      44.513  32.464  28.716  1.00  0.00     0.037 A 
BRANCH  47  61
ATOM     61  C   UNL A   1      38.968  30.730  30.810  1.00  0.00     0.064 A 
ATOM     62  C   UNL A   1      37.847  31.145  30.079  1.00  0.00     0.173 A 
ATOM     63  C   UNL A   1      38.844  30.643  32.207  1.00  0.00     0.173 A 
ATOM     64  F   UNL A   1      37.915  31.256  28.744  1.00  0.00    -0.203 F 
ATOM     65  C   UNL A   1      36.656  31.477  30.721  1.00  0.00     0.198 A 
ATOM     66  C   UNL A   1      37.645  30.948  32.842  1.00  0.00     0.198 A 
ATOM     67  F   UNL A   1      39.885  30.245  32.954  1.00  0.00    -0.203 F 
ATOM     68  F   UNL A   1      35.607  31.907  30.004  1.00  0.00    -0.200 F 
ATOM     69  C   UNL A   1      36.552  31.369  32.100  1.00  0.00     0.200 A 
ATOM     70  F   UNL A   1      37.544  30.829  34.173  1.00  0.00    -0.200 F 
ATOM     71  F   UNL A   1      35.401  31.677  32.714  1.00  0.00    -0.200 F 
ENDBRANCH  47  61
BRANCH  48  72
ATOM     72  C   UNL A   1      47.258  27.760  26.067  1.00  0.00     0.064 A 
ATOM     73  C   UNL A   1      47.235  27.769  24.666  1.00  0.00     0.173 A 
ATOM     74  C   UNL A   1      48.444  27.353  26.698  1.00  0.00     0.173 A 
ATOM     75  F   UNL A   1      46.118  28.125  24.018  1.00  0.00    -0.203 F 
ATOM     76  C   UNL A   1      48.349  27.373  23.927  1.00  0.00     0.198 A 
ATOM     77  C   UNL A   1      49.567  26.992  25.958  1.00  0.00     0.198 A 
ATOM     78  F   UNL A   1      48.520  27.328  28.037  1.00  0.00    -0.203 F 
ATOM     79  F   UNL A   1      48.286  27.348  22.589  1.00  0.00    -0.200 F 
ATOM     80  C   UNL A   1      49.516  26.994  24.574  1.00  0.00     0.200 A 
ATOM     81  F   UNL A   1      50.699  26.643  26.587  1.00  0.00    -0.200 F 
ATOM     82  F   UNL A   1      50.589  26.623  23.861  1.00  0.00    -0.200 F 
ENDBRANCH  48  72
BRANCH  60  83
ATOM     83  C   UNL A   1      45.139  33.827  28.754  1.00  0.00     0.064 A 
ATOM     84  C   UNL A   1      44.864  34.788  27.771  1.00  0.00     0.173 A 
ATOM     85  C   UNL A   1      45.993  34.187  29.808  1.00  0.00     0.173 A 
ATOM     86  F   UNL A   1      44.070  34.483  26.734  1.00  0.00    -0.203 F 
ATOM     87  C   UNL A   1      45.438  36.055  27.830  1.00  0.00     0.198 A 
ATOM     88  C   UNL A   1      46.541  35.464  29.880  1.00  0.00     0.198 A 
ATOM     89  F   UNL A   1      46.284  33.303  30.775  1.00  0.00    -0.203 F 
ATOM     90  F   UNL A   1      45.198  36.942  26.856  1.00  0.00    -0.200 F 
ATOM     91  C   UNL A   1      46.268  36.394  28.888  1.00  0.00     0.200 A 
ATOM     92  F   UNL A   1      47.333  35.794  30.910  1.00  0.00    -0.200 F 
ATOM     93  F   UNL A   1      46.812  37.618  28.949  1.00  0.00    -0.200 F 
ENDBRANCH  60  83
ENDBRANCH  34  35
ENDBRANCH  27  29
ENDBRANCH  26  27
ENDBRANCH  25  26
ENDBRANCH   1  25
TORSDOF 16
ENDMDL
