MODEL 1
REMARK VINA RESULT:     -11.4      0.000      0.000
REMARK SMILES CC[C@@H](NC(=O)N1CCO[C@H](CC(=O)OCCOC(=O)c2ccc(-c3c4nc(c(-c5c(F)c(F)c(F)c(F)c5F)c5ccc([nH]5)c(-c5c(F)c(F)c(F)c(F)c5F)c5nc(c(-c6c(F)c(F)c(F)c(F)c6F)c6ccc3[nH]6)C=C5)C=C4)cc2)C1)c1cccs1
REMARK SMILES IDX 16 1 15 2 13 3 14 4 12 5 11 6 7 7 8 8 84 9 9 10 10 11 5 12
REMARK SMILES IDX 4 13 6 15 3 16 2 17 1 18 85 19 86 20 89 21 87 22 88 23 17 24
REMARK SMILES IDX 18 25 19 26 20 27 21 28 22 29 83 30 23 31 82 32 24 33 25 34
REMARK SMILES IDX 26 35 76 36 27 37 81 38 75 39 77 40 28 41 80 42 74 43 73 44
REMARK SMILES IDX 29 46 61 47 41 48 60 49 42 50 45 51 59 52 78 53 43 54 44 55
REMARK SMILES IDX 58 57 79 58 46 59 30 60 31 61 39 62 32 63 33 64 37 65 40 66
REMARK SMILES IDX 34 67 35 68 38 69 36 70 62 71 63 72 71 73 64 74 65 75 69 76
REMARK SMILES IDX 72 77 66 78 67 79 70 80 68 81 47 82 48 83 56 84 49 85 50 86
REMARK SMILES IDX 54 87 57 88 51 89 52 90 55 91 53 92
REMARK H PARENT 4 14 77 45 45 56
REMARK Flexibility Score: inf
ROOT
ATOM      1  C   UNL A   1      31.688  29.337  24.402  1.00  0.00     0.274 C 
ENDROOT
BRANCH   1   2
ATOM      2  O   UNL A   1      30.616  28.389  24.259  1.00  0.00    -0.462 OA
BRANCH   2   3
ATOM      3  C   UNL A   1      30.909  27.242  23.602  1.00  0.00     0.308 C 
ATOM      4  O   UNL A   1      31.253  27.172  22.428  1.00  0.00    -0.252 OA
BRANCH   3   5
ATOM      5  C   UNL A   1      30.584  26.023  24.414  1.00  0.00     0.156 C 
BRANCH   5   6
ATOM      6  C   UNL A   1      30.525  26.054  25.945  1.00  0.00     0.149 C 
ATOM      7  N   UNL A   1      32.693  24.960  26.112  1.00  0.00    -0.320 N 
ATOM      8  C   UNL A   1      32.096  23.783  26.734  1.00  0.00     0.150 C 
ATOM      9  C   UNL A   1      31.973  26.184  26.482  1.00  0.00     0.154 C 
ATOM     10  C   UNL A   1      30.616  23.679  26.345  1.00  0.00     0.182 C 
ATOM     11  O   UNL A   1      29.903  24.909  26.554  1.00  0.00    -0.374 OA
BRANCH   7  12
ATOM     12  C   UNL A   1      33.629  25.008  25.112  1.00  0.00     0.318 C 
ATOM     13  N   UNL A   1      34.200  23.852  24.672  1.00  0.00    -0.330 N 
ATOM     14  H   UNL A   1      35.013  23.546  25.134  1.00  0.00     0.166 HD
ATOM     15  O   UNL A   1      34.001  26.065  24.606  1.00  0.00    -0.249 OA
BRANCH  13  16
ATOM     16  C   UNL A   1      33.694  23.014  23.552  1.00  0.00     0.124 C 
BRANCH  16  17
ATOM     17  C   UNL A   1      32.546  23.655  22.728  1.00  0.00     0.027 C 
ATOM     18  C   UNL A   1      33.025  24.345  21.458  1.00  0.00     0.006 C 
ENDBRANCH  16  17
BRANCH  16  19
ATOM     19  C   UNL A   1      33.501  21.576  24.015  1.00  0.00     0.027 A 
ATOM     20  C   UNL A   1      32.364  20.793  23.858  1.00  0.00     0.017 A 
ATOM     21  S   UNL A   1      34.646  20.729  24.981  1.00  0.00    -0.147 S 
ATOM     22  C   UNL A   1      32.532  19.455  24.316  1.00  0.00     0.012 A 
ATOM     23  C   UNL A   1      33.751  19.278  24.926  1.00  0.00     0.065 A 
ENDBRANCH  16  19
ENDBRANCH  13  16
ENDBRANCH   7  12
ENDBRANCH   5   6
ENDBRANCH   3   5
ENDBRANCH   2   3
ENDBRANCH   1   2
BRANCH   1  24
ATOM     24  C   UNL A   1      31.835  29.790  25.851  1.00  0.00     0.275 C 
BRANCH  24  25
ATOM     25  O   UNL A   1      33.191  30.176  26.125  1.00  0.00    -0.458 OA
BRANCH  25  26
ATOM     26  C   UNL A   1      33.333  31.209  26.986  1.00  0.00     0.338 C 
ATOM     27  O   UNL A   1      32.536  32.100  27.231  1.00  0.00    -0.246 OA
BRANCH  26  28
ATOM     28  C   UNL A   1      34.565  30.998  27.750  1.00  0.00     0.060 A 
ATOM     29  C   UNL A   1      34.805  29.724  28.270  1.00  0.00     0.016 A 
ATOM     30  C   UNL A   1      35.475  32.031  27.953  1.00  0.00     0.016 A 
ATOM     31  C   UNL A   1      35.971  29.448  28.959  1.00  0.00     0.010 A 
ATOM     32  C   UNL A   1      36.644  31.764  28.664  1.00  0.00     0.010 A 
ATOM     33  C   UNL A   1      36.897  30.471  29.157  1.00  0.00    -0.014 A 
BRANCH  33  34
ATOM     34  C   UNL A   1      38.116  30.193  29.932  1.00  0.00     0.031 A 
ATOM     35  C   UNL A   1      39.143  29.275  29.356  1.00  0.00     0.074 A 
ATOM     36  C   UNL A   1      38.284  30.774  31.132  1.00  0.00     0.049 A 
ATOM     37  N   UNL A   1      40.195  28.752  29.923  1.00  0.00    -0.248 NA
ATOM     38  C   UNL A   1      38.954  28.890  27.948  1.00  0.00     0.031 C 
ATOM     39  C   UNL A   1      37.372  31.748  31.731  1.00  0.00     0.029 A 
ATOM     40  N   UNL A   1      39.271  30.615  32.067  1.00  0.00    -0.354 N 
ATOM     41  C   UNL A   1      40.774  27.944  28.956  1.00  0.00     0.074 A 
ATOM     42  C   UNL A   1      39.960  28.048  27.765  1.00  0.00     0.031 C 
ATOM     43  C   UNL A   1      37.830  32.082  32.948  1.00  0.00     0.029 A 
ATOM     44  C   UNL A   1      39.029  31.300  33.231  1.00  0.00     0.049 A 
ATOM     45  H   UNL A   1      40.074  30.064  31.919  1.00  0.00     0.167 HD
ATOM     46  C   UNL A   1      41.883  27.179  29.073  1.00  0.00     0.037 A 
ATOM     47  C   UNL A   1      39.676  31.249  34.409  1.00  0.00     0.037 A 
ATOM     48  C   UNL A   1      42.678  27.108  30.270  1.00  0.00     0.049 A 
ATOM     49  C   UNL A   1      40.864  30.335  34.536  1.00  0.00     0.074 A 
ATOM     50  C   UNL A   1      43.835  26.387  30.499  1.00  0.00     0.029 A 
ATOM     51  N   UNL A   1      42.387  27.788  31.446  1.00  0.00    -0.354 N 
ATOM     52  N   UNL A   1      41.404  29.552  33.632  1.00  0.00    -0.248 NA
ATOM     53  C   UNL A   1      41.521  30.283  35.847  1.00  0.00     0.031 C 
ATOM     54  C   UNL A   1      44.215  26.592  31.830  1.00  0.00     0.029 A 
ATOM     55  C   UNL A   1      43.323  27.477  32.417  1.00  0.00     0.049 A 
ATOM     56  H   UNL A   1      41.627  28.401  31.570  1.00  0.00     0.167 HD
ATOM     57  C   UNL A   1      42.465  28.916  34.259  1.00  0.00     0.074 A 
ATOM     58  C   UNL A   1      42.507  29.427  35.616  1.00  0.00     0.031 C 
ATOM     59  C   UNL A   1      43.325  27.992  33.764  1.00  0.00     0.037 A 
BRANCH  46  60
ATOM     60  C   UNL A   1      42.256  26.323  27.899  1.00  0.00     0.064 A 
ATOM     61  C   UNL A   1      43.209  26.726  26.954  1.00  0.00     0.173 A 
ATOM     62  C   UNL A   1      41.642  25.073  27.720  1.00  0.00     0.173 A 
ATOM     63  F   UNL A   1      43.808  27.922  27.068  1.00  0.00    -0.203 F 
ATOM     64  C   UNL A   1      43.516  25.923  25.858  1.00  0.00     0.198 A 
ATOM     65  C   UNL A   1      41.970  24.262  26.639  1.00  0.00     0.198 A 
ATOM     66  F   UNL A   1      40.720  24.642  28.594  1.00  0.00    -0.203 F 
ATOM     67  F   UNL A   1      44.392  26.352  24.939  1.00  0.00    -0.200 F 
ATOM     68  C   UNL A   1      42.899  24.690  25.704  1.00  0.00     0.200 A 
ATOM     69  F   UNL A   1      41.379  23.067  26.496  1.00  0.00    -0.200 F 
ATOM     70  F   UNL A   1      43.196  23.918  24.649  1.00  0.00    -0.200 F 
ENDBRANCH  46  60
BRANCH  47  71
ATOM     71  C   UNL A   1      39.175  32.042  35.560  1.00  0.00     0.064 A 
ATOM     72  C   UNL A   1      38.321  31.475  36.514  1.00  0.00     0.173 A 
ATOM     73  C   UNL A   1      39.560  33.381  35.742  1.00  0.00     0.173 A 
ATOM     74  F   UNL A   1      37.904  30.209  36.371  1.00  0.00    -0.203 F 
ATOM     75  C   UNL A   1      37.867  32.218  37.604  1.00  0.00     0.198 A 
ATOM     76  C   UNL A   1      39.129  34.111  36.846  1.00  0.00     0.198 A 
ATOM     77  F   UNL A   1      40.373  33.972  34.855  1.00  0.00    -0.203 F 
ATOM     78  F   UNL A   1      37.024  31.661  38.485  1.00  0.00    -0.200 F 
ATOM     79  C   UNL A   1      38.278  33.531  37.774  1.00  0.00     0.200 A 
ATOM     80  F   UNL A   1      39.540  35.376  37.012  1.00  0.00    -0.200 F 
ATOM     81  F   UNL A   1      37.851  34.239  38.829  1.00  0.00    -0.200 F 
ENDBRANCH  47  71
BRANCH  59  82
ATOM     82  C   UNL A   1      44.376  27.477  34.700  1.00  0.00     0.064 A 
ATOM     83  C   UNL A   1      45.569  28.182  34.914  1.00  0.00     0.173 A 
ATOM     84  C   UNL A   1      44.171  26.290  35.418  1.00  0.00     0.173 A 
ATOM     85  F   UNL A   1      45.816  29.314  34.237  1.00  0.00    -0.203 F 
ATOM     86  C   UNL A   1      46.530  27.705  35.802  1.00  0.00     0.198 A 
ATOM     87  C   UNL A   1      45.120  25.831  36.325  1.00  0.00     0.198 A 
ATOM     88  F   UNL A   1      43.043  25.584  35.249  1.00  0.00    -0.203 F 
ATOM     89  F   UNL A   1      47.682  28.371  35.961  1.00  0.00    -0.200 F 
ATOM     90  C   UNL A   1      46.301  26.535  36.512  1.00  0.00     0.200 A 
ATOM     91  F   UNL A   1      44.894  24.708  37.019  1.00  0.00    -0.200 F 
ATOM     92  F   UNL A   1      47.224  26.082  37.371  1.00  0.00    -0.200 F 
ENDBRANCH  59  82
ENDBRANCH  33  34
ENDBRANCH  26  28
ENDBRANCH  25  26
ENDBRANCH  24  25
ENDBRANCH   1  24
TORSDOF 16
ENDMDL
MODEL 2
REMARK VINA RESULT:     -11.3      4.643      9.774
REMARK SMILES CC[C@@H](NC(=O)N1CCO[C@H](CC(=O)OCCOC(=O)c2ccc(-c3c4nc(c(-c5c(F)c(F)c(F)c(F)c5F)c5ccc([nH]5)c(-c5c(F)c(F)c(F)c(F)c5F)c5nc(c(-c6c(F)c(F)c(F)c(F)c6F)c6ccc3[nH]6)C=C5)C=C4)cc2)C1)c1cccs1
REMARK SMILES IDX 16 1 15 2 13 3 14 4 12 5 11 6 7 7 8 8 84 9 9 10 10 11 5 12
REMARK SMILES IDX 4 13 6 15 3 16 2 17 1 18 85 19 86 20 89 21 87 22 88 23 17 24
REMARK SMILES IDX 18 25 19 26 20 27 21 28 22 29 83 30 23 31 82 32 24 33 25 34
REMARK SMILES IDX 26 35 76 36 27 37 81 38 75 39 77 40 28 41 80 42 74 43 73 44
REMARK SMILES IDX 29 46 61 47 41 48 60 49 42 50 45 51 59 52 78 53 43 54 44 55
REMARK SMILES IDX 58 57 79 58 46 59 30 60 31 61 39 62 32 63 33 64 37 65 40 66
REMARK SMILES IDX 34 67 35 68 38 69 36 70 62 71 63 72 71 73 64 74 65 75 69 76
REMARK SMILES IDX 72 77 66 78 67 79 70 80 68 81 47 82 48 83 56 84 49 85 50 86
REMARK SMILES IDX 54 87 57 88 51 89 52 90 55 91 53 92
REMARK H PARENT 4 14 77 45 45 56
REMARK Flexibility Score: inf
ROOT
ATOM      1  C   UNL A   1      36.457  20.752  24.873  1.00  0.00     0.274 C 
ENDROOT
BRANCH   1   2
ATOM      2  O   UNL A   1      36.281  22.176  24.783  1.00  0.00    -0.462 OA
BRANCH   2   3
ATOM      3  C   UNL A   1      35.873  22.659  23.585  1.00  0.00     0.308 C 
ATOM      4  O   UNL A   1      36.617  23.085  22.709  1.00  0.00    -0.252 OA
BRANCH   3   5
ATOM      5  C   UNL A   1      34.382  22.800  23.507  1.00  0.00     0.156 C 
BRANCH   5   6
ATOM      6  C   UNL A   1      33.646  24.011  24.091  1.00  0.00     0.149 C 
ATOM      7  N   UNL A   1      32.445  22.599  25.669  1.00  0.00    -0.320 N 
ATOM      8  C   UNL A   1      31.167  22.911  25.038  1.00  0.00     0.150 C 
ATOM      9  C   UNL A   1      33.372  23.734  25.591  1.00  0.00     0.154 C 
ATOM     10  C   UNL A   1      31.392  23.328  23.578  1.00  0.00     0.182 C 
ATOM     11  O   UNL A   1      32.404  24.340  23.443  1.00  0.00    -0.374 OA
BRANCH   7  12
ATOM     12  C   UNL A   1      32.912  21.377  26.078  1.00  0.00     0.318 C 
ATOM     13  N   UNL A   1      32.440  20.246  25.485  1.00  0.00    -0.330 N 
ATOM     14  H   UNL A   1      31.635  19.834  25.873  1.00  0.00     0.166 HD
ATOM     15  O   UNL A   1      33.731  21.255  26.988  1.00  0.00    -0.249 OA
BRANCH  13  16
ATOM     16  C   UNL A   1      33.041  19.581  24.297  1.00  0.00     0.124 C 
BRANCH  16  17
ATOM     17  C   UNL A   1      32.224  19.727  22.987  1.00  0.00     0.027 C 
ATOM     18  C   UNL A   1      32.269  18.487  22.104  1.00  0.00     0.006 C 
ENDBRANCH  16  17
BRANCH  16  19
ATOM     19  C   UNL A   1      33.525  18.184  24.664  1.00  0.00     0.027 A 
ATOM     20  C   UNL A   1      34.658  17.539  24.184  1.00  0.00     0.017 A 
ATOM     21  S   UNL A   1      32.619  17.093  25.640  1.00  0.00    -0.147 S 
ATOM     22  C   UNL A   1      34.888  16.273  24.795  1.00  0.00     0.012 A 
ATOM     23  C   UNL A   1      33.860  15.922  25.637  1.00  0.00     0.065 A 
ENDBRANCH  16  19
ENDBRANCH  13  16
ENDBRANCH   7  12
ENDBRANCH   5   6
ENDBRANCH   3   5
ENDBRANCH   2   3
ENDBRANCH   1   2
BRANCH   1  24
ATOM     24  C   UNL A   1      37.908  20.393  25.178  1.00  0.00     0.275 C 
BRANCH  24  25
ATOM     25  O   UNL A   1      38.564  21.475  25.859  1.00  0.00    -0.458 OA
BRANCH  25  26
ATOM     26  C   UNL A   1      39.717  21.147  26.484  1.00  0.00     0.338 C 
ATOM     27  O   UNL A   1      40.219  20.041  26.608  1.00  0.00    -0.246 OA
BRANCH  26  28
ATOM     28  C   UNL A   1      40.401  22.388  26.857  1.00  0.00     0.060 A 
ATOM     29  C   UNL A   1      40.105  23.544  26.132  1.00  0.00     0.016 A 
ATOM     30  C   UNL A   1      41.318  22.421  27.903  1.00  0.00     0.016 A 
ATOM     31  C   UNL A   1      40.680  24.756  26.464  1.00  0.00     0.010 A 
ATOM     32  C   UNL A   1      41.916  23.637  28.231  1.00  0.00     0.010 A 
ATOM     33  C   UNL A   1      41.589  24.806  27.519  1.00  0.00    -0.014 A 
BRANCH  33  34
ATOM     34  C   UNL A   1      42.241  26.084  27.844  1.00  0.00     0.031 A 
ATOM     35  C   UNL A   1      41.484  27.098  28.636  1.00  0.00     0.074 A 
ATOM     36  C   UNL A   1      43.499  26.309  27.431  1.00  0.00     0.049 A 
ATOM     37  N   UNL A   1      41.782  28.343  28.885  1.00  0.00    -0.248 NA
ATOM     38  C   UNL A   1      40.211  26.646  29.224  1.00  0.00     0.031 C 
ATOM     39  C   UNL A   1      44.340  25.341  26.726  1.00  0.00     0.029 A 
ATOM     40  N   UNL A   1      44.282  27.428  27.530  1.00  0.00    -0.354 N 
ATOM     41  C   UNL A   1      40.719  28.838  29.625  1.00  0.00     0.074 A 
ATOM     42  C   UNL A   1      39.769  27.760  29.788  1.00  0.00     0.031 C 
ATOM     43  C   UNL A   1      45.516  25.919  26.433  1.00  0.00     0.029 A 
ATOM     44  C   UNL A   1      45.481  27.309  26.875  1.00  0.00     0.049 A 
ATOM     45  H   UNL A   1      44.009  28.238  28.022  1.00  0.00     0.167 HD
ATOM     46  C   UNL A   1      40.559  30.091  30.109  1.00  0.00     0.037 A 
ATOM     47  C   UNL A   1      46.415  28.242  26.615  1.00  0.00     0.037 A 
ATOM     48  C   UNL A   1      41.531  31.139  29.938  1.00  0.00     0.049 A 
ATOM     49  C   UNL A   1      46.182  29.646  27.101  1.00  0.00     0.074 A 
ATOM     50  C   UNL A   1      41.491  32.440  30.402  1.00  0.00     0.029 A 
ATOM     51  N   UNL A   1      42.723  30.997  29.239  1.00  0.00    -0.354 N 
ATOM     52  N   UNL A   1      45.168  30.126  27.782  1.00  0.00    -0.248 NA
ATOM     53  C   UNL A   1      47.208  30.640  26.769  1.00  0.00     0.031 C 
ATOM     54  C   UNL A   1      42.635  33.100  29.941  1.00  0.00     0.029 A 
ATOM     55  C   UNL A   1      43.412  32.197  29.229  1.00  0.00     0.049 A 
ATOM     56  H   UNL A   1      43.031  30.165  28.813  1.00  0.00     0.167 HD
ATOM     57  C   UNL A   1      45.432  31.475  27.965  1.00  0.00     0.074 A 
ATOM     58  C   UNL A   1      46.717  31.731  27.343  1.00  0.00     0.031 C 
ATOM     59  C   UNL A   1      44.683  32.420  28.585  1.00  0.00     0.037 A 
BRANCH  46  60
ATOM     60  C   UNL A   1      39.269  30.400  30.807  1.00  0.00     0.064 A 
ATOM     61  C   UNL A   1      38.131  30.838  30.115  1.00  0.00     0.173 A 
ATOM     62  C   UNL A   1      39.174  30.254  32.200  1.00  0.00     0.173 A 
ATOM     63  F   UNL A   1      38.177  31.015  28.786  1.00  0.00    -0.203 F 
ATOM     64  C   UNL A   1      36.954  31.145  30.793  1.00  0.00     0.198 A 
ATOM     65  C   UNL A   1      37.988  30.535  32.871  1.00  0.00     0.198 A 
ATOM     66  F   UNL A   1      40.235  29.841  32.911  1.00  0.00    -0.203 F 
ATOM     67  F   UNL A   1      35.895  31.612  30.118  1.00  0.00    -0.200 F 
ATOM     68  C   UNL A   1      36.882  30.988  32.170  1.00  0.00     0.200 A 
ATOM     69  F   UNL A   1      37.918  30.376  34.201  1.00  0.00    -0.200 F 
ATOM     70  F   UNL A   1      35.748  31.282  32.821  1.00  0.00    -0.200 F 
ENDBRANCH  46  60
BRANCH  47  71
ATOM     71  C   UNL A   1      47.614  27.882  25.816  1.00  0.00     0.064 A 
ATOM     72  C   UNL A   1      48.842  27.613  26.433  1.00  0.00     0.173 A 
ATOM     73  C   UNL A   1      47.548  27.774  24.417  1.00  0.00     0.173 A 
ATOM     74  F   UNL A   1      48.962  27.727  27.763  1.00  0.00    -0.203 F 
ATOM     75  C   UNL A   1      49.961  27.256  25.681  1.00  0.00     0.198 A 
ATOM     76  C   UNL A   1      48.659  27.390  23.671  1.00  0.00     0.198 A 
ATOM     77  F   UNL A   1      46.396  28.025  23.778  1.00  0.00    -0.203 F 
ATOM     78  F   UNL A   1      51.133  27.037  26.293  1.00  0.00    -0.200 F 
ATOM     79  C   UNL A   1      49.866  27.136  24.303  1.00  0.00     0.200 A 
ATOM     80  F   UNL A   1      48.559  27.264  22.341  1.00  0.00    -0.200 F 
ATOM     81  F   UNL A   1      50.939  26.781  23.583  1.00  0.00    -0.200 F 
ENDBRANCH  47  71
BRANCH  59  82
ATOM     82  C   UNL A   1      45.238  33.812  28.613  1.00  0.00     0.064 A 
ATOM     83  C   UNL A   1      46.140  34.217  29.607  1.00  0.00     0.173 A 
ATOM     84  C   UNL A   1      44.896  34.735  27.615  1.00  0.00     0.173 A 
ATOM     85  F   UNL A   1      46.483  33.372  30.593  1.00  0.00    -0.203 F 
ATOM     86  C   UNL A   1      46.666  35.506  29.612  1.00  0.00     0.198 A 
ATOM     87  C   UNL A   1      45.445  36.013  27.606  1.00  0.00     0.198 A 
ATOM     88  F   UNL A   1      44.041  34.392  26.640  1.00  0.00    -0.203 F 
ATOM     89  F   UNL A   1      47.493  35.886  30.595  1.00  0.00    -0.200 F 
ATOM     90  C   UNL A   1      46.324  36.400  28.607  1.00  0.00     0.200 A 
ATOM     91  F   UNL A   1      45.125  36.872  26.629  1.00  0.00    -0.200 F 
ATOM     92  F   UNL A   1      46.837  37.637  28.609  1.00  0.00    -0.200 F 
ENDBRANCH  59  82
ENDBRANCH  33  34
ENDBRANCH  26  28
ENDBRANCH  25  26
ENDBRANCH  24  25
ENDBRANCH   1  24
TORSDOF 16
ENDMDL
MODEL 3
REMARK VINA RESULT:     -11.3      1.117      2.442
REMARK SMILES CC[C@@H](NC(=O)N1CCO[C@H](CC(=O)OCCOC(=O)c2ccc(-c3c4nc(c(-c5c(F)c(F)c(F)c(F)c5F)c5ccc([nH]5)c(-c5c(F)c(F)c(F)c(F)c5F)c5nc(c(-c6c(F)c(F)c(F)c(F)c6F)c6ccc3[nH]6)C=C5)C=C4)cc2)C1)c1cccs1
REMARK SMILES IDX 16 1 15 2 13 3 14 4 12 5 11 6 7 7 8 8 84 9 9 10 10 11 5 12
REMARK SMILES IDX 4 13 6 15 3 16 2 17 1 18 85 19 86 20 89 21 87 22 88 23 17 24
REMARK SMILES IDX 18 25 19 26 20 27 21 28 22 29 83 30 23 31 82 32 24 33 25 34
REMARK SMILES IDX 26 35 76 36 27 37 81 38 75 39 77 40 28 41 80 42 74 43 73 44
REMARK SMILES IDX 29 46 61 47 41 48 60 49 42 50 45 51 59 52 78 53 43 54 44 55
REMARK SMILES IDX 58 57 79 58 46 59 30 60 31 61 39 62 32 63 33 64 37 65 40 66
REMARK SMILES IDX 34 67 35 68 38 69 36 70 62 71 63 72 71 73 64 74 65 75 69 76
REMARK SMILES IDX 72 77 66 78 67 79 70 80 68 81 47 82 48 83 56 84 49 85 50 86
REMARK SMILES IDX 54 87 57 88 51 89 52 90 55 91 53 92
REMARK H PARENT 4 14 77 45 45 56
REMARK Flexibility Score: inf
ROOT
ATOM      1  C   UNL A   1      31.823  28.475  27.447  1.00  0.00     0.274 C 
ENDROOT
BRANCH   1   2
ATOM      2  O   UNL A   1      30.952  27.569  26.749  1.00  0.00    -0.462 OA
BRANCH   2   3
ATOM      3  C   UNL A   1      31.518  26.434  26.273  1.00  0.00     0.308 C 
ATOM      4  O   UNL A   1      31.561  25.365  26.870  1.00  0.00    -0.252 OA
BRANCH   3   5
ATOM      5  C   UNL A   1      32.269  26.667  24.995  1.00  0.00     0.156 C 
BRANCH   5   6
ATOM      6  C   UNL A   1      31.587  27.210  23.735  1.00  0.00     0.149 C 
ATOM      7  N   UNL A   1      31.939  25.107  22.561  1.00  0.00    -0.320 N 
ATOM      8  C   UNL A   1      32.831  25.746  21.600  1.00  0.00     0.150 C 
ATOM      9  C   UNL A   1      30.891  26.028  23.014  1.00  0.00     0.154 C 
ATOM     10  C   UNL A   1      33.448  27.008  22.217  1.00  0.00     0.182 C 
ATOM     11  O   UNL A   1      32.462  27.873  22.805  1.00  0.00    -0.374 OA
BRANCH   7  12
ATOM     12  C   UNL A   1      32.110  23.912  23.212  1.00  0.00     0.318 C 
ATOM     13  N   UNL A   1      33.262  23.209  23.031  1.00  0.00    -0.330 N 
ATOM     14  H   UNL A   1      33.288  22.568  22.285  1.00  0.00     0.166 HD
ATOM     15  O   UNL A   1      31.245  23.428  23.940  1.00  0.00    -0.249 OA
BRANCH  13  16
ATOM     16  C   UNL A   1      34.485  23.331  23.869  1.00  0.00     0.124 C 
BRANCH  16  17
ATOM     17  C   UNL A   1      35.806  22.942  23.153  1.00  0.00     0.027 C 
ATOM     18  C   UNL A   1      37.001  22.858  24.093  1.00  0.00     0.006 C 
ENDBRANCH  16  17
BRANCH  16  19
ATOM     19  C   UNL A   1      34.240  22.736  25.249  1.00  0.00     0.027 A 
ATOM     20  C   UNL A   1      34.356  23.385  26.472  1.00  0.00     0.017 A 
ATOM     21  S   UNL A   1      33.928  21.065  25.520  1.00  0.00    -0.147 S 
ATOM     22  C   UNL A   1      33.965  22.579  27.579  1.00  0.00     0.012 A 
ATOM     23  C   UNL A   1      33.676  21.293  27.192  1.00  0.00     0.065 A 
ENDBRANCH  16  19
ENDBRANCH  13  16
ENDBRANCH   7  12
ENDBRANCH   5   6
ENDBRANCH   3   5
ENDBRANCH   2   3
ENDBRANCH   1   2
BRANCH   1  24
ATOM     24  C   UNL A   1      31.861  29.839  26.766  1.00  0.00     0.275 C 
BRANCH  24  25
ATOM     25  O   UNL A   1      33.218  30.257  26.548  1.00  0.00    -0.458 OA
BRANCH  25  26
ATOM     26  C   UNL A   1      33.572  31.407  27.165  1.00  0.00     0.338 C 
ATOM     27  O   UNL A   1      32.933  32.444  27.250  1.00  0.00    -0.246 OA
BRANCH  26  28
ATOM     28  C   UNL A   1      34.813  31.162  27.905  1.00  0.00     0.060 A 
ATOM     29  C   UNL A   1      34.980  29.916  28.512  1.00  0.00     0.016 A 
ATOM     30  C   UNL A   1      35.800  32.138  28.000  1.00  0.00     0.016 A 
ATOM     31  C   UNL A   1      36.148  29.606  29.184  1.00  0.00     0.010 A 
ATOM     32  C   UNL A   1      36.973  31.837  28.693  1.00  0.00     0.010 A 
ATOM     33  C   UNL A   1      37.151  30.569  29.275  1.00  0.00    -0.014 A 
BRANCH  33  34
ATOM     34  C   UNL A   1      38.375  30.260  30.031  1.00  0.00     0.031 A 
ATOM     35  C   UNL A   1      39.372  29.323  29.435  1.00  0.00     0.074 A 
ATOM     36  C   UNL A   1      38.573  30.830  31.231  1.00  0.00     0.049 A 
ATOM     37  N   UNL A   1      40.420  28.773  29.984  1.00  0.00    -0.248 NA
ATOM     38  C   UNL A   1      39.154  28.949  28.027  1.00  0.00     0.031 C 
ATOM     39  C   UNL A   1      37.691  31.822  31.848  1.00  0.00     0.029 A 
ATOM     40  N   UNL A   1      39.569  30.644  32.151  1.00  0.00    -0.354 N 
ATOM     41  C   UNL A   1      40.966  27.958  29.004  1.00  0.00     0.074 A 
ATOM     42  C   UNL A   1      40.138  28.086  27.826  1.00  0.00     0.031 C 
ATOM     43  C   UNL A   1      38.175  32.138  33.060  1.00  0.00     0.029 A 
ATOM     44  C   UNL A   1      39.359  31.328  33.322  1.00  0.00     0.049 A 
ATOM     45  H   UNL A   1      40.358  30.076  31.988  1.00  0.00     0.167 HD
ATOM     46  C   UNL A   1      42.060  27.167  29.101  1.00  0.00     0.037 A 
ATOM     47  C   UNL A   1      40.022  31.256  34.490  1.00  0.00     0.037 A 
ATOM     48  C   UNL A   1      42.871  27.072  30.286  1.00  0.00     0.049 A 
ATOM     49  C   UNL A   1      41.190  30.315  34.595  1.00  0.00     0.074 A 
ATOM     50  C   UNL A   1      44.014  26.324  30.494  1.00  0.00     0.029 A 
ATOM     51  N   UNL A   1      42.612  27.752  31.469  1.00  0.00    -0.354 N 
ATOM     52  N   UNL A   1      41.700  29.525  33.679  1.00  0.00    -0.248 NA
ATOM     53  C   UNL A   1      41.865  30.241  35.895  1.00  0.00     0.031 C 
ATOM     54  C   UNL A   1      44.418  26.513  31.821  1.00  0.00     0.029 A 
ATOM     55  C   UNL A   1      43.554  27.415  32.425  1.00  0.00     0.049 A 
ATOM     56  H   UNL A   1      41.867  28.380  31.608  1.00  0.00     0.167 HD
ATOM     57  C   UNL A   1      42.755  28.862  34.287  1.00  0.00     0.074 A 
ATOM     58  C   UNL A   1      42.829  29.364  35.646  1.00  0.00     0.031 C 
ATOM     59  C   UNL A   1      43.587  27.922  33.775  1.00  0.00     0.037 A 
BRANCH  46  60
ATOM     60  C   UNL A   1      42.396  26.310  27.917  1.00  0.00     0.064 A 
ATOM     61  C   UNL A   1      43.347  26.696  26.961  1.00  0.00     0.173 A 
ATOM     62  C   UNL A   1      41.750  25.076  27.740  1.00  0.00     0.173 A 
ATOM     63  F   UNL A   1      43.976  27.875  27.074  1.00  0.00    -0.203 F 
ATOM     64  C   UNL A   1      43.619  25.892  25.857  1.00  0.00     0.198 A 
ATOM     65  C   UNL A   1      42.045  24.263  26.649  1.00  0.00     0.198 A 
ATOM     66  F   UNL A   1      40.829  24.662  28.623  1.00  0.00    -0.203 F 
ATOM     67  F   UNL A   1      44.493  26.305  24.929  1.00  0.00    -0.200 F 
ATOM     68  C   UNL A   1      42.971  24.675  25.705  1.00  0.00     0.200 A 
ATOM     69  F   UNL A   1      41.423  23.084  26.507  1.00  0.00    -0.200 F 
ATOM     70  F   UNL A   1      43.235  23.902  24.642  1.00  0.00    -0.200 F 
ENDBRANCH  46  60
BRANCH  47  71
ATOM     71  C   UNL A   1      39.555  32.054  35.652  1.00  0.00     0.064 A 
ATOM     72  C   UNL A   1      40.067  33.332  35.906  1.00  0.00     0.173 A 
ATOM     73  C   UNL A   1      38.567  31.562  36.521  1.00  0.00     0.173 A 
ATOM     74  F   UNL A   1      41.030  33.835  35.120  1.00  0.00    -0.203 F 
ATOM     75  C   UNL A   1      39.613  34.087  36.987  1.00  0.00     0.198 A 
ATOM     76  C   UNL A   1      38.094  32.329  37.582  1.00  0.00     0.198 A 
ATOM     77  F   UNL A   1      38.046  30.342  36.324  1.00  0.00    -0.203 F 
ATOM     78  F   UNL A   1      40.144  35.294  37.227  1.00  0.00    -0.200 F 
ATOM     79  C   UNL A   1      38.621  33.589  37.818  1.00  0.00     0.200 A 
ATOM     80  F   UNL A   1      37.127  31.847  38.375  1.00  0.00    -0.200 F 
ATOM     81  F   UNL A   1      38.177  34.321  38.849  1.00  0.00    -0.200 F 
ENDBRANCH  47  71
BRANCH  59  82
ATOM     82  C   UNL A   1      44.640  27.379  34.693  1.00  0.00     0.064 A 
ATOM     83  C   UNL A   1      44.421  26.219  35.448  1.00  0.00     0.173 A 
ATOM     84  C   UNL A   1      45.893  28.002  34.786  1.00  0.00     0.173 A 
ATOM     85  F   UNL A   1      43.232  25.598  35.404  1.00  0.00    -0.203 F 
ATOM     86  C   UNL A   1      45.414  25.712  36.281  1.00  0.00     0.198 A 
ATOM     87  C   UNL A   1      46.893  27.477  35.597  1.00  0.00     0.198 A 
ATOM     88  F   UNL A   1      46.151  29.112  34.078  1.00  0.00    -0.203 F 
ATOM     89  F   UNL A   1      45.170  24.626  37.028  1.00  0.00    -0.200 F 
ATOM     90  C   UNL A   1      46.651  26.336  36.349  1.00  0.00     0.200 A 
ATOM     91  F   UNL A   1      48.091  28.073  35.653  1.00  0.00    -0.200 F 
ATOM     92  F   UNL A   1      47.608  25.842  37.146  1.00  0.00    -0.200 F 
ENDBRANCH  59  82
ENDBRANCH  33  34
ENDBRANCH  26  28
ENDBRANCH  25  26
ENDBRANCH  24  25
ENDBRANCH   1  24
TORSDOF 16
ENDMDL
