MODEL 1
REMARK VINA RESULT:     -11.8      0.000      0.000
REMARK SMILES Cc1cc(C)c2c(=O)n(CCCC(=O)OCCOC(=O)c3ccc(-c4c5nc(c(-c6c(F)c(F)c(F)c(F)c6F)c6ccc([nH]6)c(-c6c(F)c(F)c(F)c(F)c6F)c6nc(c(-c7c(F)c(F)c(F)c(F)c7F)c7ccc4[nH]7)C=C6)C=C5)cc3)sc2n1
REMARK SMILES IDX 16 1 15 2 13 3 14 4 12 5 11 6 10 7 9 8 1 9 2 10 3 11 86 12
REMARK SMILES IDX 4 13 85 14 5 15 6 16 84 17 7 18 8 19 17 20 18 21 19 22 20 23
REMARK SMILES IDX 21 24 22 25 83 26 23 27 82 28 24 29 25 30 26 31 76 32 27 33
REMARK SMILES IDX 81 34 75 35 77 36 28 37 80 38 74 39 73 40 29 42 61 43 41 44
REMARK SMILES IDX 60 45 42 46 45 47 59 48 78 49 43 50 44 51 58 53 79 54 46 55
REMARK SMILES IDX 30 56 31 57 39 58 32 59 33 60 37 61 40 62 34 63 35 64 38 65
REMARK SMILES IDX 36 66 62 67 63 68 71 69 64 70 65 71 69 72 72 73 66 74 67 75
REMARK SMILES IDX 70 76 68 77 47 78 48 79 56 80 49 81 50 82 54 83 57 84 51 85
REMARK SMILES IDX 52 86 55 87 53 88
REMARK H PARENT 77 41 45 52
REMARK Flexibility Score: inf
ROOT
ATOM      1  C   UNL A   1      42.230  18.840  26.741  1.00  0.00     0.274 C 
ENDROOT
BRANCH   1   2
ATOM      2  O   UNL A   1      41.180  19.683  26.239  1.00  0.00    -0.462 OA
BRANCH   2   3
ATOM      3  C   UNL A   1      40.798  20.766  26.954  1.00  0.00     0.305 C 
ATOM      4  O   UNL A   1      40.812  20.827  28.178  1.00  0.00    -0.252 OA
BRANCH   3   5
ATOM      5  C   UNL A   1      40.296  21.906  26.083  1.00  0.00     0.124 C 
BRANCH   5   6
ATOM      6  C   UNL A   1      38.801  22.267  26.053  1.00  0.00     0.035 C 
BRANCH   6   7
ATOM      7  C   UNL A   1      37.804  21.335  25.346  1.00  0.00     0.139 C 
BRANCH   7   8
ATOM      8  N   UNL A   1      36.582  21.981  24.896  1.00  0.00    -0.262 N 
ATOM      9  C   UNL A   1      32.656  25.175  21.548  1.00  0.00     0.067 C 
ATOM     10  C   UNL A   1      33.229  24.144  22.471  1.00  0.00     0.039 A 
ATOM     11  C   UNL A   1      32.538  22.955  22.753  1.00  0.00     0.027 A 
ATOM     12  N   UNL A   1      34.434  24.430  23.001  1.00  0.00    -0.241 NA
ATOM     13  C   UNL A   1      33.135  21.965  23.553  1.00  0.00    -0.033 A 
ATOM     14  C   UNL A   1      34.977  23.461  23.750  1.00  0.00     0.146 A 
ATOM     15  C   UNL A   1      32.417  20.702  23.901  1.00  0.00     0.045 C 
ATOM     16  C   UNL A   1      34.420  22.222  24.004  1.00  0.00     0.081 A 
ATOM     17  S   UNL A   1      36.537  23.651  24.525  1.00  0.00    -0.035 S 
ATOM     18  C   UNL A   1      35.381  21.323  24.681  1.00  0.00     0.270 A 
ATOM     19  O   UNL A   1      35.132  20.152  24.937  1.00  0.00    -0.268 OA
ENDBRANCH   7   8
ENDBRANCH   6   7
ENDBRANCH   5   6
ENDBRANCH   3   5
ENDBRANCH   2   3
ENDBRANCH   1   2
BRANCH   1  20
ATOM     20  C   UNL A   1      43.368  18.791  25.738  1.00  0.00     0.275 C 
BRANCH  20  21
ATOM     21  O   UNL A   1      43.333  19.957  24.921  1.00  0.00    -0.458 OA
BRANCH  21  22
ATOM     22  C   UNL A   1      44.534  20.336  24.435  1.00  0.00     0.338 C 
ATOM     23  O   UNL A   1      45.383  19.648  23.896  1.00  0.00    -0.246 OA
BRANCH  22  24
ATOM     24  C   UNL A   1      44.768  21.725  24.792  1.00  0.00     0.060 A 
ATOM     25  C   UNL A   1      45.813  22.017  25.675  1.00  0.00     0.016 A 
ATOM     26  C   UNL A   1      43.743  22.631  24.497  1.00  0.00     0.016 A 
ATOM     27  C   UNL A   1      45.728  23.176  26.412  1.00  0.00     0.010 A 
ATOM     28  C   UNL A   1      43.649  23.768  25.246  1.00  0.00     0.010 A 
ATOM     29  C   UNL A   1      44.596  23.979  26.246  1.00  0.00    -0.014 A 
BRANCH  29  30
ATOM     30  C   UNL A   1      44.419  25.122  27.109  1.00  0.00     0.031 A 
ATOM     31  C   UNL A   1      45.465  26.152  26.932  1.00  0.00     0.074 A 
ATOM     32  C   UNL A   1      43.292  25.268  27.830  1.00  0.00     0.049 A 
ATOM     33  N   UNL A   1      46.289  26.609  27.813  1.00  0.00    -0.248 NA
ATOM     34  C   UNL A   1      45.722  26.630  25.560  1.00  0.00     0.031 C 
ATOM     35  C   UNL A   1      42.080  24.439  27.806  1.00  0.00     0.029 A 
ATOM     36  N   UNL A   1      42.946  26.279  28.663  1.00  0.00    -0.354 N 
ATOM     37  C   UNL A   1      47.047  27.567  27.150  1.00  0.00     0.074 A 
ATOM     38  C   UNL A   1      46.784  27.412  25.744  1.00  0.00     0.031 C 
ATOM     39  C   UNL A   1      41.069  25.111  28.402  1.00  0.00     0.029 A 
ATOM     40  C   UNL A   1      41.591  26.347  28.955  1.00  0.00     0.049 A 
ATOM     41  H   UNL A   1      43.602  26.914  29.031  1.00  0.00     0.167 HD
ATOM     42  C   UNL A   1      47.635  28.589  27.822  1.00  0.00     0.037 A 
ATOM     43  C   UNL A   1      40.962  27.406  29.524  1.00  0.00     0.037 A 
ATOM     44  C   UNL A   1      47.765  28.297  29.223  1.00  0.00     0.049 A 
ATOM     45  C   UNL A   1      42.013  28.245  30.164  1.00  0.00     0.074 A 
ATOM     46  C   UNL A   1      48.427  27.322  29.943  1.00  0.00     0.029 A 
ATOM     47  N   UNL A   1      46.836  28.829  30.082  1.00  0.00    -0.354 N 
ATOM     48  N   UNL A   1      42.717  27.869  31.196  1.00  0.00    -0.248 NA
ATOM     49  C   UNL A   1      42.600  29.310  29.362  1.00  0.00     0.031 C 
ATOM     50  C   UNL A   1      47.548  26.992  31.016  1.00  0.00     0.029 A 
ATOM     51  C   UNL A   1      46.432  27.823  30.924  1.00  0.00     0.049 A 
ATOM     52  H   UNL A   1      46.517  29.761  30.092  1.00  0.00     0.167 HD
ATOM     53  C   UNL A   1      43.997  28.342  30.944  1.00  0.00     0.074 A 
ATOM     54  C   UNL A   1      43.848  29.284  29.838  1.00  0.00     0.031 C 
ATOM     55  C   UNL A   1      45.094  27.710  31.456  1.00  0.00     0.037 A 
BRANCH  42  56
ATOM     56  C   UNL A   1      47.752  29.976  27.256  1.00  0.00     0.064 A 
ATOM     57  C   UNL A   1      48.996  30.627  27.266  1.00  0.00     0.173 A 
ATOM     58  C   UNL A   1      46.634  30.788  26.958  1.00  0.00     0.173 A 
ATOM     59  F   UNL A   1      50.113  29.956  27.584  1.00  0.00    -0.203 F 
ATOM     60  C   UNL A   1      49.106  32.000  27.031  1.00  0.00     0.198 A 
ATOM     61  C   UNL A   1      46.753  32.143  26.664  1.00  0.00     0.198 A 
ATOM     62  F   UNL A   1      45.378  30.333  27.053  1.00  0.00    -0.203 F 
ATOM     63  F   UNL A   1      50.296  32.603  27.160  1.00  0.00    -0.200 F 
ATOM     64  C   UNL A   1      47.986  32.755  26.727  1.00  0.00     0.200 A 
ATOM     65  F   UNL A   1      45.653  32.860  26.400  1.00  0.00    -0.200 F 
ATOM     66  F   UNL A   1      48.084  34.078  26.547  1.00  0.00    -0.200 F 
ENDBRANCH  42  56
BRANCH  43  67
ATOM     67  C   UNL A   1      39.610  27.937  29.222  1.00  0.00     0.064 A 
ATOM     68  C   UNL A   1      38.659  28.095  30.245  1.00  0.00     0.173 A 
ATOM     69  C   UNL A   1      39.319  28.572  27.998  1.00  0.00     0.173 A 
ATOM     70  F   UNL A   1      38.878  27.558  31.455  1.00  0.00    -0.203 F 
ATOM     71  C   UNL A   1      37.510  28.871  30.067  1.00  0.00     0.198 A 
ATOM     72  C   UNL A   1      38.167  29.340  27.819  1.00  0.00     0.198 A 
ATOM     73  F   UNL A   1      40.193  28.547  26.982  1.00  0.00    -0.203 F 
ATOM     74  F   UNL A   1      36.663  29.057  31.091  1.00  0.00    -0.200 F 
ATOM     75  C   UNL A   1      37.271  29.503  28.859  1.00  0.00     0.200 A 
ATOM     76  F   UNL A   1      37.967  29.975  26.656  1.00  0.00    -0.200 F 
ATOM     77  F   UNL A   1      36.205  30.303  28.709  1.00  0.00    -0.200 F 
ENDBRANCH  43  67
BRANCH  55  78
ATOM     78  C   UNL A   1      44.868  26.639  32.488  1.00  0.00     0.064 A 
ATOM     79  C   UNL A   1      44.655  26.898  33.854  1.00  0.00     0.173 A 
ATOM     80  C   UNL A   1      44.696  25.320  32.050  1.00  0.00     0.173 A 
ATOM     81  F   UNL A   1      44.704  28.145  34.336  1.00  0.00    -0.203 F 
ATOM     82  C   UNL A   1      44.320  25.875  34.742  1.00  0.00     0.198 A 
ATOM     83  C   UNL A   1      44.324  24.308  32.930  1.00  0.00     0.198 A 
ATOM     84  F   UNL A   1      44.832  25.023  30.747  1.00  0.00    -0.203 F 
ATOM     85  F   UNL A   1      44.126  26.148  36.040  1.00  0.00    -0.200 F 
ATOM     86  C   UNL A   1      44.145  24.583  34.276  1.00  0.00     0.200 A 
ATOM     87  F   UNL A   1      44.107  23.070  32.466  1.00  0.00    -0.200 F 
ATOM     88  F   UNL A   1      43.774  23.609  35.118  1.00  0.00    -0.200 F 
ENDBRANCH  55  78
ENDBRANCH  29  30
ENDBRANCH  22  24
ENDBRANCH  21  22
ENDBRANCH  20  21
ENDBRANCH   1  20
TORSDOF 14
ENDMDL
MODEL 2
REMARK VINA RESULT:     -11.8      2.942      4.767
REMARK SMILES Cc1cc(C)c2c(=O)n(CCCC(=O)OCCOC(=O)c3ccc(-c4c5nc(c(-c6c(F)c(F)c(F)c(F)c6F)c6ccc([nH]6)c(-c6c(F)c(F)c(F)c(F)c6F)c6nc(c(-c7c(F)c(F)c(F)c(F)c7F)c7ccc4[nH]7)C=C6)C=C5)cc3)sc2n1
REMARK SMILES IDX 16 1 15 2 13 3 14 4 12 5 11 6 10 7 9 8 1 9 2 10 3 11 86 12
REMARK SMILES IDX 4 13 85 14 5 15 6 16 84 17 7 18 8 19 17 20 18 21 19 22 20 23
REMARK SMILES IDX 21 24 22 25 83 26 23 27 82 28 24 29 25 30 26 31 76 32 27 33
REMARK SMILES IDX 81 34 75 35 77 36 28 37 80 38 74 39 73 40 29 42 61 43 41 44
REMARK SMILES IDX 60 45 42 46 45 47 59 48 78 49 43 50 44 51 58 53 79 54 46 55
REMARK SMILES IDX 30 56 31 57 39 58 32 59 33 60 37 61 40 62 34 63 35 64 38 65
REMARK SMILES IDX 36 66 62 67 63 68 71 69 64 70 65 71 69 72 72 73 66 74 67 75
REMARK SMILES IDX 70 76 68 77 47 78 48 79 56 80 49 81 50 82 54 83 57 84 51 85
REMARK SMILES IDX 52 86 55 87 53 88
REMARK H PARENT 77 41 45 52
REMARK Flexibility Score: inf
ROOT
ATOM      1  C   UNL A   1      37.210  22.278  25.318  1.00  0.00     0.274 C 
ENDROOT
BRANCH   1   2
ATOM      2  O   UNL A   1      36.322  21.176  25.069  1.00  0.00    -0.462 OA
BRANCH   2   3
ATOM      3  C   UNL A   1      35.092  21.174  25.632  1.00  0.00     0.305 C 
ATOM      4  O   UNL A   1      34.866  21.459  26.803  1.00  0.00    -0.252 OA
BRANCH   3   5
ATOM      5  C   UNL A   1      34.000  20.734  24.671  1.00  0.00     0.124 C 
BRANCH   5   6
ATOM      6  C   UNL A   1      33.144  21.776  23.931  1.00  0.00     0.035 C 
BRANCH   6   7
ATOM      7  C   UNL A   1      33.827  22.925  23.172  1.00  0.00     0.139 C 
BRANCH   7   8
ATOM      8  N   UNL A   1      33.612  24.244  23.746  1.00  0.00    -0.262 N 
ATOM      9  C   UNL A   1      34.146  29.127  27.307  1.00  0.00     0.067 C 
ATOM     10  C   UNL A   1      33.911  28.259  26.110  1.00  0.00     0.039 A 
ATOM     11  C   UNL A   1      33.932  28.789  24.812  1.00  0.00     0.027 A 
ATOM     12  N   UNL A   1      33.685  26.955  26.362  1.00  0.00    -0.241 NA
ATOM     13  C   UNL A   1      33.794  27.939  23.700  1.00  0.00    -0.033 A 
ATOM     14  C   UNL A   1      33.568  26.173  25.281  1.00  0.00     0.146 A 
ATOM     15  C   UNL A   1      33.779  28.471  22.304  1.00  0.00     0.045 C 
ATOM     16  C   UNL A   1      33.671  26.584  23.966  1.00  0.00     0.081 A 
ATOM     17  S   UNL A   1      33.268  24.452  25.409  1.00  0.00    -0.035 S 
ATOM     18  C   UNL A   1      33.711  25.432  23.038  1.00  0.00     0.270 A 
ATOM     19  O   UNL A   1      33.875  25.553  21.831  1.00  0.00    -0.268 OA
ENDBRANCH   7   8
ENDBRANCH   6   7
ENDBRANCH   5   6
ENDBRANCH   3   5
ENDBRANCH   2   3
ENDBRANCH   1   2
BRANCH   1  20
ATOM     20  C   UNL A   1      38.563  21.752  25.761  1.00  0.00     0.275 C 
BRANCH  20  21
ATOM     21  O   UNL A   1      39.180  22.696  26.630  1.00  0.00    -0.458 OA
BRANCH  21  22
ATOM     22  C   UNL A   1      40.529  22.649  26.643  1.00  0.00     0.338 C 
ATOM     23  O   UNL A   1      41.252  21.667  26.616  1.00  0.00    -0.246 OA
BRANCH  22  24
ATOM     24  C   UNL A   1      41.044  23.990  26.859  1.00  0.00     0.060 A 
ATOM     25  C   UNL A   1      42.005  24.179  27.858  1.00  0.00     0.016 A 
ATOM     26  C   UNL A   1      40.316  25.042  26.293  1.00  0.00     0.016 A 
ATOM     27  C   UNL A   1      42.109  25.430  28.423  1.00  0.00     0.010 A 
ATOM     28  C   UNL A   1      40.403  26.275  26.871  1.00  0.00     0.010 A 
ATOM     29  C   UNL A   1      41.236  26.427  27.978  1.00  0.00    -0.014 A 
BRANCH  29  30
ATOM     30  C   UNL A   1      41.231  27.702  28.653  1.00  0.00     0.031 A 
ATOM     31  C   UNL A   1      42.340  28.585  28.234  1.00  0.00     0.074 A 
ATOM     32  C   UNL A   1      40.187  28.067  29.420  1.00  0.00     0.049 A 
ATOM     33  N   UNL A   1      43.273  29.093  28.967  1.00  0.00    -0.248 NA
ATOM     34  C   UNL A   1      42.516  28.817  26.787  1.00  0.00     0.031 C 
ATOM     35  C   UNL A   1      38.913  27.364  29.619  1.00  0.00     0.029 A 
ATOM     36  N   UNL A   1      40.000  29.224  30.099  1.00  0.00    -0.354 N 
ATOM     37  C   UNL A   1      44.048  29.858  28.103  1.00  0.00     0.074 A 
ATOM     38  C   UNL A   1      43.652  29.512  26.764  1.00  0.00     0.031 C 
ATOM     39  C   UNL A   1      38.017  28.216  30.169  1.00  0.00     0.029 A 
ATOM     40  C   UNL A   1      38.687  29.467  30.474  1.00  0.00     0.049 A 
ATOM     41  H   UNL A   1      40.737  29.842  30.311  1.00  0.00     0.167 HD
ATOM     42  C   UNL A   1      44.775  30.911  28.555  1.00  0.00     0.037 A 
ATOM     43  C   UNL A   1      38.201  30.657  30.907  1.00  0.00     0.037 A 
ATOM     44  C   UNL A   1      45.002  30.830  29.972  1.00  0.00     0.049 A 
ATOM     45  C   UNL A   1      39.370  31.481  31.323  1.00  0.00     0.074 A 
ATOM     46  C   UNL A   1      45.641  29.920  30.791  1.00  0.00     0.029 A 
ATOM     47  N   UNL A   1      44.199  31.577  30.798  1.00  0.00    -0.354 N 
ATOM     48  N   UNL A   1      40.126  31.204  32.349  1.00  0.00    -0.248 NA
ATOM     49  C   UNL A   1      39.971  32.346  30.317  1.00  0.00     0.031 C 
ATOM     50  C   UNL A   1      44.833  29.848  31.964  1.00  0.00     0.029 A 
ATOM     51  C   UNL A   1      43.787  30.759  31.819  1.00  0.00     0.049 A 
ATOM     52  H   UNL A   1      43.961  32.526  30.678  1.00  0.00     0.167 HD
ATOM     53  C   UNL A   1      41.415  31.507  31.931  1.00  0.00     0.074 A 
ATOM     54  C   UNL A   1      41.249  32.274  30.700  1.00  0.00     0.031 C 
ATOM     55  C   UNL A   1      42.496  30.859  32.458  1.00  0.00     0.037 A 
BRANCH  42  56
ATOM     56  C   UNL A   1      44.958  32.175  27.763  1.00  0.00     0.064 A 
ATOM     57  C   UNL A   1      46.161  32.393  27.072  1.00  0.00     0.173 A 
ATOM     58  C   UNL A   1      44.105  33.296  27.885  1.00  0.00     0.173 A 
ATOM     59  F   UNL A   1      47.060  31.407  26.942  1.00  0.00    -0.203 F 
ATOM     60  C   UNL A   1      46.500  33.653  26.571  1.00  0.00     0.198 A 
ATOM     61  C   UNL A   1      44.418  34.534  27.333  1.00  0.00     0.198 A 
ATOM     62  F   UNL A   1      42.998  33.269  28.638  1.00  0.00    -0.203 F 
ATOM     63  F   UNL A   1      47.705  33.846  26.018  1.00  0.00    -0.200 F 
ATOM     64  C   UNL A   1      45.627  34.721  26.700  1.00  0.00     0.200 A 
ATOM     65  F   UNL A   1      43.571  35.560  27.493  1.00  0.00    -0.200 F 
ATOM     66  F   UNL A   1      45.971  35.938  26.262  1.00  0.00    -0.200 F 
ENDBRANCH  42  56
BRANCH  43  67
ATOM     67  C   UNL A   1      36.876  31.263  30.621  1.00  0.00     0.064 A 
ATOM     68  C   UNL A   1      36.044  31.687  31.670  1.00  0.00     0.173 A 
ATOM     69  C   UNL A   1      36.527  31.706  29.330  1.00  0.00     0.173 A 
ATOM     70  F   UNL A   1      36.328  31.345  32.936  1.00  0.00    -0.203 F 
ATOM     71  C   UNL A   1      34.953  32.534  31.446  1.00  0.00     0.198 A 
ATOM     72  C   UNL A   1      35.433  32.544  29.106  1.00  0.00     0.198 A 
ATOM     73  F   UNL A   1      37.296  31.420  28.270  1.00  0.00    -0.203 F 
ATOM     74  F   UNL A   1      34.226  32.976  32.483  1.00  0.00    -0.200 F 
ATOM     75  C   UNL A   1      34.657  32.972  30.167  1.00  0.00     0.200 A 
ATOM     76  F   UNL A   1      35.179  32.988  27.868  1.00  0.00    -0.200 F 
ATOM     77  F   UNL A   1      33.653  33.837  29.961  1.00  0.00    -0.200 F 
ENDBRANCH  43  67
BRANCH  55  78
ATOM     78  C   UNL A   1      42.272  29.989  33.665  1.00  0.00     0.064 A 
ATOM     79  C   UNL A   1      41.898  28.635  33.598  1.00  0.00     0.173 A 
ATOM     80  C   UNL A   1      42.609  30.500  34.924  1.00  0.00     0.173 A 
ATOM     81  F   UNL A   1      41.654  28.044  32.423  1.00  0.00    -0.203 F 
ATOM     82  C   UNL A   1      41.833  27.844  34.744  1.00  0.00     0.198 A 
ATOM     83  C   UNL A   1      42.580  29.699  36.062  1.00  0.00     0.198 A 
ATOM     84  F   UNL A   1      43.026  31.771  35.042  1.00  0.00    -0.203 F 
ATOM     85  F   UNL A   1      41.470  26.555  34.653  1.00  0.00    -0.200 F 
ATOM     86  C   UNL A   1      42.185  28.374  35.973  1.00  0.00     0.200 A 
ATOM     87  F   UNL A   1      42.970  30.203  37.240  1.00  0.00    -0.200 F 
ATOM     88  F   UNL A   1      42.172  27.602  37.069  1.00  0.00    -0.200 F 
ENDBRANCH  55  78
ENDBRANCH  29  30
ENDBRANCH  22  24
ENDBRANCH  21  22
ENDBRANCH  20  21
ENDBRANCH   1  20
TORSDOF 14
ENDMDL
MODEL 3
REMARK VINA RESULT:     -11.7      5.409     11.042
REMARK SMILES Cc1cc(C)c2c(=O)n(CCCC(=O)OCCOC(=O)c3ccc(-c4c5nc(c(-c6c(F)c(F)c(F)c(F)c6F)c6ccc([nH]6)c(-c6c(F)c(F)c(F)c(F)c6F)c6nc(c(-c7c(F)c(F)c(F)c(F)c7F)c7ccc4[nH]7)C=C6)C=C5)cc3)sc2n1
REMARK SMILES IDX 16 1 15 2 13 3 14 4 12 5 11 6 10 7 9 8 1 9 2 10 3 11 86 12
REMARK SMILES IDX 4 13 85 14 5 15 6 16 84 17 7 18 8 19 17 20 18 21 19 22 20 23
REMARK SMILES IDX 21 24 22 25 83 26 23 27 82 28 24 29 25 30 26 31 76 32 27 33
REMARK SMILES IDX 81 34 75 35 77 36 28 37 80 38 74 39 73 40 29 42 61 43 41 44
REMARK SMILES IDX 60 45 42 46 45 47 59 48 78 49 43 50 44 51 58 53 79 54 46 55
REMARK SMILES IDX 30 56 31 57 39 58 32 59 33 60 37 61 40 62 34 63 35 64 38 65
REMARK SMILES IDX 36 66 62 67 63 68 71 69 64 70 65 71 69 72 72 73 66 74 67 75
REMARK SMILES IDX 70 76 68 77 47 78 48 79 56 80 49 81 50 82 54 83 57 84 51 85
REMARK SMILES IDX 52 86 55 87 53 88
REMARK H PARENT 77 41 45 52
REMARK Flexibility Score: inf
ROOT
ATOM      1  C   UNL A   1      34.252  34.574  29.756  1.00  0.00     0.274 C 
ENDROOT
BRANCH   1   2
ATOM      2  O   UNL A   1      32.919  34.956  30.132  1.00  0.00    -0.462 OA
BRANCH   2   3
ATOM      3  C   UNL A   1      32.733  35.732  31.224  1.00  0.00     0.305 C 
ATOM      4  O   UNL A   1      32.191  36.832  31.208  1.00  0.00    -0.252 OA
BRANCH   3   5
ATOM      5  C   UNL A   1      33.312  35.123  32.491  1.00  0.00     0.124 C 
BRANCH   5   6
ATOM      6  C   UNL A   1      34.539  35.755  33.171  1.00  0.00     0.035 C 
BRANCH   6   7
ATOM      7  C   UNL A   1      35.344  34.944  34.199  1.00  0.00     0.139 C 
BRANCH   7   8
ATOM      8  N   UNL A   1      36.442  34.174  33.638  1.00  0.00    -0.262 N 
ATOM      9  C   UNL A   1      41.856  32.717  31.318  1.00  0.00     0.067 C 
ATOM     10  C   UNL A   1      40.565  32.640  32.072  1.00  0.00     0.039 A 
ATOM     11  C   UNL A   1      40.370  31.691  33.087  1.00  0.00     0.027 A 
ATOM     12  N   UNL A   1      39.620  33.532  31.717  1.00  0.00    -0.241 NA
ATOM     13  C   UNL A   1      39.182  31.695  33.838  1.00  0.00    -0.033 A 
ATOM     14  C   UNL A   1      38.505  33.514  32.460  1.00  0.00     0.146 A 
ATOM     15  C   UNL A   1      38.925  30.680  34.905  1.00  0.00     0.045 C 
ATOM     16  C   UNL A   1      38.261  32.686  33.538  1.00  0.00     0.081 A 
ATOM     17  S   UNL A   1      37.165  34.598  32.146  1.00  0.00    -0.035 S 
ATOM     18  C   UNL A   1      37.031  33.082  34.260  1.00  0.00     0.270 A 
ATOM     19  O   UNL A   1      36.657  32.538  35.291  1.00  0.00    -0.268 OA
ENDBRANCH   7   8
ENDBRANCH   6   7
ENDBRANCH   5   6
ENDBRANCH   3   5
ENDBRANCH   2   3
ENDBRANCH   1   2
BRANCH   1  20
ATOM     20  C   UNL A   1      34.298  33.081  29.486  1.00  0.00     0.275 C 
BRANCH  20  21
ATOM     21  O   UNL A   1      35.647  32.631  29.524  1.00  0.00    -0.458 OA
BRANCH  21  22
ATOM     22  C   UNL A   1      35.884  31.645  30.415  1.00  0.00     0.338 C 
ATOM     23  O   UNL A   1      35.455  31.533  31.551  1.00  0.00    -0.246 OA
BRANCH  22  24
ATOM     24  C   UNL A   1      36.899  30.757  29.875  1.00  0.00     0.060 A 
ATOM     25  C   UNL A   1      36.811  29.392  30.166  1.00  0.00     0.016 A 
ATOM     26  C   UNL A   1      38.063  31.358  29.384  1.00  0.00     0.016 A 
ATOM     27  C   UNL A   1      37.970  28.650  30.133  1.00  0.00     0.010 A 
ATOM     28  C   UNL A   1      39.215  30.627  29.374  1.00  0.00     0.010 A 
ATOM     29  C   UNL A   1      39.164  29.310  29.827  1.00  0.00    -0.014 A 
BRANCH  29  30
ATOM     30  C   UNL A   1      40.406  28.584  29.925  1.00  0.00     0.031 A 
ATOM     31  C   UNL A   1      40.878  28.422  31.317  1.00  0.00     0.074 A 
ATOM     32  C   UNL A   1      40.928  27.969  28.847  1.00  0.00     0.049 A 
ATOM     33  N   UNL A   1      41.989  28.827  31.833  1.00  0.00    -0.248 NA
ATOM     34  C   UNL A   1      39.926  27.865  32.297  1.00  0.00     0.031 C 
ATOM     35  C   UNL A   1      40.342  27.826  27.508  1.00  0.00     0.029 A 
ATOM     36  N   UNL A   1      42.058  27.227  28.760  1.00  0.00    -0.354 N 
ATOM     37  C   UNL A   1      41.955  28.413  33.159  1.00  0.00     0.074 A 
ATOM     38  C   UNL A   1      40.607  27.992  33.434  1.00  0.00     0.031 C 
ATOM     39  C   UNL A   1      41.007  26.861  26.833  1.00  0.00     0.029 A 
ATOM     40  C   UNL A   1      42.130  26.416  27.636  1.00  0.00     0.049 A 
ATOM     41  H   UNL A   1      42.771  27.262  29.438  1.00  0.00     0.167 HD
ATOM     42  C   UNL A   1      43.098  28.198  33.859  1.00  0.00     0.037 A 
ATOM     43  C   UNL A   1      43.006  25.395  27.460  1.00  0.00     0.037 A 
ATOM     44  C   UNL A   1      44.221  28.866  33.259  1.00  0.00     0.049 A 
ATOM     45  C   UNL A   1      44.111  25.594  28.437  1.00  0.00     0.074 A 
ATOM     46  C   UNL A   1      44.522  30.187  32.995  1.00  0.00     0.029 A 
ATOM     47  N   UNL A   1      45.067  28.125  32.473  1.00  0.00    -0.354 N 
ATOM     48  N   UNL A   1      44.963  26.580  28.382  1.00  0.00    -0.248 NA
ATOM     49  C   UNL A   1      43.976  24.957  29.740  1.00  0.00     0.031 C 
ATOM     50  C   UNL A   1      45.179  30.171  31.730  1.00  0.00     0.029 A 
ATOM     51  C   UNL A   1      45.293  28.841  31.325  1.00  0.00     0.049 A 
ATOM     52  H   UNL A   1      45.443  27.241  32.692  1.00  0.00     0.167 HD
ATOM     53  C   UNL A   1      45.156  26.956  29.705  1.00  0.00     0.074 A 
ATOM     54  C   UNL A   1      44.581  25.874  30.499  1.00  0.00     0.031 C 
ATOM     55  C   UNL A   1      45.498  28.238  30.029  1.00  0.00     0.037 A 
BRANCH  42  56
ATOM     56  C   UNL A   1      43.241  27.095  34.869  1.00  0.00     0.064 A 
ATOM     57  C   UNL A   1      43.419  27.414  36.225  1.00  0.00     0.173 A 
ATOM     58  C   UNL A   1      43.482  25.748  34.516  1.00  0.00     0.173 A 
ATOM     59  F   UNL A   1      43.262  28.675  36.655  1.00  0.00    -0.203 F 
ATOM     60  C   UNL A   1      43.845  26.459  37.153  1.00  0.00     0.198 A 
ATOM     61  C   UNL A   1      43.847  24.786  35.453  1.00  0.00     0.198 A 
ATOM     62  F   UNL A   1      43.488  25.336  33.242  1.00  0.00    -0.203 F 
ATOM     63  F   UNL A   1      44.112  26.829  38.412  1.00  0.00    -0.200 F 
ATOM     64  C   UNL A   1      44.055  25.146  36.766  1.00  0.00     0.200 A 
ATOM     65  F   UNL A   1      44.071  23.527  35.052  1.00  0.00    -0.200 F 
ATOM     66  F   UNL A   1      44.508  24.242  37.644  1.00  0.00    -0.200 F 
ENDBRANCH  42  56
BRANCH  43  67
ATOM     67  C   UNL A   1      42.763  24.085  26.806  1.00  0.00     0.064 A 
ATOM     68  C   UNL A   1      43.569  23.661  25.736  1.00  0.00     0.173 A 
ATOM     69  C   UNL A   1      41.941  23.103  27.394  1.00  0.00     0.173 A 
ATOM     70  F   UNL A   1      44.412  24.521  25.146  1.00  0.00    -0.203 F 
ATOM     71  C   UNL A   1      43.582  22.329  25.308  1.00  0.00     0.198 A 
ATOM     72  C   UNL A   1      41.947  21.777  26.960  1.00  0.00     0.198 A 
ATOM     73  F   UNL A   1      41.189  23.385  28.467  1.00  0.00    -0.203 F 
ATOM     74  F   UNL A   1      44.419  21.948  24.332  1.00  0.00    -0.200 F 
ATOM     75  C   UNL A   1      42.780  21.386  25.929  1.00  0.00     0.200 A 
ATOM     76  F   UNL A   1      41.193  20.868  27.594  1.00  0.00    -0.200 F 
ATOM     77  F   UNL A   1      42.842  20.097  25.565  1.00  0.00    -0.200 F 
ENDBRANCH  43  67
BRANCH  55  78
ATOM     78  C   UNL A   1      45.890  29.164  28.909  1.00  0.00     0.064 A 
ATOM     79  C   UNL A   1      44.977  29.951  28.185  1.00  0.00     0.173 A 
ATOM     80  C   UNL A   1      47.253  29.383  28.676  1.00  0.00     0.173 A 
ATOM     81  F   UNL A   1      43.662  29.873  28.418  1.00  0.00    -0.203 F 
ATOM     82  C   UNL A   1      45.412  30.888  27.248  1.00  0.00     0.198 A 
ATOM     83  C   UNL A   1      47.686  30.345  27.768  1.00  0.00     0.198 A 
ATOM     84  F   UNL A   1      48.173  28.700  29.377  1.00  0.00    -0.203 F 
ATOM     85  F   UNL A   1      44.520  31.624  26.568  1.00  0.00    -0.200 F 
ATOM     86  C   UNL A   1      46.767  31.091  27.049  1.00  0.00     0.200 A 
ATOM     87  F   UNL A   1      48.997  30.573  27.615  1.00  0.00    -0.200 F 
ATOM     88  F   UNL A   1      47.187  32.026  26.185  1.00  0.00    -0.200 F 
ENDBRANCH  55  78
ENDBRANCH  29  30
ENDBRANCH  22  24
ENDBRANCH  21  22
ENDBRANCH  20  21
ENDBRANCH   1  20
TORSDOF 14
ENDMDL
