MODEL 1
REMARK VINA RESULT:     -10.9      0.000      0.000
REMARK SMILES CCC(CC)NC(=O)NC[C@H]1CC[C@H](C(=O)OCCOC(=O)c2ccc(-c3c4nc(c(-c5c(F)c(F)c(F)c(F)c5F)c5ccc([nH]5)c(-c5c(F)c(F)c(F)c(F)c5F)c5nc(c(-c6c(F)c(F)c(F)c(F)c6F)c6ccc3[nH]6)C=C5)C=C4)cc2)O1
REMARK SMILES IDX 18 1 17 2 15 3 16 4 14 5 11 6 12 7 86 8 13 9 10 10 9 11 6 12
REMARK SMILES IDX 7 13 8 15 3 17 2 18 1 19 4 20 5 21 19 22 20 23 21 24 22 25
REMARK SMILES IDX 23 26 24 27 85 28 25 29 84 30 26 31 27 32 28 33 78 34 29 35
REMARK SMILES IDX 83 36 77 37 79 38 30 39 82 40 76 41 75 42 31 44 63 45 43 46
REMARK SMILES IDX 62 47 44 48 47 49 61 50 80 51 45 52 46 53 60 55 81 56 48 57
REMARK SMILES IDX 32 58 33 59 41 60 34 61 35 62 39 63 42 64 36 65 37 66 40 67
REMARK SMILES IDX 38 68 64 69 65 70 73 71 66 72 67 73 71 74 74 75 68 76 69 77
REMARK SMILES IDX 72 78 70 79 49 80 50 81 58 82 51 83 52 84 56 85 59 86 53 87
REMARK SMILES IDX 54 88 57 89 55 90
REMARK H PARENT 6 14 9 16 79 43 47 54
REMARK Flexibility Score: inf
ROOT
ATOM      1  C   UNL A   1      32.239  29.149  25.309  1.00  0.00     0.274 C 
ENDROOT
BRANCH   1   2
ATOM      2  O   UNL A   1      31.161  28.227  25.561  1.00  0.00    -0.460 OA
BRANCH   2   3
ATOM      3  C   UNL A   1      31.375  27.322  26.554  1.00  0.00     0.335 C 
ATOM      4  O   UNL A   1      31.462  27.598  27.746  1.00  0.00    -0.249 OA
BRANCH   3   5
ATOM      5  C   UNL A   1      31.467  25.885  26.030  1.00  0.00     0.228 C 
ATOM      6  C   UNL A   1      31.628  23.696  26.783  1.00  0.00     0.138 C 
ATOM      7  C   UNL A   1      33.053  24.188  26.612  1.00  0.00     0.037 C 
ATOM      8  O   UNL A   1      30.855  24.907  26.881  1.00  0.00    -0.361 OA
ATOM      9  C   UNL A   1      32.884  25.399  25.727  1.00  0.00     0.047 C 
BRANCH   6  10
ATOM     10  C   UNL A   1      31.110  22.855  25.597  1.00  0.00     0.149 C 
BRANCH  10  11
ATOM     11  N   UNL A   1      31.401  21.443  25.716  1.00  0.00    -0.336 N 
ATOM     12  N   UNL A   1      33.318  21.050  24.390  1.00  0.00    -0.335 N 
ATOM     13  C   UNL A   1      32.344  20.644  25.210  1.00  0.00     0.315 C 
ATOM     14  H   UNL A   1      33.886  20.303  24.092  1.00  0.00     0.165 HD
ATOM     15  O   UNL A   1      32.307  19.451  25.518  1.00  0.00    -0.249 OA
ATOM     16  H   UNL A   1      30.765  20.967  26.296  1.00  0.00     0.165 HD
BRANCH  12  17
ATOM     17  C   UNL A   1      33.744  22.328  23.827  1.00  0.00     0.083 C 
BRANCH  17  18
ATOM     18  C   UNL A   1      35.277  22.364  23.737  1.00  0.00     0.021 C 
ATOM     19  C   UNL A   1      35.865  23.700  24.168  1.00  0.00     0.006 C 
ENDBRANCH  17  18
BRANCH  17  20
ATOM     20  C   UNL A   1      32.999  22.600  22.506  1.00  0.00     0.021 C 
ATOM     21  C   UNL A   1      33.166  24.004  21.941  1.00  0.00     0.006 C 
ENDBRANCH  17  20
ENDBRANCH  12  17
ENDBRANCH  10  11
ENDBRANCH   6  10
ENDBRANCH   3   5
ENDBRANCH   2   3
ENDBRANCH   1   2
BRANCH   1  22
ATOM     22  C   UNL A   1      31.923  30.544  25.858  1.00  0.00     0.275 C 
BRANCH  22  23
ATOM     23  O   UNL A   1      32.456  30.729  27.186  1.00  0.00    -0.458 OA
BRANCH  23  24
ATOM     24  C   UNL A   1      33.244  31.815  27.348  1.00  0.00     0.338 C 
ATOM     25  O   UNL A   1      32.937  32.986  27.177  1.00  0.00    -0.246 OA
BRANCH  24  26
ATOM     26  C   UNL A   1      34.544  31.427  27.919  1.00  0.00     0.060 A 
ATOM     27  C   UNL A   1      34.693  30.106  28.351  1.00  0.00     0.016 A 
ATOM     28  C   UNL A   1      35.568  32.355  28.117  1.00  0.00     0.016 A 
ATOM     29  C   UNL A   1      35.868  29.703  28.980  1.00  0.00     0.010 A 
ATOM     30  C   UNL A   1      36.746  31.952  28.757  1.00  0.00     0.010 A 
ATOM     31  C   UNL A   1      36.898  30.626  29.200  1.00  0.00    -0.014 A 
BRANCH  31  32
ATOM     32  C   UNL A   1      38.107  30.186  29.935  1.00  0.00     0.031 A 
ATOM     33  C   UNL A   1      38.336  30.633  31.349  1.00  0.00     0.074 A 
ATOM     34  C   UNL A   1      38.966  29.332  29.350  1.00  0.00     0.049 A 
ATOM     35  N   UNL A   1      39.312  30.328  32.167  1.00  0.00    -0.248 NA
ATOM     36  C   UNL A   1      37.329  31.538  31.922  1.00  0.00     0.031 C 
ATOM     37  C   UNL A   1      38.833  28.804  27.992  1.00  0.00     0.029 A 
ATOM     38  N   UNL A   1      40.112  28.749  29.828  1.00  0.00    -0.354 N 
ATOM     39  C   UNL A   1      39.043  31.007  33.347  1.00  0.00     0.074 A 
ATOM     40  C   UNL A   1      37.823  31.756  33.134  1.00  0.00     0.031 C 
ATOM     41  C   UNL A   1      39.854  27.965  27.749  1.00  0.00     0.029 A 
ATOM     42  C   UNL A   1      40.723  27.919  28.922  1.00  0.00     0.049 A 
ATOM     43  H   UNL A   1      40.462  28.911  30.733  1.00  0.00     0.167 HD
ATOM     44  C   UNL A   1      39.749  31.000  34.503  1.00  0.00     0.037 A 
ATOM     45  C   UNL A   1      41.861  27.206  29.027  1.00  0.00     0.037 A 
ATOM     46  C   UNL A   1      40.960  30.251  34.718  1.00  0.00     0.049 A 
ATOM     47  C   UNL A   1      42.642  27.244  30.312  1.00  0.00     0.074 A 
ATOM     48  C   UNL A   1      41.740  30.176  35.860  1.00  0.00     0.029 A 
ATOM     49  N   UNL A   1      41.570  29.448  33.766  1.00  0.00    -0.354 N 
ATOM     50  N   UNL A   1      42.374  27.882  31.425  1.00  0.00    -0.248 NA
ATOM     51  C   UNL A   1      43.883  26.458  30.353  1.00  0.00     0.031 C 
ATOM     52  C   UNL A   1      42.840  29.354  35.587  1.00  0.00     0.029 A 
ATOM     53  C   UNL A   1      42.725  28.888  34.288  1.00  0.00     0.049 A 
ATOM     54  H   UNL A   1      41.233  29.298  32.853  1.00  0.00     0.167 HD
ATOM     55  C   UNL A   1      43.403  27.568  32.301  1.00  0.00     0.074 A 
ATOM     56  C   UNL A   1      44.289  26.663  31.599  1.00  0.00     0.031 C 
ATOM     57  C   UNL A   1      43.601  27.996  33.572  1.00  0.00     0.037 A 
BRANCH  44  58
ATOM     58  C   UNL A   1      39.236  31.850  35.627  1.00  0.00     0.064 A 
ATOM     59  C   UNL A   1      38.354  31.340  36.591  1.00  0.00     0.173 A 
ATOM     60  C   UNL A   1      39.660  33.180  35.761  1.00  0.00     0.173 A 
ATOM     61  F   UNL A   1      37.908  30.078  36.497  1.00  0.00    -0.203 F 
ATOM     62  C   UNL A   1      37.899  32.138  37.637  1.00  0.00     0.198 A 
ATOM     63  C   UNL A   1      39.221  33.969  36.821  1.00  0.00     0.198 A 
ATOM     64  F   UNL A   1      40.506  33.714  34.867  1.00  0.00    -0.203 F 
ATOM     65  F   UNL A   1      37.028  31.643  38.527  1.00  0.00    -0.200 F 
ATOM     66  C   UNL A   1      38.339  33.449  37.755  1.00  0.00     0.200 A 
ATOM     67  F   UNL A   1      39.652  35.233  36.938  1.00  0.00    -0.200 F 
ATOM     68  F   UNL A   1      37.903  34.215  38.767  1.00  0.00    -0.200 F 
ENDBRANCH  44  58
BRANCH  45  69
ATOM     69  C   UNL A   1      42.330  26.395  27.877  1.00  0.00     0.064 A 
ATOM     70  C   UNL A   1      41.886  25.079  27.691  1.00  0.00     0.173 A 
ATOM     71  C   UNL A   1      43.239  26.918  26.944  1.00  0.00     0.173 A 
ATOM     72  F   UNL A   1      41.039  24.528  28.573  1.00  0.00    -0.203 F 
ATOM     73  C   UNL A   1      42.343  24.311  26.622  1.00  0.00     0.198 A 
ATOM     74  C   UNL A   1      43.675  26.157  25.862  1.00  0.00     0.198 A 
ATOM     75  F   UNL A   1      43.694  28.171  27.081  1.00  0.00    -0.203 F 
ATOM     76  F   UNL A   1      41.934  23.042  26.490  1.00  0.00    -0.200 F 
ATOM     77  C   UNL A   1      43.232  24.852  25.706  1.00  0.00     0.200 A 
ATOM     78  F   UNL A   1      44.527  26.687  24.975  1.00  0.00    -0.200 F 
ATOM     79  F   UNL A   1      43.669  24.114  24.676  1.00  0.00    -0.200 F 
ENDBRANCH  45  69
BRANCH  57  80
ATOM     80  C   UNL A   1      44.818  27.479  34.281  1.00  0.00     0.064 A 
ATOM     81  C   UNL A   1      46.038  28.170  34.235  1.00  0.00     0.173 A 
ATOM     82  C   UNL A   1      44.762  26.289  35.020  1.00  0.00     0.173 A 
ATOM     83  F   UNL A   1      46.145  29.305  33.528  1.00  0.00    -0.203 F 
ATOM     84  C   UNL A   1      47.167  27.670  34.880  1.00  0.00     0.198 A 
ATOM     85  C   UNL A   1      45.886  25.806  35.683  1.00  0.00     0.198 A 
ATOM     86  F   UNL A   1      43.617  25.594  35.098  1.00  0.00    -0.203 F 
ATOM     87  F   UNL A   1      48.335  28.320  34.781  1.00  0.00    -0.200 F 
ATOM     88  C   UNL A   1      47.090  26.491  35.606  1.00  0.00     0.200 A 
ATOM     89  F   UNL A   1      45.809  24.670  36.391  1.00  0.00    -0.200 F 
ATOM     90  F   UNL A   1      48.178  26.009  36.222  1.00  0.00    -0.200 F 
ENDBRANCH  57  80
ENDBRANCH  31  32
ENDBRANCH  24  26
ENDBRANCH  23  24
ENDBRANCH  22  23
ENDBRANCH   1  22
TORSDOF 16
ENDMDL
MODEL 2
REMARK VINA RESULT:     -10.7      4.601     10.112
REMARK SMILES CCC(CC)NC(=O)NC[C@H]1CC[C@H](C(=O)OCCOC(=O)c2ccc(-c3c4nc(c(-c5c(F)c(F)c(F)c(F)c5F)c5ccc([nH]5)c(-c5c(F)c(F)c(F)c(F)c5F)c5nc(c(-c6c(F)c(F)c(F)c(F)c6F)c6ccc3[nH]6)C=C5)C=C4)cc2)O1
REMARK SMILES IDX 18 1 17 2 15 3 16 4 14 5 11 6 12 7 86 8 13 9 10 10 9 11 6 12
REMARK SMILES IDX 7 13 8 15 3 17 2 18 1 19 4 20 5 21 19 22 20 23 21 24 22 25
REMARK SMILES IDX 23 26 24 27 85 28 25 29 84 30 26 31 27 32 28 33 78 34 29 35
REMARK SMILES IDX 83 36 77 37 79 38 30 39 82 40 76 41 75 42 31 44 63 45 43 46
REMARK SMILES IDX 62 47 44 48 47 49 61 50 80 51 45 52 46 53 60 55 81 56 48 57
REMARK SMILES IDX 32 58 33 59 41 60 34 61 35 62 39 63 42 64 36 65 37 66 40 67
REMARK SMILES IDX 38 68 64 69 65 70 73 71 66 72 67 73 71 74 74 75 68 76 69 77
REMARK SMILES IDX 72 78 70 79 49 80 50 81 58 82 51 83 52 84 56 85 59 86 53 87
REMARK SMILES IDX 54 88 57 89 55 90
REMARK H PARENT 6 14 9 16 79 43 47 54
REMARK Flexibility Score: inf
ROOT
ATOM      1  C   UNL A   1      37.666  19.843  24.837  1.00  0.00     0.274 C 
ENDROOT
BRANCH   1   2
ATOM      2  O   UNL A   1      37.190  21.129  25.277  1.00  0.00    -0.460 OA
BRANCH   2   3
ATOM      3  C   UNL A   1      36.483  21.845  24.361  1.00  0.00     0.335 C 
ATOM      4  O   UNL A   1      36.958  22.345  23.346  1.00  0.00    -0.249 OA
BRANCH   3   5
ATOM      5  C   UNL A   1      34.995  21.943  24.711  1.00  0.00     0.228 C 
ATOM      6  C   UNL A   1      33.586  22.480  26.474  1.00  0.00     0.138 C 
ATOM      7  C   UNL A   1      33.838  20.988  26.577  1.00  0.00     0.037 C 
ATOM      8  O   UNL A   1      34.680  22.960  25.670  1.00  0.00    -0.361 OA
ATOM      9  C   UNL A   1      34.362  20.642  25.204  1.00  0.00     0.047 C 
BRANCH   6  10
ATOM     10  C   UNL A   1      32.252  22.842  25.787  1.00  0.00     0.149 C 
BRANCH  10  11
ATOM     11  N   UNL A   1      31.092  22.636  26.626  1.00  0.00    -0.336 N 
ATOM     12  N   UNL A   1      29.848  24.643  26.540  1.00  0.00    -0.335 N 
ATOM     13  C   UNL A   1      30.044  23.392  26.964  1.00  0.00     0.315 C 
ATOM     14  H   UNL A   1      29.041  25.046  26.935  1.00  0.00     0.165 HD
ATOM     15  O   UNL A   1      29.206  22.901  27.724  1.00  0.00    -0.249 OA
ATOM     16  H   UNL A   1      31.070  21.742  27.040  1.00  0.00     0.165 HD
BRANCH  12  17
ATOM     17  C   UNL A   1      30.537  25.560  25.635  1.00  0.00     0.083 C 
BRANCH  17  18
ATOM     18  C   UNL A   1      29.521  26.183  24.665  1.00  0.00     0.021 C 
ATOM     19  C   UNL A   1      30.148  26.616  23.348  1.00  0.00     0.006 C 
ENDBRANCH  17  18
BRANCH  17  20
ATOM     20  C   UNL A   1      31.383  26.564  26.440  1.00  0.00     0.021 C 
ATOM     21  C   UNL A   1      32.884  26.489  26.202  1.00  0.00     0.006 C 
ENDBRANCH  17  20
ENDBRANCH  12  17
ENDBRANCH  10  11
ENDBRANCH   6  10
ENDBRANCH   3   5
ENDBRANCH   2   3
ENDBRANCH   1   2
BRANCH   1  22
ATOM     22  C   UNL A   1      38.955  19.444  25.563  1.00  0.00     0.275 C 
BRANCH  22  23
ATOM     23  O   UNL A   1      39.806  20.584  25.806  1.00  0.00    -0.458 OA
BRANCH  23  24
ATOM     24  C   UNL A   1      40.445  20.587  26.997  1.00  0.00     0.338 C 
ATOM     25  O   UNL A   1      40.770  19.617  27.666  1.00  0.00    -0.246 OA
BRANCH  24  26
ATOM     26  C   UNL A   1      40.857  21.953  27.356  1.00  0.00     0.060 A 
ATOM     27  C   UNL A   1      40.408  23.000  26.545  1.00  0.00     0.016 A 
ATOM     28  C   UNL A   1      41.741  22.203  28.407  1.00  0.00     0.016 A 
ATOM     29  C   UNL A   1      40.836  24.303  26.783  1.00  0.00     0.010 A 
ATOM     30  C   UNL A   1      42.178  23.514  28.640  1.00  0.00     0.010 A 
ATOM     31  C   UNL A   1      41.735  24.568  27.823  1.00  0.00    -0.014 A 
BRANCH  31  32
ATOM     32  C   UNL A   1      42.228  25.953  28.007  1.00  0.00     0.031 A 
ATOM     33  C   UNL A   1      43.539  26.374  27.410  1.00  0.00     0.074 A 
ATOM     34  C   UNL A   1      41.463  26.850  28.657  1.00  0.00     0.049 A 
ATOM     35  N   UNL A   1      44.121  27.547  27.433  1.00  0.00    -0.248 NA
ATOM     36  C   UNL A   1      44.293  25.340  26.687  1.00  0.00     0.031 C 
ATOM     37  C   UNL A   1      40.158  26.566  29.252  1.00  0.00     0.029 A 
ATOM     38  N   UNL A   1      41.670  28.181  28.912  1.00  0.00    -0.354 N 
ATOM     39  C   UNL A   1      45.311  27.392  26.734  1.00  0.00     0.074 A 
ATOM     40  C   UNL A   1      45.378  26.007  26.318  1.00  0.00     0.031 C 
ATOM     41  C   UNL A   1      39.674  27.695  29.796  1.00  0.00     0.029 A 
ATOM     42  C   UNL A   1      40.645  28.770  29.610  1.00  0.00     0.049 A 
ATOM     43  H   UNL A   1      42.475  28.668  28.623  1.00  0.00     0.167 HD
ATOM     44  C   UNL A   1      46.256  28.323  26.462  1.00  0.00     0.037 A 
ATOM     45  C   UNL A   1      40.510  30.034  30.053  1.00  0.00     0.037 A 
ATOM     46  C   UNL A   1      46.188  29.702  26.872  1.00  0.00     0.049 A 
ATOM     47  C   UNL A   1      41.592  31.039  29.766  1.00  0.00     0.074 A 
ATOM     48  C   UNL A   1      47.095  30.721  26.635  1.00  0.00     0.029 A 
ATOM     49  N   UNL A   1      45.151  30.255  27.608  1.00  0.00    -0.354 N 
ATOM     50  N   UNL A   1      42.708  30.884  29.097  1.00  0.00    -0.248 NA
ATOM     51  C   UNL A   1      41.390  32.395  30.295  1.00  0.00     0.031 C 
ATOM     52  C   UNL A   1      46.623  31.883  27.258  1.00  0.00     0.029 A 
ATOM     53  C   UNL A   1      45.404  31.597  27.850  1.00  0.00     0.049 A 
ATOM     54  H   UNL A   1      44.352  29.767  27.916  1.00  0.00     0.167 HD
ATOM     55  C   UNL A   1      43.336  32.121  29.114  1.00  0.00     0.074 A 
ATOM     56  C   UNL A   1      42.465  33.023  29.839  1.00  0.00     0.031 C 
ATOM     57  C   UNL A   1      44.531  32.478  28.582  1.00  0.00     0.037 A 
BRANCH  44  58
ATOM     58  C   UNL A   1      47.465  27.874  25.698  1.00  0.00     0.064 A 
ATOM     59  C   UNL A   1      47.453  27.773  24.298  1.00  0.00     0.173 A 
ATOM     60  C   UNL A   1      48.659  27.573  26.370  1.00  0.00     0.173 A 
ATOM     61  F   UNL A   1      46.331  28.035  23.612  1.00  0.00    -0.203 F 
ATOM     62  C   UNL A   1      48.590  27.368  23.602  1.00  0.00     0.198 A 
ATOM     63  C   UNL A   1      49.799  27.191  25.668  1.00  0.00     0.198 A 
ATOM     64  F   UNL A   1      48.721  27.657  27.707  1.00  0.00    -0.203 F 
ATOM     65  F   UNL A   1      48.548  27.243  22.268  1.00  0.00    -0.200 F 
ATOM     66  C   UNL A   1      49.762  27.085  24.287  1.00  0.00     0.200 A 
ATOM     67  F   UNL A   1      50.934  26.924  26.331  1.00  0.00    -0.200 F 
ATOM     68  F   UNL A   1      50.857  26.699  23.614  1.00  0.00    -0.200 F 
ENDBRANCH  44  58
BRANCH  45  69
ATOM     69  C   UNL A   1      39.299  30.420  30.820  1.00  0.00     0.064 A 
ATOM     70  C   UNL A   1      38.186  30.978  30.179  1.00  0.00     0.173 A 
ATOM     71  C   UNL A   1      39.236  30.245  32.211  1.00  0.00     0.173 A 
ATOM     72  F   UNL A   1      38.212  31.190  28.855  1.00  0.00    -0.203 F 
ATOM     73  C   UNL A   1      37.057  31.360  30.903  1.00  0.00     0.198 A 
ATOM     74  C   UNL A   1      38.098  30.603  32.929  1.00  0.00     0.198 A 
ATOM     75  F   UNL A   1      40.278  29.717  32.869  1.00  0.00    -0.203 F 
ATOM     76  F   UNL A   1      36.021  31.929  30.272  1.00  0.00    -0.200 F 
ATOM     77  C   UNL A   1      37.012  31.166  32.275  1.00  0.00     0.200 A 
ATOM     78  F   UNL A   1      38.056  30.407  34.254  1.00  0.00    -0.200 F 
ATOM     79  F   UNL A   1      35.925  31.530  32.970  1.00  0.00    -0.200 F 
ENDBRANCH  45  69
BRANCH  57  80
ATOM     80  C   UNL A   1      44.955  33.906  28.760  1.00  0.00     0.064 A 
ATOM     81  C   UNL A   1      45.733  34.305  29.857  1.00  0.00     0.173 A 
ATOM     82  C   UNL A   1      44.588  34.882  27.822  1.00  0.00     0.173 A 
ATOM     83  F   UNL A   1      46.095  33.411  30.790  1.00  0.00    -0.203 F 
ATOM     84  C   UNL A   1      46.103  35.637  30.023  1.00  0.00     0.198 A 
ATOM     85  C   UNL A   1      44.981  36.208  27.980  1.00  0.00     0.198 A 
ATOM     86  F   UNL A   1      43.849  34.549  26.754  1.00  0.00    -0.203 F 
ATOM     87  F   UNL A   1      46.803  36.006  31.106  1.00  0.00    -0.200 F 
ATOM     88  C   UNL A   1      45.731  36.587  29.083  1.00  0.00     0.200 A 
ATOM     89  F   UNL A   1      44.628  37.123  27.066  1.00  0.00    -0.200 F 
ATOM     90  F   UNL A   1      46.084  37.869  29.248  1.00  0.00    -0.200 F 
ENDBRANCH  57  80
ENDBRANCH  31  32
ENDBRANCH  24  26
ENDBRANCH  23  24
ENDBRANCH  22  23
ENDBRANCH   1  22
TORSDOF 16
ENDMDL
MODEL 3
REMARK VINA RESULT:     -10.6      1.286      2.738
REMARK SMILES CCC(CC)NC(=O)NC[C@H]1CC[C@H](C(=O)OCCOC(=O)c2ccc(-c3c4nc(c(-c5c(F)c(F)c(F)c(F)c5F)c5ccc([nH]5)c(-c5c(F)c(F)c(F)c(F)c5F)c5nc(c(-c6c(F)c(F)c(F)c(F)c6F)c6ccc3[nH]6)C=C5)C=C4)cc2)O1
REMARK SMILES IDX 18 1 17 2 15 3 16 4 14 5 11 6 12 7 86 8 13 9 10 10 9 11 6 12
REMARK SMILES IDX 7 13 8 15 3 17 2 18 1 19 4 20 5 21 19 22 20 23 21 24 22 25
REMARK SMILES IDX 23 26 24 27 85 28 25 29 84 30 26 31 27 32 28 33 78 34 29 35
REMARK SMILES IDX 83 36 77 37 79 38 30 39 82 40 76 41 75 42 31 44 63 45 43 46
REMARK SMILES IDX 62 47 44 48 47 49 61 50 80 51 45 52 46 53 60 55 81 56 48 57
REMARK SMILES IDX 32 58 33 59 41 60 34 61 35 62 39 63 42 64 36 65 37 66 40 67
REMARK SMILES IDX 38 68 64 69 65 70 73 71 66 72 67 73 71 74 74 75 68 76 69 77
REMARK SMILES IDX 72 78 70 79 49 80 50 81 58 82 51 83 52 84 56 85 59 86 53 87
REMARK SMILES IDX 54 88 57 89 55 90
REMARK H PARENT 6 14 9 16 79 43 47 54
REMARK Flexibility Score: inf
ROOT
ATOM      1  C   UNL A   1      31.691  29.262  24.965  1.00  0.00     0.274 C 
ENDROOT
BRANCH   1   2
ATOM      2  O   UNL A   1      30.604  29.275  24.020  1.00  0.00    -0.460 OA
BRANCH   2   3
ATOM      3  C   UNL A   1      30.596  28.263  23.111  1.00  0.00     0.335 C 
ATOM      4  O   UNL A   1      30.076  28.323  22.001  1.00  0.00    -0.249 OA
BRANCH   3   5
ATOM      5  C   UNL A   1      31.345  27.021  23.606  1.00  0.00     0.228 C 
ATOM      6  C   UNL A   1      32.291  25.053  22.823  1.00  0.00     0.138 C 
ATOM      7  C   UNL A   1      30.854  24.718  23.175  1.00  0.00     0.037 C 
ATOM      8  O   UNL A   1      32.282  26.485  22.664  1.00  0.00    -0.361 OA
ATOM      9  C   UNL A   1      30.451  25.869  24.064  1.00  0.00     0.047 C 
BRANCH   6  10
ATOM     10  C   UNL A   1      33.309  24.668  23.917  1.00  0.00     0.149 C 
BRANCH  10  11
ATOM     11  N   UNL A   1      34.570  24.190  23.395  1.00  0.00    -0.336 N 
ATOM     12  N   UNL A   1      34.825  21.982  24.201  1.00  0.00    -0.335 N 
ATOM     13  C   UNL A   1      35.242  23.040  23.499  1.00  0.00     0.315 C 
ATOM     14  H   UNL A   1      35.480  21.249  24.190  1.00  0.00     0.165 HD
ATOM     15  O   UNL A   1      36.323  22.954  22.913  1.00  0.00    -0.249 OA
ATOM     16  H   UNL A   1      35.035  24.857  22.840  1.00  0.00     0.165 HD
BRANCH  12  17
ATOM     17  C   UNL A   1      33.634  21.649  24.980  1.00  0.00     0.083 C 
BRANCH  17  18
ATOM     18  C   UNL A   1      32.828  20.566  24.248  1.00  0.00     0.021 C 
ATOM     19  C   UNL A   1      32.153  21.081  22.985  1.00  0.00     0.006 C 
ENDBRANCH  17  18
BRANCH  17  20
ATOM     20  C   UNL A   1      34.028  21.312  26.430  1.00  0.00     0.021 C 
ATOM     21  C   UNL A   1      34.026  22.488  27.396  1.00  0.00     0.006 C 
ENDBRANCH  17  20
ENDBRANCH  12  17
ENDBRANCH  10  11
ENDBRANCH   6  10
ENDBRANCH   3   5
ENDBRANCH   2   3
ENDBRANCH   1   2
BRANCH   1  22
ATOM     22  C   UNL A   1      31.751  30.566  25.768  1.00  0.00     0.275 C 
BRANCH  22  23
ATOM     23  O   UNL A   1      32.592  30.439  26.933  1.00  0.00    -0.458 OA
BRANCH  23  24
ATOM     24  C   UNL A   1      33.289  31.548  27.268  1.00  0.00     0.338 C 
ATOM     25  O   UNL A   1      32.894  32.704  27.252  1.00  0.00    -0.246 OA
BRANCH  24  26
ATOM     26  C   UNL A   1      34.603  31.182  27.820  1.00  0.00     0.060 A 
ATOM     27  C   UNL A   1      34.780  29.866  28.256  1.00  0.00     0.016 A 
ATOM     28  C   UNL A   1      35.616  32.127  27.997  1.00  0.00     0.016 A 
ATOM     29  C   UNL A   1      35.971  29.484  28.868  1.00  0.00     0.010 A 
ATOM     30  C   UNL A   1      36.811  31.744  28.620  1.00  0.00     0.010 A 
ATOM     31  C   UNL A   1      36.990  30.424  29.067  1.00  0.00    -0.014 A 
BRANCH  31  32
ATOM     32  C   UNL A   1      38.217  30.006  29.784  1.00  0.00     0.031 A 
ATOM     33  C   UNL A   1      38.480  30.494  31.178  1.00  0.00     0.074 A 
ATOM     34  C   UNL A   1      39.062  29.134  29.203  1.00  0.00     0.049 A 
ATOM     35  N   UNL A   1      39.477  30.213  31.980  1.00  0.00    -0.248 NA
ATOM     36  C   UNL A   1      37.488  31.415  31.749  1.00  0.00     0.031 C 
ATOM     37  C   UNL A   1      38.896  28.567  27.865  1.00  0.00     0.029 A 
ATOM     38  N   UNL A   1      40.220  28.567  29.669  1.00  0.00    -0.354 N 
ATOM     39  C   UNL A   1      39.237  30.927  33.146  1.00  0.00     0.074 A 
ATOM     40  C   UNL A   1      38.011  31.669  32.941  1.00  0.00     0.031 C 
ATOM     41  C   UNL A   1      39.911  27.722  27.622  1.00  0.00     0.029 A 
ATOM     42  C   UNL A   1      40.810  27.710  28.774  1.00  0.00     0.049 A 
ATOM     43  H   UNL A   1      40.592  28.755  30.561  1.00  0.00     0.167 HD
ATOM     44  C   UNL A   1      39.971  30.954  34.284  1.00  0.00     0.037 A 
ATOM     45  C   UNL A   1      41.950  27.001  28.871  1.00  0.00     0.037 A 
ATOM     46  C   UNL A   1      41.188  30.212  34.490  1.00  0.00     0.049 A 
ATOM     47  C   UNL A   1      42.763  27.077  30.134  1.00  0.00     0.074 A 
ATOM     48  C   UNL A   1      41.996  30.170  35.615  1.00  0.00     0.029 A 
ATOM     49  N   UNL A   1      41.775  29.381  33.548  1.00  0.00    -0.354 N 
ATOM     50  N   UNL A   1      42.522  27.747  31.234  1.00  0.00    -0.248 NA
ATOM     51  C   UNL A   1      44.006  26.293  30.168  1.00  0.00     0.031 C 
ATOM     52  C   UNL A   1      43.090  29.341  35.339  1.00  0.00     0.029 A 
ATOM     53  C   UNL A   1      42.943  28.837  34.057  1.00  0.00     0.049 A 
ATOM     54  H   UNL A   1      41.415  29.205  32.648  1.00  0.00     0.167 HD
ATOM     55  C   UNL A   1      43.573  27.460  32.093  1.00  0.00     0.074 A 
ATOM     56  C   UNL A   1      44.442  26.534  31.396  1.00  0.00     0.031 C 
ATOM     57  C   UNL A   1      43.802  27.925  33.346  1.00  0.00     0.037 A 
BRANCH  44  58
ATOM     58  C   UNL A   1      39.486  31.837  35.395  1.00  0.00     0.064 A 
ATOM     59  C   UNL A   1      39.897  33.174  35.503  1.00  0.00     0.173 A 
ATOM     60  C   UNL A   1      38.574  31.350  36.342  1.00  0.00     0.173 A 
ATOM     61  F   UNL A   1      40.780  33.681  34.631  1.00  0.00    -0.203 F 
ATOM     62  C   UNL A   1      39.425  33.985  36.533  1.00  0.00     0.198 A 
ATOM     63  C   UNL A   1      38.087  32.170  37.356  1.00  0.00     0.198 A 
ATOM     64  F   UNL A   1      38.148  30.079  36.279  1.00  0.00    -0.203 F 
ATOM     65  F   UNL A   1      39.858  35.249  36.640  1.00  0.00    -0.200 F 
ATOM     66  C   UNL A   1      38.516  33.484  37.453  1.00  0.00     0.200 A 
ATOM     67  F   UNL A   1      37.203  31.687  38.241  1.00  0.00    -0.200 F 
ATOM     68  F   UNL A   1      38.060  34.268  38.441  1.00  0.00    -0.200 F 
ENDBRANCH  44  58
BRANCH  45  69
ATOM     69  C   UNL A   1      42.391  26.156  27.734  1.00  0.00     0.064 A 
ATOM     70  C   UNL A   1      43.346  26.619  26.819  1.00  0.00     0.173 A 
ATOM     71  C   UNL A   1      41.861  24.872  27.535  1.00  0.00     0.173 A 
ATOM     72  F   UNL A   1      43.861  27.850  26.953  1.00  0.00    -0.203 F 
ATOM     73  C   UNL A   1      43.745  25.833  25.739  1.00  0.00     0.198 A 
ATOM     74  C   UNL A   1      42.279  24.079  26.470  1.00  0.00     0.198 A 
ATOM     75  F   UNL A   1      40.942  24.388  28.383  1.00  0.00    -0.203 F 
ATOM     76  F   UNL A   1      44.630  26.314  24.855  1.00  0.00    -0.200 F 
ATOM     77  C   UNL A   1      43.216  24.563  25.569  1.00  0.00     0.200 A 
ATOM     78  F   UNL A   1      41.771  22.849  26.314  1.00  0.00    -0.200 F 
ATOM     79  F   UNL A   1      43.603  23.807  24.532  1.00  0.00    -0.200 F 
ENDBRANCH  45  69
BRANCH  57  80
ATOM     80  C   UNL A   1      45.036  27.429  34.040  1.00  0.00     0.064 A 
ATOM     81  C   UNL A   1      45.020  26.256  34.810  1.00  0.00     0.173 A 
ATOM     82  C   UNL A   1      46.248  28.125  33.925  1.00  0.00     0.173 A 
ATOM     83  F   UNL A   1      43.881  25.565  34.962  1.00  0.00    -0.203 F 
ATOM     84  C   UNL A   1      46.167  25.817  35.466  1.00  0.00     0.198 A 
ATOM     85  C   UNL A   1      47.398  27.668  34.563  1.00  0.00     0.198 A 
ATOM     86  F   UNL A   1      46.316  29.249  33.196  1.00  0.00    -0.203 F 
ATOM     87  F   UNL A   1      46.116  24.722  36.239  1.00  0.00    -0.200 F 
ATOM     88  C   UNL A   1      47.355  26.520  35.339  1.00  0.00     0.200 A 
ATOM     89  F   UNL A   1      48.548  28.344  34.433  1.00  0.00    -0.200 F 
ATOM     90  F   UNL A   1      48.457  26.097  35.975  1.00  0.00    -0.200 F 
ENDBRANCH  57  80
ENDBRANCH  31  32
ENDBRANCH  24  26
ENDBRANCH  23  24
ENDBRANCH  22  23
ENDBRANCH   1  22
TORSDOF 16
ENDMDL
