MODEL 1
REMARK VINA RESULT:     -11.9      0.000      0.000
REMARK SMILES CC(C)(C)N(CC(=O)OCCOC(=O)c1ccc(-c2c3nc(c(-c4c(F)c(F)c(F)c(F)c4F)c4ccc([nH]4)c(-c4c(F)c(F)c(F)c(F)c4F)c4nc(c(-c5c(F)c(F)c(F)c(F)c5F)c5ccc2[nH]5)C=C4)C=C3)cc1)C(=O)Nc1ccc([N+](=O)[O-])cc1
REMARK SMILES IDX 10 1 9 2 7 3 8 4 6 5 5 6 2 7 1 8 3 9 4 10 78 11 79 12 80 13
REMARK SMILES IDX 81 15 82 16 89 17 83 18 88 19 84 20 85 21 86 22 87 23 11 24
REMARK SMILES IDX 12 25 13 26 14 27 15 28 16 29 77 30 17 31 76 32 18 33 19 34
REMARK SMILES IDX 20 35 70 36 21 37 75 38 69 39 71 40 22 41 74 42 68 43 67 44
REMARK SMILES IDX 23 46 55 47 35 48 54 49 36 50 39 51 53 52 72 53 37 54 38 55
REMARK SMILES IDX 52 57 73 58 40 59 24 60 25 61 33 62 26 63 27 64 31 65 34 66
REMARK SMILES IDX 28 67 29 68 32 69 30 70 56 71 57 72 65 73 58 74 59 75 63 76
REMARK SMILES IDX 66 77 60 78 61 79 64 80 62 81 41 82 42 83 50 84 43 85 44 86
REMARK SMILES IDX 48 87 51 88 45 89 46 90 49 91 47 92
REMARK H PARENT 80 14 71 45 39 56
REMARK Flexibility Score: inf
ROOT
ATOM      1  C   UNL A   1      31.656  29.177  25.676  1.00  0.00     0.274 C 
ENDROOT
BRANCH   1   2
ATOM      2  O   UNL A   1      32.411  28.138  26.409  1.00  0.00    -0.461 OA
BRANCH   2   3
ATOM      3  C   UNL A   1      31.837  26.882  26.502  1.00  0.00     0.325 C 
ATOM      4  O   UNL A   1      30.659  26.701  26.800  1.00  0.00    -0.250 OA
BRANCH   3   5
ATOM      5  C   UNL A   1      32.688  25.755  25.797  1.00  0.00     0.244 C 
BRANCH   5   6
ATOM      6  N   UNL A   1      32.237  25.200  24.514  1.00  0.00    -0.309 N 
BRANCH   6   7
ATOM      7  C   UNL A   1      33.209  25.424  23.363  1.00  0.00     0.037 C 
ATOM      8  C   UNL A   1      32.607  25.138  21.950  1.00  0.00     0.034 C 
ATOM      9  C   UNL A   1      34.418  24.485  23.503  1.00  0.00     0.034 C 
ATOM     10  C   UNL A   1      33.641  26.910  23.289  1.00  0.00     0.034 C 
ENDBRANCH   6   7
BRANCH   6  11
ATOM     11  C   UNL A   1      31.052  24.523  24.234  1.00  0.00     0.322 C 
ATOM     12  O   UNL A   1      31.010  23.285  24.268  1.00  0.00    -0.248 OA
ATOM     13  N   UNL A   1      29.818  25.059  24.032  1.00  0.00    -0.308 N 
ATOM     14  H   UNL A   1      29.120  24.380  24.180  1.00  0.00     0.171 HD
BRANCH  13  15
ATOM     15  C   UNL A   1      29.243  26.277  23.680  1.00  0.00     0.043 A 
ATOM     16  C   UNL A   1      27.509  26.672  23.975  1.00  0.00     0.033 A 
ATOM     17  C   UNL A   1      30.178  27.535  22.919  1.00  0.00     0.033 A 
ATOM     18  C   UNL A   1      26.871  28.530  23.461  1.00  0.00     0.088 A 
ATOM     19  C   UNL A   1      29.629  29.156  22.458  1.00  0.00     0.088 A 
ATOM     20  C   UNL A   1      28.017  29.666  22.717  1.00  0.00     0.269 A 
BRANCH  20  21
ATOM     21  N   UNL A   1      27.683  31.058  22.550  1.00  0.00     0.062 N 
ATOM     22  O   UNL A   1      27.306  31.672  23.553  1.00  0.00    -0.258 OA
ATOM     23  O   UNL A   1      27.848  31.542  21.425  1.00  0.00    -0.258 OA
ENDBRANCH  20  21
ENDBRANCH  13  15
ENDBRANCH   6  11
ENDBRANCH   5   6
ENDBRANCH   3   5
ENDBRANCH   2   3
ENDBRANCH   1   2
BRANCH   1  24
ATOM     24  C   UNL A   1      31.491  30.499  26.512  1.00  0.00     0.275 C 
BRANCH  24  25
ATOM     25  O   UNL A   1      32.522  31.482  26.166  1.00  0.00    -0.458 OA
BRANCH  25  26
ATOM     26  C   UNL A   1      32.787  32.481  27.066  1.00  0.00     0.338 C 
ATOM     27  O   UNL A   1      31.978  33.375  27.296  1.00  0.00    -0.246 OA
BRANCH  26  28
ATOM     28  C   UNL A   1      34.175  32.408  27.942  1.00  0.00     0.060 A 
ATOM     29  C   UNL A   1      35.866  33.510  28.241  1.00  0.00     0.016 A 
ATOM     30  C   UNL A   1      34.292  30.649  28.370  1.00  0.00     0.016 A 
ATOM     31  C   UNL A   1      37.344  32.718  28.826  1.00  0.00     0.010 A 
ATOM     32  C   UNL A   1      35.817  30.018  29.001  1.00  0.00     0.010 A 
ATOM     33  C   UNL A   1      37.275  31.017  29.230  1.00  0.00    -0.014 A 
BRANCH  33  34
ATOM     34  C   UNL A   1      38.445  30.513  29.996  1.00  0.00     0.031 A 
ATOM     35  C   UNL A   1      38.635  30.893  31.428  1.00  0.00     0.074 A 
ATOM     36  C   UNL A   1      39.297  29.671  29.369  1.00  0.00     0.049 A 
ATOM     37  N   UNL A   1      39.608  30.569  32.240  1.00  0.00    -0.248 NA
ATOM     38  C   UNL A   1      37.618  31.765  32.030  1.00  0.00     0.031 C 
ATOM     39  C   UNL A   1      39.219  29.270  27.958  1.00  0.00     0.029 A 
ATOM     40  N   UNL A   1      40.381  28.964  29.825  1.00  0.00    -0.354 N 
ATOM     41  C   UNL A   1      39.334  31.216  33.435  1.00  0.00     0.074 A 
ATOM     42  C   UNL A   1      38.121  31.978  33.238  1.00  0.00     0.031 C 
ATOM     43  C   UNL A   1      40.120  28.319  27.698  1.00  0.00     0.029 A 
ATOM     44  C   UNL A   1      40.939  28.134  28.878  1.00  0.00     0.049 A 
ATOM     45  H   UNL A   1      40.725  29.043  30.745  1.00  0.00     0.167 HD
ATOM     46  C   UNL A   1      40.038  31.165  34.591  1.00  0.00     0.037 A 
ATOM     47  C   UNL A   1      42.022  27.338  28.935  1.00  0.00     0.037 A 
ATOM     48  C   UNL A   1      41.240  30.385  34.748  1.00  0.00     0.049 A 
ATOM     49  C   UNL A   1      42.785  27.320  30.223  1.00  0.00     0.074 A 
ATOM     50  C   UNL A   1      42.060  30.270  35.855  1.00  0.00     0.029 A 
ATOM     51  N   UNL A   1      41.789  29.577  33.758  1.00  0.00    -0.354 N 
ATOM     52  N   UNL A   1      42.526  27.958  31.340  1.00  0.00    -0.248 NA
ATOM     53  C   UNL A   1      43.991  26.491  30.262  1.00  0.00     0.031 C 
ATOM     54  C   UNL A   1      43.125  29.423  35.522  1.00  0.00     0.029 A 
ATOM     55  C   UNL A   1      42.940  28.966  34.227  1.00  0.00     0.049 A 
ATOM     56  H   UNL A   1      41.414  29.458  32.856  1.00  0.00     0.167 HD
ATOM     57  C   UNL A   1      43.535  27.607  32.218  1.00  0.00     0.074 A 
ATOM     58  C   UNL A   1      44.383  26.662  31.515  1.00  0.00     0.031 C 
ATOM     59  C   UNL A   1      43.754  28.034  33.486  1.00  0.00     0.037 A 
BRANCH  46  60
ATOM     60  C   UNL A   1      39.542  31.985  35.746  1.00  0.00     0.064 A 
ATOM     61  C   UNL A   1      38.551  31.512  36.621  1.00  0.00     0.173 A 
ATOM     62  C   UNL A   1      40.071  33.262  35.993  1.00  0.00     0.173 A 
ATOM     63  F   UNL A   1      37.994  30.307  36.420  1.00  0.00    -0.203 F 
ATOM     64  C   UNL A   1      38.093  32.292  37.682  1.00  0.00     0.198 A 
ATOM     65  C   UNL A   1      39.631  34.028  37.072  1.00  0.00     0.198 A 
ATOM     66  F   UNL A   1      41.016  33.770  35.189  1.00  0.00    -0.203 F 
ATOM     67  F   UNL A   1      37.111  31.835  38.471  1.00  0.00    -0.200 F 
ATOM     68  C   UNL A   1      38.638  33.545  37.911  1.00  0.00     0.200 A 
ATOM     69  F   UNL A   1      40.165  35.236  37.296  1.00  0.00    -0.200 F 
ATOM     70  F   UNL A   1      38.200  34.293  38.933  1.00  0.00    -0.200 F 
ENDBRANCH  46  60
BRANCH  47  71
ATOM     71  C   UNL A   1      42.450  26.544  27.747  1.00  0.00     0.064 A 
ATOM     72  C   UNL A   1      43.433  27.020  26.869  1.00  0.00     0.173 A 
ATOM     73  C   UNL A   1      41.890  25.287  27.465  1.00  0.00     0.173 A 
ATOM     74  F   UNL A   1      43.994  28.221  27.079  1.00  0.00    -0.203 F 
ATOM     75  C   UNL A   1      43.823  26.284  25.750  1.00  0.00     0.198 A 
ATOM     76  C   UNL A   1      42.311  24.532  26.370  1.00  0.00     0.198 A 
ATOM     77  F   UNL A   1      40.948  24.774  28.269  1.00  0.00    -0.203 F 
ATOM     78  F   UNL A   1      44.728  26.791  24.900  1.00  0.00    -0.200 F 
ATOM     79  C   UNL A   1      43.269  25.037  25.506  1.00  0.00     0.200 A 
ATOM     80  F   UNL A   1      41.788  23.318  26.155  1.00  0.00    -0.200 F 
ATOM     81  F   UNL A   1      43.651  24.327  24.436  1.00  0.00    -0.200 F 
ENDBRANCH  47  71
BRANCH  59  82
ATOM     82  C   UNL A   1      44.945  27.444  34.177  1.00  0.00     0.064 A 
ATOM     83  C   UNL A   1      44.853  26.248  34.904  1.00  0.00     0.173 A 
ATOM     84  C   UNL A   1      46.184  28.097  34.124  1.00  0.00     0.173 A 
ATOM     85  F   UNL A   1      43.681  25.603  35.000  1.00  0.00    -0.203 F 
ATOM     86  C   UNL A   1      45.953  25.750  35.594  1.00  0.00     0.198 A 
ATOM     87  C   UNL A   1      47.291  27.575  34.785  1.00  0.00     0.198 A 
ATOM     88  F   UNL A   1      46.318  29.241  33.438  1.00  0.00    -0.203 F 
ATOM     89  F   UNL A   1      45.827  24.648  36.346  1.00  0.00    -0.200 F 
ATOM     90  C   UNL A   1      47.171  26.411  35.530  1.00  0.00     0.200 A 
ATOM     91  F   UNL A   1      48.469  28.208  34.713  1.00  0.00    -0.200 F 
ATOM     92  F   UNL A   1      48.228  25.934  36.200  1.00  0.00    -0.200 F 
ENDBRANCH  59  82
ENDBRANCH  33  34
ENDBRANCH  26  28
ENDBRANCH  25  26
ENDBRANCH  24  25
ENDBRANCH   1  24
TORSDOF 16
ENDMDL
MODEL 2
REMARK VINA RESULT:     -11.8      8.071     16.500
REMARK SMILES CC(C)(C)N(CC(=O)OCCOC(=O)c1ccc(-c2c3nc(c(-c4c(F)c(F)c(F)c(F)c4F)c4ccc([nH]4)c(-c4c(F)c(F)c(F)c(F)c4F)c4nc(c(-c5c(F)c(F)c(F)c(F)c5F)c5ccc2[nH]5)C=C4)C=C3)cc1)C(=O)Nc1ccc([N+](=O)[O-])cc1
REMARK SMILES IDX 10 1 9 2 7 3 8 4 6 5 5 6 2 7 1 8 3 9 4 10 78 11 79 12 80 13
REMARK SMILES IDX 81 15 82 16 89 17 83 18 88 19 84 20 85 21 86 22 87 23 11 24
REMARK SMILES IDX 12 25 13 26 14 27 15 28 16 29 77 30 17 31 76 32 18 33 19 34
REMARK SMILES IDX 20 35 70 36 21 37 75 38 69 39 71 40 22 41 74 42 68 43 67 44
REMARK SMILES IDX 23 46 55 47 35 48 54 49 36 50 39 51 53 52 72 53 37 54 38 55
REMARK SMILES IDX 52 57 73 58 40 59 24 60 25 61 33 62 26 63 27 64 31 65 34 66
REMARK SMILES IDX 28 67 29 68 32 69 30 70 56 71 57 72 65 73 58 74 59 75 63 76
REMARK SMILES IDX 66 77 60 78 61 79 64 80 62 81 41 82 42 83 50 84 43 85 44 86
REMARK SMILES IDX 48 87 51 88 45 89 46 90 49 91 47 92
REMARK H PARENT 80 14 71 45 39 56
REMARK Flexibility Score: inf
ROOT
ATOM      1  C   UNL A   1      48.032  21.030  37.272  1.00  0.00     0.274 C 
ENDROOT
BRANCH   1   2
ATOM      2  O   UNL A   1      47.985  21.178  38.743  1.00  0.00    -0.461 OA
BRANCH   2   3
ATOM      3  C   UNL A   1      46.813  20.812  39.381  1.00  0.00     0.325 C 
ATOM      4  O   UNL A   1      45.815  21.527  39.415  1.00  0.00    -0.250 OA
BRANCH   3   5
ATOM      5  C   UNL A   1      46.728  19.266  39.687  1.00  0.00     0.244 C 
BRANCH   5   6
ATOM      6  N   UNL A   1      46.459  18.811  41.058  1.00  0.00    -0.309 N 
BRANCH   6   7
ATOM      7  C   UNL A   1      47.482  17.820  41.597  1.00  0.00     0.037 C 
ATOM      8  C   UNL A   1      47.030  16.326  41.523  1.00  0.00     0.034 C 
ATOM      9  C   UNL A   1      47.760  18.102  43.082  1.00  0.00     0.034 C 
ATOM     10  C   UNL A   1      48.781  17.856  40.753  1.00  0.00     0.034 C 
ENDBRANCH   6   7
BRANCH   6  11
ATOM     11  C   UNL A   1      45.401  19.161  41.893  1.00  0.00     0.322 C 
ATOM     12  O   UNL A   1      45.385  20.260  42.465  1.00  0.00    -0.248 OA
ATOM     13  N   UNL A   1      44.241  18.478  42.093  1.00  0.00    -0.308 N 
ATOM     14  H   UNL A   1      43.547  19.077  42.453  1.00  0.00     0.171 HD
BRANCH  13  15
ATOM     15  C   UNL A   1      43.738  17.188  41.943  1.00  0.00     0.043 A 
ATOM     16  C   UNL A   1      43.734  15.970  43.271  1.00  0.00     0.033 A 
ATOM     17  C   UNL A   1      43.058  16.650  40.432  1.00  0.00     0.033 A 
ATOM     18  C   UNL A   1      42.889  14.165  42.884  1.00  0.00     0.088 A 
ATOM     19  C   UNL A   1      42.326  15.075  40.081  1.00  0.00     0.088 A 
ATOM     20  C   UNL A   1      42.229  13.844  41.265  1.00  0.00     0.269 A 
BRANCH  20  21
ATOM     21  N   UNL A   1      41.418  12.682  41.009  1.00  0.00     0.062 N 
ATOM     22  O   UNL A   1      41.546  12.135  39.909  1.00  0.00    -0.258 OA
ATOM     23  O   UNL A   1      40.692  12.292  41.930  1.00  0.00    -0.258 OA
ENDBRANCH  20  21
ENDBRANCH  13  15
ENDBRANCH   6  11
ENDBRANCH   5   6
ENDBRANCH   3   5
ENDBRANCH   2   3
ENDBRANCH   1   2
BRANCH   1  24
ATOM     24  C   UNL A   1      47.357  22.239  36.527  1.00  0.00     0.275 C 
BRANCH  24  25
ATOM     25  O   UNL A   1      48.231  23.416  36.516  1.00  0.00    -0.458 OA
BRANCH  25  26
ATOM     26  C   UNL A   1      47.704  24.614  36.923  1.00  0.00     0.338 C 
ATOM     27  O   UNL A   1      47.892  25.053  38.053  1.00  0.00    -0.246 OA
BRANCH  26  28
ATOM     28  C   UNL A   1      46.899  25.536  35.826  1.00  0.00     0.060 A 
ATOM     29  C   UNL A   1      47.160  27.275  34.791  1.00  0.00     0.016 A 
ATOM     30  C   UNL A   1      45.185  24.968  35.999  1.00  0.00     0.016 A 
ATOM     31  C   UNL A   1      45.746  28.159  34.181  1.00  0.00     0.010 A 
ATOM     32  C   UNL A   1      43.886  25.928  35.282  1.00  0.00     0.010 A 
ATOM     33  C   UNL A   1      44.160  27.452  34.400  1.00  0.00    -0.014 A 
BRANCH  33  34
ATOM     34  C   UNL A   1      43.082  28.087  33.599  1.00  0.00     0.031 A 
ATOM     35  C   UNL A   1      42.880  27.714  32.167  1.00  0.00     0.074 A 
ATOM     36  C   UNL A   1      42.269  28.971  34.220  1.00  0.00     0.049 A 
ATOM     37  N   UNL A   1      42.009  28.184  31.312  1.00  0.00    -0.248 NA
ATOM     38  C   UNL A   1      43.781  26.698  31.605  1.00  0.00     0.031 C 
ATOM     39  C   UNL A   1      42.409  29.431  35.608  1.00  0.00     0.029 A 
ATOM     40  N   UNL A   1      41.141  29.626  33.796  1.00  0.00    -0.354 N 
ATOM     41  C   UNL A   1      42.273  27.543  30.112  1.00  0.00     0.074 A 
ATOM     42  C   UNL A   1      43.405  26.671  30.335  1.00  0.00     0.031 C 
ATOM     43  C   UNL A   1      41.362  30.186  35.951  1.00  0.00     0.029 A 
ATOM     44  C   UNL A   1      40.541  30.386  34.775  1.00  0.00     0.049 A 
ATOM     45  H   UNL A   1      40.794  29.558  32.877  1.00  0.00     0.167 HD
ATOM     46  C   UNL A   1      41.615  27.673  28.935  1.00  0.00     0.037 A 
ATOM     47  C   UNL A   1      39.467  31.195  34.727  1.00  0.00     0.037 A 
ATOM     48  C   UNL A   1      40.484  28.548  28.756  1.00  0.00     0.049 A 
ATOM     49  C   UNL A   1      38.776  31.327  33.405  1.00  0.00     0.074 A 
ATOM     50  C   UNL A   1      39.748  28.792  27.611  1.00  0.00     0.029 A 
ATOM     51  N   UNL A   1      39.920  29.321  29.766  1.00  0.00    -0.354 N 
ATOM     52  N   UNL A   1      39.053  30.730  32.270  1.00  0.00    -0.248 NA
ATOM     53  C   UNL A   1      37.639  32.248  33.347  1.00  0.00     0.031 C 
ATOM     54  C   UNL A   1      38.766  29.740  27.919  1.00  0.00     0.029 A 
ATOM     55  C   UNL A   1      38.851  30.047  29.268  1.00  0.00     0.049 A 
ATOM     56  H   UNL A   1      40.236  29.348  30.697  1.00  0.00     0.167 HD
ATOM     57  C   UNL A   1      38.124  31.200  31.359  1.00  0.00     0.074 A 
ATOM     58  C   UNL A   1      37.247  32.096  32.091  1.00  0.00     0.031 C 
ATOM     59  C   UNL A   1      38.009  30.930  30.036  1.00  0.00     0.037 A 
BRANCH  46  60
ATOM     60  C   UNL A   1      42.118  26.878  27.763  1.00  0.00     0.064 A 
ATOM     61  C   UNL A   1      43.097  27.381  26.892  1.00  0.00     0.173 A 
ATOM     62  C   UNL A   1      41.624  25.589  27.512  1.00  0.00     0.173 A 
ATOM     63  F   UNL A   1      43.590  28.617  27.072  1.00  0.00    -0.203 F 
ATOM     64  C   UNL A   1      43.544  26.635  25.803  1.00  0.00     0.198 A 
ATOM     65  C   UNL A   1      42.093  24.834  26.438  1.00  0.00     0.198 A 
ATOM     66  F   UNL A   1      40.684  25.057  28.307  1.00  0.00    -0.203 F 
ATOM     67  F   UNL A   1      44.442  27.160  24.957  1.00  0.00    -0.200 F 
ATOM     68  C   UNL A   1      43.047  25.361  25.580  1.00  0.00     0.200 A 
ATOM     69  F   UNL A   1      41.618  23.599  26.230  1.00  0.00    -0.200 F 
ATOM     70  F   UNL A   1      43.480  24.643  24.535  1.00  0.00    -0.200 F 
ENDBRANCH  46  60
BRANCH  47  71
ATOM     71  C   UNL A   1      39.021  31.946  35.935  1.00  0.00     0.064 A 
ATOM     72  C   UNL A   1      38.165  31.363  36.880  1.00  0.00     0.173 A 
ATOM     73  C   UNL A   1      39.444  33.264  36.178  1.00  0.00     0.173 A 
ATOM     74  F   UNL A   1      37.716  30.112  36.695  1.00  0.00    -0.203 F 
ATOM     75  C   UNL A   1      37.736  32.070  38.004  1.00  0.00     0.198 A 
ATOM     76  C   UNL A   1      39.049  33.955  37.323  1.00  0.00     0.198 A 
ATOM     77  F   UNL A   1      40.267  33.876  35.315  1.00  0.00    -0.203 F 
ATOM     78  F   UNL A   1      36.876  31.503  38.861  1.00  0.00    -0.200 F 
ATOM     79  C   UNL A   1      38.185  33.362  38.229  1.00  0.00     0.200 A 
ATOM     80  F   UNL A   1      39.507  35.195  37.546  1.00  0.00    -0.200 F 
ATOM     81  F   UNL A   1      37.780  34.037  39.314  1.00  0.00    -0.200 F 
ENDBRANCH  47  71
BRANCH  59  82
ATOM     82  C   UNL A   1      36.872  31.602  29.329  1.00  0.00     0.064 A 
ATOM     83  C   UNL A   1      36.894  32.975  29.044  1.00  0.00     0.173 A 
ATOM     84  C   UNL A   1      35.743  30.862  28.952  1.00  0.00     0.173 A 
ATOM     85  F   UNL A   1      37.945  33.724  29.408  1.00  0.00    -0.203 F 
ATOM     86  C   UNL A   1      35.801  33.593  28.446  1.00  0.00     0.198 A 
ATOM     87  C   UNL A   1      34.667  31.478  28.321  1.00  0.00     0.198 A 
ATOM     88  F   UNL A   1      35.681  29.546  29.202  1.00  0.00    -0.203 F 
ATOM     89  F   UNL A   1      35.808  34.920  28.252  1.00  0.00    -0.200 F 
ATOM     90  C   UNL A   1      34.692  32.844  28.082  1.00  0.00     0.200 A 
ATOM     91  F   UNL A   1      33.602  30.751  27.959  1.00  0.00    -0.200 F 
ATOM     92  F   UNL A   1      33.637  33.443  27.512  1.00  0.00    -0.200 F 
ENDBRANCH  59  82
ENDBRANCH  33  34
ENDBRANCH  26  28
ENDBRANCH  25  26
ENDBRANCH  24  25
ENDBRANCH   1  24
TORSDOF 16
ENDMDL
MODEL 3
REMARK VINA RESULT:     -11.5      0.372      7.471
REMARK SMILES CC(C)(C)N(CC(=O)OCCOC(=O)c1ccc(-c2c3nc(c(-c4c(F)c(F)c(F)c(F)c4F)c4ccc([nH]4)c(-c4c(F)c(F)c(F)c(F)c4F)c4nc(c(-c5c(F)c(F)c(F)c(F)c5F)c5ccc2[nH]5)C=C4)C=C3)cc1)C(=O)Nc1ccc([N+](=O)[O-])cc1
REMARK SMILES IDX 10 1 9 2 7 3 8 4 6 5 5 6 2 7 1 8 3 9 4 10 78 11 79 12 80 13
REMARK SMILES IDX 81 15 82 16 89 17 83 18 88 19 84 20 85 21 86 22 87 23 11 24
REMARK SMILES IDX 12 25 13 26 14 27 15 28 16 29 77 30 17 31 76 32 18 33 19 34
REMARK SMILES IDX 20 35 70 36 21 37 75 38 69 39 71 40 22 41 74 42 68 43 67 44
REMARK SMILES IDX 23 46 55 47 35 48 54 49 36 50 39 51 53 52 72 53 37 54 38 55
REMARK SMILES IDX 52 57 73 58 40 59 24 60 25 61 33 62 26 63 27 64 31 65 34 66
REMARK SMILES IDX 28 67 29 68 32 69 30 70 56 71 57 72 65 73 58 74 59 75 63 76
REMARK SMILES IDX 66 77 60 78 61 79 64 80 62 81 41 82 42 83 50 84 43 85 44 86
REMARK SMILES IDX 48 87 51 88 45 89 46 90 49 91 47 92
REMARK H PARENT 80 14 71 45 39 56
REMARK Flexibility Score: inf
ROOT
ATOM      1  C   UNL A   1      31.588  29.002  25.717  1.00  0.00     0.274 C 
ENDROOT
BRANCH   1   2
ATOM      2  O   UNL A   1      32.390  27.983  26.428  1.00  0.00    -0.461 OA
BRANCH   2   3
ATOM      3  C   UNL A   1      31.833  26.724  26.575  1.00  0.00     0.325 C 
ATOM      4  O   UNL A   1      30.656  26.541  26.877  1.00  0.00    -0.250 OA
BRANCH   3   5
ATOM      5  C   UNL A   1      32.703  25.580  25.924  1.00  0.00     0.244 C 
BRANCH   5   6
ATOM      6  N   UNL A   1      32.299  25.006  24.633  1.00  0.00    -0.309 N 
BRANCH   6   7
ATOM      7  C   UNL A   1      33.347  25.143  23.537  1.00  0.00     0.037 C 
ATOM      8  C   UNL A   1      32.924  24.526  22.165  1.00  0.00     0.034 C 
ATOM      9  C   UNL A   1      34.637  24.415  23.945  1.00  0.00     0.034 C 
ATOM     10  C   UNL A   1      33.608  26.634  23.209  1.00  0.00     0.034 C 
ENDBRANCH   6   7
BRANCH   6  11
ATOM     11  C   UNL A   1      31.099  24.381  24.303  1.00  0.00     0.322 C 
ATOM     12  O   UNL A   1      30.996  23.146  24.353  1.00  0.00    -0.248 OA
ATOM     13  N   UNL A   1      29.904  24.970  24.030  1.00  0.00    -0.308 N 
ATOM     14  H   UNL A   1      29.167  24.327  24.152  1.00  0.00     0.171 HD
BRANCH  13  15
ATOM     15  C   UNL A   1      29.406  26.208  23.631  1.00  0.00     0.043 A 
ATOM     16  C   UNL A   1      27.691  26.707  23.876  1.00  0.00     0.033 A 
ATOM     17  C   UNL A   1      30.426  27.388  22.855  1.00  0.00     0.033 A 
ATOM     18  C   UNL A   1      27.170  28.582  23.295  1.00  0.00     0.088 A 
ATOM     19  C   UNL A   1      29.979  29.022  22.336  1.00  0.00     0.088 A 
ATOM     20  C   UNL A   1      28.394  29.630  22.544  1.00  0.00     0.269 A 
BRANCH  20  21
ATOM     21  N   UNL A   1      28.142  31.032  22.330  1.00  0.00     0.062 N 
ATOM     22  O   UNL A   1      28.196  31.772  23.317  1.00  0.00    -0.258 OA
ATOM     23  O   UNL A   1      27.942  31.393  21.165  1.00  0.00    -0.258 OA
ENDBRANCH  20  21
ENDBRANCH  13  15
ENDBRANCH   6  11
ENDBRANCH   5   6
ENDBRANCH   3   5
ENDBRANCH   2   3
ENDBRANCH   1   2
BRANCH   1  24
ATOM     24  C   UNL A   1      31.439  30.331  26.546  1.00  0.00     0.275 C 
BRANCH  24  25
ATOM     25  O   UNL A   1      32.418  31.336  26.124  1.00  0.00    -0.458 OA
BRANCH  25  26
ATOM     26  C   UNL A   1      32.710  32.355  26.994  1.00  0.00     0.338 C 
ATOM     27  O   UNL A   1      31.934  33.287  27.181  1.00  0.00    -0.246 OA
BRANCH  26  28
ATOM     28  C   UNL A   1      34.082  32.258  27.892  1.00  0.00     0.060 A 
ATOM     29  C   UNL A   1      35.811  33.303  28.180  1.00  0.00     0.016 A 
ATOM     30  C   UNL A   1      34.125  30.511  28.380  1.00  0.00     0.016 A 
ATOM     31  C   UNL A   1      37.248  32.475  28.814  1.00  0.00     0.010 A 
ATOM     32  C   UNL A   1      35.616  29.843  29.054  1.00  0.00     0.010 A 
ATOM     33  C   UNL A   1      37.108  30.792  29.272  1.00  0.00    -0.014 A 
BRANCH  33  34
ATOM     34  C   UNL A   1      38.247  30.270  30.072  1.00  0.00     0.031 A 
ATOM     35  C   UNL A   1      39.245  29.346  29.458  1.00  0.00     0.074 A 
ATOM     36  C   UNL A   1      38.370  30.695  31.350  1.00  0.00     0.049 A 
ATOM     37  N   UNL A   1      40.283  28.774  30.011  1.00  0.00    -0.248 NA
ATOM     38  C   UNL A   1      39.052  28.995  28.043  1.00  0.00     0.031 C 
ATOM     39  C   UNL A   1      37.423  31.569  32.055  1.00  0.00     0.029 A 
ATOM     40  N   UNL A   1      39.349  30.489  32.288  1.00  0.00    -0.354 N 
ATOM     41  C   UNL A   1      40.848  27.980  29.025  1.00  0.00     0.074 A 
ATOM     42  C   UNL A   1      40.023  28.115  27.845  1.00  0.00     0.031 C 
ATOM     43  C   UNL A   1      37.914  31.913  33.249  1.00  0.00     0.029 A 
ATOM     44  C   UNL A   1      39.144  31.180  33.463  1.00  0.00     0.049 A 
ATOM     45  H   UNL A   1      40.126  29.904  32.135  1.00  0.00     0.167 HD
ATOM     46  C   UNL A   1      41.962  27.214  29.108  1.00  0.00     0.037 A 
ATOM     47  C   UNL A   1      39.847  31.192  34.610  1.00  0.00     0.037 A 
ATOM     48  C   UNL A   1      42.762  27.113  30.302  1.00  0.00     0.049 A 
ATOM     49  C   UNL A   1      41.062  30.320  34.671  1.00  0.00     0.074 A 
ATOM     50  C   UNL A   1      43.896  26.353  30.526  1.00  0.00     0.029 A 
ATOM     51  N   UNL A   1      42.509  27.808  31.481  1.00  0.00    -0.354 N 
ATOM     52  N   UNL A   1      41.572  29.554  33.735  1.00  0.00    -0.248 NA
ATOM     53  C   UNL A   1      41.794  30.299  35.939  1.00  0.00     0.031 C 
ATOM     54  C   UNL A   1      44.304  26.559  31.849  1.00  0.00     0.029 A 
ATOM     55  C   UNL A   1      43.460  27.489  32.435  1.00  0.00     0.049 A 
ATOM     56  H   UNL A   1      41.762  28.434  31.615  1.00  0.00     0.167 HD
ATOM     57  C   UNL A   1      42.686  28.959  34.298  1.00  0.00     0.074 A 
ATOM     58  C   UNL A   1      42.802  29.493  35.643  1.00  0.00     0.031 C 
ATOM     59  C   UNL A   1      43.531  28.044  33.764  1.00  0.00     0.037 A 
BRANCH  46  60
ATOM     60  C   UNL A   1      42.355  26.420  27.895  1.00  0.00     0.064 A 
ATOM     61  C   UNL A   1      41.793  25.164  27.617  1.00  0.00     0.173 A 
ATOM     62  C   UNL A   1      43.299  26.925  26.987  1.00  0.00     0.173 A 
ATOM     63  F   UNL A   1      40.901  24.623  28.462  1.00  0.00    -0.203 F 
ATOM     64  C   UNL A   1      42.178  24.435  26.494  1.00  0.00     0.198 A 
ATOM     65  C   UNL A   1      43.660  26.206  25.849  1.00  0.00     0.198 A 
ATOM     66  F   UNL A   1      43.874  28.118  27.202  1.00  0.00    -0.203 F 
ATOM     67  F   UNL A   1      41.663  23.216  26.281  1.00  0.00    -0.200 F 
ATOM     68  C   UNL A   1      43.105  24.959  25.607  1.00  0.00     0.200 A 
ATOM     69  F   UNL A   1      44.551  26.718  24.989  1.00  0.00    -0.200 F 
ATOM     70  F   UNL A   1      43.471  24.258  24.525  1.00  0.00    -0.200 F 
ENDBRANCH  46  60
BRANCH  47  71
ATOM     71  C   UNL A   1      39.399  32.014  35.771  1.00  0.00     0.064 A 
ATOM     72  C   UNL A   1      38.419  31.548  36.659  1.00  0.00     0.173 A 
ATOM     73  C   UNL A   1      39.946  33.283  36.025  1.00  0.00     0.173 A 
ATOM     74  F   UNL A   1      37.850  30.349  36.459  1.00  0.00    -0.203 F 
ATOM     75  C   UNL A   1      37.991  32.323  37.737  1.00  0.00     0.198 A 
ATOM     76  C   UNL A   1      39.548  34.039  37.128  1.00  0.00     0.198 A 
ATOM     77  F   UNL A   1      40.891  33.783  35.216  1.00  0.00    -0.203 F 
ATOM     78  F   UNL A   1      37.014  31.871  38.536  1.00  0.00    -0.200 F 
ATOM     79  C   UNL A   1      38.561  33.563  37.976  1.00  0.00     0.200 A 
ATOM     80  F   UNL A   1      40.121  35.226  37.366  1.00  0.00    -0.200 F 
ATOM     81  F   UNL A   1      38.156  34.302  39.017  1.00  0.00    -0.200 F 
ENDBRANCH  47  71
BRANCH  59  82
ATOM     82  C   UNL A   1      44.661  27.605  34.645  1.00  0.00     0.064 A 
ATOM     83  C   UNL A   1      45.896  28.269  34.640  1.00  0.00     0.173 A 
ATOM     84  C   UNL A   1      44.505  26.496  35.487  1.00  0.00     0.173 A 
ATOM     85  F   UNL A   1      46.094  29.322  33.832  1.00  0.00    -0.203 F 
ATOM     86  C   UNL A   1      46.954  27.807  35.416  1.00  0.00     0.198 A 
ATOM     87  C   UNL A   1      45.554  26.060  36.289  1.00  0.00     0.198 A 
ATOM     88  F   UNL A   1      43.340  25.833  35.526  1.00  0.00    -0.203 F 
ATOM     89  F   UNL A   1      48.149  28.408  35.340  1.00  0.00    -0.200 F 
ATOM     90  C   UNL A   1      46.780  26.707  36.242  1.00  0.00     0.200 A 
ATOM     91  F   UNL A   1      45.383  25.004  37.095  1.00  0.00    -0.200 F 
ATOM     92  F   UNL A   1      47.802  26.259  36.984  1.00  0.00    -0.200 F 
ENDBRANCH  59  82
ENDBRANCH  33  34
ENDBRANCH  26  28
ENDBRANCH  25  26
ENDBRANCH  24  25
ENDBRANCH   1  24
TORSDOF 16
ENDMDL
