MODEL 1
REMARK VINA RESULT:     -12.6      0.000      0.000
REMARK SMILES Cc1cccc(Nc2nc(C)c(CCO)c(OCC(=O)OCCOC(=O)c3ccc(-c4c5nc(c(-c6c(F)c(F)c(F)c(F)c6F)c6ccc([nH]6)c(-c6c(F)c(F)c(F)c(F)c6F)c6nc(c(-c7c(F)c(F)c(F)c(F)c7F)c7ccc4[nH]7)C=C6)C=C5)cc3)n2)c1
REMARK SMILES IDX 21 1 19 2 20 3 18 4 17 5 16 6 8 7 9 8 90 9 10 10 11 11 12 12
REMARK SMILES IDX 7 13 6 15 1 16 2 17 3 18 91 19 4 20 5 21 13 22 14 23 15 24
REMARK SMILES IDX 22 26 23 27 24 28 25 29 26 30 27 31 28 32 89 33 29 34 88 35
REMARK SMILES IDX 30 36 31 37 32 38 82 39 33 40 87 41 81 42 83 43 34 44 86 45
REMARK SMILES IDX 80 46 79 47 35 49 67 50 47 51 66 52 48 53 51 54 65 55 84 56
REMARK SMILES IDX 49 57 50 58 64 60 85 61 52 62 36 63 37 64 45 65 38 66 39 67
REMARK SMILES IDX 43 68 46 69 40 70 41 71 44 72 42 73 68 74 69 75 77 76 70 77
REMARK SMILES IDX 71 78 75 79 78 80 72 81 73 82 76 83 74 84 53 85 54 86 62 87
REMARK SMILES IDX 55 88 56 89 60 90 63 91 57 92 58 93 61 94 59 95
REMARK H PARENT 7 14 15 25 83 48 51 59
REMARK Flexibility Score: inf
ROOT
ATOM      1  O   UNL A   1      32.571  27.214  26.176  1.00  0.00    -0.460 OA
ENDROOT
BRANCH   1   2
ATOM      2  C   UNL A   1      31.486  26.876  25.424  1.00  0.00     0.344 C 
ATOM      3  O   UNL A   1      30.985  27.609  24.575  1.00  0.00    -0.248 OA
BRANCH   2   4
ATOM      4  C   UNL A   1      30.954  25.476  25.734  1.00  0.00     0.353 C 
BRANCH   4   5
ATOM      5  O   UNL A   1      30.686  24.602  24.635  1.00  0.00    -0.465 OA
BRANCH   5   6
ATOM      6  C   UNL A   1      31.626  23.605  24.467  1.00  0.00     0.222 A 
ATOM      7  C   UNL A   1      32.487  21.623  25.153  1.00  0.00     0.230 A 
ATOM      8  N   UNL A   1      33.654  21.868  24.560  1.00  0.00    -0.218 NA
ATOM      9  N   UNL A   1      31.517  22.529  25.255  1.00  0.00    -0.177 NA
ATOM     10  C   UNL A   1      33.712  22.943  23.744  1.00  0.00     0.050 A 
ATOM     11  C   UNL A   1      35.038  23.148  23.072  1.00  0.00     0.067 C 
ATOM     12  C   UNL A   1      32.612  23.759  23.510  1.00  0.00     0.038 A 
BRANCH   7  13
ATOM     13  N   UNL A   1      32.234  20.292  25.478  1.00  0.00    -0.324 N 
ATOM     14  H   UNL A   1      31.742  20.109  26.310  1.00  0.00     0.170 HD
BRANCH  13  15
ATOM     15  C   UNL A   1      32.635  19.184  24.693  1.00  0.00     0.041 A 
ATOM     16  C   UNL A   1      34.811  16.078  25.130  1.00  0.00     0.044 C 
ATOM     17  C   UNL A   1      33.916  17.111  24.517  1.00  0.00    -0.049 A 
ATOM     18  C   UNL A   1      33.545  16.994  23.173  1.00  0.00     0.003 A 
ATOM     19  C   UNL A   1      33.444  18.197  25.271  1.00  0.00     0.029 A 
ATOM     20  C   UNL A   1      32.709  17.942  22.594  1.00  0.00     0.002 A 
ATOM     21  C   UNL A   1      32.250  19.019  23.353  1.00  0.00     0.026 A 
ENDBRANCH  13  15
ENDBRANCH   7  13
BRANCH  12  22
ATOM     22  C   UNL A   1      32.596  24.732  22.361  1.00  0.00     0.071 C 
BRANCH  22  23
ATOM     23  C   UNL A   1      33.452  26.014  22.386  1.00  0.00     0.161 C 
BRANCH  23  24
ATOM     24  O   UNL A   1      33.556  26.735  21.174  1.00  0.00    -0.396 OA
ATOM     25  H   UNL A   1      34.406  26.537  20.751  1.00  0.00     0.210 HD
ENDBRANCH  23  24
ENDBRANCH  22  23
ENDBRANCH  12  22
ENDBRANCH   5   6
ENDBRANCH   4   5
ENDBRANCH   2   4
ENDBRANCH   1   2
BRANCH   1  26
ATOM     26  C   UNL A   1      32.421  28.428  26.913  1.00  0.00     0.274 C 
BRANCH  26  27
ATOM     27  C   UNL A   1      33.573  29.405  26.640  1.00  0.00     0.275 C 
BRANCH  27  28
ATOM     28  O   UNL A   1      34.901  29.158  27.199  1.00  0.00    -0.458 OA
BRANCH  28  29
ATOM     29  C   UNL A   1      35.831  30.005  27.676  1.00  0.00     0.338 C 
ATOM     30  O   UNL A   1      35.645  31.221  27.774  1.00  0.00    -0.246 OA
BRANCH  29  31
ATOM     31  C   UNL A   1      37.121  29.458  28.062  1.00  0.00     0.060 A 
ATOM     32  C   UNL A   1      38.237  29.620  27.221  1.00  0.00     0.016 A 
ATOM     33  C   UNL A   1      37.219  28.807  29.280  1.00  0.00     0.016 A 
ATOM     34  C   UNL A   1      39.485  29.180  27.600  1.00  0.00     0.010 A 
ATOM     35  C   UNL A   1      38.469  28.475  29.720  1.00  0.00     0.010 A 
ATOM     36  C   UNL A   1      39.572  28.600  28.848  1.00  0.00    -0.014 A 
BRANCH  36  37
ATOM     37  C   UNL A   1      40.709  27.815  29.253  1.00  0.00     0.031 A 
ATOM     38  C   UNL A   1      40.897  26.451  28.765  1.00  0.00     0.074 A 
ATOM     39  C   UNL A   1      41.643  28.623  29.793  1.00  0.00     0.049 A 
ATOM     40  N   UNL A   1      41.846  25.680  29.157  1.00  0.00    -0.248 NA
ATOM     41  C   UNL A   1      39.999  25.806  27.815  1.00  0.00     0.031 C 
ATOM     42  C   UNL A   1      43.086  28.536  29.764  1.00  0.00     0.029 A 
ATOM     43  N   UNL A   1      41.381  29.798  30.523  1.00  0.00    -0.354 N 
ATOM     44  C   UNL A   1      41.930  24.656  28.236  1.00  0.00     0.074 A 
ATOM     45  C   UNL A   1      40.668  24.679  27.542  1.00  0.00     0.031 C 
ATOM     46  C   UNL A   1      43.583  29.422  30.650  1.00  0.00     0.029 A 
ATOM     47  C   UNL A   1      42.453  29.953  31.406  1.00  0.00     0.049 A 
ATOM     48  H   UNL A   1      40.601  30.391  30.429  1.00  0.00     0.167 HD
ATOM     49  C   UNL A   1      43.154  24.081  28.040  1.00  0.00     0.037 A 
ATOM     50  C   UNL A   1      42.218  29.715  32.732  1.00  0.00     0.037 A 
ATOM     51  C   UNL A   1      44.121  24.667  28.977  1.00  0.00     0.049 A 
ATOM     52  C   UNL A   1      42.974  28.491  33.185  1.00  0.00     0.074 A 
ATOM     53  C   UNL A   1      45.065  25.670  28.821  1.00  0.00     0.029 A 
ATOM     54  N   UNL A   1      43.922  24.526  30.348  1.00  0.00    -0.354 N 
ATOM     55  N   UNL A   1      43.192  27.439  32.441  1.00  0.00    -0.248 NA
ATOM     56  C   UNL A   1      43.645  28.432  34.474  1.00  0.00     0.031 C 
ATOM     57  C   UNL A   1      45.391  26.170  30.109  1.00  0.00     0.029 A 
ATOM     58  C   UNL A   1      44.644  25.477  31.047  1.00  0.00     0.049 A 
ATOM     59  H   UNL A   1      43.346  23.843  30.764  1.00  0.00     0.167 HD
ATOM     60  C   UNL A   1      44.094  26.626  33.078  1.00  0.00     0.074 A 
ATOM     61  C   UNL A   1      44.324  27.279  34.356  1.00  0.00     0.031 C 
ATOM     62  C   UNL A   1      44.632  25.508  32.502  1.00  0.00     0.037 A 
BRANCH  49  63
ATOM     63  C   UNL A   1      43.566  23.281  26.815  1.00  0.00     0.064 A 
ATOM     64  C   UNL A   1      43.156  21.934  26.670  1.00  0.00     0.173 A 
ATOM     65  C   UNL A   1      44.387  23.749  25.771  1.00  0.00     0.173 A 
ATOM     66  F   UNL A   1      42.299  21.364  27.527  1.00  0.00    -0.203 F 
ATOM     67  C   UNL A   1      43.604  21.109  25.634  1.00  0.00     0.198 A 
ATOM     68  C   UNL A   1      44.862  22.915  24.748  1.00  0.00     0.198 A 
ATOM     69  F   UNL A   1      44.717  25.039  25.663  1.00  0.00    -0.203 F 
ATOM     70  F   UNL A   1      43.186  19.836  25.570  1.00  0.00    -0.200 F 
ATOM     71  C   UNL A   1      44.478  21.592  24.685  1.00  0.00     0.200 A 
ATOM     72  F   UNL A   1      45.690  23.410  23.818  1.00  0.00    -0.200 F 
ATOM     73  F   UNL A   1      44.921  20.798  23.702  1.00  0.00    -0.200 F 
ENDBRANCH  49  63
BRANCH  50  74
ATOM     74  C   UNL A   1      40.828  30.102  33.146  1.00  0.00     0.064 A 
ATOM     75  C   UNL A   1      40.504  31.477  33.162  1.00  0.00     0.173 A 
ATOM     76  C   UNL A   1      39.756  29.198  33.107  1.00  0.00     0.173 A 
ATOM     77  F   UNL A   1      41.487  32.392  33.193  1.00  0.00    -0.203 F 
ATOM     78  C   UNL A   1      39.190  31.924  33.015  1.00  0.00     0.198 A 
ATOM     79  C   UNL A   1      38.438  29.652  32.968  1.00  0.00     0.198 A 
ATOM     80  F   UNL A   1      39.979  27.877  33.091  1.00  0.00    -0.203 F 
ATOM     81  F   UNL A   1      38.937  33.237  32.916  1.00  0.00    -0.200 F 
ATOM     82  C   UNL A   1      38.160  31.010  32.889  1.00  0.00     0.200 A 
ATOM     83  F   UNL A   1      37.437  28.771  32.824  1.00  0.00    -0.200 F 
ATOM     84  F   UNL A   1      36.908  31.429  32.655  1.00  0.00    -0.200 F 
ENDBRANCH  50  74
BRANCH  62  85
ATOM     85  C   UNL A   1      45.322  24.383  33.241  1.00  0.00     0.064 A 
ATOM     86  C   UNL A   1      46.605  24.487  33.798  1.00  0.00     0.173 A 
ATOM     87  C   UNL A   1      44.620  23.192  33.564  1.00  0.00     0.173 A 
ATOM     88  F   UNL A   1      47.327  25.611  33.699  1.00  0.00    -0.203 F 
ATOM     89  C   UNL A   1      47.175  23.455  34.544  1.00  0.00     0.198 A 
ATOM     90  C   UNL A   1      45.161  22.201  34.378  1.00  0.00     0.198 A 
ATOM     91  F   UNL A   1      43.370  22.961  33.137  1.00  0.00    -0.203 F 
ATOM     92  F   UNL A   1      48.429  23.586  34.998  1.00  0.00    -0.200 F 
ATOM     93  C   UNL A   1      46.449  22.321  34.849  1.00  0.00     0.200 A 
ATOM     94  F   UNL A   1      44.413  21.143  34.722  1.00  0.00    -0.200 F 
ATOM     95  F   UNL A   1      46.980  21.360  35.615  1.00  0.00    -0.200 F 
ENDBRANCH  62  85
ENDBRANCH  36  37
ENDBRANCH  29  31
ENDBRANCH  28  29
ENDBRANCH  27  28
ENDBRANCH  26  27
ENDBRANCH   1  26
TORSDOF 18
ENDMDL
MODEL 2
REMARK VINA RESULT:     -12.5      2.154      4.156
REMARK SMILES Cc1cccc(Nc2nc(C)c(CCO)c(OCC(=O)OCCOC(=O)c3ccc(-c4c5nc(c(-c6c(F)c(F)c(F)c(F)c6F)c6ccc([nH]6)c(-c6c(F)c(F)c(F)c(F)c6F)c6nc(c(-c7c(F)c(F)c(F)c(F)c7F)c7ccc4[nH]7)C=C6)C=C5)cc3)n2)c1
REMARK SMILES IDX 21 1 19 2 20 3 18 4 17 5 16 6 8 7 9 8 90 9 10 10 11 11 12 12
REMARK SMILES IDX 7 13 6 15 1 16 2 17 3 18 91 19 4 20 5 21 13 22 14 23 15 24
REMARK SMILES IDX 22 26 23 27 24 28 25 29 26 30 27 31 28 32 89 33 29 34 88 35
REMARK SMILES IDX 30 36 31 37 32 38 82 39 33 40 87 41 81 42 83 43 34 44 86 45
REMARK SMILES IDX 80 46 79 47 35 49 67 50 47 51 66 52 48 53 51 54 65 55 84 56
REMARK SMILES IDX 49 57 50 58 64 60 85 61 52 62 36 63 37 64 45 65 38 66 39 67
REMARK SMILES IDX 43 68 46 69 40 70 41 71 44 72 42 73 68 74 69 75 77 76 70 77
REMARK SMILES IDX 71 78 75 79 78 80 72 81 73 82 76 83 74 84 53 85 54 86 62 87
REMARK SMILES IDX 55 88 56 89 60 90 63 91 57 92 58 93 61 94 59 95
REMARK H PARENT 7 14 15 25 83 48 51 59
REMARK Flexibility Score: inf
ROOT
ATOM      1  O   UNL A   1      32.783  28.610  26.900  1.00  0.00    -0.460 OA
ENDROOT
BRANCH   1   2
ATOM      2  C   UNL A   1      31.843  27.735  27.354  1.00  0.00     0.344 C 
ATOM      3  O   UNL A   1      31.049  27.989  28.255  1.00  0.00    -0.248 OA
BRANCH   2   4
ATOM      4  C   UNL A   1      31.866  26.394  26.617  1.00  0.00     0.353 C 
BRANCH   4   5
ATOM      5  O   UNL A   1      33.015  26.084  25.826  1.00  0.00    -0.465 OA
BRANCH   5   6
ATOM      6  C   UNL A   1      32.775  26.071  24.466  1.00  0.00     0.222 A 
ATOM      7  C   UNL A   1      31.596  26.873  22.704  1.00  0.00     0.230 A 
ATOM      8  N   UNL A   1      31.884  25.805  21.961  1.00  0.00    -0.218 NA
ATOM      9  N   UNL A   1      31.893  26.962  23.998  1.00  0.00    -0.177 NA
ATOM     10  C   UNL A   1      32.806  24.950  22.453  1.00  0.00     0.050 A 
ATOM     11  C   UNL A   1      33.122  23.788  21.558  1.00  0.00     0.067 C 
ATOM     12  C   UNL A   1      33.445  25.163  23.668  1.00  0.00     0.038 A 
BRANCH   7  13
ATOM     13  N   UNL A   1      31.155  27.998  22.010  1.00  0.00    -0.324 N 
ATOM     14  H   UNL A   1      31.723  28.341  21.283  1.00  0.00     0.170 HD
BRANCH  13  15
ATOM     15  C   UNL A   1      29.945  28.683  22.279  1.00  0.00     0.041 A 
ATOM     16  C   UNL A   1      28.561  32.212  21.827  1.00  0.00     0.044 C 
ATOM     17  C   UNL A   1      28.669  30.765  22.199  1.00  0.00    -0.049 A 
ATOM     18  C   UNL A   1      27.603  30.138  22.854  1.00  0.00     0.003 A 
ATOM     19  C   UNL A   1      29.825  30.027  21.901  1.00  0.00     0.029 A 
ATOM     20  C   UNL A   1      27.688  28.795  23.198  1.00  0.00     0.002 A 
ATOM     21  C   UNL A   1      28.845  28.073  22.901  1.00  0.00     0.026 A 
ENDBRANCH  13  15
ENDBRANCH   7  13
BRANCH  12  22
ATOM     22  C   UNL A   1      34.689  24.399  24.037  1.00  0.00     0.071 C 
BRANCH  22  23
ATOM     23  C   UNL A   1      34.621  23.145  24.934  1.00  0.00     0.161 C 
BRANCH  23  24
ATOM     24  O   UNL A   1      35.199  23.250  26.221  1.00  0.00    -0.396 OA
ATOM     25  H   UNL A   1      34.532  23.039  26.892  1.00  0.00     0.210 HD
ENDBRANCH  23  24
ENDBRANCH  22  23
ENDBRANCH  12  22
ENDBRANCH   5   6
ENDBRANCH   4   5
ENDBRANCH   2   4
ENDBRANCH   1   2
BRANCH   1  26
ATOM     26  C   UNL A   1      32.361  29.974  26.887  1.00  0.00     0.274 C 
BRANCH  26  27
ATOM     27  C   UNL A   1      33.522  30.933  27.187  1.00  0.00     0.275 C 
BRANCH  27  28
ATOM     28  O   UNL A   1      34.705  30.461  27.903  1.00  0.00    -0.458 OA
BRANCH  28  29
ATOM     29  C   UNL A   1      35.929  31.001  28.039  1.00  0.00     0.338 C 
ATOM     30  O   UNL A   1      36.160  32.198  27.856  1.00  0.00    -0.246 OA
BRANCH  29  31
ATOM     31  C   UNL A   1      37.031  30.118  28.388  1.00  0.00     0.060 A 
ATOM     32  C   UNL A   1      36.948  29.304  29.532  1.00  0.00     0.016 A 
ATOM     33  C   UNL A   1      38.136  30.089  27.555  1.00  0.00     0.016 A 
ATOM     34  C   UNL A   1      37.944  28.404  29.840  1.00  0.00     0.010 A 
ATOM     35  C   UNL A   1      39.072  29.119  27.781  1.00  0.00     0.010 A 
ATOM     36  C   UNL A   1      39.000  28.340  28.956  1.00  0.00    -0.014 A 
BRANCH  36  37
ATOM     37  C   UNL A   1      40.246  27.702  29.292  1.00  0.00     0.031 A 
ATOM     38  C   UNL A   1      40.535  26.336  28.863  1.00  0.00     0.074 A 
ATOM     39  C   UNL A   1      41.133  28.633  29.696  1.00  0.00     0.049 A 
ATOM     40  N   UNL A   1      41.591  25.691  29.204  1.00  0.00    -0.248 NA
ATOM     41  C   UNL A   1      39.628  25.544  28.040  1.00  0.00     0.031 C 
ATOM     42  C   UNL A   1      42.569  28.692  29.534  1.00  0.00     0.029 A 
ATOM     43  N   UNL A   1      40.813  29.820  30.383  1.00  0.00    -0.354 N 
ATOM     44  C   UNL A   1      41.702  24.625  28.336  1.00  0.00     0.074 A 
ATOM     45  C   UNL A   1      40.387  24.475  27.765  1.00  0.00     0.031 C 
ATOM     46  C   UNL A   1      43.045  29.677  30.320  1.00  0.00     0.029 A 
ATOM     47  C   UNL A   1      41.937  30.139  31.150  1.00  0.00     0.049 A 
ATOM     48  H   UNL A   1      39.969  30.324  30.332  1.00  0.00     0.167 HD
ATOM     49  C   UNL A   1      42.958  24.165  28.056  1.00  0.00     0.037 A 
ATOM     50  C   UNL A   1      41.848  29.963  32.503  1.00  0.00     0.037 A 
ATOM     51  C   UNL A   1      43.937  24.905  28.863  1.00  0.00     0.049 A 
ATOM     52  C   UNL A   1      42.768  28.854  32.948  1.00  0.00     0.074 A 
ATOM     53  C   UNL A   1      44.750  25.987  28.563  1.00  0.00     0.029 A 
ATOM     54  N   UNL A   1      43.877  24.832  30.252  1.00  0.00    -0.354 N 
ATOM     55  N   UNL A   1      43.030  27.784  32.244  1.00  0.00    -0.248 NA
ATOM     56  C   UNL A   1      43.554  28.946  34.168  1.00  0.00     0.031 C 
ATOM     57  C   UNL A   1      45.134  26.598  29.785  1.00  0.00     0.029 A 
ATOM     58  C   UNL A   1      44.552  25.894  30.827  1.00  0.00     0.049 A 
ATOM     59  H   UNL A   1      43.416  24.123  30.758  1.00  0.00     0.167 HD
ATOM     60  C   UNL A   1      44.066  27.109  32.835  1.00  0.00     0.074 A 
ATOM     61  C   UNL A   1      44.339  27.862  34.048  1.00  0.00     0.031 C 
ATOM     62  C   UNL A   1      44.667  26.017  32.272  1.00  0.00     0.037 A 
BRANCH  49  63
ATOM     63  C   UNL A   1      43.342  23.335  26.842  1.00  0.00     0.064 A 
ATOM     64  C   UNL A   1      43.033  21.954  26.795  1.00  0.00     0.173 A 
ATOM     65  C   UNL A   1      44.041  23.808  25.716  1.00  0.00     0.173 A 
ATOM     66  F   UNL A   1      42.292  21.366  27.743  1.00  0.00    -0.203 F 
ATOM     67  C   UNL A   1      43.469  21.111  25.767  1.00  0.00     0.198 A 
ATOM     68  C   UNL A   1      44.506  22.959  24.700  1.00  0.00     0.198 A 
ATOM     69  F   UNL A   1      44.256  25.112  25.520  1.00  0.00    -0.203 F 
ATOM     70  F   UNL A   1      43.153  19.808  25.797  1.00  0.00    -0.200 F 
ATOM     71  C   UNL A   1      44.228  21.609  24.731  1.00  0.00     0.200 A 
ATOM     72  F   UNL A   1      45.220  23.466  23.685  1.00  0.00    -0.200 F 
ATOM     73  F   UNL A   1      44.661  20.800  23.756  1.00  0.00    -0.200 F 
ENDBRANCH  49  63
BRANCH  50  74
ATOM     74  C   UNL A   1      40.467  30.233  33.026  1.00  0.00     0.064 A 
ATOM     75  C   UNL A   1      40.025  31.575  33.057  1.00  0.00     0.173 A 
ATOM     76  C   UNL A   1      39.480  29.238  33.083  1.00  0.00     0.173 A 
ATOM     77  F   UNL A   1      40.922  32.573  33.000  1.00  0.00    -0.203 F 
ATOM     78  C   UNL A   1      38.669  31.902  33.016  1.00  0.00     0.198 A 
ATOM     79  C   UNL A   1      38.120  29.573  33.049  1.00  0.00     0.198 A 
ATOM     80  F   UNL A   1      39.818  27.942  33.060  1.00  0.00    -0.203 F 
ATOM     81  F   UNL A   1      38.293  33.186  32.926  1.00  0.00    -0.200 F 
ATOM     82  C   UNL A   1      37.717  30.899  32.982  1.00  0.00     0.200 A 
ATOM     83  F   UNL A   1      37.193  28.604  32.995  1.00  0.00    -0.200 F 
ATOM     84  F   UNL A   1      36.418  31.203  32.847  1.00  0.00    -0.200 F 
ENDBRANCH  50  74
BRANCH  62  85
ATOM     85  C   UNL A   1      45.537  25.017  33.001  1.00  0.00     0.064 A 
ATOM     86  C   UNL A   1      46.888  25.236  33.308  1.00  0.00     0.173 A 
ATOM     87  C   UNL A   1      44.970  23.850  33.577  1.00  0.00     0.173 A 
ATOM     88  F   UNL A   1      47.516  26.366  32.956  1.00  0.00    -0.203 F 
ATOM     89  C   UNL A   1      47.635  24.325  34.055  1.00  0.00     0.198 A 
ATOM     90  C   UNL A   1      45.698  22.986  34.391  1.00  0.00     0.198 A 
ATOM     91  F   UNL A   1      43.681  23.522  33.405  1.00  0.00    -0.203 F 
ATOM     92  F   UNL A   1      48.939  24.557  34.264  1.00  0.00    -0.200 F 
ATOM     93  C   UNL A   1      47.039  23.210  34.610  1.00  0.00     0.200 A 
ATOM     94  F   UNL A   1      45.082  21.952  34.979  1.00  0.00    -0.200 F 
ATOM     95  F   UNL A   1      47.747  22.371  35.376  1.00  0.00    -0.200 F 
ENDBRANCH  62  85
ENDBRANCH  36  37
ENDBRANCH  29  31
ENDBRANCH  28  29
ENDBRANCH  27  28
ENDBRANCH  26  27
ENDBRANCH   1  26
TORSDOF 18
ENDMDL
MODEL 3
REMARK VINA RESULT:     -12.4      3.725      9.455
REMARK SMILES Cc1cccc(Nc2nc(C)c(CCO)c(OCC(=O)OCCOC(=O)c3ccc(-c4c5nc(c(-c6c(F)c(F)c(F)c(F)c6F)c6ccc([nH]6)c(-c6c(F)c(F)c(F)c(F)c6F)c6nc(c(-c7c(F)c(F)c(F)c(F)c7F)c7ccc4[nH]7)C=C6)C=C5)cc3)n2)c1
REMARK SMILES IDX 21 1 19 2 20 3 18 4 17 5 16 6 8 7 9 8 90 9 10 10 11 11 12 12
REMARK SMILES IDX 7 13 6 15 1 16 2 17 3 18 91 19 4 20 5 21 13 22 14 23 15 24
REMARK SMILES IDX 22 26 23 27 24 28 25 29 26 30 27 31 28 32 89 33 29 34 88 35
REMARK SMILES IDX 30 36 31 37 32 38 82 39 33 40 87 41 81 42 83 43 34 44 86 45
REMARK SMILES IDX 80 46 79 47 35 49 67 50 47 51 66 52 48 53 51 54 65 55 84 56
REMARK SMILES IDX 49 57 50 58 64 60 85 61 52 62 36 63 37 64 45 65 38 66 39 67
REMARK SMILES IDX 43 68 46 69 40 70 41 71 44 72 42 73 68 74 69 75 77 76 70 77
REMARK SMILES IDX 71 78 75 79 78 80 72 81 73 82 76 83 74 84 53 85 54 86 62 87
REMARK SMILES IDX 55 88 56 89 60 90 63 91 57 92 58 93 61 94 59 95
REMARK H PARENT 7 14 15 25 83 48 51 59
REMARK Flexibility Score: inf
ROOT
ATOM      1  O   UNL A   1      34.987  24.076  23.806  1.00  0.00    -0.460 OA
ENDROOT
BRANCH   1   2
ATOM      2  C   UNL A   1      34.035  24.991  23.476  1.00  0.00     0.344 C 
ATOM      3  O   UNL A   1      33.996  26.133  23.925  1.00  0.00    -0.248 OA
BRANCH   2   4
ATOM      4  C   UNL A   1      33.011  24.457  22.471  1.00  0.00     0.353 C 
BRANCH   4   5
ATOM      5  O   UNL A   1      31.686  24.198  22.939  1.00  0.00    -0.465 OA
BRANCH   5   6
ATOM      6  C   UNL A   1      31.631  23.383  24.052  1.00  0.00     0.222 A 
ATOM      7  C   UNL A   1      32.121  21.391  25.015  1.00  0.00     0.230 A 
ATOM      8  N   UNL A   1      31.178  21.550  25.942  1.00  0.00    -0.218 NA
ATOM      9  N   UNL A   1      32.266  22.208  23.975  1.00  0.00    -0.177 NA
ATOM     10  C   UNL A   1      30.587  22.763  26.011  1.00  0.00     0.050 A 
ATOM     11  C   UNL A   1      29.563  22.899  27.098  1.00  0.00     0.067 C 
ATOM     12  C   UNL A   1      30.942  23.812  25.171  1.00  0.00     0.038 A 
BRANCH   7  13
ATOM     13  N   UNL A   1      33.102  20.442  25.298  1.00  0.00    -0.324 N 
ATOM     14  H   UNL A   1      33.739  20.642  26.021  1.00  0.00     0.170 HD
BRANCH  13  15
ATOM     15  C   UNL A   1      33.245  19.208  24.618  1.00  0.00     0.041 A 
ATOM     16  C   UNL A   1      35.179  15.951  25.094  1.00  0.00     0.044 C 
ATOM     17  C   UNL A   1      34.278  16.997  24.511  1.00  0.00    -0.049 A 
ATOM     18  C   UNL A   1      33.648  16.760  23.284  1.00  0.00     0.003 A 
ATOM     19  C   UNL A   1      34.058  18.213  25.177  1.00  0.00     0.029 A 
ATOM     20  C   UNL A   1      32.804  17.719  22.736  1.00  0.00     0.002 A 
ATOM     21  C   UNL A   1      32.597  18.927  23.405  1.00  0.00     0.026 A 
ENDBRANCH  13  15
ENDBRANCH   7  13
BRANCH  12  22
ATOM     22  C   UNL A   1      30.526  25.226  25.476  1.00  0.00     0.071 C 
BRANCH  22  23
ATOM     23  C   UNL A   1      31.472  26.198  26.211  1.00  0.00     0.161 C 
BRANCH  23  24
ATOM     24  O   UNL A   1      31.788  27.405  25.545  1.00  0.00    -0.396 OA
ATOM     25  H   UNL A   1      32.439  27.230  24.849  1.00  0.00     0.210 HD
ENDBRANCH  23  24
ENDBRANCH  22  23
ENDBRANCH  12  22
ENDBRANCH   5   6
ENDBRANCH   4   5
ENDBRANCH   2   4
ENDBRANCH   1   2
BRANCH   1  26
ATOM     26  C   UNL A   1      35.511  24.220  25.126  1.00  0.00     0.274 C 
BRANCH  26  27
ATOM     27  C   UNL A   1      36.956  23.711  25.225  1.00  0.00     0.275 C 
BRANCH  27  28
ATOM     28  O   UNL A   1      37.674  23.760  26.496  1.00  0.00    -0.458 OA
BRANCH  28  29
ATOM     29  C   UNL A   1      38.966  24.008  26.774  1.00  0.00     0.338 C 
ATOM     30  O   UNL A   1      39.868  23.195  26.558  1.00  0.00    -0.246 OA
BRANCH  29  31
ATOM     31  C   UNL A   1      39.302  25.285  27.384  1.00  0.00     0.060 A 
ATOM     32  C   UNL A   1      39.002  25.521  28.737  1.00  0.00     0.016 A 
ATOM     33  C   UNL A   1      39.942  26.235  26.606  1.00  0.00     0.016 A 
ATOM     34  C   UNL A   1      39.380  26.690  29.358  1.00  0.00     0.010 A 
ATOM     35  C   UNL A   1      40.428  27.344  27.238  1.00  0.00     0.010 A 
ATOM     36  C   UNL A   1      40.081  27.590  28.584  1.00  0.00    -0.014 A 
BRANCH  36  37
ATOM     37  C   UNL A   1      40.263  28.963  28.976  1.00  0.00     0.031 A 
ATOM     38  C   UNL A   1      39.157  29.916  28.924  1.00  0.00     0.074 A 
ATOM     39  C   UNL A   1      41.408  29.082  29.677  1.00  0.00     0.049 A 
ATOM     40  N   UNL A   1      39.283  31.167  29.183  1.00  0.00    -0.248 NA
ATOM     41  C   UNL A   1      37.801  29.554  28.527  1.00  0.00     0.031 C 
ATOM     42  C   UNL A   1      41.747  29.959  30.776  1.00  0.00     0.029 A 
ATOM     43  N   UNL A   1      42.569  28.312  29.477  1.00  0.00    -0.354 N 
ATOM     44  C   UNL A   1      38.012  31.657  29.400  1.00  0.00     0.074 A 
ATOM     45  C   UNL A   1      37.133  30.679  28.810  1.00  0.00     0.031 C 
ATOM     46  C   UNL A   1      43.077  29.891  30.979  1.00  0.00     0.029 A 
ATOM     47  C   UNL A   1      43.640  29.115  29.879  1.00  0.00     0.049 A 
ATOM     48  H   UNL A   1      42.617  27.393  29.127  1.00  0.00     0.167 HD
ATOM     49  C   UNL A   1      37.879  32.715  30.255  1.00  0.00     0.037 A 
ATOM     50  C   UNL A   1      44.452  29.619  28.901  1.00  0.00     0.037 A 
ATOM     51  C   UNL A   1      39.209  33.156  30.692  1.00  0.00     0.049 A 
ATOM     52  C   UNL A   1      44.310  31.118  28.825  1.00  0.00     0.074 A 
ATOM     53  C   UNL A   1      39.937  32.893  31.843  1.00  0.00     0.029 A 
ATOM     54  N   UNL A   1      40.123  33.624  29.750  1.00  0.00    -0.354 N 
ATOM     55  N   UNL A   1      43.196  31.767  29.041  1.00  0.00    -0.248 NA
ATOM     56  C   UNL A   1      45.455  31.994  28.627  1.00  0.00     0.031 C 
ATOM     57  C   UNL A   1      41.304  33.154  31.567  1.00  0.00     0.029 A 
ATOM     58  C   UNL A   1      41.411  33.571  30.250  1.00  0.00     0.049 A 
ATOM     59  H   UNL A   1      39.884  33.948  28.851  1.00  0.00     0.167 HD
ATOM     60  C   UNL A   1      43.472  33.108  29.117  1.00  0.00     0.074 A 
ATOM     61  C   UNL A   1      44.893  33.198  28.825  1.00  0.00     0.031 C 
ATOM     62  C   UNL A   1      42.540  34.047  29.465  1.00  0.00     0.037 A 
BRANCH  49  63
ATOM     63  C   UNL A   1      36.597  33.119  30.965  1.00  0.00     0.064 A 
ATOM     64  C   UNL A   1      35.613  33.876  30.285  1.00  0.00     0.173 A 
ATOM     65  C   UNL A   1      36.282  32.838  32.308  1.00  0.00     0.173 A 
ATOM     66  F   UNL A   1      35.714  34.150  28.978  1.00  0.00    -0.203 F 
ATOM     67  C   UNL A   1      34.473  34.386  30.916  1.00  0.00     0.198 A 
ATOM     68  C   UNL A   1      35.156  33.374  32.950  1.00  0.00     0.198 A 
ATOM     69  F   UNL A   1      37.015  31.992  33.038  1.00  0.00    -0.203 F 
ATOM     70  F   UNL A   1      33.591  35.110  30.213  1.00  0.00    -0.200 F 
ATOM     71  C   UNL A   1      34.257  34.155  32.257  1.00  0.00     0.200 A 
ATOM     72  F   UNL A   1      34.947  33.116  34.250  1.00  0.00    -0.200 F 
ATOM     73  F   UNL A   1      33.175  34.657  32.867  1.00  0.00    -0.200 F 
ENDBRANCH  49  63
BRANCH  50  74
ATOM     74  C   UNL A   1      44.596  28.683  27.737  1.00  0.00     0.064 A 
ATOM     75  C   UNL A   1      45.299  27.475  27.946  1.00  0.00     0.173 A 
ATOM     76  C   UNL A   1      43.748  28.738  26.621  1.00  0.00     0.173 A 
ATOM     77  F   UNL A   1      46.122  27.357  29.001  1.00  0.00    -0.203 F 
ATOM     78  C   UNL A   1      45.066  26.344  27.161  1.00  0.00     0.198 A 
ATOM     79  C   UNL A   1      43.524  27.603  25.831  1.00  0.00     0.198 A 
ATOM     80  F   UNL A   1      43.049  29.849  26.353  1.00  0.00    -0.203 F 
ATOM     81  F   UNL A   1      45.663  25.183  27.465  1.00  0.00    -0.200 F 
ATOM     82  C   UNL A   1      44.156  26.402  26.121  1.00  0.00     0.200 A 
ATOM     83  F   UNL A   1      42.627  27.647  24.835  1.00  0.00    -0.200 F 
ATOM     84  F   UNL A   1      43.857  25.297  25.421  1.00  0.00    -0.200 F 
ENDBRANCH  50  74
BRANCH  62  85
ATOM     85  C   UNL A   1      42.655  35.534  29.218  1.00  0.00     0.064 A 
ATOM     86  C   UNL A   1      43.399  36.405  30.029  1.00  0.00     0.173 A 
ATOM     87  C   UNL A   1      42.143  36.112  28.027  1.00  0.00     0.173 A 
ATOM     88  F   UNL A   1      44.063  35.968  31.107  1.00  0.00    -0.203 F 
ATOM     89  C   UNL A   1      43.549  37.758  29.721  1.00  0.00     0.198 A 
ATOM     90  C   UNL A   1      42.365  37.442  27.683  1.00  0.00     0.198 A 
ATOM     91  F   UNL A   1      41.441  35.399  27.133  1.00  0.00    -0.203 F 
ATOM     92  F   UNL A   1      44.218  38.554  30.566  1.00  0.00    -0.200 F 
ATOM     93  C   UNL A   1      43.048  38.273  28.542  1.00  0.00     0.200 A 
ATOM     94  F   UNL A   1      41.933  37.902  26.500  1.00  0.00    -0.200 F 
ATOM     95  F   UNL A   1      43.246  39.558  28.224  1.00  0.00    -0.200 F 
ENDBRANCH  62  85
ENDBRANCH  36  37
ENDBRANCH  29  31
ENDBRANCH  28  29
ENDBRANCH  27  28
ENDBRANCH  26  27
ENDBRANCH   1  26
TORSDOF 18
ENDMDL
