MODEL 1
REMARK VINA RESULT:     -11.5      0.000      0.000
REMARK SMILES O=C(OCCOC(=O)c1cc2ccc(F)cc2o1)c1ccc(-c2c3nc(c(-c4c(F)c(F)c(F)c(F)c4F)c4ccc([nH]4)c(-c4c(F)c(F)c(F)c(F)c4F)c4nc(c(-c5c(F)c(F)c(F)c(F)c5F)c5ccc2[nH]5)C=C4)C=C3)cc1
REMARK SMILES IDX 4 1 3 2 2 3 1 4 19 5 20 6 81 7 21 8 80 9 22 10 23 11 24 12
REMARK SMILES IDX 74 13 25 14 79 15 73 16 75 17 26 18 78 19 72 20 71 21 27 23
REMARK SMILES IDX 59 24 39 25 58 26 40 27 43 28 57 29 76 30 41 31 42 32 56 34
REMARK SMILES IDX 77 35 44 36 28 37 29 38 37 39 30 40 31 41 35 42 38 43 32 44
REMARK SMILES IDX 33 45 36 46 34 47 60 48 61 49 69 50 62 51 63 52 67 53 70 54
REMARK SMILES IDX 64 55 65 56 68 57 66 58 45 59 46 60 54 61 47 62 48 63 52 64
REMARK SMILES IDX 55 65 49 66 50 67 53 68 51 69 5 70 6 71 7 72 8 73 9 74 10 75
REMARK SMILES IDX 18 76 11 77 17 78 12 79 16 80 13 81 14 82 15 83
REMARK H PARENT 75 22 43 33
REMARK Flexibility Score: inf
ROOT
ATOM      1  C   UNL A   1      34.198  34.168  28.112  1.00  0.00     0.275 C 
ENDROOT
BRANCH   1   2
ATOM      2  O   UNL A   1      35.000  33.117  28.721  1.00  0.00    -0.458 OA
BRANCH   2   3
ATOM      3  C   UNL A   1      35.064  31.813  28.352  1.00  0.00     0.338 C 
ATOM      4  O   UNL A   1      34.158  31.236  27.767  1.00  0.00    -0.246 OA
BRANCH   3   5
ATOM      5  C   UNL A   1      36.243  31.075  28.812  1.00  0.00     0.060 A 
ATOM      6  C   UNL A   1      37.381  31.826  29.091  1.00  0.00     0.016 A 
ATOM      7  C   UNL A   1      36.272  29.679  28.796  1.00  0.00     0.016 A 
ATOM      8  C   UNL A   1      38.602  31.182  29.125  1.00  0.00     0.010 A 
ATOM      9  C   UNL A   1      37.498  29.031  28.853  1.00  0.00     0.010 A 
ATOM     10  C   UNL A   1      38.668  29.791  28.948  1.00  0.00    -0.014 A 
BRANCH  10  11
ATOM     11  C   UNL A   1      39.988  29.176  29.085  1.00  0.00     0.031 A 
ATOM     12  C   UNL A   1      40.421  29.032  30.501  1.00  0.00     0.074 A 
ATOM     13  C   UNL A   1      40.723  28.665  28.078  1.00  0.00     0.049 A 
ATOM     14  N   UNL A   1      41.522  29.425  31.054  1.00  0.00    -0.248 NA
ATOM     15  C   UNL A   1      39.434  28.468  31.441  1.00  0.00     0.031 C 
ATOM     16  C   UNL A   1      40.317  28.501  26.682  1.00  0.00     0.029 A 
ATOM     17  N   UNL A   1      41.959  28.076  28.119  1.00  0.00    -0.354 N 
ATOM     18  C   UNL A   1      41.428  29.023  32.381  1.00  0.00     0.074 A 
ATOM     19  C   UNL A   1      40.081  28.567  32.598  1.00  0.00     0.031 C 
ATOM     20  C   UNL A   1      41.185  27.670  26.066  1.00  0.00     0.029 A 
ATOM     21  C   UNL A   1      42.257  27.326  26.989  1.00  0.00     0.049 A 
ATOM     22  H   UNL A   1      42.579  28.176  28.878  1.00  0.00     0.167 HD
ATOM     23  C   UNL A   1      42.524  28.849  33.160  1.00  0.00     0.037 A 
ATOM     24  C   UNL A   1      43.260  26.427  26.847  1.00  0.00     0.037 A 
ATOM     25  C   UNL A   1      43.676  29.537  32.664  1.00  0.00     0.049 A 
ATOM     26  C   UNL A   1      44.294  26.702  27.873  1.00  0.00     0.074 A 
ATOM     27  C   UNL A   1      44.098  30.847  32.609  1.00  0.00     0.029 A 
ATOM     28  N   UNL A   1      44.479  28.816  31.825  1.00  0.00    -0.354 N 
ATOM     29  N   UNL A   1      45.100  27.725  27.857  1.00  0.00    -0.248 NA
ATOM     30  C   UNL A   1      44.306  25.919  29.105  1.00  0.00     0.031 C 
ATOM     31  C   UNL A   1      45.034  30.918  31.536  1.00  0.00     0.029 A 
ATOM     32  C   UNL A   1      45.140  29.652  30.964  1.00  0.00     0.049 A 
ATOM     33  H   UNL A   1      44.569  27.835  31.838  1.00  0.00     0.167 HD
ATOM     34  C   UNL A   1      45.396  27.948  29.186  1.00  0.00     0.074 A 
ATOM     35  C   UNL A   1      45.057  26.713  29.871  1.00  0.00     0.031 C 
ATOM     36  C   UNL A   1      45.570  29.215  29.655  1.00  0.00     0.037 A 
BRANCH  23  37
ATOM     37  C   UNL A   1      42.628  27.711  34.138  1.00  0.00     0.064 A 
ATOM     38  C   UNL A   1      43.139  26.470  33.728  1.00  0.00     0.173 A 
ATOM     39  C   UNL A   1      41.978  27.729  35.394  1.00  0.00     0.173 A 
ATOM     40  F   UNL A   1      43.711  26.334  32.523  1.00  0.00    -0.203 F 
ATOM     41  C   UNL A   1      43.006  25.327  34.522  1.00  0.00     0.198 A 
ATOM     42  C   UNL A   1      41.901  26.605  36.208  1.00  0.00     0.198 A 
ATOM     43  F   UNL A   1      41.303  28.805  35.823  1.00  0.00    -0.203 F 
ATOM     44  F   UNL A   1      43.422  24.142  34.057  1.00  0.00    -0.200 F 
ATOM     45  C   UNL A   1      42.396  25.397  35.764  1.00  0.00     0.200 A 
ATOM     46  F   UNL A   1      41.277  26.688  37.392  1.00  0.00    -0.200 F 
ATOM     47  F   UNL A   1      42.241  24.296  36.510  1.00  0.00    -0.200 F 
ENDBRANCH  23  37
BRANCH  24  48
ATOM     48  C   UNL A   1      43.330  25.210  25.997  1.00  0.00     0.064 A 
ATOM     49  C   UNL A   1      44.455  24.963  25.190  1.00  0.00     0.173 A 
ATOM     50  C   UNL A   1      42.433  24.136  26.155  1.00  0.00     0.173 A 
ATOM     51  F   UNL A   1      45.382  25.915  25.007  1.00  0.00    -0.203 F 
ATOM     52  C   UNL A   1      44.693  23.710  24.618  1.00  0.00     0.198 A 
ATOM     53  C   UNL A   1      42.660  22.891  25.565  1.00  0.00     0.198 A 
ATOM     54  F   UNL A   1      41.368  24.233  26.961  1.00  0.00    -0.203 F 
ATOM     55  F   UNL A   1      45.822  23.495  23.927  1.00  0.00    -0.200 F 
ATOM     56  C   UNL A   1      43.800  22.673  24.814  1.00  0.00     0.200 A 
ATOM     57  F   UNL A   1      41.800  21.887  25.783  1.00  0.00    -0.200 F 
ATOM     58  F   UNL A   1      44.056  21.454  24.319  1.00  0.00    -0.200 F 
ENDBRANCH  24  48
BRANCH  36  59
ATOM     59  C   UNL A   1      46.018  30.253  28.675  1.00  0.00     0.064 A 
ATOM     60  C   UNL A   1      45.159  30.948  27.809  1.00  0.00     0.173 A 
ATOM     61  C   UNL A   1      47.377  30.602  28.665  1.00  0.00     0.173 A 
ATOM     62  F   UNL A   1      43.838  30.726  27.824  1.00  0.00    -0.203 F 
ATOM     63  C   UNL A   1      45.653  31.918  26.938  1.00  0.00     0.198 A 
ATOM     64  C   UNL A   1      47.859  31.598  27.824  1.00  0.00     0.198 A 
ATOM     65  F   UNL A   1      48.234  29.995  29.501  1.00  0.00    -0.203 F 
ATOM     66  F   UNL A   1      44.825  32.548  26.094  1.00  0.00    -0.200 F 
ATOM     67  C   UNL A   1      47.001  32.246  26.952  1.00  0.00     0.200 A 
ATOM     68  F   UNL A   1      49.155  31.940  27.871  1.00  0.00    -0.200 F 
ATOM     69  F   UNL A   1      47.470  33.201  26.135  1.00  0.00    -0.200 F 
ENDBRANCH  36  59
ENDBRANCH  10  11
ENDBRANCH   3   5
ENDBRANCH   2   3
ENDBRANCH   1   2
BRANCH   1  70
ATOM     70  C   UNL A   1      33.739  35.317  29.025  1.00  0.00     0.275 C 
BRANCH  70  71
ATOM     71  O   UNL A   1      33.110  34.841  30.217  1.00  0.00    -0.456 OA
BRANCH  71  72
ATOM     72  C   UNL A   1      33.672  35.330  31.366  1.00  0.00     0.374 C 
ATOM     73  O   UNL A   1      33.527  36.479  31.767  1.00  0.00    -0.242 OA
BRANCH  72  74
ATOM     74  C   UNL A   1      34.578  34.341  31.896  1.00  0.00     0.212 A 
ATOM     75  C   UNL A   1      34.436  32.985  32.129  1.00  0.00     0.067 A 
ATOM     76  O   UNL A   1      35.890  34.700  32.078  1.00  0.00    -0.449 OA
ATOM     77  C   UNL A   1      35.734  32.470  32.389  1.00  0.00     0.021 A 
ATOM     78  C   UNL A   1      36.594  33.560  32.321  1.00  0.00     0.138 A 
ATOM     79  C   UNL A   1      36.276  31.195  32.623  1.00  0.00     0.015 A 
ATOM     80  C   UNL A   1      37.978  33.475  32.439  1.00  0.00     0.087 A 
ATOM     81  C   UNL A   1      37.668  31.074  32.748  1.00  0.00     0.040 A 
ATOM     82  C   UNL A   1      38.489  32.196  32.647  1.00  0.00     0.126 A 
ATOM     83  F   UNL A   1      39.817  32.034  32.740  1.00  0.00    -0.207 F 
ENDBRANCH  72  74
ENDBRANCH  71  72
ENDBRANCH  70  71
ENDBRANCH   1  70
TORSDOF 11
ENDMDL
MODEL 2
REMARK VINA RESULT:     -11.5      0.268      1.200
REMARK SMILES O=C(OCCOC(=O)c1cc2ccc(F)cc2o1)c1ccc(-c2c3nc(c(-c4c(F)c(F)c(F)c(F)c4F)c4ccc([nH]4)c(-c4c(F)c(F)c(F)c(F)c4F)c4nc(c(-c5c(F)c(F)c(F)c(F)c5F)c5ccc2[nH]5)C=C4)C=C3)cc1
REMARK SMILES IDX 4 1 3 2 2 3 1 4 19 5 20 6 81 7 21 8 80 9 22 10 23 11 24 12
REMARK SMILES IDX 74 13 25 14 79 15 73 16 75 17 26 18 78 19 72 20 71 21 27 23
REMARK SMILES IDX 59 24 39 25 58 26 40 27 43 28 57 29 76 30 41 31 42 32 56 34
REMARK SMILES IDX 77 35 44 36 28 37 29 38 37 39 30 40 31 41 35 42 38 43 32 44
REMARK SMILES IDX 33 45 36 46 34 47 60 48 61 49 69 50 62 51 63 52 67 53 70 54
REMARK SMILES IDX 64 55 65 56 68 57 66 58 45 59 46 60 54 61 47 62 48 63 52 64
REMARK SMILES IDX 55 65 49 66 50 67 53 68 51 69 5 70 6 71 7 72 8 73 9 74 10 75
REMARK SMILES IDX 18 76 11 77 17 78 12 79 16 80 13 81 14 82 15 83
REMARK H PARENT 75 22 43 33
REMARK Flexibility Score: inf
ROOT
ATOM      1  C   UNL A   1      34.396  34.144  28.016  1.00  0.00     0.275 C 
ENDROOT
BRANCH   1   2
ATOM      2  O   UNL A   1      35.240  33.137  28.642  1.00  0.00    -0.458 OA
BRANCH   2   3
ATOM      3  C   UNL A   1      35.252  31.803  28.393  1.00  0.00     0.338 C 
ATOM      4  O   UNL A   1      34.309  31.206  27.894  1.00  0.00    -0.246 OA
BRANCH   3   5
ATOM      5  C   UNL A   1      36.423  31.072  28.882  1.00  0.00     0.060 A 
ATOM      6  C   UNL A   1      37.587  31.810  29.071  1.00  0.00     0.016 A 
ATOM      7  C   UNL A   1      36.416  29.678  28.976  1.00  0.00     0.016 A 
ATOM      8  C   UNL A   1      38.792  31.137  29.127  1.00  0.00     0.010 A 
ATOM      9  C   UNL A   1      37.626  29.002  29.055  1.00  0.00     0.010 A 
ATOM     10  C   UNL A   1      38.817  29.735  29.059  1.00  0.00    -0.014 A 
BRANCH  10  11
ATOM     11  C   UNL A   1      40.124  29.097  29.213  1.00  0.00     0.031 A 
ATOM     12  C   UNL A   1      40.526  28.923  30.635  1.00  0.00     0.074 A 
ATOM     13  C   UNL A   1      40.870  28.589  28.212  1.00  0.00     0.049 A 
ATOM     14  N   UNL A   1      41.623  29.289  31.215  1.00  0.00    -0.248 NA
ATOM     15  C   UNL A   1      39.512  28.361  31.546  1.00  0.00     0.031 C 
ATOM     16  C   UNL A   1      40.489  28.454  26.806  1.00  0.00     0.029 A 
ATOM     17  N   UNL A   1      42.096  27.980  28.268  1.00  0.00    -0.354 N 
ATOM     18  C   UNL A   1      41.496  28.868  32.533  1.00  0.00     0.074 A 
ATOM     19  C   UNL A   1      40.137  28.430  32.717  1.00  0.00     0.031 C 
ATOM     20  C   UNL A   1      41.356  27.618  26.194  1.00  0.00     0.029 A 
ATOM     21  C   UNL A   1      42.404  27.243  27.133  1.00  0.00     0.049 A 
ATOM     22  H   UNL A   1      42.702  28.057  29.040  1.00  0.00     0.167 HD
ATOM     23  C   UNL A   1      42.573  28.664  33.331  1.00  0.00     0.037 A 
ATOM     24  C   UNL A   1      43.395  26.329  26.995  1.00  0.00     0.037 A 
ATOM     25  C   UNL A   1      43.746  29.341  32.868  1.00  0.00     0.049 A 
ATOM     26  C   UNL A   1      44.412  26.571  28.046  1.00  0.00     0.074 A 
ATOM     27  C   UNL A   1      44.190  30.644  32.843  1.00  0.00     0.029 A 
ATOM     28  N   UNL A   1      44.553  28.619  32.034  1.00  0.00    -0.354 N 
ATOM     29  N   UNL A   1      45.235  27.581  28.062  1.00  0.00    -0.248 NA
ATOM     30  C   UNL A   1      44.387  25.768  29.265  1.00  0.00     0.031 C 
ATOM     31  C   UNL A   1      45.147  30.716  31.790  1.00  0.00     0.029 A 
ATOM     32  C   UNL A   1      45.245  29.458  31.200  1.00  0.00     0.049 A 
ATOM     33  H   UNL A   1      44.628  27.637  32.033  1.00  0.00     0.167 HD
ATOM     34  C   UNL A   1      45.509  27.778  29.400  1.00  0.00     0.074 A 
ATOM     35  C   UNL A   1      45.136  26.538  30.058  1.00  0.00     0.031 C 
ATOM     36  C   UNL A   1      45.694  29.034  29.893  1.00  0.00     0.037 A 
BRANCH  23  37
ATOM     37  C   UNL A   1      42.639  27.509  34.293  1.00  0.00     0.064 A 
ATOM     38  C   UNL A   1      43.090  26.252  33.859  1.00  0.00     0.173 A 
ATOM     39  C   UNL A   1      42.007  27.538  35.557  1.00  0.00     0.173 A 
ATOM     40  F   UNL A   1      43.640  26.108  32.645  1.00  0.00    -0.203 F 
ATOM     41  C   UNL A   1      42.917  25.106  34.640  1.00  0.00     0.198 A 
ATOM     42  C   UNL A   1      41.890  26.407  36.358  1.00  0.00     0.198 A 
ATOM     43  F   UNL A   1      41.385  28.637  36.009  1.00  0.00    -0.203 F 
ATOM     44  F   UNL A   1      43.274  23.910  34.154  1.00  0.00    -0.200 F 
ATOM     45  C   UNL A   1      42.327  25.186  35.891  1.00  0.00     0.200 A 
ATOM     46  F   UNL A   1      41.286  26.502  37.550  1.00  0.00    -0.200 F 
ATOM     47  F   UNL A   1      42.132  24.082  36.624  1.00  0.00    -0.200 F 
ENDBRANCH  23  37
BRANCH  24  48
ATOM     48  C   UNL A   1      43.461  25.124  26.128  1.00  0.00     0.064 A 
ATOM     49  C   UNL A   1      44.534  24.943  25.235  1.00  0.00     0.173 A 
ATOM     50  C   UNL A   1      42.635  24.005  26.339  1.00  0.00     0.173 A 
ATOM     51  F   UNL A   1      45.395  25.942  24.996  1.00  0.00    -0.203 F 
ATOM     52  C   UNL A   1      44.791  23.709  24.632  1.00  0.00     0.198 A 
ATOM     53  C   UNL A   1      42.880  22.778  25.718  1.00  0.00     0.198 A 
ATOM     54  F   UNL A   1      41.629  24.040  27.224  1.00  0.00    -0.203 F 
ATOM     55  F   UNL A   1      45.874  23.558  23.855  1.00  0.00    -0.200 F 
ATOM     56  C   UNL A   1      43.969  22.625  24.881  1.00  0.00     0.200 A 
ATOM     57  F   UNL A   1      42.090  21.730  25.988  1.00  0.00    -0.200 F 
ATOM     58  F   UNL A   1      44.248  21.425  24.353  1.00  0.00    -0.200 F 
ENDBRANCH  24  48
BRANCH  36  59
ATOM     59  C   UNL A   1      46.178  30.080  28.938  1.00  0.00     0.064 A 
ATOM     60  C   UNL A   1      47.530  30.335  28.660  1.00  0.00     0.173 A 
ATOM     61  C   UNL A   1      45.216  30.811  28.224  1.00  0.00     0.173 A 
ATOM     62  F   UNL A   1      48.501  29.618  29.244  1.00  0.00    -0.203 F 
ATOM     63  C   UNL A   1      47.899  31.316  27.741  1.00  0.00     0.198 A 
ATOM     64  C   UNL A   1      45.587  31.758  27.278  1.00  0.00     0.198 A 
ATOM     65  F   UNL A   1      43.909  30.578  28.424  1.00  0.00    -0.203 F 
ATOM     66  F   UNL A   1      49.195  31.570  27.512  1.00  0.00    -0.200 F 
ATOM     67  C   UNL A   1      46.927  32.020  27.046  1.00  0.00     0.200 A 
ATOM     68  F   UNL A   1      44.645  32.408  26.579  1.00  0.00    -0.200 F 
ATOM     69  F   UNL A   1      47.283  32.942  26.139  1.00  0.00    -0.200 F 
ENDBRANCH  36  59
ENDBRANCH  10  11
ENDBRANCH   3   5
ENDBRANCH   2   3
ENDBRANCH   1   2
BRANCH   1  70
ATOM     70  C   UNL A   1      33.802  35.228  28.931  1.00  0.00     0.275 C 
BRANCH  70  71
ATOM     71  O   UNL A   1      33.216  34.675  30.112  1.00  0.00    -0.456 OA
BRANCH  71  72
ATOM     72  C   UNL A   1      33.740  35.180  31.272  1.00  0.00     0.374 C 
ATOM     73  O   UNL A   1      33.557  36.326  31.667  1.00  0.00    -0.242 OA
BRANCH  72  74
ATOM     74  C   UNL A   1      34.660  34.216  31.824  1.00  0.00     0.212 A 
ATOM     75  C   UNL A   1      34.533  32.865  32.095  1.00  0.00     0.067 A 
ATOM     76  O   UNL A   1      35.968  34.593  31.987  1.00  0.00    -0.449 OA
ATOM     77  C   UNL A   1      35.838  32.372  32.362  1.00  0.00     0.021 A 
ATOM     78  C   UNL A   1      36.686  33.469  32.258  1.00  0.00     0.138 A 
ATOM     79  C   UNL A   1      36.395  31.109  32.628  1.00  0.00     0.015 A 
ATOM     80  C   UNL A   1      38.071  33.401  32.370  1.00  0.00     0.087 A 
ATOM     81  C   UNL A   1      37.788  31.007  32.748  1.00  0.00     0.040 A 
ATOM     82  C   UNL A   1      38.597  32.134  32.610  1.00  0.00     0.126 A 
ATOM     83  F   UNL A   1      39.927  31.988  32.700  1.00  0.00    -0.207 F 
ENDBRANCH  72  74
ENDBRANCH  71  72
ENDBRANCH  70  71
ENDBRANCH   1  70
TORSDOF 11
ENDMDL
MODEL 3
REMARK VINA RESULT:     -11.3      4.736     10.832
REMARK SMILES O=C(OCCOC(=O)c1cc2ccc(F)cc2o1)c1ccc(-c2c3nc(c(-c4c(F)c(F)c(F)c(F)c4F)c4ccc([nH]4)c(-c4c(F)c(F)c(F)c(F)c4F)c4nc(c(-c5c(F)c(F)c(F)c(F)c5F)c5ccc2[nH]5)C=C4)C=C3)cc1
REMARK SMILES IDX 4 1 3 2 2 3 1 4 19 5 20 6 81 7 21 8 80 9 22 10 23 11 24 12
REMARK SMILES IDX 74 13 25 14 79 15 73 16 75 17 26 18 78 19 72 20 71 21 27 23
REMARK SMILES IDX 59 24 39 25 58 26 40 27 43 28 57 29 76 30 41 31 42 32 56 34
REMARK SMILES IDX 77 35 44 36 28 37 29 38 37 39 30 40 31 41 35 42 38 43 32 44
REMARK SMILES IDX 33 45 36 46 34 47 60 48 61 49 69 50 62 51 63 52 67 53 70 54
REMARK SMILES IDX 64 55 65 56 68 57 66 58 45 59 46 60 54 61 47 62 48 63 52 64
REMARK SMILES IDX 55 65 49 66 50 67 53 68 51 69 5 70 6 71 7 72 8 73 9 74 10 75
REMARK SMILES IDX 18 76 11 77 17 78 12 79 16 80 13 81 14 82 15 83
REMARK H PARENT 75 22 43 33
REMARK Flexibility Score: inf
ROOT
ATOM      1  C   UNL A   1      45.212  20.263  24.538  1.00  0.00     0.275 C 
ENDROOT
BRANCH   1   2
ATOM      2  O   UNL A   1      44.733  21.423  25.275  1.00  0.00    -0.458 OA
BRANCH   2   3
ATOM      3  C   UNL A   1      43.995  22.455  24.795  1.00  0.00     0.338 C 
ATOM      4  O   UNL A   1      43.799  22.642  23.603  1.00  0.00    -0.246 OA
BRANCH   3   5
ATOM      5  C   UNL A   1      43.541  23.433  25.787  1.00  0.00     0.060 A 
ATOM      6  C   UNL A   1      42.602  24.366  25.362  1.00  0.00     0.016 A 
ATOM      7  C   UNL A   1      44.157  23.530  27.038  1.00  0.00     0.016 A 
ATOM      8  C   UNL A   1      42.448  25.527  26.094  1.00  0.00     0.010 A 
ATOM      9  C   UNL A   1      43.985  24.688  27.784  1.00  0.00     0.010 A 
ATOM     10  C   UNL A   1      43.184  25.715  27.275  1.00  0.00    -0.014 A 
BRANCH  10  11
ATOM     11  C   UNL A   1      42.900  26.931  28.035  1.00  0.00     0.031 A 
ATOM     12  C   UNL A   1      43.947  27.977  27.877  1.00  0.00     0.074 A 
ATOM     13  C   UNL A   1      41.767  27.179  28.722  1.00  0.00     0.049 A 
ATOM     14  N   UNL A   1      44.597  28.615  28.796  1.00  0.00    -0.248 NA
ATOM     15  C   UNL A   1      44.395  28.262  26.502  1.00  0.00     0.031 C 
ATOM     16  C   UNL A   1      40.555  26.361  28.752  1.00  0.00     0.029 A 
ATOM     17  N   UNL A   1      41.423  28.283  29.456  1.00  0.00    -0.354 N 
ATOM     18  C   UNL A   1      45.432  29.489  28.111  1.00  0.00     0.074 A 
ATOM     19  C   UNL A   1      45.371  29.140  26.716  1.00  0.00     0.031 C 
ATOM     20  C   UNL A   1      39.546  27.090  29.276  1.00  0.00     0.029 A 
ATOM     21  C   UNL A   1      40.061  28.381  29.709  1.00  0.00     0.049 A 
ATOM     22  H   UNL A   1      42.078  28.945  29.774  1.00  0.00     0.167 HD
ATOM     23  C   UNL A   1      45.931  30.610  28.689  1.00  0.00     0.037 A 
ATOM     24  C   UNL A   1      39.390  29.467  30.164  1.00  0.00     0.037 A 
ATOM     25  C   UNL A   1      45.909  30.557  30.118  1.00  0.00     0.049 A 
ATOM     26  C   UNL A   1      40.355  30.380  30.821  1.00  0.00     0.074 A 
ATOM     27  C   UNL A   1      46.628  29.904  31.095  1.00  0.00     0.029 A 
ATOM     28  N   UNL A   1      44.787  31.066  30.710  1.00  0.00    -0.354 N 
ATOM     29  N   UNL A   1      40.927  30.152  31.970  1.00  0.00    -0.248 NA
ATOM     30  C   UNL A   1      40.886  31.518  30.076  1.00  0.00     0.031 C 
ATOM     31  C   UNL A   1      45.782  29.849  32.240  1.00  0.00     0.029 A 
ATOM     32  C   UNL A   1      44.570  30.457  31.919  1.00  0.00     0.049 A 
ATOM     33  H   UNL A   1      44.216  31.769  30.323  1.00  0.00     0.167 HD
ATOM     34  C   UNL A   1      42.123  30.836  31.898  1.00  0.00     0.074 A 
ATOM     35  C   UNL A   1      41.954  31.800  30.825  1.00  0.00     0.031 C 
ATOM     36  C   UNL A   1      43.245  30.334  32.484  1.00  0.00     0.037 A 
BRANCH  23  37
ATOM     37  C   UNL A   1      46.046  31.906  27.934  1.00  0.00     0.064 A 
ATOM     38  C   UNL A   1      44.891  32.587  27.519  1.00  0.00     0.173 A 
ATOM     39  C   UNL A   1      47.263  32.349  27.368  1.00  0.00     0.173 A 
ATOM     40  F   UNL A   1      43.681  32.197  27.944  1.00  0.00    -0.203 F 
ATOM     41  C   UNL A   1      44.954  33.638  26.599  1.00  0.00     0.198 A 
ATOM     42  C   UNL A   1      47.330  33.434  26.501  1.00  0.00     0.198 A 
ATOM     43  F   UNL A   1      48.410  31.679  27.551  1.00  0.00    -0.203 F 
ATOM     44  F   UNL A   1      43.823  34.202  26.154  1.00  0.00    -0.200 F 
ATOM     45  C   UNL A   1      46.173  34.066  26.099  1.00  0.00     0.200 A 
ATOM     46  F   UNL A   1      48.517  33.809  26.003  1.00  0.00    -0.200 F 
ATOM     47  F   UNL A   1      46.230  35.052  25.194  1.00  0.00    -0.200 F 
ENDBRANCH  23  37
BRANCH  24  48
ATOM     48  C   UNL A   1      37.985  29.883  29.922  1.00  0.00     0.064 A 
ATOM     49  C   UNL A   1      37.192  30.376  30.975  1.00  0.00     0.173 A 
ATOM     50  C   UNL A   1      37.471  30.064  28.624  1.00  0.00     0.173 A 
ATOM     51  F   UNL A   1      37.614  30.279  32.245  1.00  0.00    -0.203 F 
ATOM     52  C   UNL A   1      35.990  31.048  30.742  1.00  0.00     0.198 A 
ATOM     53  C   UNL A   1      36.258  30.717  28.393  1.00  0.00     0.198 A 
ATOM     54  F   UNL A   1      38.174  29.702  27.542  1.00  0.00    -0.203 F 
ATOM     55  F   UNL A   1      35.309  31.576  31.770  1.00  0.00    -0.200 F 
ATOM     56  C   UNL A   1      35.528  31.226  29.451  1.00  0.00     0.200 A 
ATOM     57  F   UNL A   1      35.836  30.904  27.136  1.00  0.00    -0.200 F 
ATOM     58  F   UNL A   1      34.408  31.924  29.220  1.00  0.00    -0.200 F 
ENDBRANCH  24  48
BRANCH  36  59
ATOM     59  C   UNL A   1      43.057  29.413  33.649  1.00  0.00     0.064 A 
ATOM     60  C   UNL A   1      42.805  28.036  33.537  1.00  0.00     0.173 A 
ATOM     61  C   UNL A   1      43.206  29.947  34.937  1.00  0.00     0.173 A 
ATOM     62  F   UNL A   1      42.733  27.443  32.337  1.00  0.00    -0.203 F 
ATOM     63  C   UNL A   1      42.661  27.241  34.673  1.00  0.00     0.198 A 
ATOM     64  C   UNL A   1      43.103  29.143  36.067  1.00  0.00     0.198 A 
ATOM     65  F   UNL A   1      43.486  31.250  35.098  1.00  0.00    -0.203 F 
ATOM     66  F   UNL A   1      42.387  25.935  34.550  1.00  0.00    -0.200 F 
ATOM     67  C   UNL A   1      42.818  27.794  35.935  1.00  0.00     0.200 A 
ATOM     68  F   UNL A   1      43.296  29.674  37.283  1.00  0.00    -0.200 F 
ATOM     69  F   UNL A   1      42.710  27.023  37.027  1.00  0.00    -0.200 F 
ENDBRANCH  36  59
ENDBRANCH  10  11
ENDBRANCH   3   5
ENDBRANCH   2   3
ENDBRANCH   1   2
BRANCH   1  70
ATOM     70  C   UNL A   1      44.813  18.878  25.075  1.00  0.00     0.275 C 
BRANCH  70  71
ATOM     71  O   UNL A   1      43.397  18.682  25.061  1.00  0.00    -0.456 OA
BRANCH  71  72
ATOM     72  C   UNL A   1      42.871  18.395  26.293  1.00  0.00     0.374 C 
ATOM     73  O   UNL A   1      43.029  17.328  26.875  1.00  0.00    -0.242 OA
BRANCH  72  74
ATOM     74  C   UNL A   1      41.982  19.463  26.678  1.00  0.00     0.212 A 
ATOM     75  C   UNL A   1      42.131  20.522  27.555  1.00  0.00     0.067 A 
ATOM     76  O   UNL A   1      40.816  19.617  25.971  1.00  0.00    -0.449 OA
ATOM     77  C   UNL A   1      41.047  21.409  27.323  1.00  0.00     0.021 A 
ATOM     78  C   UNL A   1      40.282  20.819  26.323  1.00  0.00     0.138 A 
ATOM     79  C   UNL A   1      40.661  22.668  27.814  1.00  0.00     0.015 A 
ATOM     80  C   UNL A   1      39.162  21.407  25.742  1.00  0.00     0.087 A 
ATOM     81  C   UNL A   1      39.536  23.288  27.252  1.00  0.00     0.040 A 
ATOM     82  C   UNL A   1      38.818  22.665  26.232  1.00  0.00     0.126 A 
ATOM     83  F   UNL A   1      37.768  23.305  25.699  1.00  0.00    -0.207 F 
ENDBRANCH  72  74
ENDBRANCH  71  72
ENDBRANCH  70  71
ENDBRANCH   1  70
TORSDOF 11
ENDMDL
