MODEL 1
REMARK VINA RESULT:     -11.0      0.000      0.000
REMARK SMILES CC[C@H]1CN(C(=O)N(CC(=O)OCCOC(=O)c2ccc(-c3c4nc(c(-c5c(F)c(F)c(F)c(F)c5F)c5ccc([nH]5)c(-c5c(F)c(F)c(F)c(F)c5F)c5nc(c(-c6c(F)c(F)c(F)c(F)c6F)c6ccc3[nH]6)C=C5)C=C4)cc2)C(C)(C)C)CC[N@@H+]1C
REMARK SMILES IDX 13 1 12 2 10 3 11 4 9 5 8 6 6 7 7 8 5 9 3 10 4 11 87 12
REMARK SMILES IDX 86 13 88 14 85 16 2 17 1 18 81 19 82 20 83 21 84 22 14 23
REMARK SMILES IDX 15 24 16 25 17 26 18 27 19 28 80 29 20 30 79 31 21 32 22 33
REMARK SMILES IDX 23 34 73 35 24 36 78 37 72 38 74 39 25 40 77 41 71 42 70 43
REMARK SMILES IDX 26 45 58 46 38 47 57 48 39 49 42 50 56 51 75 52 40 53 41 54
REMARK SMILES IDX 55 56 76 57 43 58 27 59 28 60 36 61 29 62 30 63 34 64 37 65
REMARK SMILES IDX 31 66 32 67 35 68 33 69 59 70 60 71 68 72 61 73 62 74 66 75
REMARK SMILES IDX 69 76 63 77 64 78 67 79 65 80 44 81 45 82 53 83 46 84 47 85
REMARK SMILES IDX 51 86 54 87 48 88 49 89 52 90 50 91
REMARK H PARENT 87 15 74 44 42 55
REMARK Flexibility Score: inf
ROOT
ATOM      1  C   UNL A   1      31.967  28.394  24.574  1.00  0.00     0.274 C 
ENDROOT
BRANCH   1   2
ATOM      2  O   UNL A   1      32.731  28.520  23.359  1.00  0.00    -0.461 OA
BRANCH   2   3
ATOM      3  C   UNL A   1      33.347  27.378  22.977  1.00  0.00     0.325 C 
ATOM      4  O   UNL A   1      33.712  27.135  21.827  1.00  0.00    -0.250 OA
BRANCH   3   5
ATOM      5  C   UNL A   1      33.502  26.324  24.062  1.00  0.00     0.244 C 
BRANCH   5   6
ATOM      6  N   UNL A   1      33.090  24.914  23.966  1.00  0.00    -0.309 N 
BRANCH   6   7
ATOM      7  C   UNL A   1      33.937  23.984  23.377  1.00  0.00     0.321 C 
ATOM      8  O   UNL A   1      33.855  23.712  22.178  1.00  0.00    -0.248 OA
BRANCH   7   9
ATOM      9  N   UNL A   1      34.834  23.304  24.190  1.00  0.00    -0.313 N 
ATOM     10  C   UNL A   1      35.391  21.818  26.136  1.00  0.00     0.203 C 
ATOM     11  C   UNL A   1      34.651  21.964  24.772  1.00  0.00     0.186 C 
ATOM     12  N   UNL A   1      36.835  22.145  26.032  1.00  0.00    -0.332 N 
ATOM     13  C   UNL A   1      37.030  23.465  25.394  1.00  0.00     0.284 C 
ATOM     14  C   UNL A   1      37.577  21.098  25.330  1.00  0.00     0.333 C 
ATOM     15  H   UNL A   1      37.211  22.194  26.978  1.00  0.00     0.348 HD
ATOM     16  C   UNL A   1      36.242  23.704  24.093  1.00  0.00     0.183 C 
BRANCH  10  17
ATOM     17  C   UNL A   1      34.705  22.673  27.234  1.00  0.00     0.063 C 
ATOM     18  C   UNL A   1      33.292  22.221  27.584  1.00  0.00     0.010 C 
ENDBRANCH  10  17
ENDBRANCH   7   9
ENDBRANCH   6   7
BRANCH   6  19
ATOM     19  C   UNL A   1      31.683  24.494  24.299  1.00  0.00     0.037 C 
ATOM     20  C   UNL A   1      31.251  24.931  25.712  1.00  0.00     0.034 C 
ATOM     21  C   UNL A   1      30.701  25.095  23.261  1.00  0.00     0.034 C 
ATOM     22  C   UNL A   1      31.486  22.968  24.212  1.00  0.00     0.034 C 
ENDBRANCH   6  19
ENDBRANCH   5   6
ENDBRANCH   3   5
ENDBRANCH   2   3
ENDBRANCH   1   2
BRANCH   1  23
ATOM     23  C   UNL A   1      31.918  29.701  25.367  1.00  0.00     0.275 C 
BRANCH  23  24
ATOM     24  O   UNL A   1      33.214  30.038  25.896  1.00  0.00    -0.458 OA
BRANCH  24  25
ATOM     25  C   UNL A   1      33.222  31.032  26.812  1.00  0.00     0.338 C 
ATOM     26  O   UNL A   1      32.404  31.929  26.934  1.00  0.00    -0.246 OA
BRANCH  25  27
ATOM     27  C   UNL A   1      34.389  30.919  27.712  1.00  0.00     0.060 A 
ATOM     28  C   UNL A   1      35.246  31.999  27.943  1.00  0.00     0.016 A 
ATOM     29  C   UNL A   1      34.712  29.655  28.206  1.00  0.00     0.016 A 
ATOM     30  C   UNL A   1      36.466  31.796  28.592  1.00  0.00     0.010 A 
ATOM     31  C   UNL A   1      35.891  29.473  28.930  1.00  0.00     0.010 A 
ATOM     32  C   UNL A   1      36.795  30.533  29.103  1.00  0.00    -0.014 A 
BRANCH  32  33
ATOM     33  C   UNL A   1      38.071  30.292  29.828  1.00  0.00     0.031 A 
ATOM     34  C   UNL A   1      39.115  29.380  29.244  1.00  0.00     0.074 A 
ATOM     35  C   UNL A   1      38.269  30.839  31.041  1.00  0.00     0.049 A 
ATOM     36  N   UNL A   1      40.166  28.848  29.816  1.00  0.00    -0.248 NA
ATOM     37  C   UNL A   1      38.951  29.011  27.829  1.00  0.00     0.031 C 
ATOM     38  C   UNL A   1      37.361  31.769  31.711  1.00  0.00     0.029 A 
ATOM     39  N   UNL A   1      39.295  30.671  31.938  1.00  0.00    -0.354 N 
ATOM     40  C   UNL A   1      40.758  28.044  28.851  1.00  0.00     0.074 A 
ATOM     41  C   UNL A   1      39.954  28.162  27.652  1.00  0.00     0.031 C 
ATOM     42  C   UNL A   1      37.869  32.093  32.909  1.00  0.00     0.029 A 
ATOM     43  C   UNL A   1      39.097  31.336  33.123  1.00  0.00     0.049 A 
ATOM     44  H   UNL A   1      40.094  30.126  31.751  1.00  0.00     0.167 HD
ATOM     45  C   UNL A   1      41.867  27.274  28.960  1.00  0.00     0.037 A 
ATOM     46  C   UNL A   1      39.795  31.301  34.273  1.00  0.00     0.037 A 
ATOM     47  C   UNL A   1      42.687  27.188  30.141  1.00  0.00     0.049 A 
ATOM     48  C   UNL A   1      40.996  30.408  34.385  1.00  0.00     0.074 A 
ATOM     49  C   UNL A   1      43.843  26.453  30.339  1.00  0.00     0.029 A 
ATOM     50  N   UNL A   1      42.442  27.870  31.323  1.00  0.00    -0.354 N 
ATOM     51  N   UNL A   1      41.521  29.614  33.486  1.00  0.00    -0.248 NA
ATOM     52  C   UNL A   1      41.689  30.393  35.681  1.00  0.00     0.031 C 
ATOM     53  C   UNL A   1      44.282  26.668  31.650  1.00  0.00     0.029 A 
ATOM     54  C   UNL A   1      43.418  27.564  32.258  1.00  0.00     0.049 A 
ATOM     55  H   UNL A   1      41.685  28.481  31.476  1.00  0.00     0.167 HD
ATOM     56  C   UNL A   1      42.609  29.013  34.099  1.00  0.00     0.074 A 
ATOM     57  C   UNL A   1      42.679  29.543  35.445  1.00  0.00     0.031 C 
ATOM     58  C   UNL A   1      43.473  28.100  33.592  1.00  0.00     0.037 A 
BRANCH  45  59
ATOM     59  C   UNL A   1      42.252  26.437  27.778  1.00  0.00     0.064 A 
ATOM     60  C   UNL A   1      43.210  26.866  26.849  1.00  0.00     0.173 A 
ATOM     61  C   UNL A   1      41.694  25.160  27.606  1.00  0.00     0.173 A 
ATOM     62  F   UNL A   1      43.763  28.083  26.965  1.00  0.00    -0.203 F 
ATOM     63  C   UNL A   1      43.585  26.054  25.782  1.00  0.00     0.198 A 
ATOM     64  C   UNL A   1      42.086  24.343  26.550  1.00  0.00     0.198 A 
ATOM     65  F   UNL A   1      40.777  24.702  28.472  1.00  0.00    -0.203 F 
ATOM     66  F   UNL A   1      44.481  26.496  24.889  1.00  0.00    -0.200 F 
ATOM     67  C   UNL A   1      43.029  24.791  25.637  1.00  0.00     0.200 A 
ATOM     68  F   UNL A   1      41.554  23.119  26.418  1.00  0.00    -0.200 F 
ATOM     69  F   UNL A   1      43.398  24.008  24.615  1.00  0.00    -0.200 F 
ENDBRANCH  45  59
BRANCH  46  70
ATOM     70  C   UNL A   1      39.341  32.119  35.424  1.00  0.00     0.064 A 
ATOM     71  C   UNL A   1      38.497  31.575  36.400  1.00  0.00     0.173 A 
ATOM     72  C   UNL A   1      39.765  33.447  35.587  1.00  0.00     0.173 A 
ATOM     73  F   UNL A   1      38.049  30.317  36.271  1.00  0.00    -0.203 F 
ATOM     74  C   UNL A   1      38.091  32.331  37.497  1.00  0.00     0.198 A 
ATOM     75  C   UNL A   1      39.378  34.192  36.697  1.00  0.00     0.198 A 
ATOM     76  F   UNL A   1      40.576  34.008  34.677  1.00  0.00    -0.203 F 
ATOM     77  F   UNL A   1      37.262  31.796  38.404  1.00  0.00    -0.200 F 
ATOM     78  C   UNL A   1      38.539  33.635  37.649  1.00  0.00     0.200 A 
ATOM     79  F   UNL A   1      39.823  35.447  36.846  1.00  0.00    -0.200 F 
ATOM     80  F   UNL A   1      38.158  34.355  38.712  1.00  0.00    -0.200 F 
ENDBRANCH  46  70
BRANCH  58  81
ATOM     81  C   UNL A   1      44.579  27.639  34.489  1.00  0.00     0.064 A 
ATOM     82  C   UNL A   1      45.778  28.358  34.600  1.00  0.00     0.173 A 
ATOM     83  C   UNL A   1      44.431  26.478  35.263  1.00  0.00     0.173 A 
ATOM     84  F   UNL A   1      45.971  29.463  33.865  1.00  0.00    -0.203 F 
ATOM     85  C   UNL A   1      46.797  27.920  35.442  1.00  0.00     0.198 A 
ATOM     86  C   UNL A   1      45.444  26.055  36.118  1.00  0.00     0.198 A 
ATOM     87  F   UNL A   1      43.300  25.759  35.190  1.00  0.00    -0.203 F 
ATOM     88  F   UNL A   1      47.950  28.601  35.505  1.00  0.00    -0.200 F 
ATOM     89  C   UNL A   1      46.628  26.773  36.203  1.00  0.00     0.200 A 
ATOM     90  F   UNL A   1      45.277  24.949  36.856  1.00  0.00    -0.200 F 
ATOM     91  F   UNL A   1      47.610  26.352  37.011  1.00  0.00    -0.200 F 
ENDBRANCH  58  81
ENDBRANCH  32  33
ENDBRANCH  25  27
ENDBRANCH  24  25
ENDBRANCH  23  24
ENDBRANCH   1  23
TORSDOF 16
ENDMDL
MODEL 2
REMARK VINA RESULT:     -11.0      1.051      2.210
REMARK SMILES CC[C@H]1CN(C(=O)N(CC(=O)OCCOC(=O)c2ccc(-c3c4nc(c(-c5c(F)c(F)c(F)c(F)c5F)c5ccc([nH]5)c(-c5c(F)c(F)c(F)c(F)c5F)c5nc(c(-c6c(F)c(F)c(F)c(F)c6F)c6ccc3[nH]6)C=C5)C=C4)cc2)C(C)(C)C)CC[N@@H+]1C
REMARK SMILES IDX 13 1 12 2 10 3 11 4 9 5 8 6 6 7 7 8 5 9 3 10 4 11 87 12
REMARK SMILES IDX 86 13 88 14 85 16 2 17 1 18 81 19 82 20 83 21 84 22 14 23
REMARK SMILES IDX 15 24 16 25 17 26 18 27 19 28 80 29 20 30 79 31 21 32 22 33
REMARK SMILES IDX 23 34 73 35 24 36 78 37 72 38 74 39 25 40 77 41 71 42 70 43
REMARK SMILES IDX 26 45 58 46 38 47 57 48 39 49 42 50 56 51 75 52 40 53 41 54
REMARK SMILES IDX 55 56 76 57 43 58 27 59 28 60 36 61 29 62 30 63 34 64 37 65
REMARK SMILES IDX 31 66 32 67 35 68 33 69 59 70 60 71 68 72 61 73 62 74 66 75
REMARK SMILES IDX 69 76 63 77 64 78 67 79 65 80 44 81 45 82 53 83 46 84 47 85
REMARK SMILES IDX 51 86 54 87 48 88 49 89 52 90 50 91
REMARK H PARENT 87 15 74 44 42 55
REMARK Flexibility Score: inf
ROOT
ATOM      1  C   UNL A   1      31.762  28.892  26.143  1.00  0.00     0.274 C 
ENDROOT
BRANCH   1   2
ATOM      2  O   UNL A   1      33.062  28.287  26.002  1.00  0.00    -0.461 OA
BRANCH   2   3
ATOM      3  C   UNL A   1      33.315  27.811  24.762  1.00  0.00     0.325 C 
ATOM      4  O   UNL A   1      33.416  28.511  23.755  1.00  0.00    -0.250 OA
BRANCH   3   5
ATOM      5  C   UNL A   1      33.391  26.297  24.645  1.00  0.00     0.244 C 
BRANCH   5   6
ATOM      6  N   UNL A   1      32.259  25.361  24.751  1.00  0.00    -0.309 N 
BRANCH   6   7
ATOM      7  C   UNL A   1      32.222  24.435  25.786  1.00  0.00     0.321 C 
ATOM      8  O   UNL A   1      31.468  24.580  26.749  1.00  0.00    -0.248 OA
BRANCH   7   9
ATOM      9  N   UNL A   1      33.117  23.374  25.751  1.00  0.00    -0.313 N 
ATOM     10  C   UNL A   1      34.047  21.278  24.727  1.00  0.00     0.203 C 
ATOM     11  C   UNL A   1      33.751  22.798  24.553  1.00  0.00     0.186 C 
ATOM     12  N   UNL A   1      34.866  20.998  25.932  1.00  0.00    -0.332 N 
ATOM     13  C   UNL A   1      34.267  21.622  27.132  1.00  0.00     0.284 C 
ATOM     14  C   UNL A   1      36.256  21.415  25.751  1.00  0.00     0.333 C 
ATOM     15  H   UNL A   1      34.874  19.987  26.074  1.00  0.00     0.348 HD
ATOM     16  C   UNL A   1      33.860  23.100  26.985  1.00  0.00     0.183 C 
BRANCH  10  17
ATOM     17  C   UNL A   1      32.733  20.454  24.744  1.00  0.00     0.063 C 
ATOM     18  C   UNL A   1      32.528  19.581  23.511  1.00  0.00     0.010 C 
ENDBRANCH  10  17
ENDBRANCH   7   9
ENDBRANCH   6   7
BRANCH   6  19
ATOM     19  C   UNL A   1      31.249  25.240  23.642  1.00  0.00     0.037 C 
ATOM     20  C   UNL A   1      30.652  23.823  23.534  1.00  0.00     0.034 C 
ATOM     21  C   UNL A   1      30.101  26.257  23.870  1.00  0.00     0.034 C 
ATOM     22  C   UNL A   1      31.841  25.593  22.263  1.00  0.00     0.034 C 
ENDBRANCH   6  19
ENDBRANCH   5   6
ENDBRANCH   3   5
ENDBRANCH   2   3
ENDBRANCH   1   2
BRANCH   1  23
ATOM     23  C   UNL A   1      31.847  30.359  26.564  1.00  0.00     0.275 C 
BRANCH  23  24
ATOM     24  O   UNL A   1      33.162  30.894  26.326  1.00  0.00    -0.458 OA
BRANCH  24  25
ATOM     25  C   UNL A   1      33.606  31.768  27.258  1.00  0.00     0.338 C 
ATOM     26  O   UNL A   1      33.059  32.794  27.626  1.00  0.00    -0.246 OA
BRANCH  25  27
ATOM     27  C   UNL A   1      34.898  31.332  27.826  1.00  0.00     0.060 A 
ATOM     28  C   UNL A   1      35.102  30.023  28.270  1.00  0.00     0.016 A 
ATOM     29  C   UNL A   1      35.870  32.306  28.061  1.00  0.00     0.016 A 
ATOM     30  C   UNL A   1      36.235  29.708  29.023  1.00  0.00     0.010 A 
ATOM     31  C   UNL A   1      37.043  31.969  28.738  1.00  0.00     0.010 A 
ATOM     32  C   UNL A   1      37.223  30.675  29.254  1.00  0.00    -0.014 A 
BRANCH  32  33
ATOM     33  C   UNL A   1      38.457  30.363  30.023  1.00  0.00     0.031 A 
ATOM     34  C   UNL A   1      39.491  29.431  29.453  1.00  0.00     0.074 A 
ATOM     35  C   UNL A   1      38.622  30.864  31.261  1.00  0.00     0.049 A 
ATOM     36  N   UNL A   1      40.496  28.841  30.051  1.00  0.00    -0.248 NA
ATOM     37  C   UNL A   1      39.375  29.113  28.021  1.00  0.00     0.031 C 
ATOM     38  C   UNL A   1      37.720  31.806  31.922  1.00  0.00     0.029 A 
ATOM     39  N   UNL A   1      39.601  30.628  32.195  1.00  0.00    -0.354 N 
ATOM     40  C   UNL A   1      41.099  28.046  29.087  1.00  0.00     0.074 A 
ATOM     41  C   UNL A   1      40.353  28.233  27.859  1.00  0.00     0.031 C 
ATOM     42  C   UNL A   1      38.188  32.073  33.151  1.00  0.00     0.029 A 
ATOM     43  C   UNL A   1      39.377  31.263  33.391  1.00  0.00     0.049 A 
ATOM     44  H   UNL A   1      40.387  30.060  32.023  1.00  0.00     0.167 HD
ATOM     45  C   UNL A   1      42.173  27.231  29.217  1.00  0.00     0.037 A 
ATOM     46  C   UNL A   1      40.022  31.165  34.568  1.00  0.00     0.037 A 
ATOM     47  C   UNL A   1      42.938  27.077  30.428  1.00  0.00     0.049 A 
ATOM     48  C   UNL A   1      41.183  30.224  34.701  1.00  0.00     0.074 A 
ATOM     49  C   UNL A   1      44.057  26.292  30.650  1.00  0.00     0.029 A 
ATOM     50  N   UNL A   1      42.666  27.730  31.620  1.00  0.00    -0.354 N 
ATOM     51  N   UNL A   1      41.717  29.439  33.799  1.00  0.00    -0.248 NA
ATOM     52  C   UNL A   1      41.818  30.142  36.024  1.00  0.00     0.031 C 
ATOM     53  C   UNL A   1      44.446  26.449  31.985  1.00  0.00     0.029 A 
ATOM     54  C   UNL A   1      43.589  27.358  32.585  1.00  0.00     0.049 A 
ATOM     55  H   UNL A   1      41.927  28.365  31.761  1.00  0.00     0.167 HD
ATOM     56  C   UNL A   1      42.755  28.778  34.437  1.00  0.00     0.074 A 
ATOM     57  C   UNL A   1      42.786  29.263  35.802  1.00  0.00     0.031 C 
ATOM     58  C   UNL A   1      43.606  27.849  33.937  1.00  0.00     0.037 A 
BRANCH  45  59
ATOM     59  C   UNL A   1      42.579  26.418  28.026  1.00  0.00     0.064 A 
ATOM     60  C   UNL A   1      42.083  25.124  27.811  1.00  0.00     0.173 A 
ATOM     61  C   UNL A   1      43.433  26.964  27.055  1.00  0.00     0.173 A 
ATOM     62  F   UNL A   1      41.272  24.555  28.716  1.00  0.00    -0.203 F 
ATOM     63  C   UNL A   1      42.438  24.402  26.674  1.00  0.00     0.198 A 
ATOM     64  C   UNL A   1      43.770  26.248  25.911  1.00  0.00     0.198 A 
ATOM     65  F   UNL A   1      43.930  28.200  27.212  1.00  0.00    -0.203 F 
ATOM     66  F   UNL A   1      41.976  23.156  26.504  1.00  0.00    -0.200 F 
ATOM     67  C   UNL A   1      43.275  24.966  25.723  1.00  0.00     0.200 A 
ATOM     68  F   UNL A   1      44.571  26.798  24.987  1.00  0.00    -0.200 F 
ATOM     69  F   UNL A   1      43.608  24.272  24.626  1.00  0.00    -0.200 F 
ENDBRANCH  45  59
BRANCH  46  70
ATOM     70  C   UNL A   1      39.549  31.963  35.725  1.00  0.00     0.064 A 
ATOM     71  C   UNL A   1      40.066  33.241  35.972  1.00  0.00     0.173 A 
ATOM     72  C   UNL A   1      38.553  31.479  36.587  1.00  0.00     0.173 A 
ATOM     73  F   UNL A   1      41.035  33.733  35.186  1.00  0.00    -0.203 F 
ATOM     74  C   UNL A   1      39.605  34.006  37.040  1.00  0.00     0.198 A 
ATOM     75  C   UNL A   1      38.077  32.255  37.640  1.00  0.00     0.198 A 
ATOM     76  F   UNL A   1      38.029  30.260  36.388  1.00  0.00    -0.203 F 
ATOM     77  F   UNL A   1      40.133  35.215  37.270  1.00  0.00    -0.200 F 
ATOM     78  C   UNL A   1      38.605  33.516  37.867  1.00  0.00     0.200 A 
ATOM     79  F   UNL A   1      37.102  31.783  38.429  1.00  0.00    -0.200 F 
ATOM     80  F   UNL A   1      38.153  34.259  38.886  1.00  0.00    -0.200 F 
ENDBRANCH  46  70
BRANCH  58  81
ATOM     81  C   UNL A   1      44.655  27.319  34.865  1.00  0.00     0.064 A 
ATOM     82  C   UNL A   1      45.860  28.003  35.073  1.00  0.00     0.173 A 
ATOM     83  C   UNL A   1      44.442  26.125  35.569  1.00  0.00     0.173 A 
ATOM     84  F   UNL A   1      46.115  29.139  34.406  1.00  0.00    -0.203 F 
ATOM     85  C   UNL A   1      46.825  27.500  35.942  1.00  0.00     0.198 A 
ATOM     86  C   UNL A   1      45.401  25.636  36.452  1.00  0.00     0.198 A 
ATOM     87  F   UNL A   1      43.303  25.436  35.403  1.00  0.00    -0.203 F 
ATOM     88  F   UNL A   1      47.988  28.150  36.098  1.00  0.00    -0.200 F 
ATOM     89  C   UNL A   1      46.594  26.321  36.633  1.00  0.00     0.200 A 
ATOM     90  F   UNL A   1      45.173  24.498  37.123  1.00  0.00    -0.200 F 
ATOM     91  F   UNL A   1      47.523  25.838  37.468  1.00  0.00    -0.200 F 
ENDBRANCH  58  81
ENDBRANCH  32  33
ENDBRANCH  25  27
ENDBRANCH  24  25
ENDBRANCH  23  24
ENDBRANCH   1  23
TORSDOF 16
ENDMDL
MODEL 3
REMARK VINA RESULT:     -10.9      1.052      2.218
REMARK SMILES CC[C@H]1CN(C(=O)N(CC(=O)OCCOC(=O)c2ccc(-c3c4nc(c(-c5c(F)c(F)c(F)c(F)c5F)c5ccc([nH]5)c(-c5c(F)c(F)c(F)c(F)c5F)c5nc(c(-c6c(F)c(F)c(F)c(F)c6F)c6ccc3[nH]6)C=C5)C=C4)cc2)C(C)(C)C)CC[N@@H+]1C
REMARK SMILES IDX 13 1 12 2 10 3 11 4 9 5 8 6 6 7 7 8 5 9 3 10 4 11 87 12
REMARK SMILES IDX 86 13 88 14 85 16 2 17 1 18 81 19 82 20 83 21 84 22 14 23
REMARK SMILES IDX 15 24 16 25 17 26 18 27 19 28 80 29 20 30 79 31 21 32 22 33
REMARK SMILES IDX 23 34 73 35 24 36 78 37 72 38 74 39 25 40 77 41 71 42 70 43
REMARK SMILES IDX 26 45 58 46 38 47 57 48 39 49 42 50 56 51 75 52 40 53 41 54
REMARK SMILES IDX 55 56 76 57 43 58 27 59 28 60 36 61 29 62 30 63 34 64 37 65
REMARK SMILES IDX 31 66 32 67 35 68 33 69 59 70 60 71 68 72 61 73 62 74 66 75
REMARK SMILES IDX 69 76 63 77 64 78 67 79 65 80 44 81 45 82 53 83 46 84 47 85
REMARK SMILES IDX 51 86 54 87 48 88 49 89 52 90 50 91
REMARK H PARENT 87 15 74 44 42 55
REMARK Flexibility Score: inf
ROOT
ATOM      1  C   UNL A   1      31.726  28.987  26.163  1.00  0.00     0.274 C 
ENDROOT
BRANCH   1   2
ATOM      2  O   UNL A   1      33.036  28.398  26.053  1.00  0.00    -0.461 OA
BRANCH   2   3
ATOM      3  C   UNL A   1      33.308  27.886  24.831  1.00  0.00     0.325 C 
ATOM      4  O   UNL A   1      33.442  28.558  23.809  1.00  0.00    -0.250 OA
BRANCH   3   5
ATOM      5  C   UNL A   1      33.363  26.369  24.755  1.00  0.00     0.244 C 
BRANCH   5   6
ATOM      6  N   UNL A   1      32.213  25.453  24.846  1.00  0.00    -0.309 N 
BRANCH   6   7
ATOM      7  C   UNL A   1      32.160  24.508  25.863  1.00  0.00     0.321 C 
ATOM      8  O   UNL A   1      31.405  24.646  26.825  1.00  0.00    -0.248 OA
BRANCH   7   9
ATOM      9  N   UNL A   1      33.040  23.436  25.810  1.00  0.00    -0.313 N 
ATOM     10  C   UNL A   1      33.925  21.330  24.768  1.00  0.00     0.203 C 
ATOM     11  C   UNL A   1      33.645  22.853  24.600  1.00  0.00     0.186 C 
ATOM     12  N   UNL A   1      34.762  21.038  25.958  1.00  0.00    -0.332 N 
ATOM     13  C   UNL A   1      34.193  21.668  27.169  1.00  0.00     0.284 C 
ATOM     14  C   UNL A   1      36.153  21.438  25.751  1.00  0.00     0.333 C 
ATOM     15  H   UNL A   1      34.760  20.027  26.098  1.00  0.00     0.348 HD
ATOM     16  C   UNL A   1      33.802  23.151  27.031  1.00  0.00     0.183 C 
BRANCH  10  17
ATOM     17  C   UNL A   1      32.600  20.523  24.808  1.00  0.00     0.063 C 
ATOM     18  C   UNL A   1      32.529  19.390  23.791  1.00  0.00     0.010 C 
ENDBRANCH  10  17
ENDBRANCH   7   9
ENDBRANCH   6   7
BRANCH   6  19
ATOM     19  C   UNL A   1      31.198  25.374  23.737  1.00  0.00     0.037 C 
ATOM     20  C   UNL A   1      30.652  23.948  23.532  1.00  0.00     0.034 C 
ATOM     21  C   UNL A   1      30.016  26.329  24.044  1.00  0.00     0.034 C 
ATOM     22  C   UNL A   1      31.765  25.846  22.383  1.00  0.00     0.034 C 
ENDBRANCH   6  19
ENDBRANCH   5   6
ENDBRANCH   3   5
ENDBRANCH   2   3
ENDBRANCH   1   2
BRANCH   1  23
ATOM     23  C   UNL A   1      31.785  30.463  26.560  1.00  0.00     0.275 C 
BRANCH  23  24
ATOM     24  O   UNL A   1      33.088  31.019  26.307  1.00  0.00    -0.458 OA
BRANCH  24  25
ATOM     25  C   UNL A   1      33.543  31.875  27.250  1.00  0.00     0.338 C 
ATOM     26  O   UNL A   1      33.001  32.894  27.643  1.00  0.00    -0.246 OA
BRANCH  25  27
ATOM     27  C   UNL A   1      34.841  31.428  27.796  1.00  0.00     0.060 A 
ATOM     28  C   UNL A   1      35.055  30.105  28.194  1.00  0.00     0.016 A 
ATOM     29  C   UNL A   1      35.809  32.399  28.059  1.00  0.00     0.016 A 
ATOM     30  C   UNL A   1      36.194  29.771  28.930  1.00  0.00     0.010 A 
ATOM     31  C   UNL A   1      36.987  32.045  28.717  1.00  0.00     0.010 A 
ATOM     32  C   UNL A   1      37.179  30.736  29.188  1.00  0.00    -0.014 A 
BRANCH  32  33
ATOM     33  C   UNL A   1      38.418  30.406  29.939  1.00  0.00     0.031 A 
ATOM     34  C   UNL A   1      39.437  29.470  29.348  1.00  0.00     0.074 A 
ATOM     35  C   UNL A   1      38.603  30.892  31.180  1.00  0.00     0.049 A 
ATOM     36  N   UNL A   1      40.443  28.866  29.928  1.00  0.00    -0.248 NA
ATOM     37  C   UNL A   1      39.301  29.168  27.914  1.00  0.00     0.031 C 
ATOM     38  C   UNL A   1      37.717  31.836  31.861  1.00  0.00     0.029 A 
ATOM     39  N   UNL A   1      39.591  30.638  32.100  1.00  0.00    -0.354 N 
ATOM     40  C   UNL A   1      41.028  28.075  28.948  1.00  0.00     0.074 A 
ATOM     41  C   UNL A   1      40.270  28.280  27.732  1.00  0.00     0.031 C 
ATOM     42  C   UNL A   1      38.201  32.086  33.087  1.00  0.00     0.029 A 
ATOM     43  C   UNL A   1      39.386  31.263  33.305  1.00  0.00     0.049 A 
ATOM     44  H   UNL A   1      40.368  30.065  31.913  1.00  0.00     0.167 HD
ATOM     45  C   UNL A   1      42.097  27.249  29.058  1.00  0.00     0.037 A 
ATOM     46  C   UNL A   1      40.044  31.148  34.473  1.00  0.00     0.037 A 
ATOM     47  C   UNL A   1      42.874  27.076  30.258  1.00  0.00     0.049 A 
ATOM     48  C   UNL A   1      41.198  30.196  34.583  1.00  0.00     0.074 A 
ATOM     49  C   UNL A   1      43.988  26.279  30.459  1.00  0.00     0.029 A 
ATOM     50  N   UNL A   1      42.623  27.720  31.460  1.00  0.00    -0.354 N 
ATOM     51  N   UNL A   1      41.714  29.415  33.667  1.00  0.00    -0.248 NA
ATOM     52  C   UNL A   1      41.848  30.094  35.897  1.00  0.00     0.031 C 
ATOM     53  C   UNL A   1      44.395  26.419  31.791  1.00  0.00     0.029 A 
ATOM     54  C   UNL A   1      43.553  27.329  32.410  1.00  0.00     0.049 A 
ATOM     55  H   UNL A   1      41.891  28.359  31.616  1.00  0.00     0.167 HD
ATOM     56  C   UNL A   1      42.754  28.738  34.286  1.00  0.00     0.074 A 
ATOM     57  C   UNL A   1      42.805  29.209  35.655  1.00  0.00     0.031 C 
ATOM     58  C   UNL A   1      43.590  27.807  33.767  1.00  0.00     0.037 A 
BRANCH  45  59
ATOM     59  C   UNL A   1      42.481  26.444  27.854  1.00  0.00     0.064 A 
ATOM     60  C   UNL A   1      43.462  26.882  26.954  1.00  0.00     0.173 A 
ATOM     61  C   UNL A   1      41.896  25.188  27.629  1.00  0.00     0.173 A 
ATOM     62  F   UNL A   1      44.041  28.081  27.120  1.00  0.00    -0.203 F 
ATOM     63  C   UNL A   1      43.834  26.098  25.865  1.00  0.00     0.198 A 
ATOM     64  C   UNL A   1      42.285  24.398  26.552  1.00  0.00     0.198 A 
ATOM     65  F   UNL A   1      40.956  24.722  28.465  1.00  0.00    -0.203 F 
ATOM     66  F   UNL A   1      44.754  26.550  25.001  1.00  0.00    -0.200 F 
ATOM     67  C   UNL A   1      43.251  24.855  25.668  1.00  0.00     0.200 A 
ATOM     68  F   UNL A   1      41.727  23.192  26.369  1.00  0.00    -0.200 F 
ATOM     69  F   UNL A   1      43.618  24.098  24.625  1.00  0.00    -0.200 F 
ENDBRANCH  45  59
BRANCH  46  70
ATOM     70  C   UNL A   1      39.592  31.938  35.644  1.00  0.00     0.064 A 
ATOM     71  C   UNL A   1      40.148  33.194  35.916  1.00  0.00     0.173 A 
ATOM     72  C   UNL A   1      38.578  31.469  36.493  1.00  0.00     0.173 A 
ATOM     73  F   UNL A   1      41.136  33.670  35.144  1.00  0.00    -0.203 F 
ATOM     74  C   UNL A   1      39.707  33.953  36.998  1.00  0.00     0.198 A 
ATOM     75  C   UNL A   1      38.122  32.240  37.559  1.00  0.00     0.198 A 
ATOM     76  F   UNL A   1      38.015  30.272  36.269  1.00  0.00    -0.203 F 
ATOM     77  F   UNL A   1      40.272  35.140  37.253  1.00  0.00    -0.200 F 
ATOM     78  C   UNL A   1      38.688  33.479  37.812  1.00  0.00     0.200 A 
ATOM     79  F   UNL A   1      37.129  31.784  38.335  1.00  0.00    -0.200 F 
ATOM     80  F   UNL A   1      38.256  34.216  38.844  1.00  0.00    -0.200 F 
ENDBRANCH  46  70
BRANCH  58  81
ATOM     81  C   UNL A   1      44.645  27.258  34.676  1.00  0.00     0.064 A 
ATOM     82  C   UNL A   1      44.441  26.077  35.405  1.00  0.00     0.173 A 
ATOM     83  C   UNL A   1      45.882  27.907  34.803  1.00  0.00     0.173 A 
ATOM     84  F   UNL A   1      43.267  25.433  35.329  1.00  0.00    -0.203 F 
ATOM     85  C   UNL A   1      45.433  25.576  36.243  1.00  0.00     0.198 A 
ATOM     86  C   UNL A   1      46.879  27.391  35.627  1.00  0.00     0.198 A 
ATOM     87  F   UNL A   1      46.124  29.039  34.124  1.00  0.00    -0.203 F 
ATOM     88  F   UNL A   1      45.203  24.467  36.961  1.00  0.00    -0.200 F 
ATOM     89  C   UNL A   1      46.651  26.230  36.351  1.00  0.00     0.200 A 
ATOM     90  F   UNL A   1      48.057  28.023  35.726  1.00  0.00    -0.200 F 
ATOM     91  F   UNL A   1      47.604  25.747  37.159  1.00  0.00    -0.200 F 
ENDBRANCH  58  81
ENDBRANCH  32  33
ENDBRANCH  25  27
ENDBRANCH  24  25
ENDBRANCH  23  24
ENDBRANCH   1  23
TORSDOF 16
ENDMDL
