MODEL 1
REMARK VINA RESULT:     -12.1      0.000      0.000
REMARK SMILES CCOc1ccc(C(=O)NNC(=O)[C@H]2CC=CC[C@H]2C(=O)OCCOC(=O)c2ccc(-c3c4nc(c(-c5c(F)c(F)c(F)c(F)c5F)c5ccc([nH]5)c(-c5c(F)c(F)c(F)c(F)c5F)c5nc(c(-c6c(F)c(F)c(F)c(F)c6F)c6ccc3[nH]6)C=C5)C=C4)cc2)cc1
REMARK SMILES IDX 22 1 20 2 21 3 19 4 14 5 15 6 16 7 18 8 17 9 12 10 11 11
REMARK SMILES IDX 13 13 10 14 8 15 9 16 7 18 4 19 5 20 92 21 6 22 91 23 3 24
REMARK SMILES IDX 2 25 1 26 23 27 24 28 25 29 26 30 27 31 28 32 29 33 90 34
REMARK SMILES IDX 30 35 89 36 31 37 32 38 33 39 83 40 34 41 88 42 82 43 84 44
REMARK SMILES IDX 35 45 87 46 81 47 80 48 36 50 68 51 48 52 67 53 49 54 52 55
REMARK SMILES IDX 66 56 85 57 50 58 51 59 65 61 86 62 53 63 37 64 38 65 46 66
REMARK SMILES IDX 39 67 40 68 44 69 47 70 41 71 42 72 45 73 43 74 69 75 70 76
REMARK SMILES IDX 78 77 71 78 72 79 76 80 79 81 73 82 74 83 77 84 75 85 54 86
REMARK SMILES IDX 55 87 63 88 56 89 57 90 61 91 64 92 58 93 59 94 62 95 60 96
REMARK H PARENT 11 12 10 17 84 49 52 60
REMARK Flexibility Score: inf
ROOT
ATOM      1  O   UNL A   1      32.230  27.690  27.164  1.00  0.00    -0.462 OA
ENDROOT
BRANCH   1   2
ATOM      2  C   UNL A   1      31.643  26.876  26.262  1.00  0.00     0.310 C 
ATOM      3  O   UNL A   1      30.543  26.351  26.418  1.00  0.00    -0.252 OA
BRANCH   2   4
ATOM      4  C   UNL A   1      32.444  26.642  25.005  1.00  0.00     0.116 C 
ATOM      5  C   UNL A   1      32.608  25.227  24.429  1.00  0.00     0.098 C 
ATOM      6  C   UNL A   1      33.849  25.273  23.481  1.00  0.00     0.041 C 
ATOM      7  C   UNL A   1      33.922  26.518  22.624  1.00  0.00    -0.030 C 
ATOM      8  C   UNL A   1      32.152  27.698  23.944  1.00  0.00     0.043 C 
ATOM      9  C   UNL A   1      33.136  27.592  22.810  1.00  0.00    -0.030 C 
BRANCH   5  10
ATOM     10  C   UNL A   1      31.439  24.666  23.608  1.00  0.00     0.242 C 
ATOM     11  N   UNL A   1      30.535  23.804  24.170  1.00  0.00    -0.267 N 
ATOM     12  H   UNL A   1      30.019  23.239  23.552  1.00  0.00     0.191 HD
ATOM     13  O   UNL A   1      31.314  24.882  22.399  1.00  0.00    -0.273 OA
BRANCH  11  14
ATOM     14  N   UNL A   1      30.276  23.649  25.514  1.00  0.00    -0.263 N 
ATOM     15  C   UNL A   1      31.088  22.989  26.423  1.00  0.00     0.269 C 
ATOM     16  O   UNL A   1      30.852  23.125  27.626  1.00  0.00    -0.267 OA
ATOM     17  H   UNL A   1      29.442  24.042  25.859  1.00  0.00     0.191 HD
BRANCH  15  18
ATOM     18  C   UNL A   1      32.277  22.159  26.053  1.00  0.00     0.041 A 
ATOM     19  C   UNL A   1      34.702  21.111  25.162  1.00  0.00     0.119 A 
ATOM     20  C   UNL A   1      34.704  21.966  26.253  1.00  0.00     0.047 A 
ATOM     21  C   UNL A   1      33.507  20.619  24.650  1.00  0.00     0.047 A 
ATOM     22  C   UNL A   1      33.491  22.494  26.691  1.00  0.00     0.018 A 
ATOM     23  C   UNL A   1      32.292  21.131  25.108  1.00  0.00     0.018 A 
BRANCH  19  24
ATOM     24  O   UNL A   1      35.881  20.759  24.568  1.00  0.00    -0.494 OA
BRANCH  24  25
ATOM     25  C   UNL A   1      36.793  21.875  24.583  1.00  0.00     0.226 C 
ATOM     26  C   UNL A   1      36.609  22.767  23.362  1.00  0.00     0.049 C 
ENDBRANCH  24  25
ENDBRANCH  19  24
ENDBRANCH  15  18
ENDBRANCH  11  14
ENDBRANCH   5  10
ENDBRANCH   2   4
ENDBRANCH   1   2
BRANCH   1  27
ATOM     27  C   UNL A   1      31.501  28.900  27.473  1.00  0.00     0.274 C 
BRANCH  27  28
ATOM     28  C   UNL A   1      31.797  30.049  26.505  1.00  0.00     0.275 C 
BRANCH  28  29
ATOM     29  O   UNL A   1      33.187  30.380  26.439  1.00  0.00    -0.458 OA
BRANCH  29  30
ATOM     30  C   UNL A   1      33.567  31.448  27.175  1.00  0.00     0.338 C 
ATOM     31  O   UNL A   1      32.986  32.502  27.370  1.00  0.00    -0.246 OA
BRANCH  30  32
ATOM     32  C   UNL A   1      34.824  31.090  27.818  1.00  0.00     0.060 A 
ATOM     33  C   UNL A   1      35.797  32.075  27.993  1.00  0.00     0.016 A 
ATOM     34  C   UNL A   1      35.005  29.787  28.275  1.00  0.00     0.016 A 
ATOM     35  C   UNL A   1      36.968  31.764  28.661  1.00  0.00     0.010 A 
ATOM     36  C   UNL A   1      36.164  29.484  28.973  1.00  0.00     0.010 A 
ATOM     37  C   UNL A   1      37.142  30.474  29.175  1.00  0.00    -0.014 A 
BRANCH  37  38
ATOM     38  C   UNL A   1      38.355  30.150  29.942  1.00  0.00     0.031 A 
ATOM     39  C   UNL A   1      39.361  29.218  29.352  1.00  0.00     0.074 A 
ATOM     40  C   UNL A   1      38.501  30.676  31.171  1.00  0.00     0.049 A 
ATOM     41  N   UNL A   1      40.438  28.715  29.891  1.00  0.00    -0.248 NA
ATOM     42  C   UNL A   1      39.110  28.775  27.971  1.00  0.00     0.031 C 
ATOM     43  C   UNL A   1      37.566  31.609  31.805  1.00  0.00     0.029 A 
ATOM     44  N   UNL A   1      39.482  30.497  32.108  1.00  0.00    -0.354 N 
ATOM     45  C   UNL A   1      40.978  27.874  28.929  1.00  0.00     0.074 A 
ATOM     46  C   UNL A   1      40.098  27.912  27.782  1.00  0.00     0.031 C 
ATOM     47  C   UNL A   1      38.027  31.933  33.022  1.00  0.00     0.029 A 
ATOM     48  C   UNL A   1      39.255  31.188  33.272  1.00  0.00     0.049 A 
ATOM     49  H   UNL A   1      40.272  29.930  31.961  1.00  0.00     0.167 HD
ATOM     50  C   UNL A   1      42.112  27.141  29.010  1.00  0.00     0.037 A 
ATOM     51  C   UNL A   1      39.959  31.190  34.419  1.00  0.00     0.037 A 
ATOM     52  C   UNL A   1      42.966  27.133  30.169  1.00  0.00     0.049 A 
ATOM     53  C   UNL A   1      41.191  30.331  34.494  1.00  0.00     0.074 A 
ATOM     54  C   UNL A   1      44.158  26.461  30.362  1.00  0.00     0.029 A 
ATOM     55  N   UNL A   1      42.703  27.832  31.343  1.00  0.00    -0.354 N 
ATOM     56  N   UNL A   1      41.720  29.560  33.572  1.00  0.00    -0.248 NA
ATOM     57  C   UNL A   1      41.921  30.337  35.765  1.00  0.00     0.031 C 
ATOM     58  C   UNL A   1      44.583  26.702  31.672  1.00  0.00     0.029 A 
ATOM     59  C   UNL A   1      43.694  27.581  32.275  1.00  0.00     0.049 A 
ATOM     60  H   UNL A   1      41.926  28.420  31.488  1.00  0.00     0.167 HD
ATOM     61  C   UNL A   1      42.860  29.013  34.139  1.00  0.00     0.074 A 
ATOM     62  C   UNL A   1      42.952  29.554  35.483  1.00  0.00     0.031 C 
ATOM     63  C   UNL A   1      43.754  28.144  33.604  1.00  0.00     0.037 A 
BRANCH  50  64
ATOM     64  C   UNL A   1      42.454  26.263  27.841  1.00  0.00     0.064 A 
ATOM     65  C   UNL A   1      41.893  24.987  27.675  1.00  0.00     0.173 A 
ATOM     66  C   UNL A   1      43.370  26.703  26.872  1.00  0.00     0.173 A 
ATOM     67  F   UNL A   1      41.026  24.507  28.580  1.00  0.00    -0.203 F 
ATOM     68  C   UNL A   1      42.264  24.172  26.608  1.00  0.00     0.198 A 
ATOM     69  C   UNL A   1      43.711  25.899  25.787  1.00  0.00     0.198 A 
ATOM     70  F   UNL A   1      43.940  27.913  26.980  1.00  0.00    -0.203 F 
ATOM     71  F   UNL A   1      41.764  22.932  26.509  1.00  0.00    -0.200 F 
ATOM     72  C   UNL A   1      43.168  24.630  25.662  1.00  0.00     0.200 A 
ATOM     73  F   UNL A   1      44.578  26.349  24.869  1.00  0.00    -0.200 F 
ATOM     74  F   UNL A   1      43.524  23.845  24.636  1.00  0.00    -0.200 F 
ENDBRANCH  50  64
BRANCH  51  75
ATOM     75  C   UNL A   1      39.523  32.034  35.561  1.00  0.00     0.064 A 
ATOM     76  C   UNL A   1      38.609  31.547  36.506  1.00  0.00     0.173 A 
ATOM     77  C   UNL A   1      40.015  33.336  35.745  1.00  0.00     0.173 A 
ATOM     78  F   UNL A   1      38.097  30.315  36.367  1.00  0.00    -0.203 F 
ATOM     79  C   UNL A   1      38.192  32.332  37.579  1.00  0.00     0.198 A 
ATOM     80  C   UNL A   1      39.622  34.109  36.834  1.00  0.00     0.198 A 
ATOM     81  F   UNL A   1      40.897  33.850  34.874  1.00  0.00    -0.203 F 
ATOM     82  F   UNL A   1      37.285  31.855  38.441  1.00  0.00    -0.200 F 
ATOM     83  C   UNL A   1      38.703  33.610  37.746  1.00  0.00     0.200 A 
ATOM     84  F   UNL A   1      40.130  35.337  37.002  1.00  0.00    -0.200 F 
ATOM     85  F   UNL A   1      38.306  34.362  38.781  1.00  0.00    -0.200 F 
ENDBRANCH  51  75
BRANCH  63  86
ATOM     86  C   UNL A   1      44.926  27.763  34.460  1.00  0.00     0.064 A 
ATOM     87  C   UNL A   1      46.109  28.515  34.471  1.00  0.00     0.173 A 
ATOM     88  C   UNL A   1      44.843  26.650  35.312  1.00  0.00     0.173 A 
ATOM     89  F   UNL A   1      46.242  29.578  33.663  1.00  0.00    -0.203 F 
ATOM     90  C   UNL A   1      47.180  28.148  35.281  1.00  0.00     0.198 A 
ATOM     91  C   UNL A   1      45.901  26.309  36.147  1.00  0.00     0.198 A 
ATOM     92  F   UNL A   1      43.728  25.903  35.343  1.00  0.00    -0.203 F 
ATOM     93  F   UNL A   1      48.322  28.847  35.235  1.00  0.00    -0.200 F 
ATOM     94  C   UNL A   1      47.071  27.052  36.125  1.00  0.00     0.200 A 
ATOM     95  F   UNL A   1      45.787  25.262  36.976  1.00  0.00    -0.200 F 
ATOM     96  F   UNL A   1      48.099  26.707  36.912  1.00  0.00    -0.200 F 
ENDBRANCH  63  86
ENDBRANCH  37  38
ENDBRANCH  30  32
ENDBRANCH  29  30
ENDBRANCH  28  29
ENDBRANCH  27  28
ENDBRANCH   1  27
TORSDOF 16
ENDMDL
MODEL 2
REMARK VINA RESULT:     -12.1      3.994      9.536
REMARK SMILES CCOc1ccc(C(=O)NNC(=O)[C@H]2CC=CC[C@H]2C(=O)OCCOC(=O)c2ccc(-c3c4nc(c(-c5c(F)c(F)c(F)c(F)c5F)c5ccc([nH]5)c(-c5c(F)c(F)c(F)c(F)c5F)c5nc(c(-c6c(F)c(F)c(F)c(F)c6F)c6ccc3[nH]6)C=C5)C=C4)cc2)cc1
REMARK SMILES IDX 22 1 20 2 21 3 19 4 14 5 15 6 16 7 18 8 17 9 12 10 11 11
REMARK SMILES IDX 13 13 10 14 8 15 9 16 7 18 4 19 5 20 92 21 6 22 91 23 3 24
REMARK SMILES IDX 2 25 1 26 23 27 24 28 25 29 26 30 27 31 28 32 29 33 90 34
REMARK SMILES IDX 30 35 89 36 31 37 32 38 33 39 83 40 34 41 88 42 82 43 84 44
REMARK SMILES IDX 35 45 87 46 81 47 80 48 36 50 68 51 48 52 67 53 49 54 52 55
REMARK SMILES IDX 66 56 85 57 50 58 51 59 65 61 86 62 53 63 37 64 38 65 46 66
REMARK SMILES IDX 39 67 40 68 44 69 47 70 41 71 42 72 45 73 43 74 69 75 70 76
REMARK SMILES IDX 78 77 71 78 72 79 76 80 79 81 73 82 74 83 77 84 75 85 54 86
REMARK SMILES IDX 55 87 63 88 56 89 57 90 61 91 64 92 58 93 59 94 62 95 60 96
REMARK H PARENT 11 12 10 17 84 49 52 60
REMARK Flexibility Score: inf
ROOT
ATOM      1  O   UNL A   1      36.198  23.399  23.815  1.00  0.00    -0.462 OA
ENDROOT
BRANCH   1   2
ATOM      2  C   UNL A   1      34.874  23.341  23.557  1.00  0.00     0.310 C 
ATOM      3  O   UNL A   1      34.396  23.148  22.441  1.00  0.00    -0.252 OA
BRANCH   2   4
ATOM      4  C   UNL A   1      33.985  23.528  24.761  1.00  0.00     0.116 C 
ATOM      5  C   UNL A   1      32.807  24.514  24.724  1.00  0.00     0.098 C 
ATOM      6  C   UNL A   1      32.441  24.826  26.210  1.00  0.00     0.041 C 
ATOM      7  C   UNL A   1      32.463  23.614  27.116  1.00  0.00    -0.030 C 
ATOM      8  C   UNL A   1      33.640  22.197  25.422  1.00  0.00     0.043 C 
ATOM      9  C   UNL A   1      32.970  22.426  26.750  1.00  0.00    -0.030 C 
BRANCH   5  10
ATOM     10  C   UNL A   1      31.520  24.041  24.036  1.00  0.00     0.242 C 
ATOM     11  N   UNL A   1      31.230  24.419  22.752  1.00  0.00    -0.267 N 
ATOM     12  H   UNL A   1      30.286  24.367  22.477  1.00  0.00     0.191 HD
ATOM     13  O   UNL A   1      30.653  23.390  24.626  1.00  0.00    -0.273 OA
BRANCH  11  14
ATOM     14  N   UNL A   1      32.126  24.865  21.805  1.00  0.00    -0.263 N 
ATOM     15  C   UNL A   1      32.699  26.127  21.764  1.00  0.00     0.269 C 
ATOM     16  O   UNL A   1      33.652  26.313  21.004  1.00  0.00    -0.267 OA
ATOM     17  H   UNL A   1      32.384  24.231  21.097  1.00  0.00     0.191 HD
BRANCH  15  18
ATOM     18  C   UNL A   1      32.277  27.278  22.622  1.00  0.00     0.041 A 
ATOM     19  C   UNL A   1      31.703  29.102  24.651  1.00  0.00     0.119 A 
ATOM     20  C   UNL A   1      33.028  28.875  24.311  1.00  0.00     0.047 A 
ATOM     21  C   UNL A   1      30.674  28.595  23.867  1.00  0.00     0.047 A 
ATOM     22  C   UNL A   1      33.311  27.958  23.301  1.00  0.00     0.018 A 
ATOM     23  C   UNL A   1      30.962  27.695  22.840  1.00  0.00     0.018 A 
BRANCH  19  24
ATOM     24  O   UNL A   1      31.400  29.814  25.777  1.00  0.00    -0.494 OA
BRANCH  24  25
ATOM     25  C   UNL A   1      32.198  29.349  26.884  1.00  0.00     0.226 C 
ATOM     26  C   UNL A   1      31.519  28.205  27.625  1.00  0.00     0.049 C 
ENDBRANCH  24  25
ENDBRANCH  19  24
ENDBRANCH  15  18
ENDBRANCH  11  14
ENDBRANCH   5  10
ENDBRANCH   2   4
ENDBRANCH   1   2
BRANCH   1  27
ATOM     27  C   UNL A   1      36.947  22.209  23.481  1.00  0.00     0.274 C 
BRANCH  27  28
ATOM     28  C   UNL A   1      37.019  21.196  24.627  1.00  0.00     0.275 C 
BRANCH  28  29
ATOM     29  O   UNL A   1      37.529  21.760  25.839  1.00  0.00    -0.458 OA
BRANCH  29  30
ATOM     30  C   UNL A   1      38.816  21.461  26.124  1.00  0.00     0.338 C 
ATOM     31  O   UNL A   1      39.420  20.413  25.976  1.00  0.00    -0.246 OA
BRANCH  30  32
ATOM     32  C   UNL A   1      39.441  22.694  26.583  1.00  0.00     0.060 A 
ATOM     33  C   UNL A   1      40.541  22.615  27.438  1.00  0.00     0.016 A 
ATOM     34  C   UNL A   1      38.951  23.914  26.125  1.00  0.00     0.016 A 
ATOM     35  C   UNL A   1      41.185  23.776  27.829  1.00  0.00     0.010 A 
ATOM     36  C   UNL A   1      39.617  25.075  26.490  1.00  0.00     0.010 A 
ATOM     37  C   UNL A   1      40.739  25.007  27.334  1.00  0.00    -0.014 A 
BRANCH  37  38
ATOM     38  C   UNL A   1      41.455  26.241  27.692  1.00  0.00     0.031 A 
ATOM     39  C   UNL A   1      40.736  27.304  28.456  1.00  0.00     0.074 A 
ATOM     40  C   UNL A   1      42.728  26.389  27.284  1.00  0.00     0.049 A 
ATOM     41  N   UNL A   1      41.136  28.503  28.779  1.00  0.00    -0.248 NA
ATOM     42  C   UNL A   1      39.371  26.979  28.899  1.00  0.00     0.031 C 
ATOM     43  C   UNL A   1      43.500  25.385  26.549  1.00  0.00     0.029 A 
ATOM     44  N   UNL A   1      43.593  27.441  27.423  1.00  0.00    -0.354 N 
ATOM     45  C   UNL A   1      40.064  29.087  29.438  1.00  0.00     0.074 A 
ATOM     46  C   UNL A   1      38.987  28.123  29.445  1.00  0.00     0.031 C 
ATOM     47  C   UNL A   1      44.731  25.863  26.314  1.00  0.00     0.029 A 
ATOM     48  C   UNL A   1      44.812  27.224  26.831  1.00  0.00     0.049 A 
ATOM     49  H   UNL A   1      43.363  28.270  27.899  1.00  0.00     0.167 HD
ATOM     50  C   UNL A   1      40.000  30.323  29.984  1.00  0.00     0.037 A 
ATOM     51  C   UNL A   1      45.864  28.053  26.705  1.00  0.00     0.037 A 
ATOM     52  C   UNL A   1      41.097  31.255  29.960  1.00  0.00     0.049 A 
ATOM     53  C   UNL A   1      45.747  29.436  27.285  1.00  0.00     0.074 A 
ATOM     54  C   UNL A   1      41.170  32.522  30.508  1.00  0.00     0.029 A 
ATOM     55  N   UNL A   1      42.319  31.014  29.339  1.00  0.00    -0.354 N 
ATOM     56  N   UNL A   1      44.745  29.978  27.936  1.00  0.00    -0.248 NA
ATOM     57  C   UNL A   1      46.901  30.322  27.110  1.00  0.00     0.031 C 
ATOM     58  C   UNL A   1      42.410  33.071  30.164  1.00  0.00     0.029 A 
ATOM     59  C   UNL A   1      43.139  32.122  29.462  1.00  0.00     0.049 A 
ATOM     60  H   UNL A   1      42.564  30.177  28.879  1.00  0.00     0.167 HD
ATOM     61  C   UNL A   1      45.156  31.258  28.276  1.00  0.00     0.074 A 
ATOM     62  C   UNL A   1      46.508  31.403  27.768  1.00  0.00     0.031 C 
ATOM     63  C   UNL A   1      44.484  32.227  28.947  1.00  0.00     0.037 A 
BRANCH  50  64
ATOM     64  C   UNL A   1      38.696  30.742  30.599  1.00  0.00     0.064 A 
ATOM     65  C   UNL A   1      37.630  31.233  29.830  1.00  0.00     0.173 A 
ATOM     66  C   UNL A   1      38.513  30.660  31.989  1.00  0.00     0.173 A 
ATOM     67  F   UNL A   1      37.755  31.350  28.499  1.00  0.00    -0.203 F 
ATOM     68  C   UNL A   1      36.447  31.660  30.430  1.00  0.00     0.198 A 
ATOM     69  C   UNL A   1      37.316  31.055  32.582  1.00  0.00     0.198 A 
ATOM     70  F   UNL A   1      39.498  30.201  32.775  1.00  0.00    -0.203 F 
ATOM     71  F   UNL A   1      35.470  32.187  29.679  1.00  0.00    -0.200 F 
ATOM     72  C   UNL A   1      36.289  31.566  31.804  1.00  0.00     0.200 A 
ATOM     73  F   UNL A   1      37.163  30.953  33.909  1.00  0.00    -0.200 F 
ATOM     74  F   UNL A   1      35.152  31.978  32.381  1.00  0.00    -0.200 F 
ENDBRANCH  50  64
BRANCH  51  75
ATOM     75  C   UNL A   1      47.101  27.593  26.023  1.00  0.00     0.064 A 
ATOM     76  C   UNL A   1      47.236  27.701  24.632  1.00  0.00     0.173 A 
ATOM     77  C   UNL A   1      48.178  27.050  26.740  1.00  0.00     0.173 A 
ATOM     78  F   UNL A   1      46.229  28.199  23.899  1.00  0.00    -0.203 F 
ATOM     79  C   UNL A   1      48.391  27.270  23.983  1.00  0.00     0.198 A 
ATOM     80  C   UNL A   1      49.345  26.647  26.094  1.00  0.00     0.198 A 
ATOM     81  F   UNL A   1      48.106  26.929  28.074  1.00  0.00    -0.203 F 
ATOM     82  F   UNL A   1      48.473  27.346  22.648  1.00  0.00    -0.200 F 
ATOM     83  C   UNL A   1      49.447  26.748  24.715  1.00  0.00     0.200 A 
ATOM     84  F   UNL A   1      50.370  26.160  26.806  1.00  0.00    -0.200 F 
ATOM     85  F   UNL A   1      50.560  26.339  24.090  1.00  0.00    -0.200 F 
ENDBRANCH  51  75
BRANCH  63  86
ATOM     86  C   UNL A   1      45.221  33.509  29.203  1.00  0.00     0.064 A 
ATOM     87  C   UNL A   1      46.020  33.687  30.340  1.00  0.00     0.173 A 
ATOM     88  C   UNL A   1      45.154  34.557  28.272  1.00  0.00     0.173 A 
ATOM     89  F   UNL A   1      46.103  32.721  31.267  1.00  0.00    -0.203 F 
ATOM     90  C   UNL A   1      46.701  34.883  30.553  1.00  0.00     0.198 A 
ATOM     91  C   UNL A   1      45.867  35.735  28.468  1.00  0.00     0.198 A 
ATOM     92  F   UNL A   1      44.409  34.431  27.163  1.00  0.00    -0.203 F 
ATOM     93  F   UNL A   1      47.415  35.055  31.674  1.00  0.00    -0.200 F 
ATOM     94  C   UNL A   1      46.632  35.900  29.612  1.00  0.00     0.200 A 
ATOM     95  F   UNL A   1      45.814  36.709  27.550  1.00  0.00    -0.200 F 
ATOM     96  F   UNL A   1      47.298  37.045  29.813  1.00  0.00    -0.200 F 
ENDBRANCH  63  86
ENDBRANCH  37  38
ENDBRANCH  30  32
ENDBRANCH  29  30
ENDBRANCH  28  29
ENDBRANCH  27  28
ENDBRANCH   1  27
TORSDOF 16
ENDMDL
MODEL 3
REMARK VINA RESULT:     -11.9      4.047      9.509
REMARK SMILES CCOc1ccc(C(=O)NNC(=O)[C@H]2CC=CC[C@H]2C(=O)OCCOC(=O)c2ccc(-c3c4nc(c(-c5c(F)c(F)c(F)c(F)c5F)c5ccc([nH]5)c(-c5c(F)c(F)c(F)c(F)c5F)c5nc(c(-c6c(F)c(F)c(F)c(F)c6F)c6ccc3[nH]6)C=C5)C=C4)cc2)cc1
REMARK SMILES IDX 22 1 20 2 21 3 19 4 14 5 15 6 16 7 18 8 17 9 12 10 11 11
REMARK SMILES IDX 13 13 10 14 8 15 9 16 7 18 4 19 5 20 92 21 6 22 91 23 3 24
REMARK SMILES IDX 2 25 1 26 23 27 24 28 25 29 26 30 27 31 28 32 29 33 90 34
REMARK SMILES IDX 30 35 89 36 31 37 32 38 33 39 83 40 34 41 88 42 82 43 84 44
REMARK SMILES IDX 35 45 87 46 81 47 80 48 36 50 68 51 48 52 67 53 49 54 52 55
REMARK SMILES IDX 66 56 85 57 50 58 51 59 65 61 86 62 53 63 37 64 38 65 46 66
REMARK SMILES IDX 39 67 40 68 44 69 47 70 41 71 42 72 45 73 43 74 69 75 70 76
REMARK SMILES IDX 78 77 71 78 72 79 76 80 79 81 73 82 74 83 77 84 75 85 54 86
REMARK SMILES IDX 55 87 63 88 56 89 57 90 61 91 64 92 58 93 59 94 62 95 60 96
REMARK H PARENT 11 12 10 17 84 49 52 60
REMARK Flexibility Score: inf
ROOT
ATOM      1  O   UNL A   1      35.846  22.930  22.757  1.00  0.00    -0.462 OA
ENDROOT
BRANCH   1   2
ATOM      2  C   UNL A   1      34.502  23.031  22.813  1.00  0.00     0.310 C 
ATOM      3  O   UNL A   1      33.767  23.039  21.828  1.00  0.00    -0.252 OA
BRANCH   2   4
ATOM      4  C   UNL A   1      33.933  23.133  24.207  1.00  0.00     0.116 C 
ATOM      5  C   UNL A   1      32.983  24.280  24.587  1.00  0.00     0.098 C 
ATOM      6  C   UNL A   1      32.997  24.372  26.147  1.00  0.00     0.041 C 
ATOM      7  C   UNL A   1      32.975  23.028  26.842  1.00  0.00    -0.030 C 
ATOM      8  C   UNL A   1      33.484  21.774  24.736  1.00  0.00     0.043 C 
ATOM      9  C   UNL A   1      33.159  21.861  26.203  1.00  0.00    -0.030 C 
BRANCH   5  10
ATOM     10  C   UNL A   1      31.515  24.143  24.161  1.00  0.00     0.242 C 
ATOM     11  N   UNL A   1      31.068  24.695  22.990  1.00  0.00    -0.267 N 
ATOM     12  H   UNL A   1      30.101  24.860  22.918  1.00  0.00     0.191 HD
ATOM     13  O   UNL A   1      30.661  23.622  24.884  1.00  0.00    -0.273 OA
BRANCH  11  14
ATOM     14  N   UNL A   1      31.838  25.045  21.902  1.00  0.00    -0.263 N 
ATOM     15  C   UNL A   1      32.527  26.238  21.748  1.00  0.00     0.269 C 
ATOM     16  O   UNL A   1      33.355  26.324  20.838  1.00  0.00    -0.267 OA
ATOM     17  H   UNL A   1      31.907  24.390  21.171  1.00  0.00     0.191 HD
BRANCH  15  18
ATOM     18  C   UNL A   1      32.377  27.426  22.646  1.00  0.00     0.041 A 
ATOM     19  C   UNL A   1      32.175  29.254  24.742  1.00  0.00     0.119 A 
ATOM     20  C   UNL A   1      33.405  28.671  24.479  1.00  0.00     0.047 A 
ATOM     21  C   UNL A   1      31.114  29.096  23.859  1.00  0.00     0.047 A 
ATOM     22  C   UNL A   1      33.501  27.753  23.436  1.00  0.00     0.018 A 
ATOM     23  C   UNL A   1      31.221  28.194  22.798  1.00  0.00     0.018 A 
BRANCH  19  24
ATOM     24  O   UNL A   1      31.993  29.976  25.887  1.00  0.00    -0.494 OA
BRANCH  24  25
ATOM     25  C   UNL A   1      32.571  29.278  27.008  1.00  0.00     0.226 C 
ATOM     26  C   UNL A   1      31.604  28.257  27.594  1.00  0.00     0.049 C 
ENDBRANCH  24  25
ENDBRANCH  19  24
ENDBRANCH  15  18
ENDBRANCH  11  14
ENDBRANCH   5  10
ENDBRANCH   2   4
ENDBRANCH   1   2
BRANCH   1  27
ATOM     27  C   UNL A   1      36.536  23.142  24.009  1.00  0.00     0.274 C 
BRANCH  27  28
ATOM     28  C   UNL A   1      37.257  21.892  24.524  1.00  0.00     0.275 C 
BRANCH  28  29
ATOM     29  O   UNL A   1      37.625  21.988  25.903  1.00  0.00    -0.458 OA
BRANCH  29  30
ATOM     30  C   UNL A   1      38.908  21.672  26.187  1.00  0.00     0.338 C 
ATOM     31  O   UNL A   1      39.497  20.615  26.039  1.00  0.00    -0.246 OA
BRANCH  30  32
ATOM     32  C   UNL A   1      39.551  22.896  26.645  1.00  0.00     0.060 A 
ATOM     33  C   UNL A   1      40.622  22.802  27.534  1.00  0.00     0.016 A 
ATOM     34  C   UNL A   1      39.106  24.120  26.155  1.00  0.00     0.016 A 
ATOM     35  C   UNL A   1      41.284  23.953  27.926  1.00  0.00     0.010 A 
ATOM     36  C   UNL A   1      39.790  25.270  26.521  1.00  0.00     0.010 A 
ATOM     37  C   UNL A   1      40.884  25.186  27.399  1.00  0.00    -0.014 A 
BRANCH  37  38
ATOM     38  C   UNL A   1      41.621  26.408  27.759  1.00  0.00     0.031 A 
ATOM     39  C   UNL A   1      40.929  27.468  28.550  1.00  0.00     0.074 A 
ATOM     40  C   UNL A   1      42.888  26.547  27.330  1.00  0.00     0.049 A 
ATOM     41  N   UNL A   1      41.348  28.659  28.881  1.00  0.00    -0.248 NA
ATOM     42  C   UNL A   1      39.568  27.153  29.015  1.00  0.00     0.031 C 
ATOM     43  C   UNL A   1      43.635  25.544  26.568  1.00  0.00     0.029 A 
ATOM     44  N   UNL A   1      43.767  27.587  27.465  1.00  0.00    -0.354 N 
ATOM     45  C   UNL A   1      40.295  29.247  29.567  1.00  0.00     0.074 A 
ATOM     46  C   UNL A   1      39.208  28.294  29.582  1.00  0.00     0.031 C 
ATOM     47  C   UNL A   1      44.867  26.011  26.316  1.00  0.00     0.029 A 
ATOM     48  C   UNL A   1      44.973  27.365  26.848  1.00  0.00     0.049 A 
ATOM     49  H   UNL A   1      43.556  28.413  27.957  1.00  0.00     0.167 HD
ATOM     50  C   UNL A   1      40.256  30.476  30.130  1.00  0.00     0.037 A 
ATOM     51  C   UNL A   1      46.031  28.184  26.713  1.00  0.00     0.037 A 
ATOM     52  C   UNL A   1      41.363  31.395  30.098  1.00  0.00     0.049 A 
ATOM     53  C   UNL A   1      45.941  29.560  27.313  1.00  0.00     0.074 A 
ATOM     54  C   UNL A   1      41.460  32.654  30.660  1.00  0.00     0.029 A 
ATOM     55  N   UNL A   1      42.569  31.149  29.451  1.00  0.00    -0.354 N 
ATOM     56  N   UNL A   1      44.957  30.105  27.990  1.00  0.00    -0.248 NA
ATOM     57  C   UNL A   1      47.101  30.436  27.127  1.00  0.00     0.031 C 
ATOM     58  C   UNL A   1      42.699  33.194  30.300  1.00  0.00     0.029 A 
ATOM     59  C   UNL A   1      43.405  32.246  29.573  1.00  0.00     0.049 A 
ATOM     60  H   UNL A   1      42.796  30.316  28.976  1.00  0.00     0.167 HD
ATOM     61  C   UNL A   1      45.389  31.375  28.338  1.00  0.00     0.074 A 
ATOM     62  C   UNL A   1      46.733  31.512  27.807  1.00  0.00     0.031 C 
ATOM     63  C   UNL A   1      44.741  32.343  29.034  1.00  0.00     0.037 A 
BRANCH  50  64
ATOM     64  C   UNL A   1      38.968  30.901  30.776  1.00  0.00     0.064 A 
ATOM     65  C   UNL A   1      38.739  30.757  32.153  1.00  0.00     0.173 A 
ATOM     66  C   UNL A   1      37.938  31.455  29.999  1.00  0.00     0.173 A 
ATOM     67  F   UNL A   1      39.681  30.217  32.941  1.00  0.00    -0.203 F 
ATOM     68  C   UNL A   1      37.518  31.114  32.720  1.00  0.00     0.198 A 
ATOM     69  C   UNL A   1      36.732  31.844  30.575  1.00  0.00     0.198 A 
ATOM     70  F   UNL A   1      38.100  31.615  28.676  1.00  0.00    -0.203 F 
ATOM     71  F   UNL A   1      37.301  30.905  34.026  1.00  0.00    -0.200 F 
ATOM     72  C   UNL A   1      36.517  31.663  31.932  1.00  0.00     0.200 A 
ATOM     73  F   UNL A   1      35.771  32.383  29.812  1.00  0.00    -0.200 F 
ATOM     74  F   UNL A   1      35.343  32.005  32.478  1.00  0.00    -0.200 F 
ENDBRANCH  50  64
BRANCH  51  75
ATOM     75  C   UNL A   1      47.250  27.718  26.002  1.00  0.00     0.064 A 
ATOM     76  C   UNL A   1      48.338  27.193  26.713  1.00  0.00     0.173 A 
ATOM     77  C   UNL A   1      47.352  27.773  24.603  1.00  0.00     0.173 A 
ATOM     78  F   UNL A   1      48.296  27.134  28.052  1.00  0.00    -0.203 F 
ATOM     79  C   UNL A   1      49.486  26.757  26.055  1.00  0.00     0.198 A 
ATOM     80  C   UNL A   1      48.488  27.308  23.944  1.00  0.00     0.198 A 
ATOM     81  F   UNL A   1      46.338  28.260  23.873  1.00  0.00    -0.203 F 
ATOM     82  F   UNL A   1      50.527  26.300  26.764  1.00  0.00    -0.200 F 
ATOM     83  C   UNL A   1      49.559  26.809  24.671  1.00  0.00     0.200 A 
ATOM     84  F   UNL A   1      48.547  27.344  22.606  1.00  0.00    -0.200 F 
ATOM     85  F   UNL A   1      50.661  26.383  24.039  1.00  0.00    -0.200 F 
ENDBRANCH  51  75
BRANCH  63  86
ATOM     86  C   UNL A   1      45.497  33.613  29.293  1.00  0.00     0.064 A 
ATOM     87  C   UNL A   1      46.335  33.761  30.406  1.00  0.00     0.173 A 
ATOM     88  C   UNL A   1      45.408  34.682  28.386  1.00  0.00     0.173 A 
ATOM     89  F   UNL A   1      46.440  32.774  31.309  1.00  0.00    -0.203 F 
ATOM     90  C   UNL A   1      47.033  34.946  30.621  1.00  0.00     0.198 A 
ATOM     91  C   UNL A   1      46.137  35.849  28.584  1.00  0.00     0.198 A 
ATOM     92  F   UNL A   1      44.625  34.586  27.301  1.00  0.00    -0.203 F 
ATOM     93  F   UNL A   1      47.785  35.088  31.721  1.00  0.00    -0.200 F 
ATOM     94  C   UNL A   1      46.941  35.984  29.705  1.00  0.00     0.200 A 
ATOM     95  F   UNL A   1      46.062  36.844  27.689  1.00  0.00    -0.200 F 
ATOM     96  F   UNL A   1      47.624  37.119  29.908  1.00  0.00    -0.200 F 
ENDBRANCH  63  86
ENDBRANCH  37  38
ENDBRANCH  30  32
ENDBRANCH  29  30
ENDBRANCH  28  29
ENDBRANCH  27  28
ENDBRANCH   1  27
TORSDOF 16
ENDMDL
