MODEL 1
REMARK VINA RESULT:     -11.4      0.000      0.000
REMARK SMILES O=C(CC1(C[S@@](=O)C[C@H]2Cc3ccccc3S2)CC1)OCCOC(=O)c1ccc(-c2c3nc(c(-c4c(F)c(F)c(F)c(F)c4F)c4ccc([nH]4)c(-c4c(F)c(F)c(F)c(F)c4F)c4nc(c(-c5c(F)c(F)c(F)c(F)c5F)c5ccc2[nH]5)C=C4)C=C3)cc1
REMARK SMILES IDX 20 1 2 2 1 3 3 4 4 5 18 6 19 7 5 8 6 9 7 10 8 11 9 12 10 13
REMARK SMILES IDX 17 14 11 15 16 16 12 17 15 18 13 19 14 20 21 21 22 22 23 23
REMARK SMILES IDX 24 24 25 25 26 26 27 27 88 28 28 29 87 30 29 31 30 32 31 33
REMARK SMILES IDX 81 34 32 35 86 36 80 37 82 38 33 39 85 40 79 41 78 42 34 44
REMARK SMILES IDX 66 45 46 46 65 47 47 48 50 49 64 50 83 51 48 52 49 53 63 55
REMARK SMILES IDX 84 56 51 57 35 58 36 59 44 60 37 61 38 62 42 63 45 64 39 65
REMARK SMILES IDX 40 66 43 67 41 68 67 69 68 70 76 71 69 72 70 73 74 74 77 75
REMARK SMILES IDX 71 76 72 77 75 78 73 79 52 80 53 81 61 82 54 83 55 84 59 85
REMARK SMILES IDX 62 86 56 87 57 88 60 89 58 90
REMARK H PARENT 82 43 50 54
REMARK Flexibility Score: inf
ROOT
ATOM      1  O   UNL A   1      36.895  21.901  24.556  1.00  0.00    -0.462 OA
ENDROOT
BRANCH   1   2
ATOM      2  C   UNL A   1      35.971  22.592  23.879  1.00  0.00     0.306 C 
ATOM      3  O   UNL A   1      36.143  23.046  22.754  1.00  0.00    -0.252 OA
BRANCH   2   4
ATOM      4  C   UNL A   1      34.843  23.031  24.784  1.00  0.00     0.130 C 
BRANCH   4   5
ATOM      5  C   UNL A   1      33.981  24.298  24.658  1.00  0.00    -0.008 C 
ATOM      6  C   UNL A   1      33.468  24.626  26.081  1.00  0.00     0.009 C 
ATOM      7  C   UNL A   1      34.316  25.608  25.379  1.00  0.00     0.009 C 
BRANCH   5   8
ATOM      8  C   UNL A   1      32.900  24.379  23.580  1.00  0.00     0.112 C 
BRANCH   8   9
ATOM      9  S   UNL A   1      33.081  25.323  22.078  1.00  0.00     0.023 S 
ATOM     10  O   UNL A   1      33.278  24.383  20.927  1.00  0.00    -0.260 OA
BRANCH   9  11
ATOM     11  C   UNL A   1      31.633  26.328  21.792  1.00  0.00     0.120 C 
BRANCH  11  12
ATOM     12  C   UNL A   1      31.170  27.438  22.753  1.00  0.00     0.068 C 
ATOM     13  C   UNL A   1      30.563  27.001  24.094  1.00  0.00     0.052 C 
ATOM     14  S   UNL A   1      32.310  28.837  23.075  1.00  0.00    -0.121 SA
ATOM     15  C   UNL A   1      31.252  27.719  25.218  1.00  0.00    -0.033 A 
ATOM     16  C   UNL A   1      32.123  28.734  24.833  1.00  0.00     0.011 A 
ATOM     17  C   UNL A   1      31.062  27.449  26.574  1.00  0.00     0.005 A 
ATOM     18  C   UNL A   1      32.810  29.485  25.782  1.00  0.00     0.015 A 
ATOM     19  C   UNL A   1      31.807  28.142  27.531  1.00  0.00     0.000 A 
ATOM     20  C   UNL A   1      32.672  29.165  27.136  1.00  0.00     0.001 A 
ENDBRANCH  11  12
ENDBRANCH   9  11
ENDBRANCH   8   9
ENDBRANCH   5   8
ENDBRANCH   4   5
ENDBRANCH   2   4
ENDBRANCH   1   2
BRANCH   1  21
ATOM     21  C   UNL A   1      36.708  20.519  24.903  1.00  0.00     0.274 C 
BRANCH  21  22
ATOM     22  C   UNL A   1      38.070  19.964  25.330  1.00  0.00     0.275 C 
BRANCH  22  23
ATOM     23  O   UNL A   1      39.046  21.011  25.491  1.00  0.00    -0.458 OA
BRANCH  23  24
ATOM     24  C   UNL A   1      39.928  20.855  26.505  1.00  0.00     0.338 C 
ATOM     25  O   UNL A   1      40.387  19.799  26.910  1.00  0.00    -0.246 OA
BRANCH  24  26
ATOM     26  C   UNL A   1      40.382  22.205  26.933  1.00  0.00     0.060 A 
ATOM     27  C   UNL A   1      41.319  22.368  27.962  1.00  0.00     0.016 A 
ATOM     28  C   UNL A   1      39.792  23.332  26.346  1.00  0.00     0.016 A 
ATOM     29  C   UNL A   1      41.683  23.653  28.374  1.00  0.00     0.010 A 
ATOM     30  C   UNL A   1      40.168  24.617  26.746  1.00  0.00     0.010 A 
ATOM     31  C   UNL A   1      41.142  24.787  27.741  1.00  0.00    -0.014 A 
BRANCH  31  32
ATOM     32  C   UNL A   1      41.778  26.111  27.952  1.00  0.00     0.031 A 
ATOM     33  C   UNL A   1      43.139  26.455  27.437  1.00  0.00     0.074 A 
ATOM     34  C   UNL A   1      41.076  27.015  28.661  1.00  0.00     0.049 A 
ATOM     35  N   UNL A   1      43.750  27.615  27.454  1.00  0.00    -0.248 NA
ATOM     36  C   UNL A   1      43.924  25.369  26.839  1.00  0.00     0.031 C 
ATOM     37  C   UNL A   1      39.765  26.763  29.263  1.00  0.00     0.029 A 
ATOM     38  N   UNL A   1      41.349  28.318  28.988  1.00  0.00    -0.354 N 
ATOM     39  C   UNL A   1      44.980  27.410  26.846  1.00  0.00     0.074 A 
ATOM     40  C   UNL A   1      45.050  25.998  26.519  1.00  0.00     0.031 C 
ATOM     41  C   UNL A   1      39.329  27.885  29.849  1.00  0.00     0.029 A 
ATOM     42  C   UNL A   1      40.340  28.926  29.691  1.00  0.00     0.049 A 
ATOM     43  H   UNL A   1      42.187  28.773  28.743  1.00  0.00     0.167 HD
ATOM     44  C   UNL A   1      45.945  28.323  26.577  1.00  0.00     0.037 A 
ATOM     45  C   UNL A   1      40.229  30.186  30.151  1.00  0.00     0.037 A 
ATOM     46  C   UNL A   1      45.873  29.717  26.942  1.00  0.00     0.049 A 
ATOM     47  C   UNL A   1      41.330  31.166  29.872  1.00  0.00     0.074 A 
ATOM     48  C   UNL A   1      46.776  30.730  26.663  1.00  0.00     0.029 A 
ATOM     49  N   UNL A   1      44.853  30.293  27.690  1.00  0.00    -0.354 N 
ATOM     50  N   UNL A   1      42.436  30.990  29.191  1.00  0.00    -0.248 NA
ATOM     51  C   UNL A   1      41.168  32.518  30.419  1.00  0.00     0.031 C 
ATOM     52  C   UNL A   1      46.338  31.897  27.295  1.00  0.00     0.029 A 
ATOM     53  C   UNL A   1      45.128  31.633  27.916  1.00  0.00     0.049 A 
ATOM     54  H   UNL A   1      44.052  29.819  28.011  1.00  0.00     0.167 HD
ATOM     55  C   UNL A   1      43.095  32.212  29.214  1.00  0.00     0.074 A 
ATOM     56  C   UNL A   1      42.254  33.126  29.958  1.00  0.00     0.031 C 
ATOM     57  C   UNL A   1      44.290  32.538  28.666  1.00  0.00     0.037 A 
BRANCH  44  58
ATOM     58  C   UNL A   1      47.169  27.857  25.838  1.00  0.00     0.064 A 
ATOM     59  C   UNL A   1      47.203  27.818  24.435  1.00  0.00     0.173 A 
ATOM     60  C   UNL A   1      48.348  27.533  26.528  1.00  0.00     0.173 A 
ATOM     61  F   UNL A   1      46.104  28.118  23.725  1.00  0.00    -0.203 F 
ATOM     62  C   UNL A   1      48.361  27.453  23.754  1.00  0.00     0.198 A 
ATOM     63  C   UNL A   1      49.513  27.197  25.843  1.00  0.00     0.198 A 
ATOM     64  F   UNL A   1      48.378  27.567  27.869  1.00  0.00    -0.203 F 
ATOM     65  F   UNL A   1      48.356  27.390  22.415  1.00  0.00    -0.200 F 
ATOM     66  C   UNL A   1      49.517  27.153  24.456  1.00  0.00     0.200 A 
ATOM     67  F   UNL A   1      50.635  26.925  26.522  1.00  0.00    -0.200 F 
ATOM     68  F   UNL A   1      50.635  26.817  23.798  1.00  0.00    -0.200 F 
ENDBRANCH  44  58
BRANCH  45  69
ATOM     69  C   UNL A   1      38.993  30.585  30.870  1.00  0.00     0.064 A 
ATOM     70  C   UNL A   1      38.919  30.496  32.266  1.00  0.00     0.173 A 
ATOM     71  C   UNL A   1      37.893  31.125  30.187  1.00  0.00     0.173 A 
ATOM     72  F   UNL A   1      39.942  29.977  32.960  1.00  0.00    -0.203 F 
ATOM     73  C   UNL A   1      37.787  30.930  32.953  1.00  0.00     0.198 A 
ATOM     74  C   UNL A   1      36.775  31.584  30.878  1.00  0.00     0.198 A 
ATOM     75  F   UNL A   1      37.924  31.242  28.852  1.00  0.00    -0.203 F 
ATOM     76  F   UNL A   1      37.731  30.814  34.287  1.00  0.00    -0.200 F 
ATOM     77  C   UNL A   1      36.722  31.484  32.259  1.00  0.00     0.200 A 
ATOM     78  F   UNL A   1      35.757  32.140  30.206  1.00  0.00    -0.200 F 
ATOM     79  F   UNL A   1      35.643  31.921  32.923  1.00  0.00    -0.200 F 
ENDBRANCH  45  69
BRANCH  57  80
ATOM     80  C   UNL A   1      44.777  33.948  28.849  1.00  0.00     0.064 A 
ATOM     81  C   UNL A   1      45.580  34.308  29.943  1.00  0.00     0.173 A 
ATOM     82  C   UNL A   1      44.512  34.927  27.879  1.00  0.00     0.173 A 
ATOM     83  F   UNL A   1      45.849  33.415  30.906  1.00  0.00    -0.203 F 
ATOM     84  C   UNL A   1      46.091  35.598  30.061  1.00  0.00     0.198 A 
ATOM     85  C   UNL A   1      45.051  36.206  27.985  1.00  0.00     0.198 A 
ATOM     86  F   UNL A   1      43.753  34.634  26.812  1.00  0.00    -0.203 F 
ATOM     87  F   UNL A   1      46.830  35.928  31.129  1.00  0.00    -0.200 F 
ATOM     88  C   UNL A   1      45.838  36.541  29.077  1.00  0.00     0.200 A 
ATOM     89  F   UNL A   1      44.818  37.111  27.025  1.00  0.00    -0.200 F 
ATOM     90  F   UNL A   1      46.352  37.774  29.180  1.00  0.00    -0.200 F 
ENDBRANCH  57  80
ENDBRANCH  31  32
ENDBRANCH  24  26
ENDBRANCH  23  24
ENDBRANCH  22  23
ENDBRANCH  21  22
ENDBRANCH   1  21
TORSDOF 16
ENDMDL
MODEL 2
REMARK VINA RESULT:     -11.3      4.678     10.167
REMARK SMILES O=C(CC1(C[S@@](=O)C[C@H]2Cc3ccccc3S2)CC1)OCCOC(=O)c1ccc(-c2c3nc(c(-c4c(F)c(F)c(F)c(F)c4F)c4ccc([nH]4)c(-c4c(F)c(F)c(F)c(F)c4F)c4nc(c(-c5c(F)c(F)c(F)c(F)c5F)c5ccc2[nH]5)C=C4)C=C3)cc1
REMARK SMILES IDX 20 1 2 2 1 3 3 4 4 5 18 6 19 7 5 8 6 9 7 10 8 11 9 12 10 13
REMARK SMILES IDX 17 14 11 15 16 16 12 17 15 18 13 19 14 20 21 21 22 22 23 23
REMARK SMILES IDX 24 24 25 25 26 26 27 27 88 28 28 29 87 30 29 31 30 32 31 33
REMARK SMILES IDX 81 34 32 35 86 36 80 37 82 38 33 39 85 40 79 41 78 42 34 44
REMARK SMILES IDX 66 45 46 46 65 47 47 48 50 49 64 50 83 51 48 52 49 53 63 55
REMARK SMILES IDX 84 56 51 57 35 58 36 59 44 60 37 61 38 62 42 63 45 64 39 65
REMARK SMILES IDX 40 66 43 67 41 68 67 69 68 70 76 71 69 72 70 73 74 74 77 75
REMARK SMILES IDX 71 76 72 77 75 78 73 79 52 80 53 81 61 82 54 83 55 84 59 85
REMARK SMILES IDX 62 86 56 87 57 88 60 89 58 90
REMARK H PARENT 82 43 50 54
REMARK Flexibility Score: inf
ROOT
ATOM      1  O   UNL A   1      31.424  29.384  26.748  1.00  0.00    -0.462 OA
ENDROOT
BRANCH   1   2
ATOM      2  C   UNL A   1      31.722  28.189  27.274  1.00  0.00     0.306 C 
ATOM      3  O   UNL A   1      31.366  27.823  28.387  1.00  0.00    -0.252 OA
BRANCH   2   4
ATOM      4  C   UNL A   1      32.813  27.502  26.485  1.00  0.00     0.130 C 
BRANCH   4   5
ATOM      5  C   UNL A   1      32.791  26.079  25.902  1.00  0.00    -0.008 C 
ATOM      6  C   UNL A   1      33.542  26.146  24.550  1.00  0.00     0.009 C 
ATOM      7  C   UNL A   1      34.065  25.275  25.620  1.00  0.00     0.009 C 
BRANCH   5   8
ATOM      8  C   UNL A   1      31.476  25.303  25.838  1.00  0.00     0.112 C 
BRANCH   8   9
ATOM      9  S   UNL A   1      31.246  23.699  26.584  1.00  0.00     0.023 S 
ATOM     10  O   UNL A   1      29.982  23.708  27.389  1.00  0.00    -0.260 OA
BRANCH   9  11
ATOM     11  C   UNL A   1      31.151  22.433  25.328  1.00  0.00     0.120 C 
BRANCH  11  12
ATOM     12  C   UNL A   1      32.369  21.624  24.848  1.00  0.00     0.068 C 
ATOM     13  C   UNL A   1      33.147  22.172  23.642  1.00  0.00     0.052 C 
ATOM     14  S   UNL A   1      33.585  21.061  26.099  1.00  0.00    -0.121 SA
ATOM     15  C   UNL A   1      34.609  22.248  23.976  1.00  0.00    -0.033 A 
ATOM     16  C   UNL A   1      34.977  21.652  25.179  1.00  0.00     0.011 A 
ATOM     17  C   UNL A   1      35.582  22.842  23.172  1.00  0.00     0.005 A 
ATOM     18  C   UNL A   1      36.306  21.642  25.593  1.00  0.00     0.015 A 
ATOM     19  C   UNL A   1      36.904  22.908  23.617  1.00  0.00     0.000 A 
ATOM     20  C   UNL A   1      37.268  22.300  24.820  1.00  0.00     0.001 A 
ENDBRANCH  11  12
ENDBRANCH   9  11
ENDBRANCH   8   9
ENDBRANCH   5   8
ENDBRANCH   4   5
ENDBRANCH   2   4
ENDBRANCH   1   2
BRANCH   1  21
ATOM     21  C   UNL A   1      32.403  30.175  26.056  1.00  0.00     0.274 C 
BRANCH  21  22
ATOM     22  C   UNL A   1      32.157  31.640  26.430  1.00  0.00     0.275 C 
BRANCH  22  23
ATOM     23  O   UNL A   1      32.717  31.963  27.718  1.00  0.00    -0.458 OA
BRANCH  23  24
ATOM     24  C   UNL A   1      33.660  32.932  27.735  1.00  0.00     0.338 C 
ATOM     25  O   UNL A   1      33.486  34.115  27.494  1.00  0.00    -0.246 OA
BRANCH  24  26
ATOM     26  C   UNL A   1      34.917  32.344  28.269  1.00  0.00     0.060 A 
ATOM     27  C   UNL A   1      36.103  33.086  28.330  1.00  0.00     0.016 A 
ATOM     28  C   UNL A   1      34.925  30.991  28.635  1.00  0.00     0.016 A 
ATOM     29  C   UNL A   1      37.278  32.485  28.788  1.00  0.00     0.010 A 
ATOM     30  C   UNL A   1      36.096  30.393  29.109  1.00  0.00     0.010 A 
ATOM     31  C   UNL A   1      37.274  31.146  29.220  1.00  0.00    -0.014 A 
BRANCH  31  32
ATOM     32  C   UNL A   1      38.423  30.632  30.006  1.00  0.00     0.031 A 
ATOM     33  C   UNL A   1      38.698  31.043  31.418  1.00  0.00     0.074 A 
ATOM     34  C   UNL A   1      39.248  29.771  29.382  1.00  0.00     0.049 A 
ATOM     35  N   UNL A   1      39.598  30.572  32.245  1.00  0.00    -0.248 NA
ATOM     36  C   UNL A   1      37.874  32.122  31.974  1.00  0.00     0.031 C 
ATOM     37  C   UNL A   1      39.110  29.351  27.986  1.00  0.00     0.029 A 
ATOM     38  N   UNL A   1      40.351  29.089  29.828  1.00  0.00    -0.354 N 
ATOM     39  C   UNL A   1      39.435  31.275  33.430  1.00  0.00     0.074 A 
ATOM     40  C   UNL A   1      38.382  32.244  33.196  1.00  0.00     0.031 C 
ATOM     41  C   UNL A   1      40.061  28.452  27.701  1.00  0.00     0.029 A 
ATOM     42  C   UNL A   1      40.895  28.255  28.883  1.00  0.00     0.049 A 
ATOM     43  H   UNL A   1      40.716  29.187  30.737  1.00  0.00     0.167 HD
ATOM     44  C   UNL A   1      40.097  31.108  34.601  1.00  0.00     0.037 A 
ATOM     45  C   UNL A   1      41.942  27.414  28.957  1.00  0.00     0.037 A 
ATOM     46  C   UNL A   1      41.167  30.162  34.806  1.00  0.00     0.049 A 
ATOM     47  C   UNL A   1      42.681  27.278  30.256  1.00  0.00     0.074 A 
ATOM     48  C   UNL A   1      41.859  29.882  35.973  1.00  0.00     0.029 A 
ATOM     49  N   UNL A   1      41.721  29.360  33.817  1.00  0.00    -0.354 N 
ATOM     50  N   UNL A   1      42.441  27.861  31.405  1.00  0.00    -0.248 NA
ATOM     51  C   UNL A   1      43.831  26.366  30.272  1.00  0.00     0.031 C 
ATOM     52  C   UNL A   1      42.871  28.964  35.676  1.00  0.00     0.029 A 
ATOM     53  C   UNL A   1      42.772  28.620  34.337  1.00  0.00     0.049 A 
ATOM     54  H   UNL A   1      41.413  29.323  32.882  1.00  0.00     0.167 HD
ATOM     55  C   UNL A   1      43.398  27.376  32.285  1.00  0.00     0.074 A 
ATOM     56  C   UNL A   1      44.210  26.434  31.542  1.00  0.00     0.031 C 
ATOM     57  C   UNL A   1      43.583  27.690  33.590  1.00  0.00     0.037 A 
BRANCH  44  58
ATOM     58  C   UNL A   1      39.681  31.956  35.772  1.00  0.00     0.064 A 
ATOM     59  C   UNL A   1      38.655  31.549  36.639  1.00  0.00     0.173 A 
ATOM     60  C   UNL A   1      40.369  33.139  36.085  1.00  0.00     0.173 A 
ATOM     61  F   UNL A   1      37.963  30.427  36.387  1.00  0.00    -0.203 F 
ATOM     62  C   UNL A   1      38.321  32.303  37.761  1.00  0.00     0.198 A 
ATOM     63  C   UNL A   1      40.052  33.875  37.225  1.00  0.00     0.198 A 
ATOM     64  F   UNL A   1      41.368  33.569  35.300  1.00  0.00    -0.203 F 
ATOM     65  F   UNL A   1      37.313  31.910  38.554  1.00  0.00    -0.200 F 
ATOM     66  C   UNL A   1      39.025  33.459  38.058  1.00  0.00     0.200 A 
ATOM     67  F   UNL A   1      40.746  34.982  37.521  1.00  0.00    -0.200 F 
ATOM     68  F   UNL A   1      38.712  34.175  39.147  1.00  0.00    -0.200 F 
ENDBRANCH  44  58
BRANCH  45  69
ATOM     69  C   UNL A   1      42.300  26.601  27.768  1.00  0.00     0.064 A 
ATOM     70  C   UNL A   1      43.289  27.036  26.876  1.00  0.00     0.173 A 
ATOM     71  C   UNL A   1      41.713  25.348  27.536  1.00  0.00     0.173 A 
ATOM     72  F   UNL A   1      43.870  28.232  27.052  1.00  0.00    -0.203 F 
ATOM     73  C   UNL A   1      43.676  26.249  25.794  1.00  0.00     0.198 A 
ATOM     74  C   UNL A   1      42.122  24.550  26.471  1.00  0.00     0.198 A 
ATOM     75  F   UNL A   1      40.772  24.884  28.370  1.00  0.00    -0.203 F 
ATOM     76  F   UNL A   1      44.609  26.697  24.943  1.00  0.00    -0.200 F 
ATOM     77  C   UNL A   1      43.101  25.002  25.600  1.00  0.00     0.200 A 
ATOM     78  F   UNL A   1      41.579  23.337  26.299  1.00  0.00    -0.200 F 
ATOM     79  F   UNL A   1      43.490  24.236  24.571  1.00  0.00    -0.200 F 
ENDBRANCH  45  69
BRANCH  57  80
ATOM     80  C   UNL A   1      44.713  27.014  34.314  1.00  0.00     0.064 A 
ATOM     81  C   UNL A   1      45.974  27.619  34.429  1.00  0.00     0.173 A 
ATOM     82  C   UNL A   1      44.510  25.790  34.971  1.00  0.00     0.173 A 
ATOM     83  F   UNL A   1      46.225  28.780  33.807  1.00  0.00    -0.203 F 
ATOM     84  C   UNL A   1      46.991  27.021  35.169  1.00  0.00     0.198 A 
ATOM     85  C   UNL A   1      45.519  25.211  35.736  1.00  0.00     0.198 A 
ATOM     86  F   UNL A   1      43.323  25.170  34.896  1.00  0.00    -0.203 F 
ATOM     87  F   UNL A   1      48.196  27.603  35.241  1.00  0.00    -0.200 F 
ATOM     88  C   UNL A   1      46.759  25.825  35.833  1.00  0.00     0.200 A 
ATOM     89  F   UNL A   1      45.289  24.064  36.388  1.00  0.00    -0.200 F 
ATOM     90  F   UNL A   1      47.731  25.264  36.565  1.00  0.00    -0.200 F 
ENDBRANCH  57  80
ENDBRANCH  31  32
ENDBRANCH  24  26
ENDBRANCH  23  24
ENDBRANCH  22  23
ENDBRANCH  21  22
ENDBRANCH   1  21
TORSDOF 16
ENDMDL
MODEL 3
REMARK VINA RESULT:     -11.1      4.549      9.913
REMARK SMILES O=C(CC1(C[S@@](=O)C[C@H]2Cc3ccccc3S2)CC1)OCCOC(=O)c1ccc(-c2c3nc(c(-c4c(F)c(F)c(F)c(F)c4F)c4ccc([nH]4)c(-c4c(F)c(F)c(F)c(F)c4F)c4nc(c(-c5c(F)c(F)c(F)c(F)c5F)c5ccc2[nH]5)C=C4)C=C3)cc1
REMARK SMILES IDX 20 1 2 2 1 3 3 4 4 5 18 6 19 7 5 8 6 9 7 10 8 11 9 12 10 13
REMARK SMILES IDX 17 14 11 15 16 16 12 17 15 18 13 19 14 20 21 21 22 22 23 23
REMARK SMILES IDX 24 24 25 25 26 26 27 27 88 28 28 29 87 30 29 31 30 32 31 33
REMARK SMILES IDX 81 34 32 35 86 36 80 37 82 38 33 39 85 40 79 41 78 42 34 44
REMARK SMILES IDX 66 45 46 46 65 47 47 48 50 49 64 50 83 51 48 52 49 53 63 55
REMARK SMILES IDX 84 56 51 57 35 58 36 59 44 60 37 61 38 62 42 63 45 64 39 65
REMARK SMILES IDX 40 66 43 67 41 68 67 69 68 70 76 71 69 72 70 73 74 74 77 75
REMARK SMILES IDX 71 76 72 77 75 78 73 79 52 80 53 81 61 82 54 83 55 84 59 85
REMARK SMILES IDX 62 86 56 87 57 88 60 89 58 90
REMARK H PARENT 82 43 50 54
REMARK Flexibility Score: inf
ROOT
ATOM      1  O   UNL A   1      31.029  28.914  24.297  1.00  0.00    -0.462 OA
ENDROOT
BRANCH   1   2
ATOM      2  C   UNL A   1      30.723  28.894  22.994  1.00  0.00     0.306 C 
ATOM      3  O   UNL A   1      30.145  29.804  22.412  1.00  0.00    -0.252 OA
BRANCH   2   4
ATOM      4  C   UNL A   1      30.862  27.502  22.420  1.00  0.00     0.130 C 
BRANCH   4   5
ATOM      5  C   UNL A   1      31.748  26.359  22.945  1.00  0.00    -0.008 C 
ATOM      6  C   UNL A   1      32.449  25.743  21.710  1.00  0.00     0.009 C 
ATOM      7  C   UNL A   1      33.272  26.343  22.777  1.00  0.00     0.009 C 
BRANCH   5   8
ATOM      8  C   UNL A   1      31.164  25.321  23.903  1.00  0.00     0.112 C 
BRANCH   8   9
ATOM      9  S   UNL A   1      31.771  25.065  25.560  1.00  0.00     0.023 S 
ATOM     10  O   UNL A   1      30.608  24.891  26.489  1.00  0.00    -0.260 OA
BRANCH   9  11
ATOM     11  C   UNL A   1      32.815  23.617  25.625  1.00  0.00     0.120 C 
BRANCH  11  12
ATOM     12  C   UNL A   1      34.148  23.499  24.864  1.00  0.00     0.068 C 
ATOM     13  C   UNL A   1      35.301  24.405  25.319  1.00  0.00     0.052 C 
ATOM     14  S   UNL A   1      34.828  21.824  24.560  1.00  0.00    -0.121 SA
ATOM     15  C   UNL A   1      36.531  23.577  25.554  1.00  0.00    -0.033 A 
ATOM     16  C   UNL A   1      36.444  22.250  25.143  1.00  0.00     0.011 A 
ATOM     17  C   UNL A   1      37.715  24.049  26.121  1.00  0.00     0.005 A 
ATOM     18  C   UNL A   1      37.524  21.384  25.292  1.00  0.00     0.015 A 
ATOM     19  C   UNL A   1      38.776  23.168  26.348  1.00  0.00     0.000 A 
ATOM     20  C   UNL A   1      38.684  21.841  25.924  1.00  0.00     0.001 A 
ENDBRANCH  11  12
ENDBRANCH   9  11
ENDBRANCH   8   9
ENDBRANCH   5   8
ENDBRANCH   4   5
ENDBRANCH   2   4
ENDBRANCH   1   2
BRANCH   1  21
ATOM     21  C   UNL A   1      32.209  29.568  24.789  1.00  0.00     0.274 C 
BRANCH  21  22
ATOM     22  C   UNL A   1      31.794  30.421  25.992  1.00  0.00     0.275 C 
BRANCH  22  23
ATOM     23  O   UNL A   1      32.754  30.334  27.064  1.00  0.00    -0.458 OA
BRANCH  23  24
ATOM     24  C   UNL A   1      33.422  31.472  27.361  1.00  0.00     0.338 C 
ATOM     25  O   UNL A   1      32.973  32.606  27.322  1.00  0.00    -0.246 OA
BRANCH  24  26
ATOM     26  C   UNL A   1      34.750  31.097  27.914  1.00  0.00     0.060 A 
ATOM     27  C   UNL A   1      35.777  32.040  28.054  1.00  0.00     0.016 A 
ATOM     28  C   UNL A   1      34.997  29.751  28.220  1.00  0.00     0.016 A 
ATOM     29  C   UNL A   1      37.029  31.640  28.528  1.00  0.00     0.010 A 
ATOM     30  C   UNL A   1      36.244  29.355  28.710  1.00  0.00     0.010 A 
ATOM     31  C   UNL A   1      37.259  30.303  28.899  1.00  0.00    -0.014 A 
BRANCH  31  32
ATOM     32  C   UNL A   1      38.460  29.968  29.703  1.00  0.00     0.031 A 
ATOM     33  C   UNL A   1      38.712  30.524  31.069  1.00  0.00     0.074 A 
ATOM     34  C   UNL A   1      39.356  29.135  29.140  1.00  0.00     0.049 A 
ATOM     35  N   UNL A   1      39.662  30.213  31.916  1.00  0.00    -0.248 NA
ATOM     36  C   UNL A   1      37.796  31.567  31.546  1.00  0.00     0.031 C 
ATOM     37  C   UNL A   1      39.241  28.583  27.788  1.00  0.00     0.029 A 
ATOM     38  N   UNL A   1      40.523  28.600  29.621  1.00  0.00    -0.354 N 
ATOM     39  C   UNL A   1      39.447  30.999  33.039  1.00  0.00     0.074 A 
ATOM     40  C   UNL A   1      38.305  31.842  32.743  1.00  0.00     0.031 C 
ATOM     41  C   UNL A   1      40.269  27.756  27.563  1.00  0.00     0.029 A 
ATOM     42  C   UNL A   1      41.131  27.740  28.741  1.00  0.00     0.049 A 
ATOM     43  H   UNL A   1      40.887  28.811  30.511  1.00  0.00     0.167 HD
ATOM     44  C   UNL A   1      40.135  30.997  34.207  1.00  0.00     0.037 A 
ATOM     45  C   UNL A   1      42.254  27.010  28.867  1.00  0.00     0.037 A 
ATOM     46  C   UNL A   1      41.291  30.176  34.471  1.00  0.00     0.049 A 
ATOM     47  C   UNL A   1      43.017  27.057  30.158  1.00  0.00     0.074 A 
ATOM     48  C   UNL A   1      42.020  30.064  35.644  1.00  0.00     0.029 A 
ATOM     49  N   UNL A   1      41.907  29.345  33.544  1.00  0.00    -0.354 N 
ATOM     50  N   UNL A   1      42.737  27.713  31.257  1.00  0.00    -0.248 NA
ATOM     51  C   UNL A   1      44.247  26.259  30.229  1.00  0.00     0.031 C 
ATOM     52  C   UNL A   1      43.110  29.221  35.408  1.00  0.00     0.029 A 
ATOM     53  C   UNL A   1      43.029  28.753  34.106  1.00  0.00     0.049 A 
ATOM     54  H   UNL A   1      41.593  29.197  32.623  1.00  0.00     0.167 HD
ATOM     55  C   UNL A   1      43.745  27.398  32.156  1.00  0.00     0.074 A 
ATOM     56  C   UNL A   1      44.633  26.473  31.481  1.00  0.00     0.031 C 
ATOM     57  C   UNL A   1      43.915  27.840  33.425  1.00  0.00     0.037 A 
BRANCH  44  58
ATOM     58  C   UNL A   1      39.655  31.903  35.308  1.00  0.00     0.064 A 
ATOM     59  C   UNL A   1      40.101  33.230  35.406  1.00  0.00     0.173 A 
ATOM     60  C   UNL A   1      38.676  31.475  36.218  1.00  0.00     0.173 A 
ATOM     61  F   UNL A   1      41.037  33.693  34.562  1.00  0.00    -0.203 F 
ATOM     62  C   UNL A   1      39.601  34.086  36.385  1.00  0.00     0.198 A 
ATOM     63  C   UNL A   1      38.157  32.342  37.176  1.00  0.00     0.198 A 
ATOM     64  F   UNL A   1      38.203  30.221  36.162  1.00  0.00    -0.203 F 
ATOM     65  F   UNL A   1      40.070  35.339  36.479  1.00  0.00    -0.200 F 
ATOM     66  C   UNL A   1      38.624  33.645  37.262  1.00  0.00     0.200 A 
ATOM     67  F   UNL A   1      37.198  31.920  38.012  1.00  0.00    -0.200 F 
ATOM     68  F   UNL A   1      38.133  34.475  38.193  1.00  0.00    -0.200 F 
ENDBRANCH  44  58
BRANCH  45  69
ATOM     69  C   UNL A   1      42.672  26.132  27.745  1.00  0.00     0.064 A 
ATOM     70  C   UNL A   1      42.120  24.854  27.594  1.00  0.00     0.173 A 
ATOM     71  C   UNL A   1      43.577  26.575  26.769  1.00  0.00     0.173 A 
ATOM     72  F   UNL A   1      41.259  24.383  28.508  1.00  0.00    -0.203 F 
ATOM     73  C   UNL A   1      42.459  24.050  26.508  1.00  0.00     0.198 A 
ATOM     74  C   UNL A   1      43.893  25.782  25.669  1.00  0.00     0.198 A 
ATOM     75  F   UNL A   1      44.122  27.797  26.864  1.00  0.00    -0.203 F 
ATOM     76  F   UNL A   1      41.934  22.822  26.398  1.00  0.00    -0.200 F 
ATOM     77  C   UNL A   1      43.336  24.519  25.541  1.00  0.00     0.200 A 
ATOM     78  F   UNL A   1      44.723  26.248  24.726  1.00  0.00    -0.200 F 
ATOM     79  F   UNL A   1      43.644  23.753  24.486  1.00  0.00    -0.200 F 
ENDBRANCH  45  69
BRANCH  57  80
ATOM     80  C   UNL A   1      45.111  27.337  34.183  1.00  0.00     0.064 A 
ATOM     81  C   UNL A   1      45.063  26.142  34.916  1.00  0.00     0.173 A 
ATOM     82  C   UNL A   1      46.341  28.010  34.105  1.00  0.00     0.173 A 
ATOM     83  F   UNL A   1      43.909  25.469  35.035  1.00  0.00    -0.203 F 
ATOM     84  C   UNL A   1      46.199  25.644  35.550  1.00  0.00     0.198 A 
ATOM     85  C   UNL A   1      47.481  27.493  34.714  1.00  0.00     0.198 A 
ATOM     86  F   UNL A   1      46.442  29.156  33.414  1.00  0.00    -0.203 F 
ATOM     87  F   UNL A   1      46.122  24.516  36.269  1.00  0.00    -0.200 F 
ATOM     88  C   UNL A   1      47.409  26.312  35.437  1.00  0.00     0.200 A 
ATOM     89  F   UNL A   1      48.652  28.132  34.591  1.00  0.00    -0.200 F 
ATOM     90  F   UNL A   1      48.506  25.818  36.026  1.00  0.00    -0.200 F 
ENDBRANCH  57  80
ENDBRANCH  31  32
ENDBRANCH  24  26
ENDBRANCH  23  24
ENDBRANCH  22  23
ENDBRANCH  21  22
ENDBRANCH   1  21
TORSDOF 16
ENDMDL
