MODEL 1
REMARK VINA RESULT:      -9.8      0.000      0.000
REMARK SMILES CN(CC(C)(C)O)S(=O)(=O)CCCC(=O)OCCOC(=O)c1ccc(-c2c3nc(c(-c4c(F)c(F)c(F)c(F)c4F)c4ccc([nH]4)c(-c4c(F)c(F)c(F)c(F)c4F)c4nc(c(-c5c(F)c(F)c(F)c(F)c5F)c5ccc2[nH]5)C=C4)C=C3)cc1
REMARK SMILES IDX 14 1 15 2 13 3 12 4 11 5 8 6 9 7 10 8 2 9 1 10 3 11 4 12
REMARK SMILES IDX 5 13 6 14 7 15 16 17 17 18 18 19 19 20 20 21 21 22 22 23
REMARK SMILES IDX 23 24 84 25 24 26 83 27 25 28 26 29 27 30 77 31 28 32 82 33
REMARK SMILES IDX 76 34 78 35 29 36 81 37 75 38 74 39 30 41 62 42 42 43 61 44
REMARK SMILES IDX 43 45 46 46 60 47 79 48 44 49 45 50 59 52 80 53 47 54 31 55
REMARK SMILES IDX 32 56 40 57 33 58 34 59 38 60 41 61 35 62 36 63 39 64 37 65
REMARK SMILES IDX 63 66 64 67 72 68 65 69 66 70 70 71 73 72 67 73 68 74 71 75
REMARK SMILES IDX 69 76 48 77 49 78 57 79 50 80 51 81 55 82 58 83 52 84 53 85
REMARK SMILES IDX 56 86 54 87
REMARK H PARENT 7 16 78 40 46 51
REMARK Flexibility Score: inf
ROOT
ATOM      1  C   UNL A   1      32.001  29.889  25.939  1.00  0.00     0.305 C 
ATOM      2  O   UNL A   1      31.253  29.970  24.973  1.00  0.00    -0.252 OA
ENDROOT
BRANCH   1   3
ATOM      3  C   UNL A   1      32.802  28.635  26.235  1.00  0.00     0.124 C 
BRANCH   3   4
ATOM      4  C   UNL A   1      32.137  27.287  25.964  1.00  0.00     0.029 C 
BRANCH   4   5
ATOM      5  C   UNL A   1      32.820  26.045  26.528  1.00  0.00     0.155 C 
BRANCH   5   6
ATOM      6  S   UNL A   1      32.083  24.475  26.076  1.00  0.00     0.213 S 
ATOM      7  O   UNL A   1      31.259  24.697  24.910  1.00  0.00    -0.212 OA
ATOM      8  O   UNL A   1      31.497  23.906  27.275  1.00  0.00    -0.212 OA
BRANCH   6   9
ATOM      9  N   UNL A   1      33.372  23.494  25.631  1.00  0.00    -0.202 NA
ATOM     10  C   UNL A   1      34.695  24.150  25.590  1.00  0.00     0.124 C 
BRANCH   9  11
ATOM     11  C   UNL A   1      33.421  22.034  25.891  1.00  0.00     0.136 C 
BRANCH  11  12
ATOM     12  C   UNL A   1      32.446  21.090  25.155  1.00  0.00     0.073 C 
ATOM     13  C   UNL A   1      32.299  21.414  23.668  1.00  0.00     0.043 C 
ATOM     14  C   UNL A   1      33.002  19.661  25.290  1.00  0.00     0.043 C 
BRANCH  12  15
ATOM     15  O   UNL A   1      31.166  21.091  25.788  1.00  0.00    -0.389 OA
ATOM     16  H   UNL A   1      31.141  21.783  26.468  1.00  0.00     0.211 HD
ENDBRANCH  12  15
ENDBRANCH  11  12
ENDBRANCH   9  11
ENDBRANCH   6   9
ENDBRANCH   5   6
ENDBRANCH   4   5
ENDBRANCH   3   4
ENDBRANCH   1   3
BRANCH   1  17
ATOM     17  O   UNL A   1      32.170  30.867  26.866  1.00  0.00    -0.462 OA
BRANCH  17  18
ATOM     18  C   UNL A   1      31.343  32.045  26.739  1.00  0.00     0.274 C 
BRANCH  18  19
ATOM     19  C   UNL A   1      32.171  33.326  26.837  1.00  0.00     0.275 C 
BRANCH  19  20
ATOM     20  O   UNL A   1      32.451  33.643  28.208  1.00  0.00    -0.458 OA
BRANCH  20  21
ATOM     21  C   UNL A   1      33.499  34.477  28.384  1.00  0.00     0.338 C 
ATOM     22  O   UNL A   1      33.491  35.698  28.384  1.00  0.00    -0.246 OA
BRANCH  21  23
ATOM     23  C   UNL A   1      34.665  33.690  28.796  1.00  0.00     0.060 A 
ATOM     24  C   UNL A   1      34.419  32.455  29.400  1.00  0.00     0.016 A 
ATOM     25  C   UNL A   1      35.967  34.170  28.650  1.00  0.00     0.016 A 
ATOM     26  C   UNL A   1      35.472  31.684  29.868  1.00  0.00     0.010 A 
ATOM     27  C   UNL A   1      37.028  33.403  29.137  1.00  0.00     0.010 A 
ATOM     28  C   UNL A   1      36.781  32.167  29.762  1.00  0.00    -0.014 A 
BRANCH  28  29
ATOM     29  C   UNL A   1      37.871  31.423  30.426  1.00  0.00     0.031 A 
ATOM     30  C   UNL A   1      38.150  31.689  31.875  1.00  0.00     0.074 A 
ATOM     31  C   UNL A   1      38.554  30.482  29.752  1.00  0.00     0.049 A 
ATOM     32  N   UNL A   1      39.105  31.225  32.636  1.00  0.00    -0.248 NA
ATOM     33  C   UNL A   1      37.223  32.605  32.561  1.00  0.00     0.031 C 
ATOM     34  C   UNL A   1      38.311  30.094  28.364  1.00  0.00     0.029 A 
ATOM     35  N   UNL A   1      39.592  29.679  30.152  1.00  0.00    -0.354 N 
ATOM     36  C   UNL A   1      38.907  31.804  33.882  1.00  0.00     0.074 A 
ATOM     37  C   UNL A   1      37.751  32.667  33.773  1.00  0.00     0.031 C 
ATOM     38  C   UNL A   1      39.181  29.129  28.023  1.00  0.00     0.029 A 
ATOM     39  C   UNL A   1      40.067  28.866  29.152  1.00  0.00     0.049 A 
ATOM     40  H   UNL A   1      39.959  29.685  31.064  1.00  0.00     0.167 HD
ATOM     41  C   UNL A   1      39.628  31.625  35.013  1.00  0.00     0.037 A 
ATOM     42  C   UNL A   1      41.121  28.028  29.150  1.00  0.00     0.037 A 
ATOM     43  C   UNL A   1      40.771  30.756  35.108  1.00  0.00     0.049 A 
ATOM     44  C   UNL A   1      41.939  27.890  30.407  1.00  0.00     0.074 A 
ATOM     45  C   UNL A   1      41.599  30.527  36.192  1.00  0.00     0.029 A 
ATOM     46  N   UNL A   1      41.240  29.962  34.070  1.00  0.00    -0.354 N 
ATOM     47  N   UNL A   1      41.780  28.477  31.568  1.00  0.00    -0.248 NA
ATOM     48  C   UNL A   1      43.088  26.976  30.350  1.00  0.00     0.031 C 
ATOM     49  C   UNL A   1      42.586  29.615  35.801  1.00  0.00     0.029 A 
ATOM     50  C   UNL A   1      42.348  29.245  34.487  1.00  0.00     0.049 A 
ATOM     51  H   UNL A   1      40.842  29.917  33.170  1.00  0.00     0.167 HD
ATOM     52  C   UNL A   1      42.792  27.994  32.384  1.00  0.00     0.074 A 
ATOM     53  C   UNL A   1      43.550  27.048  31.591  1.00  0.00     0.031 C 
ATOM     54  C   UNL A   1      43.077  28.307  33.673  1.00  0.00     0.037 A 
BRANCH  41  55
ATOM     55  C   UNL A   1      39.217  32.410  36.223  1.00  0.00     0.064 A 
ATOM     56  C   UNL A   1      39.706  33.703  36.465  1.00  0.00     0.173 A 
ATOM     57  C   UNL A   1      38.312  31.867  37.147  1.00  0.00     0.173 A 
ATOM     58  F   UNL A   1      40.591  34.258  35.623  1.00  0.00    -0.203 F 
ATOM     59  C   UNL A   1      39.322  34.413  37.600  1.00  0.00     0.198 A 
ATOM     60  C   UNL A   1      37.911  32.590  38.267  1.00  0.00     0.198 A 
ATOM     61  F   UNL A   1      37.817  30.635  36.964  1.00  0.00    -0.203 F 
ATOM     62  F   UNL A   1      39.838  35.627  37.835  1.00  0.00    -0.200 F 
ATOM     63  C   UNL A   1      38.420  33.858  38.496  1.00  0.00     0.200 A 
ATOM     64  F   UNL A   1      37.034  32.055  39.129  1.00  0.00    -0.200 F 
ATOM     65  F   UNL A   1      38.051  34.544  39.586  1.00  0.00    -0.200 F 
ENDBRANCH  41  55
BRANCH  42  66
ATOM     66  C   UNL A   1      41.478  27.285  27.915  1.00  0.00     0.064 A 
ATOM     67  C   UNL A   1      40.996  25.991  27.682  1.00  0.00     0.173 A 
ATOM     68  C   UNL A   1      42.320  27.852  26.946  1.00  0.00     0.173 A 
ATOM     69  F   UNL A   1      40.209  25.394  28.589  1.00  0.00    -0.203 F 
ATOM     70  C   UNL A   1      41.356  25.284  26.534  1.00  0.00     0.198 A 
ATOM     71  C   UNL A   1      42.655  27.157  25.787  1.00  0.00     0.198 A 
ATOM     72  F   UNL A   1      42.811  29.088  27.124  1.00  0.00    -0.203 F 
ATOM     73  F   UNL A   1      40.919  24.030  26.358  1.00  0.00    -0.200 F 
ATOM     74  C   UNL A   1      42.180  25.871  25.586  1.00  0.00     0.200 A 
ATOM     75  F   UNL A   1      43.444  27.732  24.868  1.00  0.00    -0.200 F 
ATOM     76  F   UNL A   1      42.524  25.192  24.482  1.00  0.00    -0.200 F 
ENDBRANCH  42  66
BRANCH  54  77
ATOM     77  C   UNL A   1      44.236  27.595  34.303  1.00  0.00     0.064 A 
ATOM     78  C   UNL A   1      45.525  28.145  34.296  1.00  0.00     0.173 A 
ATOM     79  C   UNL A   1      44.048  26.361  34.944  1.00  0.00     0.173 A 
ATOM     80  F   UNL A   1      45.756  29.316  33.682  1.00  0.00    -0.203 F 
ATOM     81  C   UNL A   1      46.592  27.472  34.885  1.00  0.00     0.198 A 
ATOM     82  C   UNL A   1      45.110  25.704  35.554  1.00  0.00     0.198 A 
ATOM     83  F   UNL A   1      42.830  25.798  34.982  1.00  0.00    -0.203 F 
ATOM     84  F   UNL A   1      47.825  27.993  34.827  1.00  0.00    -0.200 F 
ATOM     85  C   UNL A   1      46.383  26.256  35.518  1.00  0.00     0.200 A 
ATOM     86  F   UNL A   1      44.906  24.533  36.174  1.00  0.00    -0.200 F 
ATOM     87  F   UNL A   1      47.411  25.610  36.086  1.00  0.00    -0.200 F 
ENDBRANCH  54  77
ENDBRANCH  28  29
ENDBRANCH  21  23
ENDBRANCH  20  21
ENDBRANCH  19  20
ENDBRANCH  18  19
ENDBRANCH  17  18
ENDBRANCH   1  17
TORSDOF 18
ENDMDL
MODEL 2
REMARK VINA RESULT:      -9.8      4.332      7.095
REMARK SMILES CN(CC(C)(C)O)S(=O)(=O)CCCC(=O)OCCOC(=O)c1ccc(-c2c3nc(c(-c4c(F)c(F)c(F)c(F)c4F)c4ccc([nH]4)c(-c4c(F)c(F)c(F)c(F)c4F)c4nc(c(-c5c(F)c(F)c(F)c(F)c5F)c5ccc2[nH]5)C=C4)C=C3)cc1
REMARK SMILES IDX 14 1 15 2 13 3 12 4 11 5 8 6 9 7 10 8 2 9 1 10 3 11 4 12
REMARK SMILES IDX 5 13 6 14 7 15 16 17 17 18 18 19 19 20 20 21 21 22 22 23
REMARK SMILES IDX 23 24 84 25 24 26 83 27 25 28 26 29 27 30 77 31 28 32 82 33
REMARK SMILES IDX 76 34 78 35 29 36 81 37 75 38 74 39 30 41 62 42 42 43 61 44
REMARK SMILES IDX 43 45 46 46 60 47 79 48 44 49 45 50 59 52 80 53 47 54 31 55
REMARK SMILES IDX 32 56 40 57 33 58 34 59 38 60 41 61 35 62 36 63 39 64 37 65
REMARK SMILES IDX 63 66 64 67 72 68 65 69 66 70 70 71 73 72 67 73 68 74 71 75
REMARK SMILES IDX 69 76 48 77 49 78 57 79 50 80 51 81 55 82 58 83 52 84 53 85
REMARK SMILES IDX 56 86 54 87
REMARK H PARENT 7 16 78 40 46 51
REMARK Flexibility Score: inf
ROOT
ATOM      1  C   UNL A   1      32.978  35.770  29.665  1.00  0.00     0.305 C 
ATOM      2  O   UNL A   1      32.191  36.342  28.920  1.00  0.00    -0.252 OA
ENDROOT
BRANCH   1   3
ATOM      3  C   UNL A   1      32.791  35.749  31.170  1.00  0.00     0.124 C 
BRANCH   3   4
ATOM      4  C   UNL A   1      34.039  35.594  32.039  1.00  0.00     0.029 C 
BRANCH   4   5
ATOM      5  C   UNL A   1      34.279  34.230  32.678  1.00  0.00     0.155 C 
BRANCH   5   6
ATOM      6  S   UNL A   1      35.790  34.069  33.629  1.00  0.00     0.213 S 
ATOM      7  O   UNL A   1      35.429  34.051  35.027  1.00  0.00    -0.212 OA
ATOM      8  O   UNL A   1      36.723  35.065  33.138  1.00  0.00    -0.212 OA
BRANCH   6   9
ATOM      9  N   UNL A   1      36.407  32.559  33.225  1.00  0.00    -0.202 NA
ATOM     10  C   UNL A   1      35.593  31.763  32.283  1.00  0.00     0.124 C 
BRANCH   9  11
ATOM     11  C   UNL A   1      37.856  32.245  33.197  1.00  0.00     0.136 C 
BRANCH  11  12
ATOM     12  C   UNL A   1      38.431  31.184  34.161  1.00  0.00     0.073 C 
ATOM     13  C   UNL A   1      38.880  29.906  33.452  1.00  0.00     0.043 C 
ATOM     14  C   UNL A   1      39.651  31.810  34.858  1.00  0.00     0.043 C 
BRANCH  12  15
ATOM     15  O   UNL A   1      37.489  30.871  35.188  1.00  0.00    -0.389 OA
ATOM     16  H   UNL A   1      37.961  30.702  36.019  1.00  0.00     0.211 HD
ENDBRANCH  12  15
ENDBRANCH  11  12
ENDBRANCH   9  11
ENDBRANCH   6   9
ENDBRANCH   5   6
ENDBRANCH   4   5
ENDBRANCH   3   4
ENDBRANCH   1   3
BRANCH   1  17
ATOM     17  O   UNL A   1      34.109  35.142  29.253  1.00  0.00    -0.462 OA
BRANCH  17  18
ATOM     18  C   UNL A   1      33.953  34.054  28.316  1.00  0.00     0.274 C 
BRANCH  18  19
ATOM     19  C   UNL A   1      35.100  33.049  28.426  1.00  0.00     0.275 C 
BRANCH  19  20
ATOM     20  O   UNL A   1      34.633  31.807  28.972  1.00  0.00    -0.458 OA
BRANCH  20  21
ATOM     21  C   UNL A   1      34.724  30.758  28.126  1.00  0.00     0.338 C 
ATOM     22  O   UNL A   1      33.935  30.432  27.252  1.00  0.00    -0.246 OA
BRANCH  21  23
ATOM     23  C   UNL A   1      36.053  30.154  28.262  1.00  0.00     0.060 A 
ATOM     24  C   UNL A   1      36.347  29.529  29.475  1.00  0.00     0.016 A 
ATOM     25  C   UNL A   1      37.010  30.246  27.251  1.00  0.00     0.016 A 
ATOM     26  C   UNL A   1      37.605  28.988  29.695  1.00  0.00     0.010 A 
ATOM     27  C   UNL A   1      38.283  29.718  27.478  1.00  0.00     0.010 A 
ATOM     28  C   UNL A   1      38.588  29.103  28.706  1.00  0.00    -0.014 A 
BRANCH  28  29
ATOM     29  C   UNL A   1      39.970  28.688  29.023  1.00  0.00     0.031 A 
ATOM     30  C   UNL A   1      40.834  29.609  29.831  1.00  0.00     0.074 A 
ATOM     31  C   UNL A   1      40.415  27.478  28.644  1.00  0.00     0.049 A 
ATOM     32  N   UNL A   1      42.096  29.496  30.152  1.00  0.00    -0.248 NA
ATOM     33  C   UNL A   1      40.187  30.826  30.349  1.00  0.00     0.031 C 
ATOM     34  C   UNL A   1      39.630  26.479  27.922  1.00  0.00     0.029 A 
ATOM     35  N   UNL A   1      41.639  26.886  28.819  1.00  0.00    -0.354 N 
ATOM     36  C   UNL A   1      42.398  30.631  30.892  1.00  0.00     0.074 A 
ATOM     37  C   UNL A   1      41.194  31.430  30.959  1.00  0.00     0.031 C 
ATOM     38  C   UNL A   1      40.395  25.395  27.708  1.00  0.00     0.029 A 
ATOM     39  C   UNL A   1      41.732  25.644  28.239  1.00  0.00     0.049 A 
ATOM     40  H   UNL A   1      42.378  27.308  29.312  1.00  0.00     0.167 HD
ATOM     41  C   UNL A   1      43.578  30.970  31.462  1.00  0.00     0.037 A 
ATOM     42  C   UNL A   1      42.792  24.822  28.127  1.00  0.00     0.037 A 
ATOM     43  C   UNL A   1      44.765  30.160  31.393  1.00  0.00     0.049 A 
ATOM     44  C   UNL A   1      44.107  25.248  28.725  1.00  0.00     0.074 A 
ATOM     45  C   UNL A   1      46.025  30.421  31.903  1.00  0.00     0.029 A 
ATOM     46  N   UNL A   1      44.831  28.916  30.779  1.00  0.00    -0.354 N 
ATOM     47  N   UNL A   1      44.402  26.345  29.379  1.00  0.00    -0.248 NA
ATOM     48  C   UNL A   1      45.236  24.324  28.562  1.00  0.00     0.031 C 
ATOM     49  C   UNL A   1      46.859  29.348  31.571  1.00  0.00     0.029 A 
ATOM     50  C   UNL A   1      46.110  28.400  30.892  1.00  0.00     0.049 A 
ATOM     51  H   UNL A   1      44.078  28.469  30.329  1.00  0.00     0.167 HD
ATOM     52  C   UNL A   1      45.742  26.237  29.721  1.00  0.00     0.074 A 
ATOM     53  C   UNL A   1      46.198  24.957  29.220  1.00  0.00     0.031 C 
ATOM     54  C   UNL A   1      46.530  27.119  30.386  1.00  0.00     0.037 A 
BRANCH  41  55
ATOM     55  C   UNL A   1      43.643  32.285  32.180  1.00  0.00     0.064 A 
ATOM     56  C   UNL A   1      43.379  32.390  33.553  1.00  0.00     0.173 A 
ATOM     57  C   UNL A   1      43.986  33.455  31.486  1.00  0.00     0.173 A 
ATOM     58  F   UNL A   1      43.025  31.303  34.257  1.00  0.00    -0.203 F 
ATOM     59  C   UNL A   1      43.432  33.622  34.201  1.00  0.00     0.198 A 
ATOM     60  C   UNL A   1      44.064  34.680  32.142  1.00  0.00     0.198 A 
ATOM     61  F   UNL A   1      44.246  33.410  30.171  1.00  0.00    -0.203 F 
ATOM     62  F   UNL A   1      43.130  33.706  35.503  1.00  0.00    -0.200 F 
ATOM     63  C   UNL A   1      43.781  34.764  33.496  1.00  0.00     0.200 A 
ATOM     64  F   UNL A   1      44.407  35.783  31.460  1.00  0.00    -0.200 F 
ATOM     65  F   UNL A   1      43.834  35.948  34.122  1.00  0.00    -0.200 F 
ENDBRANCH  41  55
BRANCH  42  66
ATOM     66  C   UNL A   1      42.661  23.536  27.396  1.00  0.00     0.064 A 
ATOM     67  C   UNL A   1      42.032  22.429  27.982  1.00  0.00     0.173 A 
ATOM     68  C   UNL A   1      43.173  23.383  26.099  1.00  0.00     0.173 A 
ATOM     69  F   UNL A   1      41.548  22.515  29.230  1.00  0.00    -0.203 F 
ATOM     70  C   UNL A   1      41.935  21.214  27.304  1.00  0.00     0.198 A 
ATOM     71  C   UNL A   1      43.051  22.178  25.412  1.00  0.00     0.198 A 
ATOM     72  F   UNL A   1      43.787  24.412  25.495  1.00  0.00    -0.203 F 
ATOM     73  F   UNL A   1      41.370  20.158  27.905  1.00  0.00    -0.200 F 
ATOM     74  C   UNL A   1      42.440  21.092  26.018  1.00  0.00     0.200 A 
ATOM     75  F   UNL A   1      43.530  22.068  24.165  1.00  0.00    -0.200 F 
ATOM     76  F   UNL A   1      42.344  19.924  25.367  1.00  0.00    -0.200 F 
ENDBRANCH  42  66
BRANCH  54  77
ATOM     77  C   UNL A   1      47.951  26.708  30.629  1.00  0.00     0.064 A 
ATOM     78  C   UNL A   1      48.983  27.089  29.761  1.00  0.00     0.173 A 
ATOM     79  C   UNL A   1      48.286  25.947  31.759  1.00  0.00     0.173 A 
ATOM     80  F   UNL A   1      48.708  27.804  28.659  1.00  0.00    -0.203 F 
ATOM     81  C   UNL A   1      50.298  26.700  30.000  1.00  0.00     0.198 A 
ATOM     82  C   UNL A   1      49.604  25.582  32.009  1.00  0.00     0.198 A 
ATOM     83  F   UNL A   1      47.333  25.564  32.623  1.00  0.00    -0.203 F 
ATOM     84  F   UNL A   1      51.263  27.034  29.132  1.00  0.00    -0.200 F 
ATOM     85  C   UNL A   1      50.608  25.952  31.126  1.00  0.00     0.200 A 
ATOM     86  F   UNL A   1      49.905  24.868  33.103  1.00  0.00    -0.200 F 
ATOM     87  F   UNL A   1      51.875  25.579  31.356  1.00  0.00    -0.200 F 
ENDBRANCH  54  77
ENDBRANCH  28  29
ENDBRANCH  21  23
ENDBRANCH  20  21
ENDBRANCH  19  20
ENDBRANCH  18  19
ENDBRANCH  17  18
ENDBRANCH   1  17
TORSDOF 18
ENDMDL
MODEL 3
REMARK VINA RESULT:      -9.8      1.369      7.788
REMARK SMILES CN(CC(C)(C)O)S(=O)(=O)CCCC(=O)OCCOC(=O)c1ccc(-c2c3nc(c(-c4c(F)c(F)c(F)c(F)c4F)c4ccc([nH]4)c(-c4c(F)c(F)c(F)c(F)c4F)c4nc(c(-c5c(F)c(F)c(F)c(F)c5F)c5ccc2[nH]5)C=C4)C=C3)cc1
REMARK SMILES IDX 14 1 15 2 13 3 12 4 11 5 8 6 9 7 10 8 2 9 1 10 3 11 4 12
REMARK SMILES IDX 5 13 6 14 7 15 16 17 17 18 18 19 19 20 20 21 21 22 22 23
REMARK SMILES IDX 23 24 84 25 24 26 83 27 25 28 26 29 27 30 77 31 28 32 82 33
REMARK SMILES IDX 76 34 78 35 29 36 81 37 75 38 74 39 30 41 62 42 42 43 61 44
REMARK SMILES IDX 43 45 46 46 60 47 79 48 44 49 45 50 59 52 80 53 47 54 31 55
REMARK SMILES IDX 32 56 40 57 33 58 34 59 38 60 41 61 35 62 36 63 39 64 37 65
REMARK SMILES IDX 63 66 64 67 72 68 65 69 66 70 70 71 73 72 67 73 68 74 71 75
REMARK SMILES IDX 69 76 48 77 49 78 57 79 50 80 51 81 55 82 58 83 52 84 53 85
REMARK SMILES IDX 56 86 54 87
REMARK H PARENT 7 16 78 40 46 51
REMARK Flexibility Score: inf
ROOT
ATOM      1  C   UNL A   1      32.600  28.575  23.162  1.00  0.00     0.305 C 
ATOM      2  O   UNL A   1      31.855  29.148  22.378  1.00  0.00    -0.252 OA
ENDROOT
BRANCH   1   3
ATOM      3  C   UNL A   1      33.551  27.479  22.715  1.00  0.00     0.124 C 
BRANCH   3   4
ATOM      4  C   UNL A   1      33.653  26.228  23.586  1.00  0.00     0.029 C 
BRANCH   4   5
ATOM      5  C   UNL A   1      32.413  25.347  23.690  1.00  0.00     0.155 C 
BRANCH   5   6
ATOM      6  S   UNL A   1      32.019  24.744  25.332  1.00  0.00     0.213 S 
ATOM      7  O   UNL A   1      30.686  24.190  25.289  1.00  0.00    -0.212 OA
ATOM      8  O   UNL A   1      32.329  25.804  26.272  1.00  0.00    -0.212 OA
BRANCH   6   9
ATOM      9  N   UNL A   1      33.102  23.490  25.613  1.00  0.00    -0.202 NA
ATOM     10  C   UNL A   1      34.441  23.891  26.090  1.00  0.00     0.124 C 
BRANCH   9  11
ATOM     11  C   UNL A   1      32.689  22.126  26.026  1.00  0.00     0.136 C 
BRANCH  11  12
ATOM     12  C   UNL A   1      32.695  20.977  24.993  1.00  0.00     0.073 C 
ATOM     13  C   UNL A   1      32.397  21.444  23.569  1.00  0.00     0.043 C 
ATOM     14  C   UNL A   1      34.099  20.347  25.016  1.00  0.00     0.043 C 
BRANCH  12  15
ATOM     15  O   UNL A   1      31.780  19.949  25.375  1.00  0.00    -0.389 OA
ATOM     16  H   UNL A   1      31.161  20.296  26.038  1.00  0.00     0.211 HD
ENDBRANCH  12  15
ENDBRANCH  11  12
ENDBRANCH   9  11
ENDBRANCH   6   9
ENDBRANCH   5   6
ENDBRANCH   4   5
ENDBRANCH   3   4
ENDBRANCH   1   3
BRANCH   1  17
ATOM     17  O   UNL A   1      32.638  28.807  24.499  1.00  0.00    -0.462 OA
BRANCH  17  18
ATOM     18  C   UNL A   1      31.445  29.350  25.106  1.00  0.00     0.274 C 
BRANCH  18  19
ATOM     19  C   UNL A   1      31.782  30.278  26.274  1.00  0.00     0.275 C 
BRANCH  19  20
ATOM     20  O   UNL A   1      33.197  30.504  26.348  1.00  0.00    -0.458 OA
BRANCH  20  21
ATOM     21  C   UNL A   1      33.556  31.517  27.167  1.00  0.00     0.338 C 
ATOM     22  O   UNL A   1      32.885  32.481  27.502  1.00  0.00    -0.246 OA
BRANCH  21  23
ATOM     23  C   UNL A   1      34.841  31.188  27.792  1.00  0.00     0.060 A 
ATOM     24  C   UNL A   1      35.031  29.866  28.198  1.00  0.00     0.016 A 
ATOM     25  C   UNL A   1      35.815  32.158  28.027  1.00  0.00     0.016 A 
ATOM     26  C   UNL A   1      36.199  29.496  28.848  1.00  0.00     0.010 A 
ATOM     27  C   UNL A   1      36.984  31.792  28.699  1.00  0.00     0.010 A 
ATOM     28  C   UNL A   1      37.170  30.464  29.125  1.00  0.00    -0.014 A 
BRANCH  28  29
ATOM     29  C   UNL A   1      38.320  30.096  29.977  1.00  0.00     0.031 A 
ATOM     30  C   UNL A   1      39.374  29.189  29.417  1.00  0.00     0.074 A 
ATOM     31  C   UNL A   1      38.443  30.621  31.208  1.00  0.00     0.049 A 
ATOM     32  N   UNL A   1      40.417  28.665  30.005  1.00  0.00    -0.248 NA
ATOM     33  C   UNL A   1      39.232  28.821  27.998  1.00  0.00     0.031 C 
ATOM     34  C   UNL A   1      37.514  31.572  31.816  1.00  0.00     0.029 A 
ATOM     35  N   UNL A   1      39.406  30.429  32.165  1.00  0.00    -0.354 N 
ATOM     36  C   UNL A   1      41.045  27.893  29.036  1.00  0.00     0.074 A 
ATOM     37  C   UNL A   1      40.259  28.002  27.827  1.00  0.00     0.031 C 
ATOM     38  C   UNL A   1      37.950  31.877  33.050  1.00  0.00     0.029 A 
ATOM     39  C   UNL A   1      39.159  31.110  33.331  1.00  0.00     0.049 A 
ATOM     40  H   UNL A   1      40.197  29.859  32.028  1.00  0.00     0.167 HD
ATOM     41  C   UNL A   1      42.178  27.162  29.153  1.00  0.00     0.037 A 
ATOM     42  C   UNL A   1      39.825  31.086  34.501  1.00  0.00     0.037 A 
ATOM     43  C   UNL A   1      42.955  27.071  30.360  1.00  0.00     0.049 A 
ATOM     44  C   UNL A   1      41.052  30.222  34.619  1.00  0.00     0.074 A 
ATOM     45  C   UNL A   1      44.099  26.332  30.603  1.00  0.00     0.029 A 
ATOM     46  N   UNL A   1      42.664  27.758  31.532  1.00  0.00    -0.354 N 
ATOM     47  N   UNL A   1      41.615  29.453  33.718  1.00  0.00    -0.248 NA
ATOM     48  C   UNL A   1      41.734  30.217  35.920  1.00  0.00     0.031 C 
ATOM     49  C   UNL A   1      44.484  26.549  31.931  1.00  0.00     0.029 A 
ATOM     50  C   UNL A   1      43.605  27.455  32.503  1.00  0.00     0.049 A 
ATOM     51  H   UNL A   1      41.901  28.368  31.654  1.00  0.00     0.167 HD
ATOM     52  C   UNL A   1      42.722  28.889  34.333  1.00  0.00     0.074 A 
ATOM     53  C   UNL A   1      42.765  29.419  35.680  1.00  0.00     0.031 C 
ATOM     54  C   UNL A   1      43.622  28.005  33.833  1.00  0.00     0.037 A 
BRANCH  41  55
ATOM     55  C   UNL A   1      42.621  26.383  27.951  1.00  0.00     0.064 A 
ATOM     56  C   UNL A   1      43.542  26.906  27.031  1.00  0.00     0.173 A 
ATOM     57  C   UNL A   1      42.126  25.091  27.721  1.00  0.00     0.173 A 
ATOM     58  F   UNL A   1      44.028  28.146  27.193  1.00  0.00    -0.203 F 
ATOM     59  C   UNL A   1      43.933  26.172  25.913  1.00  0.00     0.198 A 
ATOM     60  C   UNL A   1      42.539  24.350  26.617  1.00  0.00     0.198 A 
ATOM     61  F   UNL A   1      41.241  24.545  28.569  1.00  0.00    -0.203 F 
ATOM     62  F   UNL A   1      44.778  26.710  25.023  1.00  0.00    -0.200 F 
ATOM     63  C   UNL A   1      43.436  24.894  25.711  1.00  0.00     0.200 A 
ATOM     64  F   UNL A   1      42.061  23.112  26.426  1.00  0.00    -0.200 F 
ATOM     65  F   UNL A   1      43.815  24.189  24.636  1.00  0.00    -0.200 F 
ENDBRANCH  41  55
BRANCH  42  66
ATOM     66  C   UNL A   1      39.328  31.876  35.656  1.00  0.00     0.064 A 
ATOM     67  C   UNL A   1      39.776  33.183  35.888  1.00  0.00     0.173 A 
ATOM     68  C   UNL A   1      38.400  31.336  36.559  1.00  0.00     0.173 A 
ATOM     69  F   UNL A   1      40.682  33.736  35.068  1.00  0.00    -0.203 F 
ATOM     70  C   UNL A   1      39.329  33.914  36.988  1.00  0.00     0.198 A 
ATOM     71  C   UNL A   1      37.932  32.076  37.642  1.00  0.00     0.198 A 
ATOM     72  F   UNL A   1      37.942  30.087  36.384  1.00  0.00    -0.203 F 
ATOM     73  F   UNL A   1      39.810  35.144  37.213  1.00  0.00    -0.200 F 
ATOM     74  C   UNL A   1      38.404  33.361  37.861  1.00  0.00     0.200 A 
ATOM     75  F   UNL A   1      37.029  31.542  38.476  1.00  0.00    -0.200 F 
ATOM     76  F   UNL A   1      37.973  34.064  38.917  1.00  0.00    -0.200 F 
ENDBRANCH  42  66
BRANCH  54  77
ATOM     77  C   UNL A   1      44.738  27.588  34.742  1.00  0.00     0.064 A 
ATOM     78  C   UNL A   1      44.632  26.456  35.562  1.00  0.00     0.173 A 
ATOM     79  C   UNL A   1      45.938  28.314  34.772  1.00  0.00     0.173 A 
ATOM     80  F   UNL A   1      43.497  25.739  35.579  1.00  0.00    -0.203 F 
ATOM     81  C   UNL A   1      45.677  26.081  36.401  1.00  0.00     0.198 A 
ATOM     82  C   UNL A   1      46.991  27.921  35.592  1.00  0.00     0.198 A 
ATOM     83  F   UNL A   1      46.090  29.401  34.000  1.00  0.00    -0.203 F 
ATOM     84  F   UNL A   1      45.537  25.023  37.212  1.00  0.00    -0.200 F 
ATOM     85  C   UNL A   1      46.857  26.810  36.412  1.00  0.00     0.200 A 
ATOM     86  F   UNL A   1      48.135  28.620  35.594  1.00  0.00    -0.200 F 
ATOM     87  F   UNL A   1      47.863  26.447  37.219  1.00  0.00    -0.200 F 
ENDBRANCH  54  77
ENDBRANCH  28  29
ENDBRANCH  21  23
ENDBRANCH  20  21
ENDBRANCH  19  20
ENDBRANCH  18  19
ENDBRANCH  17  18
ENDBRANCH   1  17
TORSDOF 18
ENDMDL
