MODEL 1
REMARK VINA RESULT:     -11.8      0.000      0.000
REMARK SMILES COc1cc(NC(=O)[C@@H]2CC=CC[C@H]2C(=O)OCCOC(=O)c2ccc(-c3c4nc(c(-c5c(F)c(F)c(F)c(F)c5F)c5ccc([nH]5)c(-c5c(F)c(F)c(F)c(F)c5F)c5nc(c(-c6c(F)c(F)c(F)c(F)c6F)c6ccc3[nH]6)C=C5)C=C4)cc2)c(OC)cc1Cl
REMARK SMILES IDX 18 1 17 2 15 3 16 4 14 5 9 6 10 7 11 8 13 9 12 10 7 11 6 12
REMARK SMILES IDX 8 14 5 15 3 16 4 17 90 18 89 19 91 20 86 21 2 22 1 23 87 24
REMARK SMILES IDX 88 25 19 26 20 27 21 28 22 29 23 30 24 31 85 32 25 33 84 34
REMARK SMILES IDX 26 35 27 36 28 37 78 38 29 39 83 40 77 41 79 42 30 43 82 44
REMARK SMILES IDX 76 45 75 46 31 48 63 49 43 50 62 51 44 52 47 53 61 54 80 55
REMARK SMILES IDX 45 56 46 57 60 59 81 60 48 61 32 62 33 63 41 64 34 65 35 66
REMARK SMILES IDX 39 67 42 68 36 69 37 70 40 71 38 72 64 73 65 74 73 75 66 76
REMARK SMILES IDX 67 77 71 78 74 79 68 80 69 81 72 82 70 83 49 84 50 85 58 86
REMARK SMILES IDX 51 87 52 88 56 89 59 90 53 91 54 92 57 93 55 94
REMARK H PARENT 6 13 79 47 47 58
REMARK Flexibility Score: inf
ROOT
ATOM      1  C   UNL A   1      31.777  29.021  26.777  1.00  0.00     0.274 C 
ENDROOT
BRANCH   1   2
ATOM      2  O   UNL A   1      32.241  28.448  25.540  1.00  0.00    -0.462 OA
BRANCH   2   3
ATOM      3  C   UNL A   1      33.351  27.681  25.612  1.00  0.00     0.310 C 
ATOM      4  O   UNL A   1      34.301  27.896  26.359  1.00  0.00    -0.252 OA
BRANCH   3   5
ATOM      5  C   UNL A   1      33.358  26.509  24.640  1.00  0.00     0.116 C 
ATOM      6  C   UNL A   1      32.179  25.526  24.749  1.00  0.00     0.097 C 
ATOM      7  C   UNL A   1      31.992  24.551  23.572  1.00  0.00     0.041 C 
ATOM      8  C   UNL A   1      32.605  24.993  22.280  1.00  0.00    -0.030 C 
ATOM      9  C   UNL A   1      33.473  27.125  23.238  1.00  0.00     0.043 C 
ATOM     10  C   UNL A   1      33.263  26.148  22.126  1.00  0.00    -0.030 C 
BRANCH   6  11
ATOM     11  C   UNL A   1      32.126  24.796  26.086  1.00  0.00     0.228 C 
ATOM     12  N   UNL A   1      33.014  23.883  26.553  1.00  0.00    -0.323 N 
ATOM     13  H   UNL A   1      32.764  23.593  27.460  1.00  0.00     0.170 HD
ATOM     14  O   UNL A   1      31.151  25.021  26.820  1.00  0.00    -0.274 OA
BRANCH  12  15
ATOM     15  C   UNL A   1      34.187  23.221  26.132  1.00  0.00     0.087 A 
ATOM     16  C   UNL A   1      36.516  23.063  25.472  1.00  0.00     0.139 A 
ATOM     17  C   UNL A   1      35.432  23.812  25.944  1.00  0.00     0.078 A 
ATOM     18  C   UNL A   1      36.379  21.702  25.205  1.00  0.00     0.086 A 
ATOM     19  C   UNL A   1      35.144  21.085  25.399  1.00  0.00     0.073 A 
ATOM     20  Cl  UNL A   1      37.700  20.752  24.635  1.00  0.00    -0.080 Cl
ATOM     21  C   UNL A   1      34.055  21.832  25.866  1.00  0.00     0.144 A 
BRANCH  16  22
ATOM     22  O   UNL A   1      37.722  23.704  25.358  1.00  0.00    -0.495 OA
ATOM     23  C   UNL A   1      38.225  24.073  26.644  1.00  0.00     0.278 C 
ENDBRANCH  16  22
BRANCH  21  24
ATOM     24  O   UNL A   1      32.798  21.309  26.080  1.00  0.00    -0.495 OA
ATOM     25  C   UNL A   1      32.162  20.654  24.987  1.00  0.00     0.278 C 
ENDBRANCH  21  24
ENDBRANCH  12  15
ENDBRANCH   6  11
ENDBRANCH   3   5
ENDBRANCH   2   3
ENDBRANCH   1   2
BRANCH   1  26
ATOM     26  C   UNL A   1      31.737  30.548  26.705  1.00  0.00     0.275 C 
BRANCH  26  27
ATOM     27  O   UNL A   1      33.048  31.071  26.422  1.00  0.00    -0.458 OA
BRANCH  27  28
ATOM     28  C   UNL A   1      33.519  31.987  27.292  1.00  0.00     0.338 C 
ATOM     29  O   UNL A   1      33.016  33.048  27.626  1.00  0.00    -0.246 OA
BRANCH  28  30
ATOM     30  C   UNL A   1      34.795  31.524  27.843  1.00  0.00     0.060 A 
ATOM     31  C   UNL A   1      34.904  30.211  28.309  1.00  0.00     0.016 A 
ATOM     32  C   UNL A   1      35.837  32.434  28.018  1.00  0.00     0.016 A 
ATOM     33  C   UNL A   1      36.054  29.807  28.982  1.00  0.00     0.010 A 
ATOM     34  C   UNL A   1      36.997  32.024  28.678  1.00  0.00     0.010 A 
ATOM     35  C   UNL A   1      37.100  30.716  29.184  1.00  0.00    -0.014 A 
BRANCH  35  36
ATOM     36  C   UNL A   1      38.282  30.328  29.983  1.00  0.00     0.031 A 
ATOM     37  C   UNL A   1      39.284  29.370  29.408  1.00  0.00     0.074 A 
ATOM     38  C   UNL A   1      38.446  30.822  31.224  1.00  0.00     0.049 A 
ATOM     39  N   UNL A   1      40.317  28.807  29.981  1.00  0.00    -0.248 NA
ATOM     40  C   UNL A   1      39.095  28.990  27.999  1.00  0.00     0.031 C 
ATOM     41  C   UNL A   1      37.558  31.787  31.869  1.00  0.00     0.029 A 
ATOM     42  N   UNL A   1      39.411  30.568  32.163  1.00  0.00    -0.354 N 
ATOM     43  C   UNL A   1      40.882  27.986  29.016  1.00  0.00     0.074 A 
ATOM     44  C   UNL A   1      40.080  28.119  27.820  1.00  0.00     0.031 C 
ATOM     45  C   UNL A   1      38.019  32.043  33.105  1.00  0.00     0.029 A 
ATOM     46  C   UNL A   1      39.206  31.226  33.349  1.00  0.00     0.049 A 
ATOM     47  H   UNL A   1      40.177  29.970  32.003  1.00  0.00     0.167 HD
ATOM     48  C   UNL A   1      41.973  27.191  29.126  1.00  0.00     0.037 A 
ATOM     49  C   UNL A   1      39.886  31.155  34.508  1.00  0.00     0.037 A 
ATOM     50  C   UNL A   1      42.786  27.084  30.308  1.00  0.00     0.049 A 
ATOM     51  C   UNL A   1      41.072  30.237  34.612  1.00  0.00     0.074 A 
ATOM     52  C   UNL A   1      43.933  26.335  30.504  1.00  0.00     0.029 A 
ATOM     53  N   UNL A   1      42.536  27.754  31.496  1.00  0.00    -0.354 N 
ATOM     54  N   UNL A   1      41.598  29.460  33.698  1.00  0.00    -0.248 NA
ATOM     55  C   UNL A   1      41.750  30.177  35.915  1.00  0.00     0.031 C 
ATOM     56  C   UNL A   1      44.361  26.528  31.823  1.00  0.00     0.029 A 
ATOM     57  C   UNL A   1      43.496  27.421  32.437  1.00  0.00     0.049 A 
ATOM     58  H   UNL A   1      41.788  28.375  31.649  1.00  0.00     0.167 HD
ATOM     59  C   UNL A   1      42.676  28.832  34.305  1.00  0.00     0.074 A 
ATOM     60  C   UNL A   1      42.736  29.326  35.665  1.00  0.00     0.031 C 
ATOM     61  C   UNL A   1      43.539  27.928  33.782  1.00  0.00     0.037 A 
BRANCH  48  62
ATOM     62  C   UNL A   1      42.338  26.349  27.942  1.00  0.00     0.064 A 
ATOM     63  C   UNL A   1      43.279  26.779  26.996  1.00  0.00     0.173 A 
ATOM     64  C   UNL A   1      41.770  25.077  27.780  1.00  0.00     0.173 A 
ATOM     65  F   UNL A   1      43.835  27.994  27.100  1.00  0.00    -0.203 F 
ATOM     66  C   UNL A   1      43.630  25.966  25.920  1.00  0.00     0.198 A 
ATOM     67  C   UNL A   1      42.137  24.261  26.713  1.00  0.00     0.198 A 
ATOM     68  F   UNL A   1      40.864  24.624  28.659  1.00  0.00    -0.203 F 
ATOM     69  F   UNL A   1      44.509  26.408  25.008  1.00  0.00    -0.200 F 
ATOM     70  C   UNL A   1      43.064  24.707  25.784  1.00  0.00     0.200 A 
ATOM     71  F   UNL A   1      41.593  23.043  26.584  1.00  0.00    -0.200 F 
ATOM     72  F   UNL A   1      43.408  23.926  24.750  1.00  0.00    -0.200 F 
ENDBRANCH  48  62
BRANCH  49  73
ATOM     73  C   UNL A   1      39.447  31.966  35.670  1.00  0.00     0.064 A 
ATOM     74  C   UNL A   1      40.035  33.208  35.944  1.00  0.00     0.173 A 
ATOM     75  C   UNL A   1      38.435  31.515  36.530  1.00  0.00     0.173 A 
ATOM     76  F   UNL A   1      41.025  33.665  35.163  1.00  0.00    -0.203 F 
ATOM     77  C   UNL A   1      39.632  33.967  37.039  1.00  0.00     0.198 A 
ATOM     78  C   UNL A   1      38.018  32.285  37.613  1.00  0.00     0.198 A 
ATOM     79  F   UNL A   1      37.846  30.330  36.312  1.00  0.00    -0.203 F 
ATOM     80  F   UNL A   1      40.234  35.135  37.300  1.00  0.00    -0.200 F 
ATOM     81  C   UNL A   1      38.620  33.508  37.870  1.00  0.00     0.200 A 
ATOM     82  F   UNL A   1      37.036  31.841  38.410  1.00  0.00    -0.200 F 
ATOM     83  F   UNL A   1      38.231  34.240  38.922  1.00  0.00    -0.200 F 
ENDBRANCH  49  73
BRANCH  61  84
ATOM     84  C   UNL A   1      44.631  27.433  34.681  1.00  0.00     0.064 A 
ATOM     85  C   UNL A   1      45.851  28.115  34.786  1.00  0.00     0.173 A 
ATOM     86  C   UNL A   1      44.442  26.289  35.467  1.00  0.00     0.173 A 
ATOM     87  F   UNL A   1      46.081  29.206  34.040  1.00  0.00    -0.203 F 
ATOM     88  C   UNL A   1      46.852  27.657  35.637  1.00  0.00     0.198 A 
ATOM     89  C   UNL A   1      45.437  25.844  36.331  1.00  0.00     0.198 A 
ATOM     90  F   UNL A   1      43.289  25.607  35.401  1.00  0.00    -0.203 F 
ATOM     91  F   UNL A   1      48.025  28.303  35.699  1.00  0.00    -0.200 F 
ATOM     92  C   UNL A   1      46.643  26.525  36.412  1.00  0.00     0.200 A 
ATOM     93  F   UNL A   1      45.232  24.753  37.083  1.00  0.00    -0.200 F 
ATOM     94  F   UNL A   1      47.607  26.086  37.233  1.00  0.00    -0.200 F 
ENDBRANCH  61  84
ENDBRANCH  35  36
ENDBRANCH  28  30
ENDBRANCH  27  28
ENDBRANCH  26  27
ENDBRANCH   1  26
TORSDOF 15
ENDMDL
MODEL 2
REMARK VINA RESULT:     -11.7      4.315      9.731
REMARK SMILES COc1cc(NC(=O)[C@@H]2CC=CC[C@H]2C(=O)OCCOC(=O)c2ccc(-c3c4nc(c(-c5c(F)c(F)c(F)c(F)c5F)c5ccc([nH]5)c(-c5c(F)c(F)c(F)c(F)c5F)c5nc(c(-c6c(F)c(F)c(F)c(F)c6F)c6ccc3[nH]6)C=C5)C=C4)cc2)c(OC)cc1Cl
REMARK SMILES IDX 18 1 17 2 15 3 16 4 14 5 9 6 10 7 11 8 13 9 12 10 7 11 6 12
REMARK SMILES IDX 8 14 5 15 3 16 4 17 90 18 89 19 91 20 86 21 2 22 1 23 87 24
REMARK SMILES IDX 88 25 19 26 20 27 21 28 22 29 23 30 24 31 85 32 25 33 84 34
REMARK SMILES IDX 26 35 27 36 28 37 78 38 29 39 83 40 77 41 79 42 30 43 82 44
REMARK SMILES IDX 76 45 75 46 31 48 63 49 43 50 62 51 44 52 47 53 61 54 80 55
REMARK SMILES IDX 45 56 46 57 60 59 81 60 48 61 32 62 33 63 41 64 34 65 35 66
REMARK SMILES IDX 39 67 42 68 36 69 37 70 40 71 38 72 64 73 65 74 73 75 66 76
REMARK SMILES IDX 67 77 71 78 74 79 68 80 69 81 72 82 70 83 49 84 50 85 58 86
REMARK SMILES IDX 51 87 52 88 56 89 59 90 53 91 54 92 57 93 55 94
REMARK H PARENT 6 13 79 47 47 58
REMARK Flexibility Score: inf
ROOT
ATOM      1  C   UNL A   1      35.741  21.405  24.818  1.00  0.00     0.274 C 
ENDROOT
BRANCH   1   2
ATOM      2  O   UNL A   1      35.009  22.081  25.858  1.00  0.00    -0.462 OA
BRANCH   2   3
ATOM      3  C   UNL A   1      34.972  23.430  25.788  1.00  0.00     0.310 C 
ATOM      4  O   UNL A   1      35.963  24.153  25.740  1.00  0.00    -0.252 OA
BRANCH   3   5
ATOM      5  C   UNL A   1      33.567  24.013  25.811  1.00  0.00     0.116 C 
ATOM      6  C   UNL A   1      32.829  24.068  24.462  1.00  0.00     0.097 C 
ATOM      7  C   UNL A   1      31.313  24.328  24.522  1.00  0.00     0.041 C 
ATOM      8  C   UNL A   1      30.662  23.982  25.825  1.00  0.00    -0.030 C 
ATOM      9  C   UNL A   1      32.792  23.206  26.863  1.00  0.00     0.043 C 
ATOM     10  C   UNL A   1      31.321  23.473  26.872  1.00  0.00    -0.030 C 
BRANCH   6  11
ATOM     11  C   UNL A   1      33.506  24.978  23.443  1.00  0.00     0.228 C 
ATOM     12  N   UNL A   1      33.652  26.324  23.521  1.00  0.00    -0.323 N 
ATOM     13  H   UNL A   1      34.159  26.660  22.747  1.00  0.00     0.170 HD
ATOM     14  O   UNL A   1      33.940  24.450  22.407  1.00  0.00    -0.274 OA
BRANCH  12  15
ATOM     15  C   UNL A   1      33.296  27.390  24.375  1.00  0.00     0.087 A 
ATOM     16  C   UNL A   1      33.362  28.699  26.416  1.00  0.00     0.139 A 
ATOM     17  C   UNL A   1      33.832  27.637  25.634  1.00  0.00     0.078 A 
ATOM     18  C   UNL A   1      32.366  29.548  25.939  1.00  0.00     0.086 A 
ATOM     19  C   UNL A   1      31.824  29.329  24.674  1.00  0.00     0.073 A 
ATOM     20  Cl  UNL A   1      31.778  30.871  26.876  1.00  0.00    -0.080 Cl
ATOM     21  C   UNL A   1      32.287  28.264  23.890  1.00  0.00     0.144 A 
BRANCH  16  22
ATOM     22  O   UNL A   1      33.973  28.907  27.626  1.00  0.00    -0.495 OA
ATOM     23  C   UNL A   1      35.188  29.640  27.462  1.00  0.00     0.278 C 
ENDBRANCH  16  22
BRANCH  21  24
ATOM     24  O   UNL A   1      31.806  27.967  22.634  1.00  0.00    -0.495 OA
ATOM     25  C   UNL A   1      30.412  27.704  22.507  1.00  0.00     0.278 C 
ENDBRANCH  21  24
ENDBRANCH  12  15
ENDBRANCH   6  11
ENDBRANCH   3   5
ENDBRANCH   2   3
ENDBRANCH   1   2
BRANCH   1  26
ATOM     26  C   UNL A   1      36.976  20.697  25.375  1.00  0.00     0.275 C 
BRANCH  26  27
ATOM     27  O   UNL A   1      38.134  21.545  25.263  1.00  0.00    -0.458 OA
BRANCH  27  28
ATOM     28  C   UNL A   1      39.138  21.289  26.126  1.00  0.00     0.338 C 
ATOM     29  O   UNL A   1      39.601  20.210  26.457  1.00  0.00    -0.246 OA
BRANCH  28  30
ATOM     30  C   UNL A   1      39.659  22.553  26.654  1.00  0.00     0.060 A 
ATOM     31  C   UNL A   1      39.192  23.760  26.126  1.00  0.00     0.016 A 
ATOM     32  C   UNL A   1      40.706  22.532  27.575  1.00  0.00     0.016 A 
ATOM     33  C   UNL A   1      39.793  24.959  26.499  1.00  0.00     0.010 A 
ATOM     34  C   UNL A   1      41.297  23.736  27.962  1.00  0.00     0.010 A 
ATOM     35  C   UNL A   1      40.859  24.952  27.408  1.00  0.00    -0.014 A 
BRANCH  35  36
ATOM     36  C   UNL A   1      41.570  26.207  27.735  1.00  0.00     0.031 A 
ATOM     37  C   UNL A   1      40.867  27.273  28.522  1.00  0.00     0.074 A 
ATOM     38  C   UNL A   1      42.834  26.393  27.313  1.00  0.00     0.049 A 
ATOM     39  N   UNL A   1      41.260  28.488  28.808  1.00  0.00    -0.248 NA
ATOM     40  C   UNL A   1      39.539  26.928  29.056  1.00  0.00     0.031 C 
ATOM     41  C   UNL A   1      43.628  25.413  26.575  1.00  0.00     0.029 A 
ATOM     42  N   UNL A   1      43.664  27.477  27.437  1.00  0.00    -0.354 N 
ATOM     43  C   UNL A   1      40.221  29.061  29.527  1.00  0.00     0.074 A 
ATOM     44  C   UNL A   1      39.177  28.065  29.634  1.00  0.00     0.031 C 
ATOM     45  C   UNL A   1      44.833  25.942  26.306  1.00  0.00     0.029 A 
ATOM     46  C   UNL A   1      44.876  27.311  26.817  1.00  0.00     0.049 A 
ATOM     47  H   UNL A   1      43.414  28.296  27.924  1.00  0.00     0.167 HD
ATOM     48  C   UNL A   1      40.148  30.309  30.047  1.00  0.00     0.037 A 
ATOM     49  C   UNL A   1      45.893  28.177  26.658  1.00  0.00     0.037 A 
ATOM     50  C   UNL A   1      41.201  31.286  29.964  1.00  0.00     0.049 A 
ATOM     51  C   UNL A   1      45.771  29.568  27.213  1.00  0.00     0.074 A 
ATOM     52  C   UNL A   1      41.237  32.566  30.492  1.00  0.00     0.029 A 
ATOM     53  N   UNL A   1      42.409  31.087  29.312  1.00  0.00    -0.354 N 
ATOM     54  N   UNL A   1      44.784  30.105  27.888  1.00  0.00    -0.248 NA
ATOM     55  C   UNL A   1      46.901  30.478  26.975  1.00  0.00     0.031 C 
ATOM     56  C   UNL A   1      42.456  33.152  30.132  1.00  0.00     0.029 A 
ATOM     57  C   UNL A   1      43.190  32.227  29.407  1.00  0.00     0.049 A 
ATOM     58  H   UNL A   1      42.672  30.259  28.850  1.00  0.00     0.167 HD
ATOM     59  C   UNL A   1      45.177  31.405  28.169  1.00  0.00     0.074 A 
ATOM     60  C   UNL A   1      46.498  31.575  27.600  1.00  0.00     0.031 C 
ATOM     61  C   UNL A   1      44.503  32.372  28.837  1.00  0.00     0.037 A 
BRANCH  48  62
ATOM     62  C   UNL A   1      38.875  30.702  30.730  1.00  0.00     0.064 A 
ATOM     63  C   UNL A   1      38.722  30.596  32.119  1.00  0.00     0.173 A 
ATOM     64  C   UNL A   1      37.811  31.235  29.986  1.00  0.00     0.173 A 
ATOM     65  F   UNL A   1      39.705  30.076  32.869  1.00  0.00    -0.203 F 
ATOM     66  C   UNL A   1      37.542  30.998  32.739  1.00  0.00     0.198 A 
ATOM     67  C   UNL A   1      36.640  31.653  30.612  1.00  0.00     0.198 A 
ATOM     68  F   UNL A   1      37.911  31.354  28.654  1.00  0.00    -0.203 F 
ATOM     69  F   UNL A   1      37.403  30.859  34.066  1.00  0.00    -0.200 F 
ATOM     70  C   UNL A   1      36.506  31.532  31.987  1.00  0.00     0.200 A 
ATOM     71  F   UNL A   1      35.641  32.172  29.885  1.00  0.00    -0.200 F 
ATOM     72  F   UNL A   1      35.373  31.924  32.587  1.00  0.00    -0.200 F 
ENDBRANCH  48  62
BRANCH  49  73
ATOM     73  C   UNL A   1      47.110  27.756  25.920  1.00  0.00     0.064 A 
ATOM     74  C   UNL A   1      47.153  27.799  24.520  1.00  0.00     0.173 A 
ATOM     75  C   UNL A   1      48.250  27.301  26.598  1.00  0.00     0.173 A 
ATOM     76  F   UNL A   1      46.076  28.203  23.831  1.00  0.00    -0.203 F 
ATOM     77  C   UNL A   1      48.290  27.397  23.824  1.00  0.00     0.198 A 
ATOM     78  C   UNL A   1      49.394  26.918  25.902  1.00  0.00     0.198 A 
ATOM     79  F   UNL A   1      48.254  27.236  27.937  1.00  0.00    -0.203 F 
ATOM     80  F   UNL A   1      48.294  27.414  22.485  1.00  0.00    -0.200 F 
ATOM     81  C   UNL A   1      49.411  26.961  24.516  1.00  0.00     0.200 A 
ATOM     82  F   UNL A   1      50.478  26.503  26.573  1.00  0.00    -0.200 F 
ATOM     83  F   UNL A   1      50.506  26.576  23.846  1.00  0.00    -0.200 F 
ENDBRANCH  49  73
BRANCH  61  84
ATOM     84  C   UNL A   1      45.195  33.690  29.006  1.00  0.00     0.064 A 
ATOM     85  C   UNL A   1      46.043  33.932  30.096  1.00  0.00     0.173 A 
ATOM     86  C   UNL A   1      45.036  34.704  28.052  1.00  0.00     0.173 A 
ATOM     87  F   UNL A   1      46.212  32.995  31.041  1.00  0.00    -0.203 F 
ATOM     88  C   UNL A   1      46.695  35.154  30.233  1.00  0.00     0.198 A 
ATOM     89  C   UNL A   1      45.704  35.917  28.182  1.00  0.00     0.198 A 
ATOM     90  F   UNL A   1      44.238  34.515  26.991  1.00  0.00    -0.203 F 
ATOM     91  F   UNL A   1      47.474  35.379  31.300  1.00  0.00    -0.200 F 
ATOM     92  C   UNL A   1      46.529  36.143  29.275  1.00  0.00     0.200 A 
ATOM     93  F   UNL A   1      45.548  36.871  27.253  1.00  0.00    -0.200 F 
ATOM     94  F   UNL A   1      47.160  37.318  29.407  1.00  0.00    -0.200 F 
ENDBRANCH  61  84
ENDBRANCH  35  36
ENDBRANCH  28  30
ENDBRANCH  27  28
ENDBRANCH  26  27
ENDBRANCH   1  26
TORSDOF 15
ENDMDL
MODEL 3
REMARK VINA RESULT:     -11.6      0.437      1.632
REMARK SMILES COc1cc(NC(=O)[C@@H]2CC=CC[C@H]2C(=O)OCCOC(=O)c2ccc(-c3c4nc(c(-c5c(F)c(F)c(F)c(F)c5F)c5ccc([nH]5)c(-c5c(F)c(F)c(F)c(F)c5F)c5nc(c(-c6c(F)c(F)c(F)c(F)c6F)c6ccc3[nH]6)C=C5)C=C4)cc2)c(OC)cc1Cl
REMARK SMILES IDX 18 1 17 2 15 3 16 4 14 5 9 6 10 7 11 8 13 9 12 10 7 11 6 12
REMARK SMILES IDX 8 14 5 15 3 16 4 17 90 18 89 19 91 20 86 21 2 22 1 23 87 24
REMARK SMILES IDX 88 25 19 26 20 27 21 28 22 29 23 30 24 31 85 32 25 33 84 34
REMARK SMILES IDX 26 35 27 36 28 37 78 38 29 39 83 40 77 41 79 42 30 43 82 44
REMARK SMILES IDX 76 45 75 46 31 48 63 49 43 50 62 51 44 52 47 53 61 54 80 55
REMARK SMILES IDX 45 56 46 57 60 59 81 60 48 61 32 62 33 63 41 64 34 65 35 66
REMARK SMILES IDX 39 67 42 68 36 69 37 70 40 71 38 72 64 73 65 74 73 75 66 76
REMARK SMILES IDX 67 77 71 78 74 79 68 80 69 81 72 82 70 83 49 84 50 85 58 86
REMARK SMILES IDX 51 87 52 88 56 89 59 90 53 91 54 92 57 93 55 94
REMARK H PARENT 6 13 79 47 47 58
REMARK Flexibility Score: inf
ROOT
ATOM      1  C   UNL A   1      31.815  28.577  26.662  1.00  0.00     0.274 C 
ENDROOT
BRANCH   1   2
ATOM      2  O   UNL A   1      32.205  27.839  25.488  1.00  0.00    -0.462 OA
BRANCH   2   3
ATOM      3  C   UNL A   1      33.349  27.126  25.580  1.00  0.00     0.310 C 
ATOM      4  O   UNL A   1      34.297  27.418  26.301  1.00  0.00    -0.252 OA
BRANCH   3   5
ATOM      5  C   UNL A   1      33.396  25.911  24.664  1.00  0.00     0.116 C 
ATOM      6  C   UNL A   1      32.248  24.897  24.818  1.00  0.00     0.097 C 
ATOM      7  C   UNL A   1      32.095  23.863  23.688  1.00  0.00     0.041 C 
ATOM      8  C   UNL A   1      32.698  24.263  22.376  1.00  0.00    -0.030 C 
ATOM      9  C   UNL A   1      33.495  26.463  23.235  1.00  0.00     0.043 C 
ATOM     10  C   UNL A   1      33.319  25.429  22.170  1.00  0.00    -0.030 C 
BRANCH   6  11
ATOM     11  C   UNL A   1      32.215  24.229  26.187  1.00  0.00     0.228 C 
ATOM     12  N   UNL A   1      33.079  23.299  26.662  1.00  0.00    -0.323 N 
ATOM     13  H   UNL A   1      32.852  23.060  27.590  1.00  0.00     0.170 HD
ATOM     14  O   UNL A   1      31.279  24.529  26.945  1.00  0.00    -0.274 OA
BRANCH  12  15
ATOM     15  C   UNL A   1      34.207  22.567  26.230  1.00  0.00     0.087 A 
ATOM     16  C   UNL A   1      36.564  22.198  25.795  1.00  0.00     0.139 A 
ATOM     17  C   UNL A   1      35.529  22.989  26.306  1.00  0.00     0.078 A 
ATOM     18  C   UNL A   1      36.295  20.956  25.224  1.00  0.00     0.086 A 
ATOM     19  C   UNL A   1      34.978  20.505  25.149  1.00  0.00     0.073 A 
ATOM     20  Cl  UNL A   1      37.552  19.954  24.598  1.00  0.00    -0.080 Cl
ATOM     21  C   UNL A   1      33.938  21.296  25.653  1.00  0.00     0.144 A 
BRANCH  16  22
ATOM     22  O   UNL A   1      37.846  22.660  25.951  1.00  0.00    -0.495 OA
ATOM     23  C   UNL A   1      37.856  24.078  26.126  1.00  0.00     0.278 C 
ENDBRANCH  16  22
BRANCH  21  24
ATOM     24  O   UNL A   1      32.609  20.937  25.617  1.00  0.00    -0.495 OA
ATOM     25  C   UNL A   1      32.153  20.214  24.477  1.00  0.00     0.278 C 
ENDBRANCH  21  24
ENDBRANCH  12  15
ENDBRANCH   6  11
ENDBRANCH   3   5
ENDBRANCH   2   3
ENDBRANCH   1   2
BRANCH   1  26
ATOM     26  C   UNL A   1      31.794  30.082  26.395  1.00  0.00     0.275 C 
BRANCH  26  27
ATOM     27  O   UNL A   1      33.136  30.591  26.293  1.00  0.00    -0.458 OA
BRANCH  27  28
ATOM     28  C   UNL A   1      33.502  31.484  27.236  1.00  0.00     0.338 C 
ATOM     29  O   UNL A   1      32.898  32.469  27.626  1.00  0.00    -0.246 OA
BRANCH  28  30
ATOM     30  C   UNL A   1      34.804  31.100  27.788  1.00  0.00     0.060 A 
ATOM     31  C   UNL A   1      35.005  29.787  28.220  1.00  0.00     0.016 A 
ATOM     32  C   UNL A   1      35.774  32.079  28.000  1.00  0.00     0.016 A 
ATOM     33  C   UNL A   1      36.175  29.449  28.895  1.00  0.00     0.010 A 
ATOM     34  C   UNL A   1      36.955  31.737  28.662  1.00  0.00     0.010 A 
ATOM     35  C   UNL A   1      37.150  30.427  29.133  1.00  0.00    -0.014 A 
BRANCH  35  36
ATOM     36  C   UNL A   1      38.349  30.104  29.936  1.00  0.00     0.031 A 
ATOM     37  C   UNL A   1      39.386  29.174  29.378  1.00  0.00     0.074 A 
ATOM     38  C   UNL A   1      38.498  30.633  31.164  1.00  0.00     0.049 A 
ATOM     39  N   UNL A   1      40.443  28.666  29.959  1.00  0.00    -0.248 NA
ATOM     40  C   UNL A   1      39.207  28.754  27.979  1.00  0.00     0.031 C 
ATOM     41  C   UNL A   1      37.575  31.577  31.792  1.00  0.00     0.029 A 
ATOM     42  N   UNL A   1      39.476  30.439  32.104  1.00  0.00    -0.354 N 
ATOM     43  C   UNL A   1      41.037  27.846  29.010  1.00  0.00     0.074 A 
ATOM     44  C   UNL A   1      40.225  27.920  27.815  1.00  0.00     0.031 C 
ATOM     45  C   UNL A   1      38.030  31.879  33.019  1.00  0.00     0.029 A 
ATOM     46  C   UNL A   1      39.250  31.116  33.276  1.00  0.00     0.049 A 
ATOM     47  H   UNL A   1      40.265  29.869  31.954  1.00  0.00     0.167 HD
ATOM     48  C   UNL A   1      42.159  27.098  29.132  1.00  0.00     0.037 A 
ATOM     49  C   UNL A   1      39.937  31.099  34.433  1.00  0.00     0.037 A 
ATOM     50  C   UNL A   1      42.980  27.051  30.313  1.00  0.00     0.049 A 
ATOM     51  C   UNL A   1      41.158  30.231  34.552  1.00  0.00     0.074 A 
ATOM     52  C   UNL A   1      44.157  26.352  30.521  1.00  0.00     0.029 A 
ATOM     53  N   UNL A   1      42.708  27.737  31.486  1.00  0.00    -0.354 N 
ATOM     54  N   UNL A   1      41.711  29.455  33.653  1.00  0.00    -0.248 NA
ATOM     55  C   UNL A   1      41.844  30.228  35.853  1.00  0.00     0.031 C 
ATOM     56  C   UNL A   1      44.581  26.592  31.832  1.00  0.00     0.029 A 
ATOM     57  C   UNL A   1      43.684  27.464  32.430  1.00  0.00     0.049 A 
ATOM     58  H   UNL A   1      41.936  28.331  31.629  1.00  0.00     0.167 HD
ATOM     59  C   UNL A   1      42.816  28.884  34.269  1.00  0.00     0.074 A 
ATOM     60  C   UNL A   1      42.861  29.411  35.618  1.00  0.00     0.031 C 
ATOM     61  C   UNL A   1      43.712  28.003  33.764  1.00  0.00     0.037 A 
BRANCH  48  62
ATOM     62  C   UNL A   1      42.552  26.244  27.967  1.00  0.00     0.064 A 
ATOM     63  C   UNL A   1      43.456  26.696  26.995  1.00  0.00     0.173 A 
ATOM     64  C   UNL A   1      42.051  24.939  27.847  1.00  0.00     0.173 A 
ATOM     65  F   UNL A   1      43.948  27.942  27.058  1.00  0.00    -0.203 F 
ATOM     66  C   UNL A   1      43.835  25.875  25.937  1.00  0.00     0.198 A 
ATOM     67  C   UNL A   1      42.446  24.115  26.797  1.00  0.00     0.198 A 
ATOM     68  F   UNL A   1      41.182  24.464  28.751  1.00  0.00    -0.203 F 
ATOM     69  F   UNL A   1      44.677  26.337  25.001  1.00  0.00    -0.200 F 
ATOM     70  C   UNL A   1      43.336  24.584  25.843  1.00  0.00     0.200 A 
ATOM     71  F   UNL A   1      41.967  22.867  26.709  1.00  0.00    -0.200 F 
ATOM     72  F   UNL A   1      43.707  23.793  24.825  1.00  0.00    -0.200 F 
ENDBRANCH  48  62
BRANCH  49  73
ATOM     73  C   UNL A   1      39.470  31.918  35.579  1.00  0.00     0.064 A 
ATOM     74  C   UNL A   1      38.541  31.409  36.495  1.00  0.00     0.173 A 
ATOM     75  C   UNL A   1      39.940  33.224  35.777  1.00  0.00     0.173 A 
ATOM     76  F   UNL A   1      38.045  30.174  36.327  1.00  0.00    -0.203 F 
ATOM     77  C   UNL A   1      38.094  32.178  37.566  1.00  0.00     0.198 A 
ATOM     78  C   UNL A   1      39.508  33.985  36.861  1.00  0.00     0.198 A 
ATOM     79  F   UNL A   1      40.826  33.757  34.923  1.00  0.00    -0.203 F 
ATOM     80  F   UNL A   1      37.179  31.681  38.409  1.00  0.00    -0.200 F 
ATOM     81  C   UNL A   1      38.582  33.463  37.752  1.00  0.00     0.200 A 
ATOM     82  F   UNL A   1      39.986  35.225  37.040  1.00  0.00    -0.200 F 
ATOM     83  F   UNL A   1      38.153  34.202  38.783  1.00  0.00    -0.200 F 
ENDBRANCH  49  73
BRANCH  61  84
ATOM     84  C   UNL A   1      44.826  27.573  34.667  1.00  0.00     0.064 A 
ATOM     85  C   UNL A   1      44.720  26.420  35.456  1.00  0.00     0.173 A 
ATOM     86  C   UNL A   1      46.022  28.303  34.718  1.00  0.00     0.173 A 
ATOM     87  F   UNL A   1      43.588  25.700  35.452  1.00  0.00    -0.203 F 
ATOM     88  C   UNL A   1      45.770  26.021  36.279  1.00  0.00     0.198 A 
ATOM     89  C   UNL A   1      47.077  27.891  35.526  1.00  0.00     0.198 A 
ATOM     90  F   UNL A   1      46.169  29.411  33.976  1.00  0.00    -0.203 F 
ATOM     91  F   UNL A   1      45.636  24.934  37.052  1.00  0.00    -0.200 F 
ATOM     92  C   UNL A   1      46.948  26.753  36.310  1.00  0.00     0.200 A 
ATOM     93  F   UNL A   1      48.216  28.596  35.551  1.00  0.00    -0.200 F 
ATOM     94  F   UNL A   1      47.958  26.366  37.101  1.00  0.00    -0.200 F 
ENDBRANCH  61  84
ENDBRANCH  35  36
ENDBRANCH  28  30
ENDBRANCH  27  28
ENDBRANCH  26  27
ENDBRANCH   1  26
TORSDOF 15
ENDMDL
