MODEL 1
REMARK VINA RESULT:     -12.2      0.000      0.000
REMARK SMILES CCOc1ccc(N2/C(=[NH+]/C(=O)CCCC(=O)OCCOC(=O)c3ccc(-c4c5nc(c(-c6c(F)c(F)c(F)c(F)c6F)c6ccc([nH]6)c(-c6c(F)c(F)c(F)c(F)c6F)c6nc(c(-c7c(F)c(F)c(F)c(F)c7F)c7ccc4[nH]7)C=C6)C=C5)cc3)S[C@H]3CS(=O)(=O)C[C@H]32)cc1
REMARK SMILES IDX 16 1 17 2 15 3 14 4 13 5 11 6 8 7 9 8 94 9 10 10 87 11 88 12
REMARK SMILES IDX 93 13 89 15 90 16 12 17 91 18 92 19 7 20 4 21 5 22 96 23
REMARK SMILES IDX 6 24 95 25 3 26 2 27 1 28 18 29 19 30 20 31 21 32 22 33
REMARK SMILES IDX 23 34 24 35 25 36 86 37 26 38 85 39 27 40 28 41 29 42 79 43
REMARK SMILES IDX 30 44 84 45 78 46 80 47 31 48 83 49 77 50 76 51 32 53 64 54
REMARK SMILES IDX 44 55 63 56 45 57 48 58 62 59 81 60 46 61 47 62 61 64 82 65
REMARK SMILES IDX 49 66 33 67 34 68 42 69 35 70 36 71 40 72 43 73 37 74 38 75
REMARK SMILES IDX 41 76 39 77 65 78 66 79 74 80 67 81 68 82 72 83 75 84 69 85
REMARK SMILES IDX 70 86 73 87 71 88 50 89 51 90 59 91 52 92 53 93 57 94 60 95
REMARK SMILES IDX 54 96 55 97 58 98 56 99
REMARK H PARENT 10 14 80 52 48 63
REMARK Flexibility Score: inf
ROOT
ATOM      1  C   UNL A   1      41.719  20.127  26.484  1.00  0.00     0.305 C 
ATOM      2  O   UNL A   1      41.269  19.234  25.774  1.00  0.00    -0.252 OA
ENDROOT
BRANCH   1   3
ATOM      3  C   UNL A   1      40.834  20.932  27.416  1.00  0.00     0.123 C 
BRANCH   3   4
ATOM      4  C   UNL A   1      39.910  21.990  26.821  1.00  0.00     0.024 C 
BRANCH   4   5
ATOM      5  C   UNL A   1      38.940  21.566  25.720  1.00  0.00     0.128 C 
BRANCH   5   6
ATOM      6  C   UNL A   1      37.640  22.342  25.595  1.00  0.00     0.307 C 
ATOM      7  N   UNL A   1      34.265  21.392  24.632  1.00  0.00    -0.217 N 
ATOM      8  C   UNL A   1      35.358  21.961  25.264  1.00  0.00     0.319 C 
ATOM      9  C   UNL A   1      33.221  22.351  24.275  1.00  0.00     0.212 C 
ATOM     10  N   UNL A   1      36.590  21.626  25.075  1.00  0.00    -0.204 N 
ATOM     11  S   UNL A   1      34.791  23.301  26.258  1.00  0.00    -0.029 SA
ATOM     12  C   UNL A   1      33.164  23.366  25.437  1.00  0.00     0.120 C 
ATOM     13  C   UNL A   1      33.615  23.090  23.003  1.00  0.00     0.188 C 
ATOM     14  H   UNL A   1      36.784  20.826  24.536  1.00  0.00     0.316 HD
ATOM     15  C   UNL A   1      32.866  24.767  24.927  1.00  0.00     0.156 C 
ATOM     16  S   UNL A   1      32.827  24.660  23.155  1.00  0.00     0.155 S 
ATOM     17  O   UNL A   1      37.653  23.559  25.772  1.00  0.00    -0.247 OA
ATOM     18  O   UNL A   1      33.686  25.674  22.587  1.00  0.00    -0.229 OA
ATOM     19  O   UNL A   1      31.446  24.495  22.749  1.00  0.00    -0.229 OA
BRANCH   7  20
ATOM     20  C   UNL A   1      34.024  20.022  24.458  1.00  0.00     0.128 A 
ATOM     21  C   UNL A   1      33.508  17.268  24.052  1.00  0.00     0.119 A 
ATOM     22  C   UNL A   1      34.769  17.690  24.457  1.00  0.00     0.051 A 
ATOM     23  C   UNL A   1      32.496  18.200  23.864  1.00  0.00     0.051 A 
ATOM     24  C   UNL A   1      35.027  19.056  24.646  1.00  0.00     0.055 A 
ATOM     25  C   UNL A   1      32.761  19.563  24.050  1.00  0.00     0.055 A 
BRANCH  21  26
ATOM     26  O   UNL A   1      33.256  15.927  23.974  1.00  0.00    -0.494 OA
BRANCH  26  27
ATOM     27  C   UNL A   1      33.469  15.237  25.211  1.00  0.00     0.226 C 
ATOM     28  C   UNL A   1      32.153  14.976  25.928  1.00  0.00     0.049 C 
ENDBRANCH  26  27
ENDBRANCH  21  26
ENDBRANCH   7  20
ENDBRANCH   5   6
ENDBRANCH   4   5
ENDBRANCH   3   4
ENDBRANCH   1   3
BRANCH   1  29
ATOM     29  O   UNL A   1      43.024  20.481  26.538  1.00  0.00    -0.462 OA
BRANCH  29  30
ATOM     30  C   UNL A   1      43.819  20.251  25.359  1.00  0.00     0.274 C 
BRANCH  30  31
ATOM     31  C   UNL A   1      44.525  21.535  24.916  1.00  0.00     0.275 C 
BRANCH  31  32
ATOM     32  O   UNL A   1      44.409  22.566  25.917  1.00  0.00    -0.458 OA
BRANCH  32  33
ATOM     33  C   UNL A   1      44.250  23.817  25.431  1.00  0.00     0.338 C 
ATOM     34  O   UNL A   1      44.475  24.214  24.300  1.00  0.00    -0.246 OA
BRANCH  33  35
ATOM     35  C   UNL A   1      43.580  24.652  26.438  1.00  0.00     0.060 A 
ATOM     36  C   UNL A   1      43.960  25.991  26.512  1.00  0.00     0.016 A 
ATOM     37  C   UNL A   1      42.679  24.126  27.360  1.00  0.00     0.016 A 
ATOM     38  C   UNL A   1      43.458  26.820  27.502  1.00  0.00     0.010 A 
ATOM     39  C   UNL A   1      42.159  24.963  28.357  1.00  0.00     0.010 A 
ATOM     40  C   UNL A   1      42.557  26.311  28.439  1.00  0.00    -0.014 A 
BRANCH  40  41
ATOM     41  C   UNL A   1      42.100  27.194  29.536  1.00  0.00     0.031 A 
ATOM     42  C   UNL A   1      42.867  27.238  30.825  1.00  0.00     0.074 A 
ATOM     43  C   UNL A   1      41.042  28.004  29.346  1.00  0.00     0.049 A 
ATOM     44  N   UNL A   1      42.602  27.893  31.926  1.00  0.00    -0.248 NA
ATOM     45  C   UNL A   1      44.101  26.439  30.880  1.00  0.00     0.031 C 
ATOM     46  C   UNL A   1      40.263  28.097  28.111  1.00  0.00     0.029 A 
ATOM     47  N   UNL A   1      40.447  28.909  30.187  1.00  0.00    -0.354 N 
ATOM     48  C   UNL A   1      43.615  27.560  32.815  1.00  0.00     0.074 A 
ATOM     49  C   UNL A   1      44.496  26.638  32.130  1.00  0.00     0.031 C 
ATOM     50  C   UNL A   1      39.298  29.016  28.270  1.00  0.00     0.029 A 
ATOM     51  C   UNL A   1      39.357  29.535  29.634  1.00  0.00     0.049 A 
ATOM     52  H   UNL A   1      40.770  29.092  31.098  1.00  0.00     0.167 HD
ATOM     53  C   UNL A   1      43.789  27.989  34.088  1.00  0.00     0.037 A 
ATOM     54  C   UNL A   1      38.488  30.406  30.178  1.00  0.00     0.037 A 
ATOM     55  C   UNL A   1      42.921  28.926  34.753  1.00  0.00     0.049 A 
ATOM     56  C   UNL A   1      38.677  30.828  31.609  1.00  0.00     0.074 A 
ATOM     57  C   UNL A   1      43.010  29.426  36.039  1.00  0.00     0.029 A 
ATOM     58  N   UNL A   1      41.803  29.511  34.174  1.00  0.00    -0.354 N 
ATOM     59  N   UNL A   1      39.619  30.486  32.455  1.00  0.00    -0.248 NA
ATOM     60  C   UNL A   1      37.678  31.750  32.164  1.00  0.00     0.031 C 
ATOM     61  C   UNL A   1      41.924  30.281  36.253  1.00  0.00     0.029 A 
ATOM     62  C   UNL A   1      41.183  30.353  35.084  1.00  0.00     0.049 A 
ATOM     63  H   UNL A   1      41.493  29.350  33.253  1.00  0.00     0.167 HD
ATOM     64  C   UNL A   1      39.338  31.163  33.634  1.00  0.00     0.074 A 
ATOM     65  C   UNL A   1      38.150  31.953  33.386  1.00  0.00     0.031 C 
ATOM     66  C   UNL A   1      40.001  31.131  34.816  1.00  0.00     0.037 A 
BRANCH  53  67
ATOM     67  C   UNL A   1      44.943  27.418  34.857  1.00  0.00     0.064 A 
ATOM     68  C   UNL A   1      46.199  28.042  34.887  1.00  0.00     0.173 A 
ATOM     69  C   UNL A   1      44.783  26.233  35.592  1.00  0.00     0.173 A 
ATOM     70  F   UNL A   1      46.410  29.167  34.186  1.00  0.00    -0.203 F 
ATOM     71  C   UNL A   1      47.257  27.490  35.604  1.00  0.00     0.198 A 
ATOM     72  C   UNL A   1      45.835  25.698  36.332  1.00  0.00     0.198 A 
ATOM     73  F   UNL A   1      43.602  25.597  35.599  1.00  0.00    -0.203 F 
ATOM     74  F   UNL A   1      48.461  28.079  35.581  1.00  0.00    -0.200 F 
ATOM     75  C   UNL A   1      47.073  26.322  36.331  1.00  0.00     0.200 A 
ATOM     76  F   UNL A   1      45.652  24.576  37.041  1.00  0.00    -0.200 F 
ATOM     77  F   UNL A   1      48.091  25.794  37.024  1.00  0.00    -0.200 F 
ENDBRANCH  53  67
BRANCH  54  78
ATOM     78  C   UNL A   1      37.349  30.917  29.374  1.00  0.00     0.064 A 
ATOM     79  C   UNL A   1      37.348  32.225  28.870  1.00  0.00     0.173 A 
ATOM     80  C   UNL A   1      36.237  30.108  29.095  1.00  0.00     0.173 A 
ATOM     81  F   UNL A   1      38.377  33.043  29.131  1.00  0.00    -0.203 F 
ATOM     82  C   UNL A   1      36.271  32.708  28.128  1.00  0.00     0.198 A 
ATOM     83  C   UNL A   1      35.175  30.583  28.328  1.00  0.00     0.198 A 
ATOM     84  F   UNL A   1      36.188  28.850  29.556  1.00  0.00    -0.203 F 
ATOM     85  F   UNL A   1      36.277  33.976  27.693  1.00  0.00    -0.200 F 
ATOM     86  C   UNL A   1      35.190  31.885  27.852  1.00  0.00     0.200 A 
ATOM     87  F   UNL A   1      34.138  29.780  28.053  1.00  0.00    -0.200 F 
ATOM     88  F   UNL A   1      34.159  32.349  27.132  1.00  0.00    -0.200 F 
ENDBRANCH  54  78
BRANCH  66  89
ATOM     89  C   UNL A   1      39.468  31.999  35.918  1.00  0.00     0.064 A 
ATOM     90  C   UNL A   1      39.970  33.288  36.147  1.00  0.00     0.173 A 
ATOM     91  C   UNL A   1      38.431  31.539  36.745  1.00  0.00     0.173 A 
ATOM     92  F   UNL A   1      40.973  33.765  35.394  1.00  0.00    -0.203 F 
ATOM     93  C   UNL A   1      39.475  34.075  37.183  1.00  0.00     0.198 A 
ATOM     94  C   UNL A   1      37.918  32.341  37.761  1.00  0.00     0.198 A 
ATOM     95  F   UNL A   1      37.912  30.316  36.563  1.00  0.00    -0.203 F 
ATOM     96  F   UNL A   1      40.007  35.282  37.418  1.00  0.00    -0.200 F 
ATOM     97  C   UNL A   1      38.447  33.602  37.985  1.00  0.00     0.200 A 
ATOM     98  F   UNL A   1      36.918  31.887  38.529  1.00  0.00    -0.200 F 
ATOM     99  F   UNL A   1      37.972  34.361  38.983  1.00  0.00    -0.200 F 
ENDBRANCH  66  89
ENDBRANCH  40  41
ENDBRANCH  33  35
ENDBRANCH  32  33
ENDBRANCH  31  32
ENDBRANCH  30  31
ENDBRANCH  29  30
ENDBRANCH   1  29
TORSDOF 17
ENDMDL
MODEL 2
REMARK VINA RESULT:     -11.8      4.372      9.923
REMARK SMILES CCOc1ccc(N2/C(=[NH+]/C(=O)CCCC(=O)OCCOC(=O)c3ccc(-c4c5nc(c(-c6c(F)c(F)c(F)c(F)c6F)c6ccc([nH]6)c(-c6c(F)c(F)c(F)c(F)c6F)c6nc(c(-c7c(F)c(F)c(F)c(F)c7F)c7ccc4[nH]7)C=C6)C=C5)cc3)S[C@H]3CS(=O)(=O)C[C@H]32)cc1
REMARK SMILES IDX 16 1 17 2 15 3 14 4 13 5 11 6 8 7 9 8 94 9 10 10 87 11 88 12
REMARK SMILES IDX 93 13 89 15 90 16 12 17 91 18 92 19 7 20 4 21 5 22 96 23
REMARK SMILES IDX 6 24 95 25 3 26 2 27 1 28 18 29 19 30 20 31 21 32 22 33
REMARK SMILES IDX 23 34 24 35 25 36 86 37 26 38 85 39 27 40 28 41 29 42 79 43
REMARK SMILES IDX 30 44 84 45 78 46 80 47 31 48 83 49 77 50 76 51 32 53 64 54
REMARK SMILES IDX 44 55 63 56 45 57 48 58 62 59 81 60 46 61 47 62 61 64 82 65
REMARK SMILES IDX 49 66 33 67 34 68 42 69 35 70 36 71 40 72 43 73 37 74 38 75
REMARK SMILES IDX 41 76 39 77 65 78 66 79 74 80 67 81 68 82 72 83 75 84 69 85
REMARK SMILES IDX 70 86 73 87 71 88 50 89 51 90 59 91 52 92 53 93 57 94 60 95
REMARK SMILES IDX 54 96 55 97 58 98 56 99
REMARK H PARENT 10 14 80 52 48 63
REMARK Flexibility Score: inf
ROOT
ATOM      1  C   UNL A   1      34.143  33.230  28.015  1.00  0.00     0.305 C 
ATOM      2  O   UNL A   1      35.301  33.119  27.627  1.00  0.00    -0.252 OA
ENDROOT
BRANCH   1   3
ATOM      3  C   UNL A   1      33.001  32.482  27.353  1.00  0.00     0.123 C 
BRANCH   3   4
ATOM      4  C   UNL A   1      32.983  30.958  27.423  1.00  0.00     0.024 C 
BRANCH   4   5
ATOM      5  C   UNL A   1      34.189  30.196  26.878  1.00  0.00     0.128 C 
BRANCH   5   6
ATOM      6  C   UNL A   1      34.002  28.721  26.564  1.00  0.00     0.307 C 
ATOM      7  N   UNL A   1      31.598  26.902  24.531  1.00  0.00    -0.217 N 
ATOM      8  C   UNL A   1      32.759  27.342  25.143  1.00  0.00     0.319 C 
ATOM      9  C   UNL A   1      31.399  25.456  24.606  1.00  0.00     0.212 C 
ATOM     10  N   UNL A   1      32.876  28.426  25.834  1.00  0.00    -0.204 N 
ATOM     11  S   UNL A   1      34.000  26.108  24.935  1.00  0.00    -0.029 SA
ATOM     12  C   UNL A   1      32.799  24.827  24.442  1.00  0.00     0.120 C 
ATOM     13  C   UNL A   1      30.856  25.082  25.979  1.00  0.00     0.188 C 
ATOM     14  H   UNL A   1      32.129  29.067  25.837  1.00  0.00     0.316 HD
ATOM     15  C   UNL A   1      32.945  23.582  25.301  1.00  0.00     0.156 C 
ATOM     16  S   UNL A   1      31.448  23.442  26.245  1.00  0.00     0.155 S 
ATOM     17  O   UNL A   1      34.725  27.897  27.119  1.00  0.00    -0.247 OA
ATOM     18  O   UNL A   1      31.767  23.279  27.645  1.00  0.00    -0.229 OA
ATOM     19  O   UNL A   1      30.560  22.540  25.539  1.00  0.00    -0.229 OA
BRANCH   7  20
ATOM     20  C   UNL A   1      30.725  27.673  23.750  1.00  0.00     0.128 A 
ATOM     21  C   UNL A   1      28.925  29.238  22.225  1.00  0.00     0.119 A 
ATOM     22  C   UNL A   1      30.293  29.476  22.152  1.00  0.00     0.051 A 
ATOM     23  C   UNL A   1      28.445  28.218  23.036  1.00  0.00     0.051 A 
ATOM     24  C   UNL A   1      31.183  28.708  22.918  1.00  0.00     0.055 A 
ATOM     25  C   UNL A   1      29.338  27.457  23.801  1.00  0.00     0.055 A 
BRANCH  21  26
ATOM     26  O   UNL A   1      28.091  29.931  21.393  1.00  0.00    -0.494 OA
BRANCH  26  27
ATOM     27  C   UNL A   1      28.101  31.344  21.626  1.00  0.00     0.226 C 
ATOM     28  C   UNL A   1      27.701  31.668  23.057  1.00  0.00     0.049 C 
ENDBRANCH  26  27
ENDBRANCH  21  26
ENDBRANCH   7  20
ENDBRANCH   5   6
ENDBRANCH   4   5
ENDBRANCH   3   4
ENDBRANCH   1   3
BRANCH   1  29
ATOM     29  O   UNL A   1      33.753  33.993  29.063  1.00  0.00    -0.462 OA
BRANCH  29  30
ATOM     30  C   UNL A   1      33.915  35.419  28.936  1.00  0.00     0.274 C 
BRANCH  30  31
ATOM     31  C   UNL A   1      32.901  36.164  29.808  1.00  0.00     0.275 C 
BRANCH  31  32
ATOM     32  O   UNL A   1      32.444  35.340  30.898  1.00  0.00    -0.458 OA
BRANCH  32  33
ATOM     33  C   UNL A   1      32.748  35.804  32.131  1.00  0.00     0.338 C 
ATOM     34  O   UNL A   1      32.120  36.607  32.802  1.00  0.00    -0.246 OA
BRANCH  33  35
ATOM     35  C   UNL A   1      33.898  35.062  32.665  1.00  0.00     0.060 A 
ATOM     36  C   UNL A   1      35.156  35.642  32.517  1.00  0.00     0.016 A 
ATOM     37  C   UNL A   1      33.773  33.784  33.204  1.00  0.00     0.016 A 
ATOM     38  C   UNL A   1      36.303  34.962  32.893  1.00  0.00     0.010 A 
ATOM     39  C   UNL A   1      34.929  33.096  33.597  1.00  0.00     0.010 A 
ATOM     40  C   UNL A   1      36.200  33.677  33.431  1.00  0.00    -0.014 A 
BRANCH  40  41
ATOM     41  C   UNL A   1      37.444  32.940  33.749  1.00  0.00     0.031 A 
ATOM     42  C   UNL A   1      38.134  33.175  35.060  1.00  0.00     0.074 A 
ATOM     43  C   UNL A   1      37.909  32.013  32.891  1.00  0.00     0.049 A 
ATOM     44  N   UNL A   1      39.262  32.682  35.505  1.00  0.00    -0.248 NA
ATOM     45  C   UNL A   1      37.463  34.087  36.000  1.00  0.00     0.031 C 
ATOM     46  C   UNL A   1      37.283  31.651  31.620  1.00  0.00     0.029 A 
ATOM     47  N   UNL A   1      39.011  31.201  32.966  1.00  0.00    -0.354 N 
ATOM     48  C   UNL A   1      39.452  33.247  36.758  1.00  0.00     0.074 A 
ATOM     49  C   UNL A   1      38.329  34.127  37.002  1.00  0.00     0.031 C 
ATOM     50  C   UNL A   1      38.004  30.681  31.037  1.00  0.00     0.029 A 
ATOM     51  C   UNL A   1      39.171  30.394  31.867  1.00  0.00     0.049 A 
ATOM     52  H   UNL A   1      39.629  31.197  33.732  1.00  0.00     0.167 HD
ATOM     53  C   UNL A   1      40.473  33.044  37.624  1.00  0.00     0.037 A 
ATOM     54  C   UNL A   1      40.164  29.541  31.552  1.00  0.00     0.037 A 
ATOM     55  C   UNL A   1      41.573  32.147  37.383  1.00  0.00     0.049 A 
ATOM     56  C   UNL A   1      41.311  29.373  32.510  1.00  0.00     0.074 A 
ATOM     57  C   UNL A   1      42.657  31.869  38.195  1.00  0.00     0.029 A 
ATOM     58  N   UNL A   1      41.722  31.373  36.239  1.00  0.00    -0.354 N 
ATOM     59  N   UNL A   1      41.501  29.933  33.680  1.00  0.00    -0.248 NA
ATOM     60  C   UNL A   1      42.386  28.459  32.100  1.00  0.00     0.031 C 
ATOM     61  C   UNL A   1      43.484  30.959  37.527  1.00  0.00     0.029 A 
ATOM     62  C   UNL A   1      42.890  30.631  36.318  1.00  0.00     0.049 A 
ATOM     63  H   UNL A   1      41.092  31.355  35.483  1.00  0.00     0.167 HD
ATOM     64  C   UNL A   1      42.705  29.429  34.154  1.00  0.00     0.074 A 
ATOM     65  C   UNL A   1      43.189  28.500  33.154  1.00  0.00     0.031 C 
ATOM     66  C   UNL A   1      43.353  29.712  35.311  1.00  0.00     0.037 A 
BRANCH  53  67
ATOM     67  C   UNL A   1      40.467  33.839  38.897  1.00  0.00     0.064 A 
ATOM     68  C   UNL A   1      39.776  33.407  40.038  1.00  0.00     0.173 A 
ATOM     69  C   UNL A   1      41.182  35.043  38.979  1.00  0.00     0.173 A 
ATOM     70  F   UNL A   1      39.063  32.271  40.007  1.00  0.00    -0.203 F 
ATOM     71  C   UNL A   1      39.782  34.164  41.207  1.00  0.00     0.198 A 
ATOM     72  C   UNL A   1      41.208  35.784  40.158  1.00  0.00     0.198 A 
ATOM     73  F   UNL A   1      41.861  35.500  37.916  1.00  0.00    -0.203 F 
ATOM     74  F   UNL A   1      39.076  33.756  42.272  1.00  0.00    -0.200 F 
ATOM     75  C   UNL A   1      40.502  35.348  41.268  1.00  0.00     0.200 A 
ATOM     76  F   UNL A   1      41.913  36.923  40.217  1.00  0.00    -0.200 F 
ATOM     77  F   UNL A   1      40.509  36.073  42.395  1.00  0.00    -0.200 F 
ENDBRANCH  53  67
BRANCH  54  78
ATOM     78  C   UNL A   1      40.127  28.803  30.264  1.00  0.00     0.064 A 
ATOM     79  C   UNL A   1      39.505  27.551  30.166  1.00  0.00     0.173 A 
ATOM     80  C   UNL A   1      40.715  29.333  29.106  1.00  0.00     0.173 A 
ATOM     81  F   UNL A   1      38.950  26.992  31.251  1.00  0.00    -0.203 F 
ATOM     82  C   UNL A   1      39.484  26.852  28.960  1.00  0.00     0.198 A 
ATOM     83  C   UNL A   1      40.668  28.647  27.895  1.00  0.00     0.198 A 
ATOM     84  F   UNL A   1      41.326  30.527  29.148  1.00  0.00    -0.203 F 
ATOM     85  F   UNL A   1      38.918  25.638  28.903  1.00  0.00    -0.200 F 
ATOM     86  C   UNL A   1      40.058  27.403  27.825  1.00  0.00     0.200 A 
ATOM     87  F   UNL A   1      41.213  29.189  26.798  1.00  0.00    -0.200 F 
ATOM     88  F   UNL A   1      40.032  26.733  26.665  1.00  0.00    -0.200 F 
ENDBRANCH  54  78
BRANCH  66  89
ATOM     89  C   UNL A   1      44.641  28.983  35.564  1.00  0.00     0.064 A 
ATOM     90  C   UNL A   1      45.874  29.503  35.145  1.00  0.00     0.173 A 
ATOM     91  C   UNL A   1      44.640  27.757  36.246  1.00  0.00     0.173 A 
ATOM     92  F   UNL A   1      45.925  30.664  34.474  1.00  0.00    -0.203 F 
ATOM     93  C   UNL A   1      47.058  28.808  35.374  1.00  0.00     0.198 A 
ATOM     94  C   UNL A   1      45.829  27.079  36.499  1.00  0.00     0.198 A 
ATOM     95  F   UNL A   1      43.487  27.221  36.672  1.00  0.00    -0.203 F 
ATOM     96  F   UNL A   1      48.219  29.297  34.917  1.00  0.00    -0.200 F 
ATOM     97  C   UNL A   1      47.034  27.599  36.055  1.00  0.00     0.200 A 
ATOM     98  F   UNL A   1      45.806  25.917  37.166  1.00  0.00    -0.200 F 
ATOM     99  F   UNL A   1      48.175  26.930  36.273  1.00  0.00    -0.200 F 
ENDBRANCH  66  89
ENDBRANCH  40  41
ENDBRANCH  33  35
ENDBRANCH  32  33
ENDBRANCH  31  32
ENDBRANCH  30  31
ENDBRANCH  29  30
ENDBRANCH   1  29
TORSDOF 17
ENDMDL
MODEL 3
REMARK VINA RESULT:     -11.7      1.006      7.134
REMARK SMILES CCOc1ccc(N2/C(=[NH+]/C(=O)CCCC(=O)OCCOC(=O)c3ccc(-c4c5nc(c(-c6c(F)c(F)c(F)c(F)c6F)c6ccc([nH]6)c(-c6c(F)c(F)c(F)c(F)c6F)c6nc(c(-c7c(F)c(F)c(F)c(F)c7F)c7ccc4[nH]7)C=C6)C=C5)cc3)S[C@H]3CS(=O)(=O)C[C@H]32)cc1
REMARK SMILES IDX 16 1 17 2 15 3 14 4 13 5 11 6 8 7 9 8 94 9 10 10 87 11 88 12
REMARK SMILES IDX 93 13 89 15 90 16 12 17 91 18 92 19 7 20 4 21 5 22 96 23
REMARK SMILES IDX 6 24 95 25 3 26 2 27 1 28 18 29 19 30 20 31 21 32 22 33
REMARK SMILES IDX 23 34 24 35 25 36 86 37 26 38 85 39 27 40 28 41 29 42 79 43
REMARK SMILES IDX 30 44 84 45 78 46 80 47 31 48 83 49 77 50 76 51 32 53 64 54
REMARK SMILES IDX 44 55 63 56 45 57 48 58 62 59 81 60 46 61 47 62 61 64 82 65
REMARK SMILES IDX 49 66 33 67 34 68 42 69 35 70 36 71 40 72 43 73 37 74 38 75
REMARK SMILES IDX 41 76 39 77 65 78 66 79 74 80 67 81 68 82 72 83 75 84 69 85
REMARK SMILES IDX 70 86 73 87 71 88 50 89 51 90 59 91 52 92 53 93 57 94 60 95
REMARK SMILES IDX 54 96 55 97 58 98 56 99
REMARK H PARENT 10 14 80 52 48 63
REMARK Flexibility Score: inf
ROOT
ATOM      1  C   UNL A   1      41.994  21.990  27.617  1.00  0.00     0.305 C 
ATOM      2  O   UNL A   1      41.903  22.458  28.747  1.00  0.00    -0.252 OA
ENDROOT
BRANCH   1   3
ATOM      3  C   UNL A   1      40.788  21.442  26.878  1.00  0.00     0.123 C 
BRANCH   3   4
ATOM      4  C   UNL A   1      39.618  22.376  26.585  1.00  0.00     0.024 C 
BRANCH   4   5
ATOM      5  C   UNL A   1      38.491  21.863  25.691  1.00  0.00     0.128 C 
BRANCH   5   6
ATOM      6  C   UNL A   1      37.346  22.816  25.392  1.00  0.00     0.307 C 
ATOM      7  N   UNL A   1      33.836  22.303  24.592  1.00  0.00    -0.217 N 
ATOM      8  C   UNL A   1      35.026  22.786  25.113  1.00  0.00     0.319 C 
ATOM      9  C   UNL A   1      32.970  23.340  24.034  1.00  0.00     0.212 C 
ATOM     10  N   UNL A   1      36.175  22.207  25.012  1.00  0.00    -0.204 N 
ATOM     11  S   UNL A   1      34.725  24.377  25.807  1.00  0.00    -0.029 SA
ATOM     12  C   UNL A   1      33.118  24.563  24.966  1.00  0.00     0.120 C 
ATOM     13  C   UNL A   1      33.460  23.727  22.644  1.00  0.00     0.188 C 
ATOM     14  H   UNL A   1      36.213  21.293  24.649  1.00  0.00     0.316 HD
ATOM     15  C   UNL A   1      33.060  25.862  24.179  1.00  0.00     0.156 C 
ATOM     16  S   UNL A   1      32.965  25.409  22.465  1.00  0.00     0.155 S 
ATOM     17  O   UNL A   1      37.576  24.021  25.321  1.00  0.00    -0.247 OA
ATOM     18  O   UNL A   1      33.977  26.119  21.716  1.00  0.00    -0.229 OA
ATOM     19  O   UNL A   1      31.568  25.412  22.081  1.00  0.00    -0.229 OA
BRANCH   7  20
ATOM     20  C   UNL A   1      33.354  20.991  24.696  1.00  0.00     0.128 A 
ATOM     21  C   UNL A   1      32.410  18.326  24.849  1.00  0.00     0.119 A 
ATOM     22  C   UNL A   1      32.972  18.934  25.966  1.00  0.00     0.051 A 
ATOM     23  C   UNL A   1      32.297  19.037  23.661  1.00  0.00     0.051 A 
ATOM     24  C   UNL A   1      33.451  20.250  25.885  1.00  0.00     0.055 A 
ATOM     25  C   UNL A   1      32.780  20.350  23.586  1.00  0.00     0.055 A 
BRANCH  21  26
ATOM     26  O   UNL A   1      31.860  17.082  24.983  1.00  0.00    -0.494 OA
BRANCH  26  27
ATOM     27  C   UNL A   1      32.831  16.053  25.201  1.00  0.00     0.226 C 
ATOM     28  C   UNL A   1      33.947  16.123  24.171  1.00  0.00     0.049 C 
ENDBRANCH  26  27
ENDBRANCH  21  26
ENDBRANCH   7  20
ENDBRANCH   5   6
ENDBRANCH   4   5
ENDBRANCH   3   4
ENDBRANCH   1   3
BRANCH   1  29
ATOM     29  O   UNL A   1      43.141  21.927  26.902  1.00  0.00    -0.462 OA
BRANCH  29  30
ATOM     30  C   UNL A   1      43.020  21.741  25.478  1.00  0.00     0.274 C 
BRANCH  30  31
ATOM     31  C   UNL A   1      43.902  22.736  24.719  1.00  0.00     0.275 C 
BRANCH  31  32
ATOM     32  O   UNL A   1      43.310  24.049  24.699  1.00  0.00    -0.458 OA
BRANCH  32  33
ATOM     33  C   UNL A   1      44.108  25.043  25.148  1.00  0.00     0.338 C 
ATOM     34  O   UNL A   1      45.179  25.406  24.690  1.00  0.00    -0.246 OA
BRANCH  33  35
ATOM     35  C   UNL A   1      43.416  25.786  26.211  1.00  0.00     0.060 A 
ATOM     36  C   UNL A   1      44.008  26.967  26.653  1.00  0.00     0.016 A 
ATOM     37  C   UNL A   1      42.273  25.295  26.838  1.00  0.00     0.016 A 
ATOM     38  C   UNL A   1      43.481  27.670  27.724  1.00  0.00     0.010 A 
ATOM     39  C   UNL A   1      41.729  26.008  27.914  1.00  0.00     0.010 A 
ATOM     40  C   UNL A   1      42.338  27.192  28.370  1.00  0.00    -0.014 A 
BRANCH  40  41
ATOM     41  C   UNL A   1      41.843  27.917  29.562  1.00  0.00     0.031 A 
ATOM     42  C   UNL A   1      40.564  28.698  29.480  1.00  0.00     0.074 A 
ATOM     43  C   UNL A   1      42.504  27.814  30.730  1.00  0.00     0.049 A 
ATOM     44  N   UNL A   1      39.991  29.450  30.385  1.00  0.00    -0.248 NA
ATOM     45  C   UNL A   1      39.829  28.620  28.208  1.00  0.00     0.031 C 
ATOM     46  C   UNL A   1      43.718  27.026  30.945  1.00  0.00     0.029 A 
ATOM     47  N   UNL A   1      42.240  28.366  31.957  1.00  0.00    -0.354 N 
ATOM     48  C   UNL A   1      38.849  29.960  29.783  1.00  0.00     0.074 A 
ATOM     49  C   UNL A   1      38.813  29.440  28.433  1.00  0.00     0.031 C 
ATOM     50  C   UNL A   1      44.089  27.137  32.230  1.00  0.00     0.029 A 
ATOM     51  C   UNL A   1      43.172  28.046  32.913  1.00  0.00     0.049 A 
ATOM     52  H   UNL A   1      41.458  28.936  32.136  1.00  0.00     0.167 HD
ATOM     53  C   UNL A   1      37.918  30.787  30.315  1.00  0.00     0.037 A 
ATOM     54  C   UNL A   1      43.289  28.463  34.186  1.00  0.00     0.037 A 
ATOM     55  C   UNL A   1      37.950  31.278  31.668  1.00  0.00     0.049 A 
ATOM     56  C   UNL A   1      42.268  29.421  34.736  1.00  0.00     0.074 A 
ATOM     57  C   UNL A   1      37.055  32.119  32.305  1.00  0.00     0.029 A 
ATOM     58  N   UNL A   1      38.932  30.963  32.597  1.00  0.00    -0.354 N 
ATOM     59  N   UNL A   1      41.206  29.924  34.153  1.00  0.00    -0.248 NA
ATOM     60  C   UNL A   1      42.464  29.874  36.120  1.00  0.00     0.031 C 
ATOM     61  C   UNL A   1      37.516  32.346  33.606  1.00  0.00     0.029 A 
ATOM     62  C   UNL A   1      38.674  31.608  33.797  1.00  0.00     0.049 A 
ATOM     63  H   UNL A   1      39.700  30.370  32.429  1.00  0.00     0.167 HD
ATOM     64  C   UNL A   1      40.599  30.738  35.100  1.00  0.00     0.074 A 
ATOM     65  C   UNL A   1      41.400  30.642  36.304  1.00  0.00     0.031 C 
ATOM     66  C   UNL A   1      39.483  31.498  34.983  1.00  0.00     0.037 A 
BRANCH  53  67
ATOM     67  C   UNL A   1      36.805  31.242  29.417  1.00  0.00     0.064 A 
ATOM     68  C   UNL A   1      36.750  32.547  28.907  1.00  0.00     0.173 A 
ATOM     69  C   UNL A   1      35.788  30.349  29.047  1.00  0.00     0.173 A 
ATOM     70  F   UNL A   1      37.688  33.445  29.245  1.00  0.00    -0.203 F 
ATOM     71  C   UNL A   1      35.704  32.948  28.078  1.00  0.00     0.198 A 
ATOM     72  C   UNL A   1      34.759  30.745  28.196  1.00  0.00     0.198 A 
ATOM     73  F   UNL A   1      35.795  29.089  29.506  1.00  0.00    -0.203 F 
ATOM     74  F   UNL A   1      35.646  34.214  27.639  1.00  0.00    -0.200 F 
ATOM     75  C   UNL A   1      34.714  32.046  27.718  1.00  0.00     0.200 A 
ATOM     76  F   UNL A   1      33.809  29.869  27.842  1.00  0.00    -0.200 F 
ATOM     77  F   UNL A   1      33.711  32.432  26.918  1.00  0.00    -0.200 F 
ENDBRANCH  53  67
BRANCH  54  78
ATOM     78  C   UNL A   1      44.428  27.998  35.018  1.00  0.00     0.064 A 
ATOM     79  C   UNL A   1      44.345  26.811  35.758  1.00  0.00     0.173 A 
ATOM     80  C   UNL A   1      45.621  28.732  35.092  1.00  0.00     0.173 A 
ATOM     81  F   UNL A   1      43.216  26.087  35.739  1.00  0.00    -0.203 F 
ATOM     82  C   UNL A   1      45.409  26.382  36.550  1.00  0.00     0.198 A 
ATOM     83  C   UNL A   1      46.694  28.288  35.860  1.00  0.00     0.198 A 
ATOM     84  F   UNL A   1      45.750  29.877  34.405  1.00  0.00    -0.203 F 
ATOM     85  F   UNL A   1      45.289  25.264  37.280  1.00  0.00    -0.200 F 
ATOM     86  C   UNL A   1      46.584  27.116  36.595  1.00  0.00     0.200 A 
ATOM     87  F   UNL A   1      47.832  28.994  35.891  1.00  0.00    -0.200 F 
ATOM     88  F   UNL A   1      47.609  26.700  37.351  1.00  0.00    -0.200 F 
ENDBRANCH  54  78
BRANCH  66  89
ATOM     89  C   UNL A   1      39.051  32.262  36.201  1.00  0.00     0.064 A 
ATOM     90  C   UNL A   1      39.461  33.584  36.423  1.00  0.00     0.173 A 
ATOM     91  C   UNL A   1      38.205  31.666  37.148  1.00  0.00     0.173 A 
ATOM     92  F   UNL A   1      40.284  34.191  35.555  1.00  0.00    -0.203 F 
ATOM     93  C   UNL A   1      39.063  34.273  37.566  1.00  0.00     0.198 A 
ATOM     94  C   UNL A   1      37.785  32.368  38.274  1.00  0.00     0.198 A 
ATOM     95  F   UNL A   1      37.779  30.405  36.978  1.00  0.00    -0.203 F 
ATOM     96  F   UNL A   1      39.511  35.517  37.785  1.00  0.00    -0.200 F 
ATOM     97  C   UNL A   1      38.222  33.666  38.487  1.00  0.00     0.200 A 
ATOM     98  F   UNL A   1      36.964  31.785  39.158  1.00  0.00    -0.200 F 
ATOM     99  F   UNL A   1      37.841  34.331  39.587  1.00  0.00    -0.200 F 
ENDBRANCH  66  89
ENDBRANCH  40  41
ENDBRANCH  33  35
ENDBRANCH  32  33
ENDBRANCH  31  32
ENDBRANCH  30  31
ENDBRANCH  29  30
ENDBRANCH   1  29
TORSDOF 17
ENDMDL
