MODEL 1
REMARK VINA RESULT:     -12.8      0.000      0.000
REMARK SMILES CCN(c1cccc(C)c1)c1nc(OCC(=O)OCCOC(=O)c2ccc(-c3c4nc(c(-c5c(F)c(F)c(F)c(F)c5F)c5ccc([nH]5)c(-c5c(F)c(F)c(F)c(F)c5F)c5nc(c(-c6c(F)c(F)c(F)c(F)c6F)c6ccc3[nH]6)C=C5)C=C4)cc2)cc(-c2ccc(C)cc2)n1
REMARK SMILES IDX 19 1 18 2 16 3 17 4 15 5 14 6 13 7 11 8 12 9 96 10 88 11
REMARK SMILES IDX 87 12 3 13 2 14 1 15 4 16 5 17 10 18 6 19 8 20 7 21 9 22
REMARK SMILES IDX 89 23 90 24 95 25 91 26 94 27 92 28 93 29 20 30 21 31 22 32
REMARK SMILES IDX 23 33 24 34 25 35 86 36 26 37 85 38 27 39 28 40 29 41 79 42
REMARK SMILES IDX 30 43 84 44 78 45 80 46 31 47 83 48 77 49 76 50 32 52 64 53
REMARK SMILES IDX 44 54 63 55 45 56 48 57 62 58 81 59 46 60 47 61 61 63 82 64
REMARK SMILES IDX 49 65 33 66 34 67 42 68 35 69 36 70 40 71 43 72 37 73 38 74
REMARK SMILES IDX 41 75 39 76 65 77 66 78 74 79 67 80 68 81 72 82 75 83 69 84
REMARK SMILES IDX 70 85 73 86 71 87 50 88 51 89 59 90 52 91 53 92 57 93 60 94
REMARK SMILES IDX 54 95 55 96 58 97 56 98
REMARK H PARENT 80 51 48 62
REMARK Flexibility Score: inf
ROOT
ATOM      1  C   UNL A   1      40.103  23.615  26.959  1.00  0.00     0.274 C 
ENDROOT
BRANCH   1   2
ATOM      2  O   UNL A   1      39.658  22.293  27.261  1.00  0.00    -0.460 OA
BRANCH   2   3
ATOM      3  C   UNL A   1      39.679  21.430  26.211  1.00  0.00     0.344 C 
ATOM      4  O   UNL A   1      40.576  20.614  26.007  1.00  0.00    -0.248 OA
BRANCH   3   5
ATOM      5  C   UNL A   1      38.381  21.456  25.381  1.00  0.00     0.353 C 
BRANCH   5   6
ATOM      6  O   UNL A   1      37.469  22.506  25.141  1.00  0.00    -0.466 OA
BRANCH   6   7
ATOM      7  C   UNL A   1      36.157  22.142  25.042  1.00  0.00     0.219 A 
ATOM      8  C   UNL A   1      34.033  22.725  24.430  1.00  0.00     0.233 A 
ATOM      9  N   UNL A   1      35.287  23.106  24.753  1.00  0.00    -0.177 NA
ATOM     10  N   UNL A   1      33.606  21.457  24.533  1.00  0.00    -0.212 NA
ATOM     11  C   UNL A   1      34.523  20.510  24.776  1.00  0.00     0.080 A 
ATOM     12  C   UNL A   1      35.847  20.812  25.001  1.00  0.00     0.097 A 
BRANCH   8  13
ATOM     13  N   UNL A   1      33.210  23.662  23.788  1.00  0.00    -0.311 N 
BRANCH  13  14
ATOM     14  C   UNL A   1      31.964  23.166  23.195  1.00  0.00     0.122 C 
ATOM     15  C   UNL A   1      30.722  23.973  23.564  1.00  0.00     0.028 C 
ENDBRANCH  13  14
BRANCH  13  16
ATOM     16  C   UNL A   1      33.480  25.041  23.834  1.00  0.00     0.044 A 
ATOM     17  C   UNL A   1      33.641  25.821  22.685  1.00  0.00     0.026 A 
ATOM     18  C   UNL A   1      33.500  25.704  25.080  1.00  0.00     0.029 A 
ATOM     19  C   UNL A   1      33.777  27.210  22.777  1.00  0.00     0.002 A 
ATOM     20  C   UNL A   1      33.638  27.095  25.188  1.00  0.00    -0.049 A 
ATOM     21  C   UNL A   1      33.769  27.845  24.021  1.00  0.00     0.003 A 
ATOM     22  C   UNL A   1      33.601  27.743  26.540  1.00  0.00     0.044 C 
ENDBRANCH  13  16
ENDBRANCH   8  13
BRANCH  11  23
ATOM     23  C   UNL A   1      34.064  19.121  24.703  1.00  0.00     0.000 A 
ATOM     24  C   UNL A   1      32.722  18.790  24.925  1.00  0.00     0.010 A 
ATOM     25  C   UNL A   1      34.977  18.075  24.519  1.00  0.00     0.010 A 
ATOM     26  C   UNL A   1      32.337  17.467  25.156  1.00  0.00     0.004 A 
ATOM     27  C   UNL A   1      34.580  16.744  24.679  1.00  0.00     0.004 A 
ATOM     28  C   UNL A   1      33.274  16.437  25.072  1.00  0.00    -0.051 A 
ATOM     29  C   UNL A   1      32.880  15.024  25.378  1.00  0.00     0.044 C 
ENDBRANCH  11  23
ENDBRANCH   6   7
ENDBRANCH   5   6
ENDBRANCH   3   5
ENDBRANCH   2   3
ENDBRANCH   1   2
BRANCH   1  30
ATOM     30  C   UNL A   1      39.273  24.676  27.697  1.00  0.00     0.275 C 
BRANCH  30  31
ATOM     31  O   UNL A   1      39.447  26.104  27.420  1.00  0.00    -0.458 OA
BRANCH  31  32
ATOM     32  C   UNL A   1      40.482  26.962  27.566  1.00  0.00     0.338 C 
ATOM     33  O   UNL A   1      41.520  26.941  26.940  1.00  0.00    -0.246 OA
BRANCH  32  34
ATOM     34  C   UNL A   1      40.334  27.985  28.563  1.00  0.00     0.060 A 
ATOM     35  C   UNL A   1      41.246  29.058  28.602  1.00  0.00     0.016 A 
ATOM     36  C   UNL A   1      39.299  27.810  29.463  1.00  0.00     0.016 A 
ATOM     37  C   UNL A   1      41.110  29.998  29.592  1.00  0.00     0.010 A 
ATOM     38  C   UNL A   1      39.045  28.828  30.316  1.00  0.00     0.010 A 
ATOM     39  C   UNL A   1      40.035  29.818  30.448  1.00  0.00    -0.014 A 
BRANCH  39  40
ATOM     40  C   UNL A   1      40.052  30.326  31.794  1.00  0.00     0.031 A 
ATOM     41  C   UNL A   1      40.647  29.473  32.813  1.00  0.00     0.074 A 
ATOM     42  C   UNL A   1      39.883  31.669  31.726  1.00  0.00     0.049 A 
ATOM     43  N   UNL A   1      40.591  29.694  34.072  1.00  0.00    -0.248 NA
ATOM     44  C   UNL A   1      41.322  28.211  32.492  1.00  0.00     0.031 C 
ATOM     45  C   UNL A   1      40.420  32.765  32.505  1.00  0.00     0.029 A 
ATOM     46  N   UNL A   1      39.085  32.322  30.757  1.00  0.00    -0.354 N 
ATOM     47  C   UNL A   1      41.617  28.950  34.618  1.00  0.00     0.074 A 
ATOM     48  C   UNL A   1      41.849  27.887  33.676  1.00  0.00     0.031 C 
ATOM     49  C   UNL A   1      39.693  33.872  32.238  1.00  0.00     0.029 A 
ATOM     50  C   UNL A   1      38.583  33.468  31.378  1.00  0.00     0.049 A 
ATOM     51  H   UNL A   1      38.917  32.028  29.833  1.00  0.00     0.167 HD
ATOM     52  C   UNL A   1      42.329  29.514  35.638  1.00  0.00     0.037 A 
ATOM     53  C   UNL A   1      37.268  33.426  31.746  1.00  0.00     0.037 A 
ATOM     54  C   UNL A   1      41.773  30.847  35.923  1.00  0.00     0.049 A 
ATOM     55  C   UNL A   1      37.177  33.325  33.251  1.00  0.00     0.074 A 
ATOM     56  C   UNL A   1      42.186  32.123  35.569  1.00  0.00     0.029 A 
ATOM     57  N   UNL A   1      40.431  30.961  36.281  1.00  0.00    -0.354 N 
ATOM     58  N   UNL A   1      38.015  32.662  34.007  1.00  0.00    -0.248 NA
ATOM     59  C   UNL A   1      36.214  34.108  34.011  1.00  0.00     0.031 C 
ATOM     60  C   UNL A   1      41.063  32.991  35.670  1.00  0.00     0.029 A 
ATOM     61  C   UNL A   1      39.960  32.239  36.045  1.00  0.00     0.049 A 
ATOM     62  H   UNL A   1      39.891  30.228  36.654  1.00  0.00     0.167 HD
ATOM     63  C   UNL A   1      37.793  32.998  35.318  1.00  0.00     0.074 A 
ATOM     64  C   UNL A   1      36.640  33.886  35.265  1.00  0.00     0.031 C 
ATOM     65  C   UNL A   1      38.580  32.585  36.358  1.00  0.00     0.037 A 
BRANCH  52  66
ATOM     66  C   UNL A   1      43.689  29.060  36.141  1.00  0.00     0.064 A 
ATOM     67  C   UNL A   1      43.797  27.899  36.941  1.00  0.00     0.173 A 
ATOM     68  C   UNL A   1      44.918  29.700  35.886  1.00  0.00     0.173 A 
ATOM     69  F   UNL A   1      42.733  27.133  37.213  1.00  0.00    -0.203 F 
ATOM     70  C   UNL A   1      45.008  27.460  37.486  1.00  0.00     0.198 A 
ATOM     71  C   UNL A   1      46.127  29.277  36.453  1.00  0.00     0.198 A 
ATOM     72  F   UNL A   1      45.019  30.724  35.033  1.00  0.00    -0.203 F 
ATOM     73  F   UNL A   1      45.035  26.350  38.235  1.00  0.00    -0.200 F 
ATOM     74  C   UNL A   1      46.173  28.158  37.254  1.00  0.00     0.200 A 
ATOM     75  F   UNL A   1      47.253  29.961  36.200  1.00  0.00    -0.200 F 
ATOM     76  F   UNL A   1      47.333  27.740  37.775  1.00  0.00    -0.200 F 
ENDBRANCH  52  66
BRANCH  53  77
ATOM     77  C   UNL A   1      36.415  32.694  30.745  1.00  0.00     0.064 A 
ATOM     78  C   UNL A   1      36.015  33.387  29.576  1.00  0.00     0.173 A 
ATOM     79  C   UNL A   1      36.293  31.299  30.716  1.00  0.00     0.173 A 
ATOM     80  F   UNL A   1      36.107  34.727  29.532  1.00  0.00    -0.203 F 
ATOM     81  C   UNL A   1      35.631  32.720  28.411  1.00  0.00     0.198 A 
ATOM     82  C   UNL A   1      35.893  30.632  29.549  1.00  0.00     0.198 A 
ATOM     83  F   UNL A   1      36.655  30.562  31.775  1.00  0.00    -0.203 F 
ATOM     84  F   UNL A   1      35.364  33.415  27.296  1.00  0.00    -0.200 F 
ATOM     85  C   UNL A   1      35.592  31.338  28.392  1.00  0.00     0.200 A 
ATOM     86  F   UNL A   1      35.886  29.291  29.514  1.00  0.00    -0.200 F 
ATOM     87  F   UNL A   1      35.316  30.683  27.255  1.00  0.00    -0.200 F 
ENDBRANCH  53  77
BRANCH  65  88
ATOM     88  C   UNL A   1      38.155  32.550  37.810  1.00  0.00     0.064 A 
ATOM     89  C   UNL A   1      38.284  33.639  38.686  1.00  0.00     0.173 A 
ATOM     90  C   UNL A   1      37.422  31.448  38.325  1.00  0.00     0.173 A 
ATOM     91  F   UNL A   1      38.813  34.804  38.293  1.00  0.00    -0.203 F 
ATOM     92  C   UNL A   1      37.804  33.597  39.996  1.00  0.00     0.198 A 
ATOM     93  C   UNL A   1      36.862  31.450  39.598  1.00  0.00     0.198 A 
ATOM     94  F   UNL A   1      37.187  30.344  37.602  1.00  0.00    -0.203 F 
ATOM     95  F   UNL A   1      38.023  34.638  40.809  1.00  0.00    -0.200 F 
ATOM     96  C   UNL A   1      37.077  32.513  40.445  1.00  0.00     0.200 A 
ATOM     97  F   UNL A   1      36.091  30.424  39.985  1.00  0.00    -0.200 F 
ATOM     98  F   UNL A   1      36.567  32.505  41.683  1.00  0.00    -0.200 F 
ENDBRANCH  65  88
ENDBRANCH  39  40
ENDBRANCH  32  34
ENDBRANCH  31  32
ENDBRANCH  30  31
ENDBRANCH   1  30
TORSDOF 17
ENDMDL
MODEL 2
REMARK VINA RESULT:     -12.8      3.588      9.021
REMARK SMILES CCN(c1cccc(C)c1)c1nc(OCC(=O)OCCOC(=O)c2ccc(-c3c4nc(c(-c5c(F)c(F)c(F)c(F)c5F)c5ccc([nH]5)c(-c5c(F)c(F)c(F)c(F)c5F)c5nc(c(-c6c(F)c(F)c(F)c(F)c6F)c6ccc3[nH]6)C=C5)C=C4)cc2)cc(-c2ccc(C)cc2)n1
REMARK SMILES IDX 19 1 18 2 16 3 17 4 15 5 14 6 13 7 11 8 12 9 96 10 88 11
REMARK SMILES IDX 87 12 3 13 2 14 1 15 4 16 5 17 10 18 6 19 8 20 7 21 9 22
REMARK SMILES IDX 89 23 90 24 95 25 91 26 94 27 92 28 93 29 20 30 21 31 22 32
REMARK SMILES IDX 23 33 24 34 25 35 86 36 26 37 85 38 27 39 28 40 29 41 79 42
REMARK SMILES IDX 30 43 84 44 78 45 80 46 31 47 83 48 77 49 76 50 32 52 64 53
REMARK SMILES IDX 44 54 63 55 45 56 48 57 62 58 81 59 46 60 47 61 61 63 82 64
REMARK SMILES IDX 49 65 33 66 34 67 42 68 35 69 36 70 40 71 43 72 37 73 38 74
REMARK SMILES IDX 41 75 39 76 65 77 66 78 74 79 67 80 68 81 72 82 75 83 69 84
REMARK SMILES IDX 70 85 73 86 71 87 50 88 51 89 59 90 52 91 53 92 57 93 60 94
REMARK SMILES IDX 54 95 55 96 58 97 56 98
REMARK H PARENT 80 51 48 62
REMARK Flexibility Score: inf
ROOT
ATOM      1  C   UNL A   1      34.136  33.041  27.963  1.00  0.00     0.274 C 
ENDROOT
BRANCH   1   2
ATOM      2  O   UNL A   1      35.189  32.131  28.279  1.00  0.00    -0.460 OA
BRANCH   2   3
ATOM      3  C   UNL A   1      34.954  30.840  27.924  1.00  0.00     0.344 C 
ATOM      4  O   UNL A   1      35.716  29.908  28.171  1.00  0.00    -0.248 OA
BRANCH   3   5
ATOM      5  C   UNL A   1      33.553  30.625  27.320  1.00  0.00     0.353 C 
BRANCH   5   6
ATOM      6  O   UNL A   1      32.750  29.467  27.261  1.00  0.00    -0.466 OA
BRANCH   6   7
ATOM      7  C   UNL A   1      32.338  29.092  26.014  1.00  0.00     0.219 A 
ATOM      8  C   UNL A   1      32.117  27.413  24.478  1.00  0.00     0.233 A 
ATOM      9  N   UNL A   1      32.701  27.880  25.602  1.00  0.00    -0.177 NA
ATOM     10  N   UNL A   1      31.320  28.165  23.704  1.00  0.00    -0.212 NA
ATOM     11  C   UNL A   1      30.937  29.359  24.179  1.00  0.00     0.080 A 
ATOM     12  C   UNL A   1      31.401  29.854  25.376  1.00  0.00     0.097 A 
BRANCH   8  13
ATOM     13  N   UNL A   1      32.203  26.037  24.220  1.00  0.00    -0.311 N 
BRANCH  13  14
ATOM     14  C   UNL A   1      31.674  25.561  22.938  1.00  0.00     0.122 C 
ATOM     15  C   UNL A   1      32.619  25.746  21.754  1.00  0.00     0.028 C 
ENDBRANCH  13  14
BRANCH  13  16
ATOM     16  C   UNL A   1      32.898  25.164  25.075  1.00  0.00     0.044 A 
ATOM     17  C   UNL A   1      32.273  24.448  26.100  1.00  0.00     0.026 A 
ATOM     18  C   UNL A   1      34.269  24.913  24.847  1.00  0.00     0.029 A 
ATOM     19  C   UNL A   1      32.979  23.493  26.839  1.00  0.00     0.002 A 
ATOM     20  C   UNL A   1      34.990  23.962  25.582  1.00  0.00    -0.049 A 
ATOM     21  C   UNL A   1      34.328  23.246  26.578  1.00  0.00     0.003 A 
ATOM     22  C   UNL A   1      36.431  23.708  25.256  1.00  0.00     0.044 C 
ENDBRANCH  13  16
ENDBRANCH   8  13
BRANCH  11  23
ATOM     23  C   UNL A   1      29.926  30.079  23.402  1.00  0.00     0.000 A 
ATOM     24  C   UNL A   1      29.608  29.692  22.094  1.00  0.00     0.010 A 
ATOM     25  C   UNL A   1      29.331  31.242  23.906  1.00  0.00     0.010 A 
ATOM     26  C   UNL A   1      28.883  30.537  21.251  1.00  0.00     0.004 A 
ATOM     27  C   UNL A   1      28.545  32.057  23.084  1.00  0.00     0.004 A 
ATOM     28  C   UNL A   1      28.378  31.746  21.731  1.00  0.00    -0.051 A 
ATOM     29  C   UNL A   1      27.653  32.684  20.816  1.00  0.00     0.044 C 
ENDBRANCH  11  23
ENDBRANCH   6   7
ENDBRANCH   5   6
ENDBRANCH   3   5
ENDBRANCH   2   3
ENDBRANCH   1   2
BRANCH   1  30
ATOM     30  C   UNL A   1      33.857  34.010  29.123  1.00  0.00     0.275 C 
BRANCH  30  31
ATOM     31  O   UNL A   1      33.972  33.579  30.518  1.00  0.00    -0.458 OA
BRANCH  31  32
ATOM     32  C   UNL A   1      34.578  34.102  31.608  1.00  0.00     0.338 C 
ATOM     33  O   UNL A   1      34.118  34.952  32.340  1.00  0.00    -0.246 OA
BRANCH  32  34
ATOM     34  C   UNL A   1      35.890  33.607  31.915  1.00  0.00     0.060 A 
ATOM     35  C   UNL A   1      36.994  34.037  31.153  1.00  0.00     0.016 A 
ATOM     36  C   UNL A   1      35.965  32.682  32.941  1.00  0.00     0.016 A 
ATOM     37  C   UNL A   1      38.230  33.514  31.437  1.00  0.00     0.010 A 
ATOM     38  C   UNL A   1      37.200  32.313  33.348  1.00  0.00     0.010 A 
ATOM     39  C   UNL A   1      38.278  32.627  32.500  1.00  0.00    -0.014 A 
BRANCH  39  40
ATOM     40  C   UNL A   1      39.290  31.608  32.585  1.00  0.00     0.031 A 
ATOM     41  C   UNL A   1      39.063  30.389  31.821  1.00  0.00     0.074 A 
ATOM     42  C   UNL A   1      40.426  32.197  33.031  1.00  0.00     0.049 A 
ATOM     43  N   UNL A   1      39.770  29.327  31.917  1.00  0.00    -0.248 NA
ATOM     44  C   UNL A   1      37.934  30.233  30.899  1.00  0.00     0.031 C 
ATOM     45  C   UNL A   1      41.826  31.978  32.733  1.00  0.00     0.029 A 
ATOM     46  N   UNL A   1      40.457  33.271  33.952  1.00  0.00    -0.354 N 
ATOM     47  C   UNL A   1      39.527  28.622  30.757  1.00  0.00     0.074 A 
ATOM     48  C   UNL A   1      38.235  29.072  30.311  1.00  0.00     0.031 C 
ATOM     49  C   UNL A   1      42.565  32.602  33.676  1.00  0.00     0.029 A 
ATOM     50  C   UNL A   1      41.639  33.123  34.680  1.00  0.00     0.049 A 
ATOM     51  H   UNL A   1      39.781  33.979  34.058  1.00  0.00     0.167 HD
ATOM     52  C   UNL A   1      40.585  27.985  30.174  1.00  0.00     0.037 A 
ATOM     53  C   UNL A   1      41.505  32.652  35.956  1.00  0.00     0.037 A 
ATOM     54  C   UNL A   1      41.785  28.213  30.996  1.00  0.00     0.049 A 
ATOM     55  C   UNL A   1      42.020  31.233  36.019  1.00  0.00     0.074 A 
ATOM     56  C   UNL A   1      42.854  29.087  30.860  1.00  0.00     0.029 A 
ATOM     57  N   UNL A   1      41.781  27.812  32.330  1.00  0.00    -0.354 N 
ATOM     58  N   UNL A   1      41.900  30.352  35.057  1.00  0.00    -0.248 NA
ATOM     59  C   UNL A   1      42.849  30.771  37.121  1.00  0.00     0.031 C 
ATOM     60  C   UNL A   1      43.457  29.244  32.140  1.00  0.00     0.029 A 
ATOM     61  C   UNL A   1      42.733  28.500  33.059  1.00  0.00     0.049 A 
ATOM     62  H   UNL A   1      41.180  27.129  32.704  1.00  0.00     0.167 HD
ATOM     63  C   UNL A   1      42.700  29.275  35.340  1.00  0.00     0.074 A 
ATOM     64  C   UNL A   1      43.251  29.577  36.653  1.00  0.00     0.031 C 
ATOM     65  C   UNL A   1      42.910  28.232  34.480  1.00  0.00     0.037 A 
BRANCH  52  66
ATOM     66  C   UNL A   1      40.646  27.466  28.748  1.00  0.00     0.064 A 
ATOM     67  C   UNL A   1      40.002  26.253  28.407  1.00  0.00     0.173 A 
ATOM     68  C   UNL A   1      41.305  28.090  27.671  1.00  0.00     0.173 A 
ATOM     69  F   UNL A   1      39.268  25.574  29.298  1.00  0.00    -0.203 F 
ATOM     70  C   UNL A   1      40.069  25.689  27.129  1.00  0.00     0.198 A 
ATOM     71  C   UNL A   1      41.396  27.513  26.397  1.00  0.00     0.198 A 
ATOM     72  F   UNL A   1      41.841  29.309  27.780  1.00  0.00    -0.203 F 
ATOM     73  F   UNL A   1      39.434  24.536  26.878  1.00  0.00    -0.200 F 
ATOM     74  C   UNL A   1      40.779  26.311  26.126  1.00  0.00     0.200 A 
ATOM     75  F   UNL A   1      42.076  28.144  25.429  1.00  0.00    -0.200 F 
ATOM     76  F   UNL A   1      40.844  25.773  24.902  1.00  0.00    -0.200 F 
ENDBRANCH  52  66
BRANCH  53  77
ATOM     77  C   UNL A   1      40.279  33.192  36.641  1.00  0.00     0.064 A 
ATOM     78  C   UNL A   1      39.172  32.324  36.810  1.00  0.00     0.173 A 
ATOM     79  C   UNL A   1      40.287  34.352  37.426  1.00  0.00     0.173 A 
ATOM     80  F   UNL A   1      39.099  31.190  36.091  1.00  0.00    -0.203 F 
ATOM     81  C   UNL A   1      38.197  32.543  37.786  1.00  0.00     0.198 A 
ATOM     82  C   UNL A   1      39.298  34.577  38.396  1.00  0.00     0.198 A 
ATOM     83  F   UNL A   1      41.299  35.226  37.338  1.00  0.00    -0.203 F 
ATOM     84  F   UNL A   1      37.227  31.638  37.979  1.00  0.00    -0.200 F 
ATOM     85  C   UNL A   1      38.274  33.661  38.595  1.00  0.00     0.200 A 
ATOM     86  F   UNL A   1      39.388  35.642  39.207  1.00  0.00    -0.200 F 
ATOM     87  F   UNL A   1      37.399  33.836  39.596  1.00  0.00    -0.200 F 
ENDBRANCH  53  77
BRANCH  65  88
ATOM     88  C   UNL A   1      43.398  26.857  34.883  1.00  0.00     0.064 A 
ATOM     89  C   UNL A   1      42.545  25.781  35.173  1.00  0.00     0.173 A 
ATOM     90  C   UNL A   1      44.778  26.527  34.810  1.00  0.00     0.173 A 
ATOM     91  F   UNL A   1      41.213  25.902  35.124  1.00  0.00    -0.203 F 
ATOM     92  C   UNL A   1      43.032  24.505  35.459  1.00  0.00     0.198 A 
ATOM     93  C   UNL A   1      45.249  25.232  35.002  1.00  0.00     0.198 A 
ATOM     94  F   UNL A   1      45.717  27.436  34.515  1.00  0.00    -0.203 F 
ATOM     95  F   UNL A   1      42.174  23.536  35.803  1.00  0.00    -0.200 F 
ATOM     96  C   UNL A   1      44.379  24.226  35.355  1.00  0.00     0.200 A 
ATOM     97  F   UNL A   1      46.550  24.966  34.815  1.00  0.00    -0.200 F 
ATOM     98  F   UNL A   1      44.834  22.985  35.571  1.00  0.00    -0.200 F 
ENDBRANCH  65  88
ENDBRANCH  39  40
ENDBRANCH  32  34
ENDBRANCH  31  32
ENDBRANCH  30  31
ENDBRANCH   1  30
TORSDOF 17
ENDMDL
MODEL 3
REMARK VINA RESULT:     -12.7      4.377      9.453
REMARK SMILES CCN(c1cccc(C)c1)c1nc(OCC(=O)OCCOC(=O)c2ccc(-c3c4nc(c(-c5c(F)c(F)c(F)c(F)c5F)c5ccc([nH]5)c(-c5c(F)c(F)c(F)c(F)c5F)c5nc(c(-c6c(F)c(F)c(F)c(F)c6F)c6ccc3[nH]6)C=C5)C=C4)cc2)cc(-c2ccc(C)cc2)n1
REMARK SMILES IDX 19 1 18 2 16 3 17 4 15 5 14 6 13 7 11 8 12 9 96 10 88 11
REMARK SMILES IDX 87 12 3 13 2 14 1 15 4 16 5 17 10 18 6 19 8 20 7 21 9 22
REMARK SMILES IDX 89 23 90 24 95 25 91 26 94 27 92 28 93 29 20 30 21 31 22 32
REMARK SMILES IDX 23 33 24 34 25 35 86 36 26 37 85 38 27 39 28 40 29 41 79 42
REMARK SMILES IDX 30 43 84 44 78 45 80 46 31 47 83 48 77 49 76 50 32 52 64 53
REMARK SMILES IDX 44 54 63 55 45 56 48 57 62 58 81 59 46 60 47 61 61 63 82 64
REMARK SMILES IDX 49 65 33 66 34 67 42 68 35 69 36 70 40 71 43 72 37 73 38 74
REMARK SMILES IDX 41 75 39 76 65 77 66 78 74 79 67 80 68 81 72 82 75 83 69 84
REMARK SMILES IDX 70 85 73 86 71 87 50 88 51 89 59 90 52 91 53 92 57 93 60 94
REMARK SMILES IDX 54 95 55 96 58 97 56 98
REMARK H PARENT 80 51 48 62
REMARK Flexibility Score: inf
ROOT
ATOM      1  C   UNL A   1      36.295  20.846  25.324  1.00  0.00     0.274 C 
ENDROOT
BRANCH   1   2
ATOM      2  O   UNL A   1      35.376  21.519  24.464  1.00  0.00    -0.460 OA
BRANCH   2   3
ATOM      3  C   UNL A   1      34.097  21.566  24.921  1.00  0.00     0.344 C 
ATOM      4  O   UNL A   1      33.513  20.613  25.434  1.00  0.00    -0.248 OA
BRANCH   3   5
ATOM      5  C   UNL A   1      33.494  22.983  24.884  1.00  0.00     0.353 C 
BRANCH   5   6
ATOM      6  O   UNL A   1      33.501  24.006  25.855  1.00  0.00    -0.466 OA
BRANCH   6   7
ATOM      7  C   UNL A   1      33.373  25.279  25.378  1.00  0.00     0.219 A 
ATOM      8  C   UNL A   1      32.467  26.669  23.805  1.00  0.00     0.233 A 
ATOM      9  N   UNL A   1      32.803  25.418  24.184  1.00  0.00    -0.177 NA
ATOM     10  N   UNL A   1      32.813  27.761  24.505  1.00  0.00    -0.212 NA
ATOM     11  C   UNL A   1      33.339  27.577  25.724  1.00  0.00     0.080 A 
ATOM     12  C   UNL A   1      33.604  26.324  26.227  1.00  0.00     0.097 A 
BRANCH   8  13
ATOM     13  N   UNL A   1      31.564  26.810  22.742  1.00  0.00    -0.311 N 
BRANCH  13  14
ATOM     14  C   UNL A   1      31.519  25.731  21.751  1.00  0.00     0.122 C 
ATOM     15  C   UNL A   1      32.596  25.816  20.672  1.00  0.00     0.028 C 
ENDBRANCH  13  14
BRANCH  13  16
ATOM     16  C   UNL A   1      30.629  27.860  22.697  1.00  0.00     0.044 A 
ATOM     17  C   UNL A   1      30.909  29.101  22.118  1.00  0.00     0.026 A 
ATOM     18  C   UNL A   1      29.315  27.641  23.166  1.00  0.00     0.029 A 
ATOM     19  C   UNL A   1      29.908  30.068  21.978  1.00  0.00     0.002 A 
ATOM     20  C   UNL A   1      28.303  28.602  23.035  1.00  0.00    -0.049 A 
ATOM     21  C   UNL A   1      28.610  29.818  22.428  1.00  0.00     0.003 A 
ATOM     22  C   UNL A   1      26.915  28.288  23.509  1.00  0.00     0.044 C 
ENDBRANCH  13  16
ENDBRANCH   8  13
BRANCH  11  23
ATOM     23  C   UNL A   1      33.538  28.779  26.538  1.00  0.00     0.000 A 
ATOM     24  C   UNL A   1      32.513  29.717  26.706  1.00  0.00     0.010 A 
ATOM     25  C   UNL A   1      34.796  29.076  27.077  1.00  0.00     0.010 A 
ATOM     26  C   UNL A   1      32.780  30.990  27.215  1.00  0.00     0.004 A 
ATOM     27  C   UNL A   1      35.050  30.325  27.653  1.00  0.00     0.004 A 
ATOM     28  C   UNL A   1      34.063  31.316  27.658  1.00  0.00    -0.051 A 
ATOM     29  C   UNL A   1      34.370  32.698  28.148  1.00  0.00     0.044 C 
ENDBRANCH  11  23
ENDBRANCH   6   7
ENDBRANCH   5   6
ENDBRANCH   3   5
ENDBRANCH   2   3
ENDBRANCH   1   2
BRANCH   1  30
ATOM     30  C   UNL A   1      37.744  21.284  25.063  1.00  0.00     0.275 C 
BRANCH  30  31
ATOM     31  O   UNL A   1      38.352  22.384  25.815  1.00  0.00    -0.458 OA
BRANCH  31  32
ATOM     32  C   UNL A   1      38.010  23.677  26.017  1.00  0.00     0.338 C 
ATOM     33  O   UNL A   1      37.000  24.218  25.621  1.00  0.00    -0.246 OA
BRANCH  32  34
ATOM     34  C   UNL A   1      38.939  24.480  26.762  1.00  0.00     0.060 A 
ATOM     35  C   UNL A   1      38.910  24.454  28.170  1.00  0.00     0.016 A 
ATOM     36  C   UNL A   1      39.789  25.275  26.015  1.00  0.00     0.016 A 
ATOM     37  C   UNL A   1      39.777  25.264  28.859  1.00  0.00     0.010 A 
ATOM     38  C   UNL A   1      40.769  25.925  26.682  1.00  0.00     0.010 A 
ATOM     39  C   UNL A   1      40.647  26.011  28.081  1.00  0.00    -0.014 A 
BRANCH  39  40
ATOM     40  C   UNL A   1      41.196  27.255  28.551  1.00  0.00     0.031 A 
ATOM     41  C   UNL A   1      40.304  28.405  28.570  1.00  0.00     0.074 A 
ATOM     42  C   UNL A   1      42.311  26.965  29.264  1.00  0.00     0.049 A 
ATOM     43  N   UNL A   1      40.672  29.610  28.794  1.00  0.00    -0.248 NA
ATOM     44  C   UNL A   1      38.875  28.301  28.257  1.00  0.00     0.031 C 
ATOM     45  C   UNL A   1      42.899  27.556  30.449  1.00  0.00     0.029 A 
ATOM     46  N   UNL A   1      43.190  25.896  28.967  1.00  0.00    -0.354 N 
ATOM     47  C   UNL A   1      39.523  30.278  29.165  1.00  0.00     0.074 A 
ATOM     48  C   UNL A   1      38.447  29.526  28.576  1.00  0.00     0.031 C 
ATOM     49  C   UNL A   1      44.168  27.105  30.564  1.00  0.00     0.029 A 
ATOM     50  C   UNL A   1      44.460  26.316  29.370  1.00  0.00     0.049 A 
ATOM     51  H   UNL A   1      42.954  25.032  28.559  1.00  0.00     0.167 HD
ATOM     52  C   UNL A   1      39.627  31.195  30.172  1.00  0.00     0.037 A 
ATOM     53  C   UNL A   1      45.319  26.677  28.370  1.00  0.00     0.037 A 
ATOM     54  C   UNL A   1      41.029  31.253  30.617  1.00  0.00     0.049 A 
ATOM     55  C   UNL A   1      45.499  28.177  28.388  1.00  0.00     0.074 A 
ATOM     56  C   UNL A   1      41.683  30.696  31.706  1.00  0.00     0.029 A 
ATOM     57  N   UNL A   1      42.022  31.578  29.695  1.00  0.00    -0.354 N 
ATOM     58  N   UNL A   1      44.559  29.038  28.688  1.00  0.00    -0.248 NA
ATOM     59  C   UNL A   1      46.807  28.791  28.220  1.00  0.00     0.031 C 
ATOM     60  C   UNL A   1      43.073  30.645  31.403  1.00  0.00     0.029 A 
ATOM     61  C   UNL A   1      43.260  31.131  30.119  1.00  0.00     0.049 A 
ATOM     62  H   UNL A   1      41.862  32.063  28.854  1.00  0.00     0.167 HD
ATOM     63  C   UNL A   1      45.128  30.274  28.862  1.00  0.00     0.074 A 
ATOM     64  C   UNL A   1      46.531  30.067  28.534  1.00  0.00     0.031 C 
ATOM     65  C   UNL A   1      44.447  31.373  29.310  1.00  0.00     0.037 A 
BRANCH  52  66
ATOM     66  C   UNL A   1      38.479  31.776  30.979  1.00  0.00     0.064 A 
ATOM     67  C   UNL A   1      37.640  32.763  30.410  1.00  0.00     0.173 A 
ATOM     68  C   UNL A   1      38.137  31.421  32.299  1.00  0.00     0.173 A 
ATOM     69  F   UNL A   1      37.783  33.157  29.138  1.00  0.00    -0.203 F 
ATOM     70  C   UNL A   1      36.604  33.381  31.118  1.00  0.00     0.198 A 
ATOM     71  C   UNL A   1      37.117  32.059  33.018  1.00  0.00     0.198 A 
ATOM     72  F   UNL A   1      38.730  30.407  32.935  1.00  0.00    -0.203 F 
ATOM     73  F   UNL A   1      35.850  34.310  30.514  1.00  0.00    -0.200 F 
ATOM     74  C   UNL A   1      36.351  33.040  32.428  1.00  0.00     0.200 A 
ATOM     75  F   UNL A   1      36.875  31.699  34.287  1.00  0.00    -0.200 F 
ATOM     76  F   UNL A   1      35.360  33.631  33.107  1.00  0.00    -0.200 F 
ENDBRANCH  52  66
BRANCH  53  77
ATOM     77  C   UNL A   1      45.181  25.805  27.151  1.00  0.00     0.064 A 
ATOM     78  C   UNL A   1      45.726  24.498  27.201  1.00  0.00     0.173 A 
ATOM     79  C   UNL A   1      44.259  26.058  26.128  1.00  0.00     0.173 A 
ATOM     80  F   UNL A   1      46.615  24.183  28.159  1.00  0.00    -0.203 F 
ATOM     81  C   UNL A   1      45.288  23.477  26.355  1.00  0.00     0.198 A 
ATOM     82  C   UNL A   1      43.832  25.034  25.269  1.00  0.00     0.198 A 
ATOM     83  F   UNL A   1      43.688  27.265  26.010  1.00  0.00    -0.203 F 
ATOM     84  F   UNL A   1      45.755  22.230  26.510  1.00  0.00    -0.200 F 
ATOM     85  C   UNL A   1      44.322  23.742  25.402  1.00  0.00     0.200 A 
ATOM     86  F   UNL A   1      42.870  25.278  24.366  1.00  0.00    -0.200 F 
ATOM     87  F   UNL A   1      43.824  22.752  24.646  1.00  0.00    -0.200 F 
ENDBRANCH  53  77
BRANCH  65  88
ATOM     88  C   UNL A   1      44.883  32.808  29.107  1.00  0.00     0.064 A 
ATOM     89  C   UNL A   1      44.621  33.545  27.941  1.00  0.00     0.173 A 
ATOM     90  C   UNL A   1      45.432  33.558  30.181  1.00  0.00     0.173 A 
ATOM     91  F   UNL A   1      43.965  33.015  26.902  1.00  0.00    -0.203 F 
ATOM     92  C   UNL A   1      44.965  34.892  27.823  1.00  0.00     0.198 A 
ATOM     93  C   UNL A   1      45.684  34.923  30.090  1.00  0.00     0.198 A 
ATOM     94  F   UNL A   1      45.712  33.006  31.370  1.00  0.00    -0.203 F 
ATOM     95  F   UNL A   1      44.760  35.523  26.660  1.00  0.00    -0.200 F 
ATOM     96  C   UNL A   1      45.477  35.585  28.901  1.00  0.00     0.200 A 
ATOM     97  F   UNL A   1      46.104  35.594  31.172  1.00  0.00    -0.200 F 
ATOM     98  F   UNL A   1      45.748  36.892  28.800  1.00  0.00    -0.200 F 
ENDBRANCH  65  88
ENDBRANCH  39  40
ENDBRANCH  32  34
ENDBRANCH  31  32
ENDBRANCH  30  31
ENDBRANCH   1  30
TORSDOF 17
ENDMDL
