MODEL 1
REMARK VINA RESULT:     -11.8      0.000      0.000
REMARK SMILES C[C@H]1CC=C(C2=NN=C(C(=O)OCCOC(=O)c3ccc(-c4c5nc(c(-c6c(F)c(F)c(F)c(F)c6F)c6ccc([nH]6)c(-c6c(F)c(F)c(F)c(F)c6F)c6nc(c(-c7c(F)c(F)c(F)c(F)c7F)c7ccc4[nH]7)C=C6)C=C5)cc3)C2)O1
REMARK SMILES IDX 14 1 13 2 12 3 10 4 11 5 9 6 6 7 7 8 81 9 8 10 5 11 1 12
REMARK SMILES IDX 2 13 3 14 82 15 4 16 15 17 16 18 17 19 18 20 19 21 80 22
REMARK SMILES IDX 20 23 79 24 21 25 22 26 23 27 73 28 24 29 78 30 72 31 74 32
REMARK SMILES IDX 25 33 77 34 71 35 70 36 26 38 58 39 38 40 57 41 39 42 42 43
REMARK SMILES IDX 56 44 75 45 40 46 41 47 55 49 76 50 43 51 27 52 28 53 36 54
REMARK SMILES IDX 29 55 30 56 34 57 37 58 31 59 32 60 35 61 33 62 59 63 60 64
REMARK SMILES IDX 68 65 61 66 62 67 66 68 69 69 63 70 64 71 67 72 65 73 44 74
REMARK SMILES IDX 45 75 53 76 46 77 47 78 51 79 54 80 48 81 49 82 52 83 50 84
REMARK H PARENT 74 37 42 48
REMARK Flexibility Score: inf
ROOT
ATOM      1  C   UNL A   1      40.788  20.437  26.457  1.00  0.00     0.275 C 
ENDROOT
BRANCH   1   2
ATOM      2  C   UNL A   1      41.906  19.406  26.365  1.00  0.00     0.275 C 
BRANCH   2   3
ATOM      3  O   UNL A   1      42.607  19.496  25.111  1.00  0.00    -0.458 OA
BRANCH   3   4
ATOM      4  C   UNL A   1      43.918  19.189  25.142  1.00  0.00     0.355 C 
ATOM      5  O   UNL A   1      44.426  18.077  25.087  1.00  0.00    -0.245 OA
BRANCH   4   6
ATOM      6  C   UNL A   1      44.786  20.414  25.093  1.00  0.00     0.154 C 
ATOM      7  C   UNL A   1      45.417  22.549  25.071  1.00  0.00     0.111 C 
ATOM      8  N   UNL A   1      46.408  21.825  24.642  1.00  0.00    -0.151 NA
ATOM      9  C   UNL A   1      44.243  21.738  25.503  1.00  0.00     0.128 C 
ATOM     10  N   UNL A   1      46.009  20.451  24.658  1.00  0.00    -0.147 NA
BRANCH   7  11
ATOM     11  C   UNL A   1      45.357  24.020  25.052  1.00  0.00     0.139 C 
ATOM     12  C   UNL A   1      46.653  27.209  24.635  1.00  0.00     0.053 C 
ATOM     13  C   UNL A   1      45.895  26.154  25.432  1.00  0.00     0.174 C 
ATOM     14  C   UNL A   1      44.408  26.095  25.058  1.00  0.00     0.076 C 
ATOM     15  O   UNL A   1      46.471  24.833  25.233  1.00  0.00    -0.489 OA
ATOM     16  C   UNL A   1      44.183  24.641  24.983  1.00  0.00     0.025 C 
ENDBRANCH   7  11
ENDBRANCH   4   6
ENDBRANCH   3   4
ENDBRANCH   2   3
ENDBRANCH   1   2
BRANCH   1  17
ATOM     17  O   UNL A   1      41.305  21.710  26.843  1.00  0.00    -0.458 OA
BRANCH  17  18
ATOM     18  C   UNL A   1      40.421  22.729  26.759  1.00  0.00     0.338 C 
ATOM     19  O   UNL A   1      39.228  22.656  26.529  1.00  0.00    -0.246 OA
BRANCH  18  20
ATOM     20  C   UNL A   1      41.142  24.003  26.747  1.00  0.00     0.060 A 
ATOM     21  C   UNL A   1      42.111  24.141  27.747  1.00  0.00     0.016 A 
ATOM     22  C   UNL A   1      40.531  25.098  26.127  1.00  0.00     0.016 A 
ATOM     23  C   UNL A   1      42.245  25.369  28.341  1.00  0.00     0.010 A 
ATOM     24  C   UNL A   1      40.640  26.314  26.742  1.00  0.00     0.010 A 
ATOM     25  C   UNL A   1      41.416  26.401  27.897  1.00  0.00    -0.014 A 
BRANCH  25  26
ATOM     26  C   UNL A   1      41.448  27.648  28.617  1.00  0.00     0.031 A 
ATOM     27  C   UNL A   1      42.659  28.429  28.289  1.00  0.00     0.074 A 
ATOM     28  C   UNL A   1      40.399  28.036  29.365  1.00  0.00     0.049 A 
ATOM     29  N   UNL A   1      43.623  28.768  29.076  1.00  0.00    -0.248 NA
ATOM     30  C   UNL A   1      42.933  28.673  26.860  1.00  0.00     0.031 C 
ATOM     31  C   UNL A   1      39.093  27.381  29.499  1.00  0.00     0.029 A 
ATOM     32  N   UNL A   1      40.242  29.176  30.086  1.00  0.00    -0.354 N 
ATOM     33  C   UNL A   1      44.522  29.455  28.268  1.00  0.00     0.074 A 
ATOM     34  C   UNL A   1      44.171  29.160  26.909  1.00  0.00     0.031 C 
ATOM     35  C   UNL A   1      38.213  28.243  30.057  1.00  0.00     0.029 A 
ATOM     36  C   UNL A   1      38.924  29.454  30.427  1.00  0.00     0.049 A 
ATOM     37  H   UNL A   1      40.995  29.755  30.344  1.00  0.00     0.167 HD
ATOM     38  C   UNL A   1      45.267  30.471  28.775  1.00  0.00     0.037 A 
ATOM     39  C   UNL A   1      38.466  30.644  30.888  1.00  0.00     0.037 A 
ATOM     40  C   UNL A   1      45.339  30.385  30.211  1.00  0.00     0.049 A 
ATOM     41  C   UNL A   1      39.644  31.409  31.368  1.00  0.00     0.074 A 
ATOM     42  C   UNL A   1      45.891  29.498  31.112  1.00  0.00     0.029 A 
ATOM     43  N   UNL A   1      44.430  31.137  30.912  1.00  0.00    -0.354 N 
ATOM     44  N   UNL A   1      40.348  31.069  32.412  1.00  0.00    -0.248 NA
ATOM     45  C   UNL A   1      40.316  32.297  30.430  1.00  0.00     0.031 C 
ATOM     46  C   UNL A   1      45.012  29.502  32.236  1.00  0.00     0.029 A 
ATOM     47  C   UNL A   1      43.993  30.424  31.994  1.00  0.00     0.049 A 
ATOM     48  H   UNL A   1      44.138  32.046  30.673  1.00  0.00     0.167 HD
ATOM     49  C   UNL A   1      41.663  31.340  32.058  1.00  0.00     0.074 A 
ATOM     50  C   UNL A   1      41.569  32.201  30.884  1.00  0.00     0.031 C 
ATOM     51  C   UNL A   1      42.682  30.596  32.581  1.00  0.00     0.037 A 
BRANCH  38  52
ATOM     52  C   UNL A   1      45.509  31.768  28.034  1.00  0.00     0.064 A 
ATOM     53  C   UNL A   1      44.396  32.517  27.612  1.00  0.00     0.173 A 
ATOM     54  C   UNL A   1      46.745  32.140  27.452  1.00  0.00     0.173 A 
ATOM     55  F   UNL A   1      43.171  32.245  28.087  1.00  0.00    -0.203 F 
ATOM     56  C   UNL A   1      44.498  33.496  26.621  1.00  0.00     0.198 A 
ATOM     57  C   UNL A   1      46.852  33.154  26.505  1.00  0.00     0.198 A 
ATOM     58  F   UNL A   1      47.883  31.474  27.678  1.00  0.00    -0.203 F 
ATOM     59  F   UNL A   1      43.391  34.089  26.156  1.00  0.00    -0.200 F 
ATOM     60  C   UNL A   1      45.725  33.807  26.062  1.00  0.00     0.200 A 
ATOM     61  F   UNL A   1      48.048  33.424  25.965  1.00  0.00    -0.200 F 
ATOM     62  F   UNL A   1      45.816  34.695  25.065  1.00  0.00    -0.200 F 
ENDBRANCH  38  52
BRANCH  39  63
ATOM     63  C   UNL A   1      37.156  31.277  30.614  1.00  0.00     0.064 A 
ATOM     64  C   UNL A   1      36.256  31.576  31.648  1.00  0.00     0.173 A 
ATOM     65  C   UNL A   1      36.875  31.842  29.354  1.00  0.00     0.173 A 
ATOM     66  F   UNL A   1      36.483  31.123  32.889  1.00  0.00    -0.203 F 
ATOM     67  C   UNL A   1      35.143  32.397  31.434  1.00  0.00     0.198 A 
ATOM     68  C   UNL A   1      35.763  32.657  29.140  1.00  0.00     0.198 A 
ATOM     69  F   UNL A   1      37.726  31.689  28.329  1.00  0.00    -0.203 F 
ATOM     70  F   UNL A   1      34.331  32.704  32.456  1.00  0.00    -0.200 F 
ATOM     71  C   UNL A   1      34.902  32.942  30.183  1.00  0.00     0.200 A 
ATOM     72  F   UNL A   1      35.567  33.210  27.936  1.00  0.00    -0.200 F 
ATOM     73  F   UNL A   1      33.868  33.773  29.991  1.00  0.00    -0.200 F 
ENDBRANCH  39  63
BRANCH  51  74
ATOM     74  C   UNL A   1      42.344  29.722  33.757  1.00  0.00     0.064 A 
ATOM     75  C   UNL A   1      41.874  28.401  33.646  1.00  0.00     0.173 A 
ATOM     76  C   UNL A   1      42.610  30.206  35.042  1.00  0.00     0.173 A 
ATOM     77  F   UNL A   1      41.691  27.835  32.447  1.00  0.00    -0.203 F 
ATOM     78  C   UNL A   1      41.632  27.622  34.776  1.00  0.00     0.198 A 
ATOM     79  C   UNL A   1      42.403  29.414  36.168  1.00  0.00     0.198 A 
ATOM     80  F   UNL A   1      43.113  31.440  35.203  1.00  0.00    -0.203 F 
ATOM     81  F   UNL A   1      41.164  26.372  34.645  1.00  0.00    -0.200 F 
ATOM     82  C   UNL A   1      41.902  28.129  36.036  1.00  0.00     0.200 A 
ATOM     83  F   UNL A   1      42.713  29.891  37.381  1.00  0.00    -0.200 F 
ATOM     84  F   UNL A   1      41.705  27.370  37.124  1.00  0.00    -0.200 F 
ENDBRANCH  51  74
ENDBRANCH  25  26
ENDBRANCH  18  20
ENDBRANCH  17  18
ENDBRANCH   1  17
TORSDOF 12
ENDMDL
MODEL 2
REMARK VINA RESULT:     -11.6      0.426      1.222
REMARK SMILES C[C@H]1CC=C(C2=NN=C(C(=O)OCCOC(=O)c3ccc(-c4c5nc(c(-c6c(F)c(F)c(F)c(F)c6F)c6ccc([nH]6)c(-c6c(F)c(F)c(F)c(F)c6F)c6nc(c(-c7c(F)c(F)c(F)c(F)c7F)c7ccc4[nH]7)C=C6)C=C5)cc3)C2)O1
REMARK SMILES IDX 14 1 13 2 12 3 10 4 11 5 9 6 6 7 7 8 81 9 8 10 5 11 1 12
REMARK SMILES IDX 2 13 3 14 82 15 4 16 15 17 16 18 17 19 18 20 19 21 80 22
REMARK SMILES IDX 20 23 79 24 21 25 22 26 23 27 73 28 24 29 78 30 72 31 74 32
REMARK SMILES IDX 25 33 77 34 71 35 70 36 26 38 58 39 38 40 57 41 39 42 42 43
REMARK SMILES IDX 56 44 75 45 40 46 41 47 55 49 76 50 43 51 27 52 28 53 36 54
REMARK SMILES IDX 29 55 30 56 34 57 37 58 31 59 32 60 35 61 33 62 59 63 60 64
REMARK SMILES IDX 68 65 61 66 62 67 66 68 69 69 63 70 64 71 67 72 65 73 44 74
REMARK SMILES IDX 45 75 53 76 46 77 47 78 51 79 54 80 48 81 49 82 52 83 50 84
REMARK H PARENT 74 37 42 48
REMARK Flexibility Score: inf
ROOT
ATOM      1  C   UNL A   1      40.562  20.394  26.450  1.00  0.00     0.275 C 
ENDROOT
BRANCH   1   2
ATOM      2  C   UNL A   1      41.705  19.386  26.421  1.00  0.00     0.275 C 
BRANCH   2   3
ATOM      3  O   UNL A   1      42.490  19.510  25.220  1.00  0.00    -0.458 OA
BRANCH   3   4
ATOM      4  C   UNL A   1      43.789  19.170  25.323  1.00  0.00     0.355 C 
ATOM      5  O   UNL A   1      44.267  18.043  25.331  1.00  0.00    -0.245 OA
BRANCH   4   6
ATOM      6  C   UNL A   1      44.692  20.368  25.274  1.00  0.00     0.154 C 
ATOM      7  C   UNL A   1      45.384  22.484  25.224  1.00  0.00     0.111 C 
ATOM      8  N   UNL A   1      46.366  21.724  24.841  1.00  0.00    -0.151 NA
ATOM      9  C   UNL A   1      44.175  21.716  25.638  1.00  0.00     0.128 C 
ATOM     10  N   UNL A   1      45.927  20.362  24.875  1.00  0.00    -0.147 NA
BRANCH   7  11
ATOM     11  C   UNL A   1      45.365  23.956  25.172  1.00  0.00     0.139 C 
ATOM     12  C   UNL A   1      46.760  27.096  24.709  1.00  0.00     0.053 C 
ATOM     13  C   UNL A   1      45.957  26.082  25.515  1.00  0.00     0.174 C 
ATOM     14  C   UNL A   1      44.477  26.056  25.113  1.00  0.00     0.076 C 
ATOM     15  O   UNL A   1      46.498  24.741  25.356  1.00  0.00    -0.489 OA
ATOM     16  C   UNL A   1      44.212  24.607  25.066  1.00  0.00     0.025 C 
ENDBRANCH   7  11
ENDBRANCH   4   6
ENDBRANCH   3   4
ENDBRANCH   2   3
ENDBRANCH   1   2
BRANCH   1  17
ATOM     17  O   UNL A   1      40.981  21.614  27.059  1.00  0.00    -0.458 OA
BRANCH  17  18
ATOM     18  C   UNL A   1      40.157  22.665  26.847  1.00  0.00     0.338 C 
ATOM     19  O   UNL A   1      38.986  22.631  26.522  1.00  0.00    -0.246 OA
BRANCH  18  20
ATOM     20  C   UNL A   1      40.938  23.903  26.827  1.00  0.00     0.060 A 
ATOM     21  C   UNL A   1      41.884  24.020  27.852  1.00  0.00     0.016 A 
ATOM     22  C   UNL A   1      40.398  25.011  26.165  1.00  0.00     0.016 A 
ATOM     23  C   UNL A   1      42.059  25.254  28.421  1.00  0.00     0.010 A 
ATOM     24  C   UNL A   1      40.547  26.234  26.755  1.00  0.00     0.010 A 
ATOM     25  C   UNL A   1      41.293  26.312  27.930  1.00  0.00    -0.014 A 
BRANCH  25  26
ATOM     26  C   UNL A   1      41.364  27.574  28.622  1.00  0.00     0.031 A 
ATOM     27  C   UNL A   1      42.544  28.355  28.199  1.00  0.00     0.074 A 
ATOM     28  C   UNL A   1      40.365  27.971  29.431  1.00  0.00     0.049 A 
ATOM     29  N   UNL A   1      43.556  28.716  28.913  1.00  0.00    -0.248 NA
ATOM     30  C   UNL A   1      42.721  28.572  26.751  1.00  0.00     0.031 C 
ATOM     31  C   UNL A   1      39.075  27.310  29.664  1.00  0.00     0.029 A 
ATOM     32  N   UNL A   1      40.248  29.124  30.139  1.00  0.00    -0.354 N 
ATOM     33  C   UNL A   1      44.394  29.392  28.033  1.00  0.00     0.074 A 
ATOM     34  C   UNL A   1      43.956  29.068  26.707  1.00  0.00     0.031 C 
ATOM     35  C   UNL A   1      38.228  28.178  30.263  1.00  0.00     0.029 A 
ATOM     36  C   UNL A   1      38.953  29.400  30.562  1.00  0.00     0.049 A 
ATOM     37  H   UNL A   1      41.012  29.712  30.335  1.00  0.00     0.167 HD
ATOM     38  C   UNL A   1      45.165  30.423  28.470  1.00  0.00     0.037 A 
ATOM     39  C   UNL A   1      38.519  30.596  31.029  1.00  0.00     0.037 A 
ATOM     40  C   UNL A   1      45.333  30.365  29.900  1.00  0.00     0.049 A 
ATOM     41  C   UNL A   1      39.720  31.378  31.414  1.00  0.00     0.074 A 
ATOM     42  C   UNL A   1      45.950  29.500  30.779  1.00  0.00     0.029 A 
ATOM     43  N   UNL A   1      44.467  31.125  30.645  1.00  0.00    -0.354 N 
ATOM     44  N   UNL A   1      40.494  31.063  32.415  1.00  0.00    -0.248 NA
ATOM     45  C   UNL A   1      40.321  32.251  30.417  1.00  0.00     0.031 C 
ATOM     46  C   UNL A   1      45.148  29.521  31.958  1.00  0.00     0.029 A 
ATOM     47  C   UNL A   1      44.108  30.431  31.768  1.00  0.00     0.049 A 
ATOM     48  H   UNL A   1      44.153  32.028  30.408  1.00  0.00     0.167 HD
ATOM     49  C   UNL A   1      41.781  31.335  31.969  1.00  0.00     0.074 A 
ATOM     50  C   UNL A   1      41.602  32.172  30.787  1.00  0.00     0.031 C 
ATOM     51  C   UNL A   1      42.838  30.607  32.436  1.00  0.00     0.037 A 
BRANCH  38  52
ATOM     52  C   UNL A   1      45.347  31.705  27.689  1.00  0.00     0.064 A 
ATOM     53  C   UNL A   1      46.599  31.957  27.097  1.00  0.00     0.173 A 
ATOM     54  C   UNL A   1      44.476  32.819  27.761  1.00  0.00     0.173 A 
ATOM     55  F   UNL A   1      47.510  30.979  26.988  1.00  0.00    -0.203 F 
ATOM     56  C   UNL A   1      46.980  33.240  26.696  1.00  0.00     0.198 A 
ATOM     57  C   UNL A   1      44.839  34.084  27.308  1.00  0.00     0.198 A 
ATOM     58  F   UNL A   1      43.287  32.771  28.370  1.00  0.00    -0.203 F 
ATOM     59  F   UNL A   1      48.228  33.456  26.262  1.00  0.00    -0.200 F 
ATOM     60  C   UNL A   1      46.102  34.303  26.809  1.00  0.00     0.200 A 
ATOM     61  F   UNL A   1      43.979  35.102  27.446  1.00  0.00    -0.200 F 
ATOM     62  F   UNL A   1      46.488  35.545  26.489  1.00  0.00    -0.200 F 
ENDBRANCH  38  52
BRANCH  39  63
ATOM     63  C   UNL A   1      37.189  31.216  30.830  1.00  0.00     0.064 A 
ATOM     64  C   UNL A   1      36.362  31.539  31.916  1.00  0.00     0.173 A 
ATOM     65  C   UNL A   1      36.816  31.745  29.578  1.00  0.00     0.173 A 
ATOM     66  F   UNL A   1      36.677  31.120  33.151  1.00  0.00    -0.203 F 
ATOM     67  C   UNL A   1      35.231  32.349  31.760  1.00  0.00     0.198 A 
ATOM     68  C   UNL A   1      35.687  32.549  29.422  1.00  0.00     0.198 A 
ATOM     69  F   UNL A   1      37.594  31.568  28.500  1.00  0.00    -0.203 F 
ATOM     70  F   UNL A   1      34.491  32.680  32.828  1.00  0.00    -0.200 F 
ATOM     71  C   UNL A   1      34.899  32.859  30.514  1.00  0.00     0.200 A 
ATOM     72  F   UNL A   1      35.403  33.069  28.220  1.00  0.00    -0.200 F 
ATOM     73  F   UNL A   1      33.849  33.680  30.374  1.00  0.00    -0.200 F 
ENDBRANCH  39  63
BRANCH  51  74
ATOM     74  C   UNL A   1      42.585  29.755  33.649  1.00  0.00     0.064 A 
ATOM     75  C   UNL A   1      42.139  28.422  33.595  1.00  0.00     0.173 A 
ATOM     76  C   UNL A   1      42.912  30.274  34.906  1.00  0.00     0.173 A 
ATOM     77  F   UNL A   1      41.902  27.824  32.421  1.00  0.00    -0.203 F 
ATOM     78  C   UNL A   1      41.977  27.665  34.754  1.00  0.00     0.198 A 
ATOM     79  C   UNL A   1      42.786  29.505  36.059  1.00  0.00     0.198 A 
ATOM     80  F   UNL A   1      43.396  31.521  35.011  1.00  0.00    -0.203 F 
ATOM     81  F   UNL A   1      41.530  26.403  34.678  1.00  0.00    -0.200 F 
ATOM     82  C   UNL A   1      42.306  28.207  35.985  1.00  0.00     0.200 A 
ATOM     83  F   UNL A   1      43.152  30.017  37.242  1.00  0.00    -0.200 F 
ATOM     84  F   UNL A   1      42.187  27.470  37.099  1.00  0.00    -0.200 F 
ENDBRANCH  51  74
ENDBRANCH  25  26
ENDBRANCH  18  20
ENDBRANCH  17  18
ENDBRANCH   1  17
TORSDOF 12
ENDMDL
MODEL 3
REMARK VINA RESULT:     -11.3      1.408      2.871
REMARK SMILES C[C@H]1CC=C(C2=NN=C(C(=O)OCCOC(=O)c3ccc(-c4c5nc(c(-c6c(F)c(F)c(F)c(F)c6F)c6ccc([nH]6)c(-c6c(F)c(F)c(F)c(F)c6F)c6nc(c(-c7c(F)c(F)c(F)c(F)c7F)c7ccc4[nH]7)C=C6)C=C5)cc3)C2)O1
REMARK SMILES IDX 14 1 13 2 12 3 10 4 11 5 9 6 6 7 7 8 81 9 8 10 5 11 1 12
REMARK SMILES IDX 2 13 3 14 82 15 4 16 15 17 16 18 17 19 18 20 19 21 80 22
REMARK SMILES IDX 20 23 79 24 21 25 22 26 23 27 73 28 24 29 78 30 72 31 74 32
REMARK SMILES IDX 25 33 77 34 71 35 70 36 26 38 58 39 38 40 57 41 39 42 42 43
REMARK SMILES IDX 56 44 75 45 40 46 41 47 55 49 76 50 43 51 27 52 28 53 36 54
REMARK SMILES IDX 29 55 30 56 34 57 37 58 31 59 32 60 35 61 33 62 59 63 60 64
REMARK SMILES IDX 68 65 61 66 62 67 66 68 69 69 63 70 64 71 67 72 65 73 44 74
REMARK SMILES IDX 45 75 53 76 46 77 47 78 51 79 54 80 48 81 49 82 52 83 50 84
REMARK H PARENT 74 37 42 48
REMARK Flexibility Score: inf
ROOT
ATOM      1  C   UNL A   1      44.882  21.572  25.542  1.00  0.00     0.275 C 
ENDROOT
BRANCH   1   2
ATOM      2  C   UNL A   1      44.232  20.324  24.955  1.00  0.00     0.275 C 
BRANCH   2   3
ATOM      3  O   UNL A   1      44.050  19.303  25.953  1.00  0.00    -0.458 OA
BRANCH   3   4
ATOM      4  C   UNL A   1      42.830  18.735  26.004  1.00  0.00     0.355 C 
ATOM      5  O   UNL A   1      42.538  17.570  25.766  1.00  0.00    -0.245 OA
BRANCH   4   6
ATOM      6  C   UNL A   1      41.795  19.669  26.563  1.00  0.00     0.154 C 
ATOM      7  C   UNL A   1      40.094  21.101  26.680  1.00  0.00     0.111 C 
ATOM      8  N   UNL A   1      40.753  21.156  27.799  1.00  0.00    -0.151 NA
ATOM      9  C   UNL A   1      40.623  20.072  25.739  1.00  0.00     0.128 C 
ATOM     10  N   UNL A   1      41.846  20.234  27.730  1.00  0.00    -0.147 NA
BRANCH   7  11
ATOM     11  C   UNL A   1      39.004  22.006  26.279  1.00  0.00     0.139 C 
ATOM     12  C   UNL A   1      35.845  22.771  25.072  1.00  0.00     0.053 C 
ATOM     13  C   UNL A   1      37.362  22.917  25.070  1.00  0.00     0.174 C 
ATOM     14  C   UNL A   1      37.849  23.963  26.082  1.00  0.00     0.076 C 
ATOM     15  O   UNL A   1      38.011  21.651  25.373  1.00  0.00    -0.489 OA
ATOM     16  C   UNL A   1      39.001  23.271  26.687  1.00  0.00     0.025 C 
ENDBRANCH   7  11
ENDBRANCH   4   6
ENDBRANCH   3   4
ENDBRANCH   2   3
ENDBRANCH   1   2
BRANCH   1  17
ATOM     17  O   UNL A   1      43.927  22.346  26.265  1.00  0.00    -0.458 OA
BRANCH  17  18
ATOM     18  C   UNL A   1      43.395  23.379  25.573  1.00  0.00     0.338 C 
ATOM     19  O   UNL A   1      43.745  23.798  24.486  1.00  0.00    -0.246 OA
BRANCH  18  20
ATOM     20  C   UNL A   1      42.458  24.109  26.428  1.00  0.00     0.060 A 
ATOM     21  C   UNL A   1      41.779  25.159  25.797  1.00  0.00     0.016 A 
ATOM     22  C   UNL A   1      42.652  24.056  27.813  1.00  0.00     0.016 A 
ATOM     23  C   UNL A   1      41.565  26.305  26.518  1.00  0.00     0.010 A 
ATOM     24  C   UNL A   1      42.470  25.211  28.520  1.00  0.00     0.010 A 
ATOM     25  C   UNL A   1      42.025  26.340  27.835  1.00  0.00    -0.014 A 
BRANCH  25  26
ATOM     26  C   UNL A   1      41.937  27.590  28.547  1.00  0.00     0.031 A 
ATOM     27  C   UNL A   1      43.093  28.461  28.251  1.00  0.00     0.074 A 
ATOM     28  C   UNL A   1      40.839  27.899  29.260  1.00  0.00     0.049 A 
ATOM     29  N   UNL A   1      44.003  28.878  29.064  1.00  0.00    -0.248 NA
ATOM     30  C   UNL A   1      43.392  28.718  26.829  1.00  0.00     0.031 C 
ATOM     31  C   UNL A   1      39.584  27.145  29.358  1.00  0.00     0.029 A 
ATOM     32  N   UNL A   1      40.572  29.027  29.967  1.00  0.00    -0.354 N 
ATOM     33  C   UNL A   1      44.871  29.629  28.278  1.00  0.00     0.074 A 
ATOM     34  C   UNL A   1      44.586  29.300  26.911  1.00  0.00     0.031 C 
ATOM     35  C   UNL A   1      38.623  27.939  29.883  1.00  0.00     0.029 A 
ATOM     36  C   UNL A   1      39.226  29.203  30.266  1.00  0.00     0.049 A 
ATOM     37  H   UNL A   1      41.269  29.664  30.244  1.00  0.00     0.167 HD
ATOM     38  C   UNL A   1      45.519  30.702  28.801  1.00  0.00     0.037 A 
ATOM     39  C   UNL A   1      38.663  30.356  30.704  1.00  0.00     0.037 A 
ATOM     40  C   UNL A   1      45.554  30.629  30.239  1.00  0.00     0.049 A 
ATOM     41  C   UNL A   1      39.762  31.213  31.214  1.00  0.00     0.074 A 
ATOM     42  C   UNL A   1      46.144  29.792  31.163  1.00  0.00     0.029 A 
ATOM     43  N   UNL A   1      44.568  31.311  30.906  1.00  0.00    -0.354 N 
ATOM     44  N   UNL A   1      40.458  30.934  32.281  1.00  0.00    -0.248 NA
ATOM     45  C   UNL A   1      40.392  32.146  30.290  1.00  0.00     0.031 C 
ATOM     46  C   UNL A   1      45.233  29.733  32.259  1.00  0.00     0.029 A 
ATOM     47  C   UNL A   1      44.153  30.572  31.980  1.00  0.00     0.049 A 
ATOM     48  H   UNL A   1      44.214  32.194  30.651  1.00  0.00     0.167 HD
ATOM     49  C   UNL A   1      41.759  31.305  31.966  1.00  0.00     0.074 A 
ATOM     50  C   UNL A   1      41.634  32.150  30.783  1.00  0.00     0.031 C 
ATOM     51  C   UNL A   1      42.816  30.645  32.524  1.00  0.00     0.037 A 
BRANCH  38  52
ATOM     52  C   UNL A   1      45.683  32.010  28.058  1.00  0.00     0.064 A 
ATOM     53  C   UNL A   1      44.527  32.697  27.647  1.00  0.00     0.173 A 
ATOM     54  C   UNL A   1      46.891  32.449  27.465  1.00  0.00     0.173 A 
ATOM     55  F   UNL A   1      43.323  32.358  28.133  1.00  0.00    -0.203 F 
ATOM     56  C   UNL A   1      44.566  33.680  26.654  1.00  0.00     0.198 A 
ATOM     57  C   UNL A   1      46.933  33.467  26.517  1.00  0.00     0.198 A 
ATOM     58  F   UNL A   1      48.066  31.847  27.681  1.00  0.00    -0.203 F 
ATOM     59  F   UNL A   1      43.423  34.211  26.200  1.00  0.00    -0.200 F 
ATOM     60  C   UNL A   1      45.768  34.058  26.085  1.00  0.00     0.200 A 
ATOM     61  F   UNL A   1      48.108  33.803  25.966  1.00  0.00    -0.200 F 
ATOM     62  F   UNL A   1      45.801  34.949  25.087  1.00  0.00    -0.200 F 
ENDBRANCH  38  52
BRANCH  39  63
ATOM     63  C   UNL A   1      37.317  30.884  30.385  1.00  0.00     0.064 A 
ATOM     64  C   UNL A   1      36.428  31.281  31.395  1.00  0.00     0.173 A 
ATOM     65  C   UNL A   1      36.979  31.257  29.068  1.00  0.00     0.173 A 
ATOM     66  F   UNL A   1      36.706  31.013  32.679  1.00  0.00    -0.203 F 
ATOM     67  C   UNL A   1      35.270  32.012  31.105  1.00  0.00     0.198 A 
ATOM     68  C   UNL A   1      35.823  31.982  28.779  1.00  0.00     0.198 A 
ATOM     69  F   UNL A   1      37.813  31.004  28.049  1.00  0.00    -0.203 F 
ATOM     70  F   UNL A   1      34.468  32.418  32.099  1.00  0.00    -0.200 F 
ATOM     71  C   UNL A   1      34.973  32.368  29.798  1.00  0.00     0.200 A 
ATOM     72  F   UNL A   1      35.572  32.355  27.517  1.00  0.00    -0.200 F 
ATOM     73  F   UNL A   1      33.895  33.116  29.526  1.00  0.00    -0.200 F 
ENDBRANCH  39  63
BRANCH  51  74
ATOM     74  C   UNL A   1      42.510  29.753  33.696  1.00  0.00     0.064 A 
ATOM     75  C   UNL A   1      42.135  28.403  33.580  1.00  0.00     0.173 A 
ATOM     76  C   UNL A   1      42.710  30.258  34.985  1.00  0.00     0.173 A 
ATOM     77  F   UNL A   1      42.021  27.821  32.380  1.00  0.00    -0.203 F 
ATOM     78  C   UNL A   1      41.919  27.612  34.708  1.00  0.00     0.198 A 
ATOM     79  C   UNL A   1      42.531  29.457  36.109  1.00  0.00     0.198 A 
ATOM     80  F   UNL A   1      43.123  31.524  35.153  1.00  0.00    -0.203 F 
ATOM     81  F   UNL A   1      41.542  26.332  34.571  1.00  0.00    -0.200 F 
ATOM     82  C   UNL A   1      42.123  28.140  35.972  1.00  0.00     0.200 A 
ATOM     83  F   UNL A   1      42.778  29.958  37.327  1.00  0.00    -0.200 F 
ATOM     84  F   UNL A   1      41.953  27.372  37.057  1.00  0.00    -0.200 F 
ENDBRANCH  51  74
ENDBRANCH  25  26
ENDBRANCH  18  20
ENDBRANCH  17  18
ENDBRANCH   1  17
TORSDOF 12
ENDMDL
