MODEL 1
REMARK VINA RESULT:     -10.7      0.000      0.000
REMARK SMILES C[C@H]1C[C@](C(=O)OCCOC(=O)c2ccc(-c3c4nc(c(-c5c(F)c(F)c(F)c(F)c5F)c5ccc([nH]5)c(-c5c(F)c(F)c(F)c(F)c5F)c5nc(c(-c6c(F)c(F)c(F)c(F)c6F)c6ccc3[nH]6)C=C5)C=C4)cc2)(N(C=O)C2CC2)CS1
REMARK SMILES IDX 8 1 7 2 5 3 6 4 4 5 1 6 2 7 3 8 83 9 82 10 76 11 77 12 78 13
REMARK SMILES IDX 79 14 80 15 81 16 9 17 10 18 11 19 12 20 13 21 14 22 75 23
REMARK SMILES IDX 15 24 74 25 16 26 17 27 18 28 68 29 19 30 73 31 67 32 69 33
REMARK SMILES IDX 20 34 72 35 66 36 65 37 21 39 53 40 33 41 52 42 34 43 37 44
REMARK SMILES IDX 51 45 70 46 35 47 36 48 50 50 71 51 38 52 22 53 23 54 31 55
REMARK SMILES IDX 24 56 25 57 29 58 32 59 26 60 27 61 30 62 28 63 54 64 55 65
REMARK SMILES IDX 63 66 56 67 57 68 61 69 64 70 58 71 59 72 62 73 60 74 39 75
REMARK SMILES IDX 40 76 48 77 41 78 42 79 46 80 49 81 43 82 44 83 47 84 45 85
REMARK H PARENT 69 38 37 49
REMARK Flexibility Score: inf
ROOT
ATOM      1  C   UNL A   1      31.726  28.544  26.739  1.00  0.00     0.274 C 
ENDROOT
BRANCH   1   2
ATOM      2  O   UNL A   1      31.648  27.532  25.710  1.00  0.00    -0.460 OA
BRANCH   2   3
ATOM      3  C   UNL A   1      32.660  26.623  25.618  1.00  0.00     0.333 C 
ATOM      4  O   UNL A   1      33.655  26.636  26.334  1.00  0.00    -0.249 OA
BRANCH   3   5
ATOM      5  C   UNL A   1      32.441  25.585  24.476  1.00  0.00     0.150 C 
ATOM      6  C   UNL A   1      33.640  27.911  22.383  1.00  0.00     0.019 C 
ATOM      7  C   UNL A   1      33.443  26.407  22.250  1.00  0.00     0.046 C 
ATOM      8  C   UNL A   1      33.678  25.588  23.519  1.00  0.00     0.055 C 
ATOM      9  S   UNL A   1      31.727  26.009  21.878  1.00  0.00    -0.156 SA
ATOM     10  C   UNL A   1      31.236  26.081  23.624  1.00  0.00     0.110 C 
BRANCH   5  11
ATOM     11  N   UNL A   1      32.205  24.226  25.081  1.00  0.00    -0.325 N 
BRANCH  11  12
ATOM     12  C   UNL A   1      31.215  24.015  26.038  1.00  0.00     0.341 C 
ATOM     13  O   UNL A   1      31.373  24.012  27.252  1.00  0.00    -0.279 OA
ENDBRANCH  11  12
BRANCH  11  14
ATOM     14  C   UNL A   1      33.082  23.109  24.786  1.00  0.00     0.086 C 
ATOM     15  C   UNL A   1      32.925  21.702  25.311  1.00  0.00     0.027 C 
ATOM     16  C   UNL A   1      32.589  21.995  23.887  1.00  0.00     0.027 C 
ENDBRANCH  11  14
ENDBRANCH   5  11
ENDBRANCH   3   5
ENDBRANCH   2   3
ENDBRANCH   1   2
BRANCH   1  17
ATOM     17  C   UNL A   1      31.780  29.938  26.115  1.00  0.00     0.275 C 
BRANCH  17  18
ATOM     18  O   UNL A   1      33.134  30.403  26.195  1.00  0.00    -0.458 OA
BRANCH  18  19
ATOM     19  C   UNL A   1      33.375  31.418  27.055  1.00  0.00     0.338 C 
ATOM     20  O   UNL A   1      32.681  32.399  27.243  1.00  0.00    -0.246 OA
BRANCH  19  21
ATOM     21  C   UNL A   1      34.640  31.130  27.779  1.00  0.00     0.060 A 
ATOM     22  C   UNL A   1      34.887  29.849  28.278  1.00  0.00     0.016 A 
ATOM     23  C   UNL A   1      35.567  32.145  28.012  1.00  0.00     0.016 A 
ATOM     24  C   UNL A   1      36.019  29.589  29.043  1.00  0.00     0.010 A 
ATOM     25  C   UNL A   1      36.751  31.860  28.707  1.00  0.00     0.010 A 
ATOM     26  C   UNL A   1      36.983  30.579  29.239  1.00  0.00    -0.014 A 
BRANCH  26  27
ATOM     27  C   UNL A   1      38.206  30.270  30.025  1.00  0.00     0.031 A 
ATOM     28  C   UNL A   1      39.264  29.381  29.437  1.00  0.00     0.074 A 
ATOM     29  C   UNL A   1      38.393  30.807  31.248  1.00  0.00     0.049 A 
ATOM     30  N   UNL A   1      40.295  28.824  30.019  1.00  0.00    -0.248 NA
ATOM     31  C   UNL A   1      39.144  29.077  28.002  1.00  0.00     0.031 C 
ATOM     32  C   UNL A   1      37.491  31.754  31.909  1.00  0.00     0.029 A 
ATOM     33  N   UNL A   1      39.411  30.634  32.156  1.00  0.00    -0.354 N 
ATOM     34  C   UNL A   1      40.908  28.055  29.040  1.00  0.00     0.074 A 
ATOM     35  C   UNL A   1      40.150  28.232  27.820  1.00  0.00     0.031 C 
ATOM     36  C   UNL A   1      38.004  32.092  33.103  1.00  0.00     0.029 A 
ATOM     37  C   UNL A   1      39.220  31.319  33.332  1.00  0.00     0.049 A 
ATOM     38  H   UNL A   1      40.201  30.074  31.980  1.00  0.00     0.167 HD
ATOM     39  C   UNL A   1      41.998  27.262  29.159  1.00  0.00     0.037 A 
ATOM     40  C   UNL A   1      39.912  31.284  34.488  1.00  0.00     0.037 A 
ATOM     41  C   UNL A   1      42.782  27.132  30.358  1.00  0.00     0.049 A 
ATOM     42  C   UNL A   1      41.096  30.364  34.605  1.00  0.00     0.074 A 
ATOM     43  C   UNL A   1      43.903  26.350  30.577  1.00  0.00     0.029 A 
ATOM     44  N   UNL A   1      42.537  27.819  31.537  1.00  0.00    -0.354 N 
ATOM     45  N   UNL A   1      41.622  29.575  33.701  1.00  0.00    -0.248 NA
ATOM     46  C   UNL A   1      41.764  30.308  35.913  1.00  0.00     0.031 C 
ATOM     47  C   UNL A   1      44.321  26.544  31.897  1.00  0.00     0.029 A 
ATOM     48  C   UNL A   1      43.479  27.470  32.490  1.00  0.00     0.049 A 
ATOM     49  H   UNL A   1      41.802  28.459  31.675  1.00  0.00     0.167 HD
ATOM     50  C   UNL A   1      42.682  28.935  34.326  1.00  0.00     0.074 A 
ATOM     51  C   UNL A   1      42.742  29.444  35.680  1.00  0.00     0.031 C 
ATOM     52  C   UNL A   1      43.524  27.997  33.828  1.00  0.00     0.037 A 
BRANCH  39  53
ATOM     53  C   UNL A   1      42.386  26.432  27.975  1.00  0.00     0.064 A 
ATOM     54  C   UNL A   1      41.821  25.173  27.733  1.00  0.00     0.173 A 
ATOM     55  C   UNL A   1      43.300  26.939  27.038  1.00  0.00     0.173 A 
ATOM     56  F   UNL A   1      40.957  24.642  28.610  1.00  0.00    -0.203 F 
ATOM     57  C   UNL A   1      42.163  24.446  26.595  1.00  0.00     0.198 A 
ATOM     58  C   UNL A   1      43.624  26.217  25.893  1.00  0.00     0.198 A 
ATOM     59  F   UNL A   1      43.868  28.138  27.228  1.00  0.00    -0.203 F 
ATOM     60  F   UNL A   1      41.631  23.232  26.394  1.00  0.00    -0.200 F 
ATOM     61  C   UNL A   1      43.057  24.971  25.673  1.00  0.00     0.200 A 
ATOM     62  F   UNL A   1      44.483  26.730  25.000  1.00  0.00    -0.200 F 
ATOM     63  F   UNL A   1      43.375  24.274  24.574  1.00  0.00    -0.200 F 
ENDBRANCH  39  53
BRANCH  40  64
ATOM     64  C   UNL A   1      39.460  32.088  35.655  1.00  0.00     0.064 A 
ATOM     65  C   UNL A   1      38.531  31.577  36.571  1.00  0.00     0.173 A 
ATOM     66  C   UNL A   1      39.927  33.395  35.861  1.00  0.00     0.173 A 
ATOM     67  F   UNL A   1      38.029  30.344  36.398  1.00  0.00    -0.203 F 
ATOM     68  C   UNL A   1      38.076  32.347  37.639  1.00  0.00     0.198 A 
ATOM     69  C   UNL A   1      39.496  34.152  36.947  1.00  0.00     0.198 A 
ATOM     70  F   UNL A   1      40.813  33.934  35.010  1.00  0.00    -0.203 F 
ATOM     71  F   UNL A   1      37.149  31.853  38.472  1.00  0.00    -0.200 F 
ATOM     72  C   UNL A   1      38.564  33.631  37.830  1.00  0.00     0.200 A 
ATOM     73  F   UNL A   1      39.979  35.388  37.133  1.00  0.00    -0.200 F 
ATOM     74  F   UNL A   1      38.127  34.371  38.859  1.00  0.00    -0.200 F 
ENDBRANCH  40  64
BRANCH  52  75
ATOM     75  C   UNL A   1      44.593  27.484  34.744  1.00  0.00     0.064 A 
ATOM     76  C   UNL A   1      45.831  28.132  34.853  1.00  0.00     0.173 A 
ATOM     77  C   UNL A   1      44.363  26.357  35.546  1.00  0.00     0.173 A 
ATOM     78  F   UNL A   1      46.101  29.204  34.093  1.00  0.00    -0.203 F 
ATOM     79  C   UNL A   1      46.810  27.657  35.721  1.00  0.00     0.198 A 
ATOM     80  C   UNL A   1      45.337  25.898  36.428  1.00  0.00     0.198 A 
ATOM     81  F   UNL A   1      43.190  25.707  35.478  1.00  0.00    -0.203 F 
ATOM     82  F   UNL A   1      48.002  28.268  35.782  1.00  0.00    -0.200 F 
ATOM     83  C   UNL A   1      46.560  26.544  36.511  1.00  0.00     0.200 A 
ATOM     84  F   UNL A   1      45.090  24.827  37.197  1.00  0.00    -0.200 F 
ATOM     85  F   UNL A   1      47.503  26.090  37.347  1.00  0.00    -0.200 F 
ENDBRANCH  52  75
ENDBRANCH  26  27
ENDBRANCH  19  21
ENDBRANCH  18  19
ENDBRANCH  17  18
ENDBRANCH   1  17
TORSDOF 14
ENDMDL
MODEL 2
REMARK VINA RESULT:     -10.6      4.546      9.658
REMARK SMILES C[C@H]1C[C@](C(=O)OCCOC(=O)c2ccc(-c3c4nc(c(-c5c(F)c(F)c(F)c(F)c5F)c5ccc([nH]5)c(-c5c(F)c(F)c(F)c(F)c5F)c5nc(c(-c6c(F)c(F)c(F)c(F)c6F)c6ccc3[nH]6)C=C5)C=C4)cc2)(N(C=O)C2CC2)CS1
REMARK SMILES IDX 8 1 7 2 5 3 6 4 4 5 1 6 2 7 3 8 83 9 82 10 76 11 77 12 78 13
REMARK SMILES IDX 79 14 80 15 81 16 9 17 10 18 11 19 12 20 13 21 14 22 75 23
REMARK SMILES IDX 15 24 74 25 16 26 17 27 18 28 68 29 19 30 73 31 67 32 69 33
REMARK SMILES IDX 20 34 72 35 66 36 65 37 21 39 53 40 33 41 52 42 34 43 37 44
REMARK SMILES IDX 51 45 70 46 35 47 36 48 50 50 71 51 38 52 22 53 23 54 31 55
REMARK SMILES IDX 24 56 25 57 29 58 32 59 26 60 27 61 30 62 28 63 54 64 55 65
REMARK SMILES IDX 63 66 56 67 57 68 61 69 64 70 58 71 59 72 62 73 60 74 39 75
REMARK SMILES IDX 40 76 48 77 41 78 42 79 46 80 49 81 43 82 44 83 47 84 45 85
REMARK H PARENT 69 38 37 49
REMARK Flexibility Score: inf
ROOT
ATOM      1  C   UNL A   1      36.513  22.304  23.699  1.00  0.00     0.274 C 
ENDROOT
BRANCH   1   2
ATOM      2  O   UNL A   1      35.528  23.305  24.037  1.00  0.00    -0.460 OA
BRANCH   2   3
ATOM      3  C   UNL A   1      34.390  23.371  23.288  1.00  0.00     0.333 C 
ATOM      4  O   UNL A   1      34.376  23.328  22.063  1.00  0.00    -0.249 OA
BRANCH   3   5
ATOM      5  C   UNL A   1      33.104  23.547  24.152  1.00  0.00     0.150 C 
ATOM      6  C   UNL A   1      32.067  25.728  21.829  1.00  0.00     0.019 C 
ATOM      7  C   UNL A   1      31.339  24.974  22.934  1.00  0.00     0.046 C 
ATOM      8  C   UNL A   1      31.845  23.561  23.224  1.00  0.00     0.055 C 
ATOM      9  S   UNL A   1      31.576  25.775  24.529  1.00  0.00    -0.156 SA
ATOM     10  C   UNL A   1      33.174  24.959  24.805  1.00  0.00     0.110 C 
BRANCH   5  11
ATOM     11  N   UNL A   1      33.035  22.439  25.169  1.00  0.00    -0.325 N 
BRANCH  11  12
ATOM     12  C   UNL A   1      32.806  21.117  24.794  1.00  0.00     0.341 C 
ATOM     13  O   UNL A   1      31.814  20.453  25.062  1.00  0.00    -0.279 OA
ENDBRANCH  11  12
BRANCH  11  14
ATOM     14  C   UNL A   1      33.079  22.720  26.592  1.00  0.00     0.086 C 
ATOM     15  C   UNL A   1      33.601  21.789  27.659  1.00  0.00     0.027 C 
ATOM     16  C   UNL A   1      34.415  22.974  27.259  1.00  0.00     0.027 C 
ENDBRANCH  11  14
ENDBRANCH   5  11
ENDBRANCH   3   5
ENDBRANCH   2   3
ENDBRANCH   1   2
BRANCH   1  17
ATOM     17  C   UNL A   1      36.580  21.231  24.786  1.00  0.00     0.275 C 
BRANCH  17  18
ATOM     18  O   UNL A   1      37.276  21.787  25.909  1.00  0.00    -0.458 OA
BRANCH  18  19
ATOM     19  C   UNL A   1      38.584  21.465  26.030  1.00  0.00     0.338 C 
ATOM     20  O   UNL A   1      39.100  20.392  25.782  1.00  0.00    -0.246 OA
BRANCH  19  21
ATOM     21  C   UNL A   1      39.322  22.667  26.498  1.00  0.00     0.060 A 
ATOM     22  C   UNL A   1      38.944  23.937  26.059  1.00  0.00     0.016 A 
ATOM     23  C   UNL A   1      40.428  22.533  27.337  1.00  0.00     0.016 A 
ATOM     24  C   UNL A   1      39.686  25.061  26.408  1.00  0.00     0.010 A 
ATOM     25  C   UNL A   1      41.122  23.676  27.761  1.00  0.00     0.010 A 
ATOM     26  C   UNL A   1      40.763  24.952  27.290  1.00  0.00    -0.014 A 
BRANCH  26  27
ATOM     27  C   UNL A   1      41.517  26.170  27.684  1.00  0.00     0.031 A 
ATOM     28  C   UNL A   1      40.860  27.205  28.551  1.00  0.00     0.074 A 
ATOM     29  C   UNL A   1      42.799  26.341  27.301  1.00  0.00     0.049 A 
ATOM     30  N   UNL A   1      41.256  28.418  28.838  1.00  0.00    -0.248 NA
ATOM     31  C   UNL A   1      39.584  26.825  29.178  1.00  0.00     0.031 C 
ATOM     32  C   UNL A   1      43.592  25.379  26.530  1.00  0.00     0.029 A 
ATOM     33  N   UNL A   1      43.665  27.387  27.511  1.00  0.00    -0.354 N 
ATOM     34  C   UNL A   1      40.252  28.966  29.622  1.00  0.00     0.074 A 
ATOM     35  C   UNL A   1      39.236  27.949  29.789  1.00  0.00     0.031 C 
ATOM     36  C   UNL A   1      44.828  25.871  26.350  1.00  0.00     0.029 A 
ATOM     37  C   UNL A   1      44.889  27.216  26.911  1.00  0.00     0.049 A 
ATOM     38  H   UNL A   1      43.431  28.182  28.041  1.00  0.00     0.167 HD
ATOM     39  C   UNL A   1      40.183  30.214  30.143  1.00  0.00     0.037 A 
ATOM     40  C   UNL A   1      45.925  28.068  26.774  1.00  0.00     0.037 A 
ATOM     41  C   UNL A   1      41.219  31.204  30.023  1.00  0.00     0.049 A 
ATOM     42  C   UNL A   1      45.804  29.461  27.328  1.00  0.00     0.074 A 
ATOM     43  C   UNL A   1      41.239  32.498  30.515  1.00  0.00     0.029 A 
ATOM     44  N   UNL A   1      42.430  31.001  29.380  1.00  0.00    -0.354 N 
ATOM     45  N   UNL A   1      44.817  30.001  27.999  1.00  0.00    -0.248 NA
ATOM     46  C   UNL A   1      46.931  30.372  27.081  1.00  0.00     0.031 C 
ATOM     47  C   UNL A   1      42.452  33.087  30.146  1.00  0.00     0.029 A 
ATOM     48  C   UNL A   1      43.200  32.150  29.453  1.00  0.00     0.049 A 
ATOM     49  H   UNL A   1      42.702  30.165  28.938  1.00  0.00     0.167 HD
ATOM     50  C   UNL A   1      45.203  31.309  28.257  1.00  0.00     0.074 A 
ATOM     51  C   UNL A   1      46.526  31.475  27.693  1.00  0.00     0.031 C 
ATOM     52  C   UNL A   1      44.518  32.290  28.892  1.00  0.00     0.037 A 
BRANCH  39  53
ATOM     53  C   UNL A   1      38.923  30.601  30.853  1.00  0.00     0.064 A 
ATOM     54  C   UNL A   1      38.789  30.488  32.243  1.00  0.00     0.173 A 
ATOM     55  C   UNL A   1      37.853  31.149  30.127  1.00  0.00     0.173 A 
ATOM     56  F   UNL A   1      39.777  29.954  32.975  1.00  0.00    -0.203 F 
ATOM     57  C   UNL A   1      37.623  30.904  32.882  1.00  0.00     0.198 A 
ATOM     58  C   UNL A   1      36.698  31.580  30.772  1.00  0.00     0.198 A 
ATOM     59  F   UNL A   1      37.935  31.275  28.795  1.00  0.00    -0.203 F 
ATOM     60  F   UNL A   1      37.503  30.765  34.210  1.00  0.00    -0.200 F 
ATOM     61  C   UNL A   1      36.583  31.457  32.148  1.00  0.00     0.200 A 
ATOM     62  F   UNL A   1      35.698  32.121  30.061  1.00  0.00    -0.200 F 
ATOM     63  F   UNL A   1      35.468  31.867  32.767  1.00  0.00    -0.200 F 
ENDBRANCH  39  53
BRANCH  40  64
ATOM     64  C   UNL A   1      47.136  27.657  26.016  1.00  0.00     0.064 A 
ATOM     65  C   UNL A   1      47.176  27.731  24.617  1.00  0.00     0.173 A 
ATOM     66  C   UNL A   1      48.269  27.155  26.674  1.00  0.00     0.173 A 
ATOM     67  F   UNL A   1      46.106  28.174  23.940  1.00  0.00    -0.203 F 
ATOM     68  C   UNL A   1      48.296  27.306  23.906  1.00  0.00     0.198 A 
ATOM     69  C   UNL A   1      49.400  26.760  25.965  1.00  0.00     0.198 A 
ATOM     70  F   UNL A   1      48.280  27.057  28.013  1.00  0.00    -0.203 F 
ATOM     71  F   UNL A   1      48.289  27.340  22.566  1.00  0.00    -0.200 F 
ATOM     72  C   UNL A   1      49.409  26.827  24.581  1.00  0.00     0.200 A 
ATOM     73  F   UNL A   1      50.476  26.308  26.622  1.00  0.00    -0.200 F 
ATOM     74  F   UNL A   1      50.487  26.419  23.896  1.00  0.00    -0.200 F 
ENDBRANCH  40  64
BRANCH  52  75
ATOM     75  C   UNL A   1      45.198  33.617  29.032  1.00  0.00     0.064 A 
ATOM     76  C   UNL A   1      45.018  34.631  28.080  1.00  0.00     0.173 A 
ATOM     77  C   UNL A   1      46.006  33.890  30.144  1.00  0.00     0.173 A 
ATOM     78  F   UNL A   1      44.266  34.409  26.991  1.00  0.00    -0.203 F 
ATOM     79  C   UNL A   1      45.640  35.866  28.229  1.00  0.00     0.198 A 
ATOM     80  C   UNL A   1      46.610  35.134  30.300  1.00  0.00     0.198 A 
ATOM     81  F   UNL A   1      46.203  32.951  31.083  1.00  0.00    -0.203 F 
ATOM     82  F   UNL A   1      45.487  36.810  27.289  1.00  0.00    -0.200 F 
ATOM     83  C   UNL A   1      46.431  36.119  29.341  1.00  0.00     0.200 A 
ATOM     84  F   UNL A   1      47.366  35.379  31.380  1.00  0.00    -0.200 F 
ATOM     85  F   UNL A   1      47.027  37.310  29.484  1.00  0.00    -0.200 F 
ENDBRANCH  52  75
ENDBRANCH  26  27
ENDBRANCH  19  21
ENDBRANCH  18  19
ENDBRANCH  17  18
ENDBRANCH   1  17
TORSDOF 14
ENDMDL
MODEL 3
REMARK VINA RESULT:     -10.5      4.459      9.698
REMARK SMILES C[C@H]1C[C@](C(=O)OCCOC(=O)c2ccc(-c3c4nc(c(-c5c(F)c(F)c(F)c(F)c5F)c5ccc([nH]5)c(-c5c(F)c(F)c(F)c(F)c5F)c5nc(c(-c6c(F)c(F)c(F)c(F)c6F)c6ccc3[nH]6)C=C5)C=C4)cc2)(N(C=O)C2CC2)CS1
REMARK SMILES IDX 8 1 7 2 5 3 6 4 4 5 1 6 2 7 3 8 83 9 82 10 76 11 77 12 78 13
REMARK SMILES IDX 79 14 80 15 81 16 9 17 10 18 11 19 12 20 13 21 14 22 75 23
REMARK SMILES IDX 15 24 74 25 16 26 17 27 18 28 68 29 19 30 73 31 67 32 69 33
REMARK SMILES IDX 20 34 72 35 66 36 65 37 21 39 53 40 33 41 52 42 34 43 37 44
REMARK SMILES IDX 51 45 70 46 35 47 36 48 50 50 71 51 38 52 22 53 23 54 31 55
REMARK SMILES IDX 24 56 25 57 29 58 32 59 26 60 27 61 30 62 28 63 54 64 55 65
REMARK SMILES IDX 63 66 56 67 57 68 61 69 64 70 58 71 59 72 62 73 60 74 39 75
REMARK SMILES IDX 40 76 48 77 41 78 42 79 46 80 49 81 43 82 44 83 47 84 45 85
REMARK H PARENT 69 38 37 49
REMARK Flexibility Score: inf
ROOT
ATOM      1  C   UNL A   1      36.607  22.609  23.554  1.00  0.00     0.274 C 
ENDROOT
BRANCH   1   2
ATOM      2  O   UNL A   1      35.691  23.665  23.918  1.00  0.00    -0.460 OA
BRANCH   2   3
ATOM      3  C   UNL A   1      34.428  23.631  23.407  1.00  0.00     0.333 C 
ATOM      4  O   UNL A   1      34.128  23.051  22.369  1.00  0.00    -0.249 OA
BRANCH   3   5
ATOM      5  C   UNL A   1      33.405  24.441  24.260  1.00  0.00     0.150 C 
ATOM      6  C   UNL A   1      33.354  21.820  26.349  1.00  0.00     0.019 C 
ATOM      7  C   UNL A   1      32.910  23.269  26.501  1.00  0.00     0.046 C 
ATOM      8  C   UNL A   1      33.765  24.309  25.777  1.00  0.00     0.055 C 
ATOM      9  S   UNL A   1      31.300  23.535  25.740  1.00  0.00    -0.156 SA
ATOM     10  C   UNL A   1      32.015  23.759  24.087  1.00  0.00     0.110 C 
BRANCH   5  11
ATOM     11  N   UNL A   1      33.409  25.876  23.807  1.00  0.00    -0.325 N 
BRANCH  11  12
ATOM     12  C   UNL A   1      33.059  26.232  22.507  1.00  0.00     0.341 C 
ATOM     13  O   UNL A   1      33.827  26.366  21.563  1.00  0.00    -0.279 OA
ENDBRANCH  11  12
BRANCH  11  14
ATOM     14  C   UNL A   1      33.900  26.936  24.669  1.00  0.00     0.086 C 
ATOM     15  C   UNL A   1      33.796  28.416  24.393  1.00  0.00     0.027 C 
ATOM     16  C   UNL A   1      32.910  27.798  25.423  1.00  0.00     0.027 C 
ENDBRANCH  11  14
ENDBRANCH   5  11
ENDBRANCH   3   5
ENDBRANCH   2   3
ENDBRANCH   1   2
BRANCH   1  17
ATOM     17  C   UNL A   1      36.530  21.463  24.562  1.00  0.00     0.275 C 
BRANCH  17  18
ATOM     18  O   UNL A   1      37.159  21.901  25.773  1.00  0.00    -0.458 OA
BRANCH  18  19
ATOM     19  C   UNL A   1      38.443  21.520  25.961  1.00  0.00     0.338 C 
ATOM     20  O   UNL A   1      38.919  20.421  25.748  1.00  0.00    -0.246 OA
BRANCH  19  21
ATOM     21  C   UNL A   1      39.214  22.691  26.452  1.00  0.00     0.060 A 
ATOM     22  C   UNL A   1      38.801  23.987  26.134  1.00  0.00     0.016 A 
ATOM     23  C   UNL A   1      40.382  22.508  27.191  1.00  0.00     0.016 A 
ATOM     24  C   UNL A   1      39.566  25.089  26.501  1.00  0.00     0.010 A 
ATOM     25  C   UNL A   1      41.106  23.623  27.637  1.00  0.00     0.010 A 
ATOM     26  C   UNL A   1      40.709  24.926  27.287  1.00  0.00    -0.014 A 
BRANCH  26  27
ATOM     27  C   UNL A   1      41.490  26.119  27.704  1.00  0.00     0.031 A 
ATOM     28  C   UNL A   1      40.851  27.159  28.578  1.00  0.00     0.074 A 
ATOM     29  C   UNL A   1      42.780  26.262  27.335  1.00  0.00     0.049 A 
ATOM     30  N   UNL A   1      41.276  28.358  28.885  1.00  0.00    -0.248 NA
ATOM     31  C   UNL A   1      39.560  26.803  29.188  1.00  0.00     0.031 C 
ATOM     32  C   UNL A   1      43.556  25.291  26.559  1.00  0.00     0.029 A 
ATOM     33  N   UNL A   1      43.670  27.283  27.568  1.00  0.00    -0.354 N 
ATOM     34  C   UNL A   1      40.278  28.921  29.667  1.00  0.00     0.074 A 
ATOM     35  C   UNL A   1      39.235  27.928  29.810  1.00  0.00     0.031 C 
ATOM     36  C   UNL A   1      44.806  25.752  26.398  1.00  0.00     0.029 A 
ATOM     37  C   UNL A   1      44.895  27.088  26.977  1.00  0.00     0.049 A 
ATOM     38  H   UNL A   1      43.451  28.077  28.107  1.00  0.00     0.167 HD
ATOM     39  C   UNL A   1      40.235  30.163  30.204  1.00  0.00     0.037 A 
ATOM     40  C   UNL A   1      45.954  27.915  26.862  1.00  0.00     0.037 A 
ATOM     41  C   UNL A   1      41.298  31.128  30.108  1.00  0.00     0.049 A 
ATOM     42  C   UNL A   1      45.864  29.303  27.433  1.00  0.00     0.074 A 
ATOM     43  C   UNL A   1      41.345  32.414  30.616  1.00  0.00     0.029 A 
ATOM     44  N   UNL A   1      42.510  30.902  29.474  1.00  0.00    -0.354 N 
ATOM     45  N   UNL A   1      44.883  29.860  28.102  1.00  0.00    -0.248 NA
ATOM     46  C   UNL A   1      47.016  30.188  27.209  1.00  0.00     0.031 C 
ATOM     47  C   UNL A   1      42.577  32.977  30.267  1.00  0.00     0.029 A 
ATOM     48  C   UNL A   1      43.308  32.030  29.569  1.00  0.00     0.049 A 
ATOM     49  H   UNL A   1      42.764  30.065  29.023  1.00  0.00     0.167 HD
ATOM     50  C   UNL A   1      45.300  31.153  28.381  1.00  0.00     0.074 A 
ATOM     51  C   UNL A   1      46.633  31.293  27.833  1.00  0.00     0.031 C 
ATOM     52  C   UNL A   1      44.634  32.143  29.023  1.00  0.00     0.037 A 
BRANCH  39  53
ATOM     53  C   UNL A   1      38.978  30.573  30.907  1.00  0.00     0.064 A 
ATOM     54  C   UNL A   1      38.833  30.458  32.295  1.00  0.00     0.173 A 
ATOM     55  C   UNL A   1      37.925  31.144  30.175  1.00  0.00     0.173 A 
ATOM     56  F   UNL A   1      39.805  29.903  33.033  1.00  0.00    -0.203 F 
ATOM     57  C   UNL A   1      37.671  30.896  32.928  1.00  0.00     0.198 A 
ATOM     58  C   UNL A   1      36.774  31.597  30.814  1.00  0.00     0.198 A 
ATOM     59  F   UNL A   1      38.018  31.272  28.844  1.00  0.00    -0.203 F 
ATOM     60  F   UNL A   1      37.540  30.755  34.254  1.00  0.00    -0.200 F 
ATOM     61  C   UNL A   1      36.648  31.471  32.189  1.00  0.00     0.200 A 
ATOM     62  F   UNL A   1      35.790  32.159  30.098  1.00  0.00    -0.200 F 
ATOM     63  F   UNL A   1      35.536  31.902  32.802  1.00  0.00    -0.200 F 
ENDBRANCH  39  53
BRANCH  40  64
ATOM     64  C   UNL A   1      47.162  27.483  26.111  1.00  0.00     0.064 A 
ATOM     65  C   UNL A   1      48.249  26.889  26.766  1.00  0.00     0.173 A 
ATOM     66  C   UNL A   1      47.264  27.680  24.726  1.00  0.00     0.173 A 
ATOM     67  F   UNL A   1      48.213  26.710  28.095  1.00  0.00    -0.203 F 
ATOM     68  C   UNL A   1      49.398  26.523  26.066  1.00  0.00     0.198 A 
ATOM     69  C   UNL A   1      48.400  27.284  24.022  1.00  0.00     0.198 A 
ATOM     70  F   UNL A   1      46.254  28.249  24.051  1.00  0.00    -0.203 F 
ATOM     71  F   UNL A   1      50.444  26.004  26.725  1.00  0.00    -0.200 F 
ATOM     72  C   UNL A   1      49.469  26.715  24.695  1.00  0.00     0.200 A 
ATOM     73  F   UNL A   1      48.458  27.462  22.696  1.00  0.00    -0.200 F 
ATOM     74  F   UNL A   1      50.573  26.362  24.022  1.00  0.00    -0.200 F 
ENDBRANCH  40  64
BRANCH  52  75
ATOM     75  C   UNL A   1      45.346  33.451  29.187  1.00  0.00     0.064 A 
ATOM     76  C   UNL A   1      45.208  34.478  28.243  1.00  0.00     0.173 A 
ATOM     77  C   UNL A   1      46.144  33.691  30.315  1.00  0.00     0.173 A 
ATOM     78  F   UNL A   1      44.469  34.287  27.140  1.00  0.00    -0.203 F 
ATOM     79  C   UNL A   1      45.861  35.695  28.415  1.00  0.00     0.198 A 
ATOM     80  C   UNL A   1      46.777  34.917  30.493  1.00  0.00     0.198 A 
ATOM     81  F   UNL A   1      46.301  32.738  31.247  1.00  0.00    -0.203 F 
ATOM     82  F   UNL A   1      45.748  36.652  27.481  1.00  0.00    -0.200 F 
ATOM     83  C   UNL A   1      46.640  35.916  29.541  1.00  0.00     0.200 A 
ATOM     84  F   UNL A   1      47.522  35.131  31.587  1.00  0.00    -0.200 F 
ATOM     85  F   UNL A   1      47.265  37.089  29.706  1.00  0.00    -0.200 F 
ENDBRANCH  52  75
ENDBRANCH  26  27
ENDBRANCH  19  21
ENDBRANCH  18  19
ENDBRANCH  17  18
ENDBRANCH   1  17
TORSDOF 14
ENDMDL
