MODEL 1
REMARK VINA RESULT:     -14.7      0.000      0.000
REMARK SMILES O=C(OCCOC(=O)c1ccc(-c2c3nc(c(-c4c(F)c(F)c(F)c(F)c4F)c4ccc([nH]4)c(-c4c(F)c(F)c(F)c(F)c4F)c4nc(c(-c5c(F)c(F)c(F)c(F)c5F)c5ccc2[nH]5)C=C4)C=C3)cc1)C1=Cc2cc(Cl)cc(Cl)c2O[C@@H]1C(F)(F)F
REMARK SMILES IDX 5 1 4 2 3 3 2 4 1 5 72 6 73 7 83 8 74 9 82 10 75 11 81 12
REMARK SMILES IDX 76 13 79 14 77 15 78 16 80 17 84 18 85 19 86 20 87 21 6 22
REMARK SMILES IDX 7 23 8 24 9 25 10 26 71 27 11 28 70 29 12 30 13 31 14 32
REMARK SMILES IDX 64 33 15 34 69 35 63 36 65 37 16 38 68 39 62 40 61 41 17 43
REMARK SMILES IDX 49 44 29 45 48 46 30 47 33 48 47 49 66 50 31 51 32 52 46 54
REMARK SMILES IDX 67 55 34 56 18 57 19 58 27 59 20 60 21 61 25 62 28 63 22 64
REMARK SMILES IDX 23 65 26 66 24 67 50 68 51 69 59 70 52 71 53 72 57 73 60 74
REMARK SMILES IDX 54 75 55 76 58 77 56 78 35 79 36 80 44 81 37 82 38 83 42 84
REMARK SMILES IDX 45 85 39 86 40 87 43 88 41 89
REMARK H PARENT 65 42 33 53
REMARK Flexibility Score: inf
ROOT
ATOM      1  C   UNL A   1      31.403  32.269  26.874  1.00  0.00     0.275 C 
ENDROOT
BRANCH   1   2
ATOM      2  C   UNL A   1      32.023  30.418  25.932  1.00  0.00     0.275 C 
BRANCH   2   3
ATOM      3  O   UNL A   1      32.581  29.156  26.645  1.00  0.00    -0.459 OA
BRANCH   3   4
ATOM      4  C   UNL A   1      31.747  28.110  26.584  1.00  0.00     0.338 C 
ATOM      5  O   UNL A   1      31.096  27.588  27.453  1.00  0.00    -0.246 OA
BRANCH   4   6
ATOM      6  C   UNL A   1      32.253  27.618  25.324  1.00  0.00     0.087 C 
ATOM      7  C   UNL A   1      33.568  27.025  25.422  1.00  0.00     0.027 C 
ATOM      8  C   UNL A   1      30.636  26.716  24.819  1.00  0.00     0.316 C 
ATOM      9  C   UNL A   1      33.855  25.272  25.286  1.00  0.00     0.020 A 
ATOM     10  O   UNL A   1      30.901  24.791  24.772  1.00  0.00    -0.474 OA
ATOM     11  C   UNL A   1      35.129  24.839  25.511  1.00  0.00     0.032 A 
ATOM     12  C   UNL A   1      32.577  24.116  25.107  1.00  0.00     0.146 A 
ATOM     13  C   UNL A   1      35.267  23.448  25.587  1.00  0.00     0.043 A 
ATOM     14  C   UNL A   1      32.816  22.772  25.205  1.00  0.00     0.085 A 
ATOM     15  Cl  UNL A   1      36.871  22.860  25.891  1.00  0.00    -0.084 Cl
ATOM     16  C   UNL A   1      34.186  22.476  25.457  1.00  0.00     0.045 A 
ATOM     17  Cl  UNL A   1      31.645  21.549  25.110  1.00  0.00    -0.080 Cl
BRANCH   8  18
ATOM     18  C   UNL A   1      30.415  27.884  23.735  1.00  0.00     0.430 C 
ATOM     19  F   UNL A   1      31.475  28.177  23.019  1.00  0.00    -0.167 F 
ATOM     20  F   UNL A   1      29.539  27.433  22.785  1.00  0.00    -0.167 F 
ATOM     21  F   UNL A   1      29.847  29.031  24.176  1.00  0.00    -0.167 F 
ENDBRANCH   8  18
ENDBRANCH   4   6
ENDBRANCH   3   4
ENDBRANCH   2   3
ENDBRANCH   1   2
BRANCH   1  22
ATOM     22  O   UNL A   1      32.536  33.538  27.359  1.00  0.00    -0.458 OA
BRANCH  22  23
ATOM     23  C   UNL A   1      33.427  33.851  28.380  1.00  0.00     0.338 C 
ATOM     24  O   UNL A   1      33.235  34.465  29.413  1.00  0.00    -0.246 OA
BRANCH  23  25
ATOM     25  C   UNL A   1      34.652  32.998  28.191  1.00  0.00     0.060 A 
ATOM     26  C   UNL A   1      35.936  33.579  28.309  1.00  0.00     0.016 A 
ATOM     27  C   UNL A   1      34.508  31.621  28.318  1.00  0.00     0.016 A 
ATOM     28  C   UNL A   1      36.987  32.818  28.883  1.00  0.00     0.010 A 
ATOM     29  C   UNL A   1      35.557  30.873  28.857  1.00  0.00     0.010 A 
ATOM     30  C   UNL A   1      36.760  31.484  29.264  1.00  0.00    -0.014 A 
BRANCH  30  31
ATOM     31  C   UNL A   1      37.790  30.622  29.922  1.00  0.00     0.031 A 
ATOM     32  C   UNL A   1      38.047  30.921  31.365  1.00  0.00     0.074 A 
ATOM     33  C   UNL A   1      38.583  29.733  29.277  1.00  0.00     0.049 A 
ATOM     34  N   UNL A   1      39.014  30.523  32.144  1.00  0.00    -0.248 NA
ATOM     35  C   UNL A   1      37.092  31.847  31.997  1.00  0.00     0.031 C 
ATOM     36  C   UNL A   1      38.467  29.327  27.877  1.00  0.00     0.029 A 
ATOM     37  N   UNL A   1      39.683  29.019  29.722  1.00  0.00    -0.354 N 
ATOM     38  C   UNL A   1      38.797  31.173  33.349  1.00  0.00     0.074 A 
ATOM     39  C   UNL A   1      37.638  32.018  33.187  1.00  0.00     0.031 C 
ATOM     40  C   UNL A   1      39.457  28.462  27.574  1.00  0.00     0.029 A 
ATOM     41  C   UNL A   1      40.309  28.267  28.745  1.00  0.00     0.049 A 
ATOM     42  H   UNL A   1      39.994  29.045  30.655  1.00  0.00     0.167 HD
ATOM     43  C   UNL A   1      39.496  31.070  34.498  1.00  0.00     0.037 A 
ATOM     44  C   UNL A   1      41.446  27.530  28.791  1.00  0.00     0.037 A 
ATOM     45  C   UNL A   1      40.645  30.234  34.676  1.00  0.00     0.049 A 
ATOM     46  C   UNL A   1      42.237  27.473  30.086  1.00  0.00     0.074 A 
ATOM     47  C   UNL A   1      41.386  30.032  35.823  1.00  0.00     0.029 A 
ATOM     48  N   UNL A   1      41.225  29.472  33.674  1.00  0.00    -0.354 N 
ATOM     49  N   UNL A   1      41.971  28.020  31.248  1.00  0.00    -0.248 NA
ATOM     50  C   UNL A   1      43.495  26.700  30.076  1.00  0.00     0.031 C 
ATOM     51  C   UNL A   1      42.453  29.188  35.504  1.00  0.00     0.029 A 
ATOM     52  C   UNL A   1      42.340  28.822  34.173  1.00  0.00     0.049 A 
ATOM     53  H   UNL A   1      40.895  29.404  32.749  1.00  0.00     0.167 HD
ATOM     54  C   UNL A   1      42.998  27.632  32.104  1.00  0.00     0.074 A 
ATOM     55  C   UNL A   1      43.884  26.785  31.340  1.00  0.00     0.031 C 
ATOM     56  C   UNL A   1      43.195  27.955  33.404  1.00  0.00     0.037 A 
BRANCH  43  57
ATOM     57  C   UNL A   1      39.032  31.912  35.642  1.00  0.00     0.064 A 
ATOM     58  C   UNL A   1      39.440  33.248  35.779  1.00  0.00     0.173 A 
ATOM     59  C   UNL A   1      38.186  31.372  36.618  1.00  0.00     0.173 A 
ATOM     60  F   UNL A   1      40.279  33.793  34.885  1.00  0.00    -0.203 F 
ATOM     61  C   UNL A   1      39.037  34.005  36.872  1.00  0.00     0.198 A 
ATOM     62  C   UNL A   1      37.757  32.143  37.692  1.00  0.00     0.198 A 
ATOM     63  F   UNL A   1      37.783  30.095  36.534  1.00  0.00    -0.203 F 
ATOM     64  F   UNL A   1      39.489  35.257  37.020  1.00  0.00    -0.200 F 
ATOM     65  C   UNL A   1      38.189  33.455  37.823  1.00  0.00     0.200 A 
ATOM     66  F   UNL A   1      36.936  31.613  38.608  1.00  0.00    -0.200 F 
ATOM     67  F   UNL A   1      37.798  34.187  38.875  1.00  0.00    -0.200 F 
ENDBRANCH  43  57
BRANCH  44  68
ATOM     68  C   UNL A   1      41.972  26.795  27.594  1.00  0.00     0.064 A 
ATOM     69  C   UNL A   1      41.627  25.451  27.359  1.00  0.00     0.173 A 
ATOM     70  C   UNL A   1      42.936  27.361  26.745  1.00  0.00     0.173 A 
ATOM     71  F   UNL A   1      40.747  24.837  28.162  1.00  0.00    -0.203 F 
ATOM     72  C   UNL A   1      42.257  24.697  26.364  1.00  0.00     0.198 A 
ATOM     73  C   UNL A   1      43.539  26.616  25.728  1.00  0.00     0.198 A 
ATOM     74  F   UNL A   1      43.326  28.631  26.925  1.00  0.00    -0.203 F 
ATOM     75  F   UNL A   1      41.975  23.393  26.234  1.00  0.00    -0.200 F 
ATOM     76  C   UNL A   1      43.213  25.280  25.549  1.00  0.00     0.200 A 
ATOM     77  F   UNL A   1      44.465  27.184  24.942  1.00  0.00    -0.200 F 
ATOM     78  F   UNL A   1      43.838  24.551  24.614  1.00  0.00    -0.200 F 
ENDBRANCH  44  68
BRANCH  56  79
ATOM     79  C   UNL A   1      44.384  27.371  34.112  1.00  0.00     0.064 A 
ATOM     80  C   UNL A   1      45.601  28.061  34.197  1.00  0.00     0.173 A 
ATOM     81  C   UNL A   1      44.268  26.155  34.803  1.00  0.00     0.173 A 
ATOM     82  F   UNL A   1      45.767  29.222  33.546  1.00  0.00    -0.203 F 
ATOM     83  C   UNL A   1      46.661  27.553  34.944  1.00  0.00     0.198 A 
ATOM     84  C   UNL A   1      45.317  25.667  35.576  1.00  0.00     0.198 A 
ATOM     85  F   UNL A   1      43.121  25.460  34.763  1.00  0.00    -0.203 F 
ATOM     86  F   UNL A   1      47.824  28.216  34.991  1.00  0.00    -0.200 F 
ATOM     87  C   UNL A   1      46.513  26.364  35.644  1.00  0.00     0.200 A 
ATOM     88  F   UNL A   1      45.165  24.529  36.270  1.00  0.00    -0.200 F 
ATOM     89  F   UNL A   1      47.524  25.892  36.386  1.00  0.00    -0.200 F 
ENDBRANCH  56  79
ENDBRANCH  30  31
ENDBRANCH  23  25
ENDBRANCH  22  23
ENDBRANCH   1  22
TORSDOF 12
ENDMDL
MODEL 2
REMARK VINA RESULT:     -14.5      0.291      1.637
REMARK SMILES O=C(OCCOC(=O)c1ccc(-c2c3nc(c(-c4c(F)c(F)c(F)c(F)c4F)c4ccc([nH]4)c(-c4c(F)c(F)c(F)c(F)c4F)c4nc(c(-c5c(F)c(F)c(F)c(F)c5F)c5ccc2[nH]5)C=C4)C=C3)cc1)C1=Cc2cc(Cl)cc(Cl)c2O[C@@H]1C(F)(F)F
REMARK SMILES IDX 5 1 4 2 3 3 2 4 1 5 72 6 73 7 83 8 74 9 82 10 75 11 81 12
REMARK SMILES IDX 76 13 79 14 77 15 78 16 80 17 84 18 85 19 86 20 87 21 6 22
REMARK SMILES IDX 7 23 8 24 9 25 10 26 71 27 11 28 70 29 12 30 13 31 14 32
REMARK SMILES IDX 64 33 15 34 69 35 63 36 65 37 16 38 68 39 62 40 61 41 17 43
REMARK SMILES IDX 49 44 29 45 48 46 30 47 33 48 47 49 66 50 31 51 32 52 46 54
REMARK SMILES IDX 67 55 34 56 18 57 19 58 27 59 20 60 21 61 25 62 28 63 22 64
REMARK SMILES IDX 23 65 26 66 24 67 50 68 51 69 59 70 52 71 53 72 57 73 60 74
REMARK SMILES IDX 54 75 55 76 58 77 56 78 35 79 36 80 44 81 37 82 38 83 42 84
REMARK SMILES IDX 45 85 39 86 40 87 43 88 41 89
REMARK H PARENT 65 42 33 53
REMARK Flexibility Score: inf
ROOT
ATOM      1  C   UNL A   1      31.409  32.349  26.772  1.00  0.00     0.275 C 
ENDROOT
BRANCH   1   2
ATOM      2  C   UNL A   1      31.845  30.443  25.837  1.00  0.00     0.275 C 
BRANCH   2   3
ATOM      3  O   UNL A   1      32.562  29.231  26.492  1.00  0.00    -0.459 OA
BRANCH   3   4
ATOM      4  C   UNL A   1      31.787  28.142  26.563  1.00  0.00     0.338 C 
ATOM      5  O   UNL A   1      31.228  27.650  27.511  1.00  0.00    -0.246 OA
BRANCH   4   6
ATOM      6  C   UNL A   1      32.231  27.588  25.305  1.00  0.00     0.087 C 
ATOM      7  C   UNL A   1      33.549  26.998  25.367  1.00  0.00     0.027 C 
ATOM      8  C   UNL A   1      30.592  26.664  24.926  1.00  0.00     0.316 C 
ATOM      9  C   UNL A   1      33.831  25.241  25.304  1.00  0.00     0.020 A 
ATOM     10  O   UNL A   1      30.857  24.739  24.960  1.00  0.00    -0.474 OA
ATOM     11  C   UNL A   1      35.115  24.817  25.488  1.00  0.00     0.032 A 
ATOM     12  C   UNL A   1      32.547  24.079  25.245  1.00  0.00     0.146 A 
ATOM     13  C   UNL A   1      35.259  23.431  25.626  1.00  0.00     0.043 A 
ATOM     14  C   UNL A   1      32.792  22.741  25.398  1.00  0.00     0.085 A 
ATOM     15  Cl  UNL A   1      36.876  22.857  25.879  1.00  0.00    -0.084 Cl
ATOM     16  C   UNL A   1      34.173  22.456  25.596  1.00  0.00     0.045 A 
ATOM     17  Cl  UNL A   1      31.620  21.516  25.421  1.00  0.00    -0.080 Cl
BRANCH   8  18
ATOM     18  C   UNL A   1      30.316  27.777  23.798  1.00  0.00     0.430 C 
ATOM     19  F   UNL A   1      31.253  27.877  22.884  1.00  0.00    -0.167 F 
ATOM     20  F   UNL A   1      29.232  27.387  23.059  1.00  0.00    -0.167 F 
ATOM     21  F   UNL A   1      29.983  29.017  24.227  1.00  0.00    -0.167 F 
ENDBRANCH   8  18
ENDBRANCH   4   6
ENDBRANCH   3   4
ENDBRANCH   2   3
ENDBRANCH   1   2
BRANCH   1  22
ATOM     22  O   UNL A   1      32.660  33.487  27.288  1.00  0.00    -0.458 OA
BRANCH  22  23
ATOM     23  C   UNL A   1      33.517  33.731  28.356  1.00  0.00     0.338 C 
ATOM     24  O   UNL A   1      33.291  34.281  29.418  1.00  0.00    -0.246 OA
BRANCH  23  25
ATOM     25  C   UNL A   1      34.744  32.884  28.157  1.00  0.00     0.060 A 
ATOM     26  C   UNL A   1      36.025  33.478  28.232  1.00  0.00     0.016 A 
ATOM     27  C   UNL A   1      34.616  31.509  28.318  1.00  0.00     0.016 A 
ATOM     28  C   UNL A   1      37.097  32.738  28.797  1.00  0.00     0.010 A 
ATOM     29  C   UNL A   1      35.683  30.782  28.849  1.00  0.00     0.010 A 
ATOM     30  C   UNL A   1      36.890  31.411  29.213  1.00  0.00    -0.014 A 
BRANCH  30  31
ATOM     31  C   UNL A   1      37.943  30.573  29.865  1.00  0.00     0.031 A 
ATOM     32  C   UNL A   1      38.217  30.894  31.301  1.00  0.00     0.074 A 
ATOM     33  C   UNL A   1      38.739  29.688  29.219  1.00  0.00     0.049 A 
ATOM     34  N   UNL A   1      39.202  30.519  32.070  1.00  0.00    -0.248 NA
ATOM     35  C   UNL A   1      37.258  31.813  31.937  1.00  0.00     0.031 C 
ATOM     36  C   UNL A   1      38.608  29.264  27.826  1.00  0.00     0.029 A 
ATOM     37  N   UNL A   1      39.857  28.996  29.655  1.00  0.00    -0.354 N 
ATOM     38  C   UNL A   1      38.994  31.180  33.270  1.00  0.00     0.074 A 
ATOM     39  C   UNL A   1      37.820  32.006  33.115  1.00  0.00     0.031 C 
ATOM     40  C   UNL A   1      39.606  28.409  27.518  1.00  0.00     0.029 A 
ATOM     41  C   UNL A   1      40.479  28.241  28.678  1.00  0.00     0.049 A 
ATOM     42  H   UNL A   1      40.181  29.038  30.583  1.00  0.00     0.167 HD
ATOM     43  C   UNL A   1      39.711  31.101  34.409  1.00  0.00     0.037 A 
ATOM     44  C   UNL A   1      41.627  27.522  28.715  1.00  0.00     0.037 A 
ATOM     45  C   UNL A   1      40.875  30.285  34.579  1.00  0.00     0.049 A 
ATOM     46  C   UNL A   1      42.439  27.492  29.998  1.00  0.00     0.074 A 
ATOM     47  C   UNL A   1      41.636  30.107  35.717  1.00  0.00     0.029 A 
ATOM     48  N   UNL A   1      41.452  29.520  33.578  1.00  0.00    -0.354 N 
ATOM     49  N   UNL A   1      42.182  28.050  31.158  1.00  0.00    -0.248 NA
ATOM     50  C   UNL A   1      43.708  26.738  29.979  1.00  0.00     0.031 C 
ATOM     51  C   UNL A   1      42.710  29.276  35.392  1.00  0.00     0.029 A 
ATOM     52  C   UNL A   1      42.583  28.892  34.067  1.00  0.00     0.049 A 
ATOM     53  H   UNL A   1      41.108  29.435  32.659  1.00  0.00     0.167 HD
ATOM     54  C   UNL A   1      43.227  27.687  32.002  1.00  0.00     0.074 A 
ATOM     55  C   UNL A   1      44.115  26.844  31.235  1.00  0.00     0.031 C 
ATOM     56  C   UNL A   1      43.439  28.028  33.296  1.00  0.00     0.037 A 
BRANCH  43  57
ATOM     57  C   UNL A   1      39.252  31.951  35.550  1.00  0.00     0.064 A 
ATOM     58  C   UNL A   1      38.393  31.446  36.538  1.00  0.00     0.173 A 
ATOM     59  C   UNL A   1      39.661  33.287  35.644  1.00  0.00     0.173 A 
ATOM     60  F   UNL A   1      37.948  30.182  36.465  1.00  0.00    -0.203 F 
ATOM     61  C   UNL A   1      37.937  32.261  37.567  1.00  0.00     0.198 A 
ATOM     62  C   UNL A   1      39.230  34.089  36.694  1.00  0.00     0.198 A 
ATOM     63  F   UNL A   1      40.471  33.815  34.713  1.00  0.00    -0.203 F 
ATOM     64  F   UNL A   1      37.066  31.780  38.464  1.00  0.00    -0.200 F 
ATOM     65  C   UNL A   1      38.364  33.579  37.649  1.00  0.00     0.200 A 
ATOM     66  F   UNL A   1      39.644  35.360  36.775  1.00  0.00    -0.200 F 
ATOM     67  F   UNL A   1      37.926  34.362  38.644  1.00  0.00    -0.200 F 
ENDBRANCH  43  57
BRANCH  44  68
ATOM     68  C   UNL A   1      42.146  26.780  27.519  1.00  0.00     0.064 A 
ATOM     69  C   UNL A   1      41.810  25.432  27.300  1.00  0.00     0.173 A 
ATOM     70  C   UNL A   1      43.096  27.347  26.655  1.00  0.00     0.173 A 
ATOM     71  F   UNL A   1      40.944  24.818  28.119  1.00  0.00    -0.203 F 
ATOM     72  C   UNL A   1      42.435  24.674  26.305  1.00  0.00     0.198 A 
ATOM     73  C   UNL A   1      43.694  26.598  25.637  1.00  0.00     0.198 A 
ATOM     74  F   UNL A   1      43.477  28.622  26.818  1.00  0.00    -0.203 F 
ATOM     75  F   UNL A   1      42.162  23.366  26.189  1.00  0.00    -0.200 F 
ATOM     76  C   UNL A   1      43.376  25.258  25.474  1.00  0.00     0.200 A 
ATOM     77  F   UNL A   1      44.606  27.166  24.836  1.00  0.00    -0.200 F 
ATOM     78  F   UNL A   1      43.997  24.525  24.539  1.00  0.00    -0.200 F 
ENDBRANCH  44  68
BRANCH  56  79
ATOM     79  C   UNL A   1      44.647  27.471  33.992  1.00  0.00     0.064 A 
ATOM     80  C   UNL A   1      44.625  26.211  34.608  1.00  0.00     0.173 A 
ATOM     81  C   UNL A   1      45.870  28.158  33.946  1.00  0.00     0.173 A 
ATOM     82  F   UNL A   1      43.480  25.518  34.688  1.00  0.00    -0.203 F 
ATOM     83  C   UNL A   1      45.782  25.664  35.158  1.00  0.00     0.198 A 
ATOM     84  C   UNL A   1      47.031  27.593  34.466  1.00  0.00     0.198 A 
ATOM     85  F   UNL A   1      45.948  29.362  33.358  1.00  0.00    -0.203 F 
ATOM     86  F   UNL A   1      45.732  24.471  35.765  1.00  0.00    -0.200 F 
ATOM     87  C   UNL A   1      46.985  26.349  35.074  1.00  0.00     0.200 A 
ATOM     88  F   UNL A   1      48.197  28.247  34.363  1.00  0.00    -0.200 F 
ATOM     89  F   UNL A   1      48.103  25.807  35.578  1.00  0.00    -0.200 F 
ENDBRANCH  56  79
ENDBRANCH  30  31
ENDBRANCH  23  25
ENDBRANCH  22  23
ENDBRANCH   1  22
TORSDOF 12
ENDMDL
MODEL 3
REMARK VINA RESULT:     -14.3      4.746     10.194
REMARK SMILES O=C(OCCOC(=O)c1ccc(-c2c3nc(c(-c4c(F)c(F)c(F)c(F)c4F)c4ccc([nH]4)c(-c4c(F)c(F)c(F)c(F)c4F)c4nc(c(-c5c(F)c(F)c(F)c(F)c5F)c5ccc2[nH]5)C=C4)C=C3)cc1)C1=Cc2cc(Cl)cc(Cl)c2O[C@@H]1C(F)(F)F
REMARK SMILES IDX 5 1 4 2 3 3 2 4 1 5 72 6 73 7 83 8 74 9 82 10 75 11 81 12
REMARK SMILES IDX 76 13 79 14 77 15 78 16 80 17 84 18 85 19 86 20 87 21 6 22
REMARK SMILES IDX 7 23 8 24 9 25 10 26 71 27 11 28 70 29 12 30 13 31 14 32
REMARK SMILES IDX 64 33 15 34 69 35 63 36 65 37 16 38 68 39 62 40 61 41 17 43
REMARK SMILES IDX 49 44 29 45 48 46 30 47 33 48 47 49 66 50 31 51 32 52 46 54
REMARK SMILES IDX 67 55 34 56 18 57 19 58 27 59 20 60 21 61 25 62 28 63 22 64
REMARK SMILES IDX 23 65 26 66 24 67 50 68 51 69 59 70 52 71 53 72 57 73 60 74
REMARK SMILES IDX 54 75 55 76 58 77 56 78 35 79 36 80 44 81 37 82 38 83 42 84
REMARK SMILES IDX 45 85 39 86 40 87 43 88 41 89
REMARK H PARENT 65 42 33 53
REMARK Flexibility Score: inf
ROOT
ATOM      1  C   UNL A   1      38.504  19.617  24.954  1.00  0.00     0.275 C 
ENDROOT
BRANCH   1   2
ATOM      2  C   UNL A   1      36.712  20.832  25.057  1.00  0.00     0.275 C 
BRANCH   2   3
ATOM      3  O   UNL A   1      36.629  22.377  24.918  1.00  0.00    -0.459 OA
BRANCH   3   4
ATOM      4  C   UNL A   1      35.813  22.770  23.932  1.00  0.00     0.338 C 
ATOM      5  O   UNL A   1      36.071  23.130  22.812  1.00  0.00    -0.246 OA
BRANCH   4   6
ATOM      6  C   UNL A   1      34.684  23.024  24.796  1.00  0.00     0.087 C 
ATOM      7  C   UNL A   1      34.778  24.275  25.516  1.00  0.00     0.027 C 
ATOM      8  C   UNL A   1      33.353  22.562  23.494  1.00  0.00     0.316 C 
ATOM      9  C   UNL A   1      33.765  25.690  25.139  1.00  0.00     0.020 A 
ATOM     10  O   UNL A   1      32.306  24.120  22.988  1.00  0.00    -0.474 OA
ATOM     11  C   UNL A   1      34.038  26.841  25.821  1.00  0.00     0.032 A 
ATOM     12  C   UNL A   1      32.636  25.722  23.825  1.00  0.00     0.146 A 
ATOM     13  C   UNL A   1      33.355  27.971  25.356  1.00  0.00     0.043 A 
ATOM     14  C   UNL A   1      32.023  26.885  23.443  1.00  0.00     0.085 A 
ATOM     15  Cl  UNL A   1      33.690  29.456  26.188  1.00  0.00    -0.084 Cl
ATOM     16  C   UNL A   1      32.419  27.999  24.236  1.00  0.00     0.045 A 
ATOM     17  Cl  UNL A   1      30.951  27.058  22.140  1.00  0.00    -0.080 Cl
BRANCH   8  18
ATOM     18  C   UNL A   1      33.098  21.221  24.344  1.00  0.00     0.430 C 
ATOM     19  F   UNL A   1      33.205  21.365  25.644  1.00  0.00    -0.167 F 
ATOM     20  F   UNL A   1      31.786  20.858  24.200  1.00  0.00    -0.167 F 
ATOM     21  F   UNL A   1      33.781  20.114  23.965  1.00  0.00    -0.167 F 
ENDBRANCH   8  18
ENDBRANCH   4   6
ENDBRANCH   3   4
ENDBRANCH   2   3
ENDBRANCH   1   2
BRANCH   1  22
ATOM     22  O   UNL A   1      39.782  19.667  26.176  1.00  0.00    -0.458 OA
BRANCH  22  23
ATOM     23  C   UNL A   1      41.018  20.257  26.413  1.00  0.00     0.338 C 
ATOM     24  O   UNL A   1      42.099  20.020  25.905  1.00  0.00    -0.246 OA
BRANCH  23  25
ATOM     25  C   UNL A   1      40.776  21.527  27.183  1.00  0.00     0.060 A 
ATOM     26  C   UNL A   1      41.660  21.895  28.224  1.00  0.00     0.016 A 
ATOM     27  C   UNL A   1      39.963  22.492  26.601  1.00  0.00     0.016 A 
ATOM     28  C   UNL A   1      41.953  23.269  28.426  1.00  0.00     0.010 A 
ATOM     29  C   UNL A   1      40.238  23.842  26.826  1.00  0.00     0.010 A 
ATOM     30  C   UNL A   1      41.316  24.245  27.639  1.00  0.00    -0.014 A 
BRANCH  30  31
ATOM     31  C   UNL A   1      41.599  25.709  27.746  1.00  0.00     0.031 A 
ATOM     32  C   UNL A   1      42.933  26.142  27.226  1.00  0.00     0.074 A 
ATOM     33  C   UNL A   1      40.819  26.603  28.399  1.00  0.00     0.049 A 
ATOM     34  N   UNL A   1      43.563  27.275  27.375  1.00  0.00    -0.248 NA
ATOM     35  C   UNL A   1      43.678  25.121  26.470  1.00  0.00     0.031 C 
ATOM     36  C   UNL A   1      39.495  26.347  28.963  1.00  0.00     0.029 A 
ATOM     37  N   UNL A   1      41.050  27.929  28.729  1.00  0.00    -0.354 N 
ATOM     38  C   UNL A   1      44.789  27.089  26.755  1.00  0.00     0.074 A 
ATOM     39  C   UNL A   1      44.831  25.731  26.267  1.00  0.00     0.031 C 
ATOM     40  C   UNL A   1      39.043  27.458  29.580  1.00  0.00     0.029 A 
ATOM     41  C   UNL A   1      40.054  28.510  29.492  1.00  0.00     0.049 A 
ATOM     42  H   UNL A   1      41.856  28.416  28.445  1.00  0.00     0.167 HD
ATOM     43  C   UNL A   1      45.794  27.976  26.596  1.00  0.00     0.037 A 
ATOM     44  C   UNL A   1      39.983  29.735  30.066  1.00  0.00     0.037 A 
ATOM     45  C   UNL A   1      45.766  29.326  27.071  1.00  0.00     0.049 A 
ATOM     46  C   UNL A   1      41.151  30.693  29.910  1.00  0.00     0.074 A 
ATOM     47  C   UNL A   1      46.722  30.309  26.910  1.00  0.00     0.029 A 
ATOM     48  N   UNL A   1      44.732  29.878  27.811  1.00  0.00    -0.354 N 
ATOM     49  N   UNL A   1      42.270  30.538  29.241  1.00  0.00    -0.248 NA
ATOM     50  C   UNL A   1      41.053  31.997  30.594  1.00  0.00     0.031 C 
ATOM     51  C   UNL A   1      46.295  31.444  27.601  1.00  0.00     0.029 A 
ATOM     52  C   UNL A   1      45.046  31.184  28.143  1.00  0.00     0.049 A 
ATOM     53  H   UNL A   1      43.902  29.413  28.061  1.00  0.00     0.167 HD
ATOM     54  C   UNL A   1      42.981  31.726  29.396  1.00  0.00     0.074 A 
ATOM     55  C   UNL A   1      42.164  32.603  30.202  1.00  0.00     0.031 C 
ATOM     56  C   UNL A   1      44.205  32.056  28.920  1.00  0.00     0.037 A 
BRANCH  43  57
ATOM     57  C   UNL A   1      47.016  27.482  25.891  1.00  0.00     0.064 A 
ATOM     58  C   UNL A   1      48.081  26.900  26.594  1.00  0.00     0.173 A 
ATOM     59  C   UNL A   1      47.127  27.610  24.501  1.00  0.00     0.173 A 
ATOM     60  F   UNL A   1      48.029  26.793  27.931  1.00  0.00    -0.203 F 
ATOM     61  C   UNL A   1      49.230  26.489  25.930  1.00  0.00     0.198 A 
ATOM     62  C   UNL A   1      48.265  27.165  23.836  1.00  0.00     0.198 A 
ATOM     63  F   UNL A   1      46.139  28.173  23.790  1.00  0.00    -0.203 F 
ATOM     64  F   UNL A   1      50.263  25.996  26.627  1.00  0.00    -0.200 F 
ATOM     65  C   UNL A   1      49.317  26.613  24.551  1.00  0.00     0.200 A 
ATOM     66  F   UNL A   1      48.348  27.283  22.504  1.00  0.00    -0.200 F 
ATOM     67  F   UNL A   1      50.424  26.212  23.912  1.00  0.00    -0.200 F 
ENDBRANCH  43  57
BRANCH  44  68
ATOM     68  C   UNL A   1      38.803  30.168  30.885  1.00  0.00     0.064 A 
ATOM     69  C   UNL A   1      37.713  30.831  30.292  1.00  0.00     0.173 A 
ATOM     70  C   UNL A   1      38.799  30.066  32.285  1.00  0.00     0.173 A 
ATOM     71  F   UNL A   1      37.679  31.003  28.962  1.00  0.00    -0.203 F 
ATOM     72  C   UNL A   1      36.701  31.411  31.062  1.00  0.00     0.198 A 
ATOM     73  C   UNL A   1      37.768  30.615  33.053  1.00  0.00     0.198 A 
ATOM     74  F   UNL A   1      39.816  29.465  32.918  1.00  0.00    -0.203 F 
ATOM     75  F   UNL A   1      35.730  32.119  30.468  1.00  0.00    -0.200 F 
ATOM     76  C   UNL A   1      36.729  31.303  32.442  1.00  0.00     0.200 A 
ATOM     77  F   UNL A   1      37.799  30.509  34.389  1.00  0.00    -0.200 F 
ATOM     78  F   UNL A   1      35.775  31.882  33.184  1.00  0.00    -0.200 F 
ENDBRANCH  44  68
BRANCH  56  79
ATOM     79  C   UNL A   1      44.736  33.430  29.213  1.00  0.00     0.064 A 
ATOM     80  C   UNL A   1      44.423  34.528  28.399  1.00  0.00     0.173 A 
ATOM     81  C   UNL A   1      45.476  33.668  30.381  1.00  0.00     0.173 A 
ATOM     82  F   UNL A   1      43.727  34.353  27.265  1.00  0.00    -0.203 F 
ATOM     83  C   UNL A   1      44.837  35.813  28.742  1.00  0.00     0.198 A 
ATOM     84  C   UNL A   1      45.858  34.958  30.738  1.00  0.00     0.198 A 
ATOM     85  F   UNL A   1      45.792  32.654  31.200  1.00  0.00    -0.203 F 
ATOM     86  F   UNL A   1      44.550  36.844  27.936  1.00  0.00    -0.200 F 
ATOM     87  C   UNL A   1      45.542  36.028  29.917  1.00  0.00     0.200 A 
ATOM     88  F   UNL A   1      46.519  35.166  31.886  1.00  0.00    -0.200 F 
ATOM     89  F   UNL A   1      45.914  37.270  30.259  1.00  0.00    -0.200 F 
ENDBRANCH  56  79
ENDBRANCH  30  31
ENDBRANCH  23  25
ENDBRANCH  22  23
ENDBRANCH   1  22
TORSDOF 12
ENDMDL
