MODEL 1
REMARK VINA RESULT:     -12.5      0.000      0.000
REMARK SMILES O=C(CC[C@@H]1CN(c2ccncc2)CC[C@@H]1[NH+]1CCOCC1)OCCOC(=O)c1ccc(-c2c3nc(c(-c4c(F)c(F)c(F)c(F)c4F)c4ccc([nH]4)c(-c4c(F)c(F)c(F)c(F)c4F)c4nc(c(-c5c(F)c(F)c(F)c(F)c5F)c5ccc2[nH]5)C=C4)C=C3)cc1
REMARK SMILES IDX 24 1 23 2 2 3 1 4 3 5 4 6 5 7 6 8 16 9 7 10 15 11 14 12
REMARK SMILES IDX 17 13 18 14 22 15 19 17 21 18 20 19 8 20 9 21 13 22 10 23
REMARK SMILES IDX 12 24 11 25 25 26 26 27 27 28 28 29 29 30 30 31 91 32 31 33
REMARK SMILES IDX 90 34 32 35 33 36 34 37 84 38 35 39 89 40 83 41 85 42 36 43
REMARK SMILES IDX 88 44 82 45 81 46 37 48 69 49 49 50 68 51 50 52 53 53 67 54
REMARK SMILES IDX 86 55 51 56 52 57 66 59 87 60 54 61 38 62 39 63 47 64 40 65
REMARK SMILES IDX 41 66 45 67 48 68 42 69 43 70 46 71 44 72 70 73 71 74 79 75
REMARK SMILES IDX 72 76 73 77 77 78 80 79 74 80 75 81 78 82 76 83 55 84 56 85
REMARK SMILES IDX 64 86 57 87 58 88 62 89 65 90 59 91 60 92 63 93 61 94
REMARK H PARENT 17 16 85 47 53 58
REMARK Flexibility Score: inf
ROOT
ATOM      1  C   UNL A   1      31.802  30.883  26.233  1.00  0.00     0.274 C 
ENDROOT
BRANCH   1   2
ATOM      2  O   UNL A   1      31.513  29.913  27.264  1.00  0.00    -0.462 OA
BRANCH   2   3
ATOM      3  C   UNL A   1      32.035  28.670  27.354  1.00  0.00     0.305 C 
ATOM      4  O   UNL A   1      31.417  27.774  27.927  1.00  0.00    -0.252 OA
BRANCH   3   5
ATOM      5  C   UNL A   1      33.411  28.423  26.800  1.00  0.00     0.123 C 
BRANCH   5   6
ATOM      6  C   UNL A   1      33.565  27.154  25.966  1.00  0.00     0.023 C 
BRANCH   6   7
ATOM      7  C   UNL A   1      32.974  27.075  24.531  1.00  0.00     0.067 C 
ATOM      8  C   UNL A   1      31.778  28.019  24.263  1.00  0.00     0.126 C 
ATOM      9  C   UNL A   1      32.990  25.657  23.856  1.00  0.00     0.190 C 
ATOM     10  N   UNL A   1      30.939  27.667  23.115  1.00  0.00    -0.371 N 
ATOM     11  C   UNL A   1      32.336  25.769  22.482  1.00  0.00     0.087 C 
ATOM     12  C   UNL A   1      30.936  26.331  22.543  1.00  0.00     0.122 C 
BRANCH   9  13
ATOM     13  N   UNL A   1      32.684  24.485  24.703  1.00  0.00    -0.328 N 
ATOM     14  C   UNL A   1      33.902  23.716  25.090  1.00  0.00     0.291 C 
ATOM     15  C   UNL A   1      31.681  23.482  24.296  1.00  0.00     0.291 C 
ATOM     16  H   UNL A   1      32.242  25.004  25.461  1.00  0.00     0.348 HD
ATOM     17  C   UNL A   1      34.358  22.687  24.038  1.00  0.00     0.221 C 
ATOM     18  C   UNL A   1      32.136  22.386  23.318  1.00  0.00     0.221 C 
ATOM     19  O   UNL A   1      33.329  21.735  23.755  1.00  0.00    -0.370 OA
ENDBRANCH   9  13
BRANCH  10  20
ATOM     20  C   UNL A   1      29.916  28.522  22.700  1.00  0.00     0.040 A 
ATOM     21  C   UNL A   1      30.180  29.699  21.985  1.00  0.00     0.046 A 
ATOM     22  C   UNL A   1      28.589  28.290  23.062  1.00  0.00     0.046 A 
ATOM     23  C   UNL A   1      29.148  30.585  21.708  1.00  0.00     0.113 A 
ATOM     24  C   UNL A   1      27.624  29.239  22.753  1.00  0.00     0.113 A 
ATOM     25  N   UNL A   1      27.872  30.382  22.083  1.00  0.00    -0.265 NA
ENDBRANCH  10  20
ENDBRANCH   6   7
ENDBRANCH   5   6
ENDBRANCH   3   5
ENDBRANCH   2   3
ENDBRANCH   1   2
BRANCH   1  26
ATOM     26  C   UNL A   1      31.971  32.260  26.876  1.00  0.00     0.275 C 
BRANCH  26  27
ATOM     27  O   UNL A   1      32.877  32.111  27.975  1.00  0.00    -0.458 OA
BRANCH  27  28
ATOM     28  C   UNL A   1      33.831  33.073  27.986  1.00  0.00     0.338 C 
ATOM     29  O   UNL A   1      33.633  34.275  28.003  1.00  0.00    -0.246 OA
BRANCH  28  30
ATOM     30  C   UNL A   1      35.152  32.426  28.190  1.00  0.00     0.060 A 
ATOM     31  C   UNL A   1      35.230  31.035  28.055  1.00  0.00     0.016 A 
ATOM     32  C   UNL A   1      36.303  33.173  28.479  1.00  0.00     0.016 A 
ATOM     33  C   UNL A   1      36.426  30.376  28.332  1.00  0.00     0.010 A 
ATOM     34  C   UNL A   1      37.502  32.518  28.748  1.00  0.00     0.010 A 
ATOM     35  C   UNL A   1      37.539  31.114  28.754  1.00  0.00    -0.014 A 
BRANCH  35  36
ATOM     36  C   UNL A   1      38.600  30.436  29.529  1.00  0.00     0.031 A 
ATOM     37  C   UNL A   1      38.755  30.843  30.971  1.00  0.00     0.074 A 
ATOM     38  C   UNL A   1      39.387  29.496  28.985  1.00  0.00     0.049 A 
ATOM     39  N   UNL A   1      39.621  30.442  31.865  1.00  0.00    -0.248 NA
ATOM     40  C   UNL A   1      37.803  31.853  31.470  1.00  0.00     0.031 C 
ATOM     41  C   UNL A   1      39.306  29.013  27.609  1.00  0.00     0.029 A 
ATOM     42  N   UNL A   1      40.423  28.786  29.534  1.00  0.00    -0.354 N 
ATOM     43  C   UNL A   1      39.309  31.141  33.025  1.00  0.00     0.074 A 
ATOM     44  C   UNL A   1      38.215  32.030  32.714  1.00  0.00     0.031 C 
ATOM     45  C   UNL A   1      40.267  28.091  27.417  1.00  0.00     0.029 A 
ATOM     46  C   UNL A   1      41.037  27.937  28.650  1.00  0.00     0.049 A 
ATOM     47  H   UNL A   1      40.699  28.876  30.475  1.00  0.00     0.167 HD
ATOM     48  C   UNL A   1      39.871  31.035  34.251  1.00  0.00     0.037 A 
ATOM     49  C   UNL A   1      42.107  27.138  28.828  1.00  0.00     0.037 A 
ATOM     50  C   UNL A   1      40.968  30.161  34.549  1.00  0.00     0.049 A 
ATOM     51  C   UNL A   1      42.760  27.084  30.187  1.00  0.00     0.074 A 
ATOM     52  C   UNL A   1      41.631  29.980  35.749  1.00  0.00     0.029 A 
ATOM     53  N   UNL A   1      41.568  29.318  33.625  1.00  0.00    -0.354 N 
ATOM     54  N   UNL A   1      42.443  27.726  31.287  1.00  0.00    -0.248 NA
ATOM     55  C   UNL A   1      43.913  26.185  30.332  1.00  0.00     0.031 C 
ATOM     56  C   UNL A   1      42.658  29.053  35.540  1.00  0.00     0.029 A 
ATOM     57  C   UNL A   1      42.604  28.623  34.223  1.00  0.00     0.049 A 
ATOM     58  H   UNL A   1      41.296  29.228  32.682  1.00  0.00     0.167 HD
ATOM     59  C   UNL A   1      43.333  27.287  32.258  1.00  0.00     0.074 A 
ATOM     60  C   UNL A   1      44.195  26.313  31.620  1.00  0.00     0.031 C 
ATOM     61  C   UNL A   1      43.433  27.651  33.561  1.00  0.00     0.037 A 
BRANCH  48  62
ATOM     62  C   UNL A   1      39.308  31.898  35.340  1.00  0.00     0.064 A 
ATOM     63  C   UNL A   1      39.656  33.255  35.453  1.00  0.00     0.173 A 
ATOM     64  C   UNL A   1      38.416  31.369  36.283  1.00  0.00     0.173 A 
ATOM     65  F   UNL A   1      40.526  33.802  34.591  1.00  0.00    -0.203 F 
ATOM     66  C   UNL A   1      39.152  34.041  36.486  1.00  0.00     0.198 A 
ATOM     67  C   UNL A   1      37.891  32.165  37.298  1.00  0.00     0.198 A 
ATOM     68  F   UNL A   1      38.057  30.078  36.224  1.00  0.00    -0.203 F 
ATOM     69  F   UNL A   1      39.539  35.318  36.604  1.00  0.00    -0.200 F 
ATOM     70  C   UNL A   1      38.265  33.497  37.403  1.00  0.00     0.200 A 
ATOM     71  F   UNL A   1      37.030  31.641  38.181  1.00  0.00    -0.200 F 
ATOM     72  F   UNL A   1      37.778  34.254  38.396  1.00  0.00    -0.200 F 
ENDBRANCH  48  62
BRANCH  49  73
ATOM     73  C   UNL A   1      42.628  26.324  27.698  1.00  0.00     0.064 A 
ATOM     74  C   UNL A   1      43.625  26.821  26.847  1.00  0.00     0.173 A 
ATOM     75  C   UNL A   1      42.121  25.044  27.430  1.00  0.00     0.173 A 
ATOM     76  F   UNL A   1      44.125  28.049  27.047  1.00  0.00    -0.203 F 
ATOM     77  C   UNL A   1      44.077  26.079  25.757  1.00  0.00     0.198 A 
ATOM     78  C   UNL A   1      42.593  24.292  26.356  1.00  0.00     0.198 A 
ATOM     79  F   UNL A   1      41.166  24.522  28.214  1.00  0.00    -0.203 F 
ATOM     80  F   UNL A   1      44.993  26.599  24.928  1.00  0.00    -0.200 F 
ATOM     81  C   UNL A   1      43.563  24.814  25.515  1.00  0.00     0.200 A 
ATOM     82  F   UNL A   1      42.101  23.066  26.133  1.00  0.00    -0.200 F 
ATOM     83  F   UNL A   1      43.997  24.102  24.466  1.00  0.00    -0.200 F 
ENDBRANCH  49  73
BRANCH  61  84
ATOM     84  C   UNL A   1      44.482  26.966  34.387  1.00  0.00     0.064 A 
ATOM     85  C   UNL A   1      45.761  27.514  34.551  1.00  0.00     0.173 A 
ATOM     86  C   UNL A   1      44.184  25.771  35.060  1.00  0.00     0.173 A 
ATOM     87  F   UNL A   1      46.096  28.650  33.918  1.00  0.00    -0.203 F 
ATOM     88  C   UNL A   1      46.716  26.876  35.337  1.00  0.00     0.198 A 
ATOM     89  C   UNL A   1      45.131  25.151  35.869  1.00  0.00     0.198 A 
ATOM     90  F   UNL A   1      42.970  25.214  34.943  1.00  0.00    -0.203 F 
ATOM     91  F   UNL A   1      47.948  27.392  35.443  1.00  0.00    -0.200 F 
ATOM     92  C   UNL A   1      46.398  25.700  36.001  1.00  0.00     0.200 A 
ATOM     93  F   UNL A   1      44.817  24.024  36.520  1.00  0.00    -0.200 F 
ATOM     94  F   UNL A   1      47.316  25.090  36.763  1.00  0.00    -0.200 F 
ENDBRANCH  61  84
ENDBRANCH  35  36
ENDBRANCH  28  30
ENDBRANCH  27  28
ENDBRANCH  26  27
ENDBRANCH   1  26
TORSDOF 15
ENDMDL
MODEL 2
REMARK VINA RESULT:     -12.4      4.174      6.088
REMARK SMILES O=C(CC[C@@H]1CN(c2ccncc2)CC[C@@H]1[NH+]1CCOCC1)OCCOC(=O)c1ccc(-c2c3nc(c(-c4c(F)c(F)c(F)c(F)c4F)c4ccc([nH]4)c(-c4c(F)c(F)c(F)c(F)c4F)c4nc(c(-c5c(F)c(F)c(F)c(F)c5F)c5ccc2[nH]5)C=C4)C=C3)cc1
REMARK SMILES IDX 24 1 23 2 2 3 1 4 3 5 4 6 5 7 6 8 16 9 7 10 15 11 14 12
REMARK SMILES IDX 17 13 18 14 22 15 19 17 21 18 20 19 8 20 9 21 13 22 10 23
REMARK SMILES IDX 12 24 11 25 25 26 26 27 27 28 28 29 29 30 30 31 91 32 31 33
REMARK SMILES IDX 90 34 32 35 33 36 34 37 84 38 35 39 89 40 83 41 85 42 36 43
REMARK SMILES IDX 88 44 82 45 81 46 37 48 69 49 49 50 68 51 50 52 53 53 67 54
REMARK SMILES IDX 86 55 51 56 52 57 66 59 87 60 54 61 38 62 39 63 47 64 40 65
REMARK SMILES IDX 41 66 45 67 48 68 42 69 43 70 46 71 44 72 70 73 71 74 79 75
REMARK SMILES IDX 72 76 73 77 77 78 80 79 74 80 75 81 78 82 76 83 55 84 56 85
REMARK SMILES IDX 64 86 57 87 58 88 62 89 65 90 59 91 60 92 63 93 61 94
REMARK H PARENT 17 16 85 47 53 58
REMARK Flexibility Score: inf
ROOT
ATOM      1  C   UNL A   1      34.060  33.285  28.449  1.00  0.00     0.274 C 
ENDROOT
BRANCH   1   2
ATOM      2  O   UNL A   1      34.331  32.023  27.798  1.00  0.00    -0.462 OA
BRANCH   2   3
ATOM      3  C   UNL A   1      33.407  31.166  27.312  1.00  0.00     0.305 C 
ATOM      4  O   UNL A   1      32.227  31.502  27.228  1.00  0.00    -0.252 OA
BRANCH   3   5
ATOM      5  C   UNL A   1      33.839  29.776  26.938  1.00  0.00     0.123 C 
BRANCH   5   6
ATOM      6  C   UNL A   1      32.710  28.801  26.612  1.00  0.00     0.023 C 
BRANCH   6   7
ATOM      7  C   UNL A   1      32.189  28.656  25.155  1.00  0.00     0.067 C 
ATOM      8  C   UNL A   1      31.132  29.703  24.731  1.00  0.00     0.126 C 
ATOM      9  C   UNL A   1      32.065  27.188  24.611  1.00  0.00     0.190 C 
ATOM     10  N   UNL A   1      30.317  29.344  23.567  1.00  0.00    -0.371 N 
ATOM     11  C   UNL A   1      31.501  27.243  23.195  1.00  0.00     0.087 C 
ATOM     12  C   UNL A   1      30.180  27.968  23.117  1.00  0.00     0.122 C 
BRANCH   9  13
ATOM     13  N   UNL A   1      31.574  26.146  25.538  1.00  0.00    -0.328 N 
ATOM     14  C   UNL A   1      32.674  25.321  26.118  1.00  0.00     0.291 C 
ATOM     15  C   UNL A   1      30.519  25.195  25.139  1.00  0.00     0.291 C 
ATOM     16  H   UNL A   1      31.120  26.781  26.193  1.00  0.00     0.348 HD
ATOM     17  C   UNL A   1      33.120  24.148  25.224  1.00  0.00     0.221 C 
ATOM     18  C   UNL A   1      30.951  23.963  24.325  1.00  0.00     0.221 C 
ATOM     19  O   UNL A   1      32.032  23.263  24.940  1.00  0.00    -0.370 OA
ENDBRANCH   9  13
BRANCH  10  20
ATOM     20  C   UNL A   1      29.429  30.269  23.016  1.00  0.00     0.040 A 
ATOM     21  C   UNL A   1      28.986  30.169  21.689  1.00  0.00     0.046 A 
ATOM     22  C   UNL A   1      29.015  31.391  23.733  1.00  0.00     0.046 A 
ATOM     23  C   UNL A   1      28.210  31.180  21.142  1.00  0.00     0.113 A 
ATOM     24  C   UNL A   1      28.248  32.360  23.100  1.00  0.00     0.113 A 
ATOM     25  N   UNL A   1      27.834  32.280  21.819  1.00  0.00    -0.265 NA
ENDBRANCH  10  20
ENDBRANCH   6   7
ENDBRANCH   5   6
ENDBRANCH   3   5
ENDBRANCH   2   3
ENDBRANCH   1   2
BRANCH   1  26
ATOM     26  C   UNL A   1      34.827  33.339  29.771  1.00  0.00     0.275 C 
BRANCH  26  27
ATOM     27  O   UNL A   1      34.586  32.104  30.457  1.00  0.00    -0.458 OA
BRANCH  27  28
ATOM     28  C   UNL A   1      35.473  31.893  31.457  1.00  0.00     0.338 C 
ATOM     29  O   UNL A   1      35.379  32.315  32.597  1.00  0.00    -0.246 OA
BRANCH  28  30
ATOM     30  C   UNL A   1      36.467  30.888  31.004  1.00  0.00     0.060 A 
ATOM     31  C   UNL A   1      37.415  30.437  31.930  1.00  0.00     0.016 A 
ATOM     32  C   UNL A   1      36.454  30.372  29.700  1.00  0.00     0.016 A 
ATOM     33  C   UNL A   1      38.426  29.568  31.524  1.00  0.00     0.010 A 
ATOM     34  C   UNL A   1      37.457  29.496  29.294  1.00  0.00     0.010 A 
ATOM     35  C   UNL A   1      38.489  29.161  30.185  1.00  0.00    -0.014 A 
BRANCH  35  36
ATOM     36  C   UNL A   1      39.782  28.701  29.634  1.00  0.00     0.031 A 
ATOM     37  C   UNL A   1      40.896  29.712  29.574  1.00  0.00     0.074 A 
ATOM     38  C   UNL A   1      39.965  27.441  29.212  1.00  0.00     0.049 A 
ATOM     39  N   UNL A   1      42.111  29.593  29.106  1.00  0.00    -0.248 NA
ATOM     40  C   UNL A   1      40.590  31.053  30.108  1.00  0.00     0.031 C 
ATOM     41  C   UNL A   1      38.963  26.379  29.247  1.00  0.00     0.029 A 
ATOM     42  N   UNL A   1      41.070  26.848  28.658  1.00  0.00    -0.354 N 
ATOM     43  C   UNL A   1      42.709  30.831  29.302  1.00  0.00     0.074 A 
ATOM     44  C   UNL A   1      41.715  31.706  29.876  1.00  0.00     0.031 C 
ATOM     45  C   UNL A   1      39.497  25.262  28.720  1.00  0.00     0.029 A 
ATOM     46  C   UNL A   1      40.869  25.540  28.297  1.00  0.00     0.049 A 
ATOM     47  H   UNL A   1      41.927  27.316  28.532  1.00  0.00     0.167 HD
ATOM     48  C   UNL A   1      43.984  31.202  29.045  1.00  0.00     0.037 A 
ATOM     49  C   UNL A   1      41.705  24.679  27.686  1.00  0.00     0.037 A 
ATOM     50  C   UNL A   1      44.963  30.332  28.460  1.00  0.00     0.049 A 
ATOM     51  C   UNL A   1      43.104  25.135  27.349  1.00  0.00     0.074 A 
ATOM     52  C   UNL A   1      46.280  30.602  28.138  1.00  0.00     0.029 A 
ATOM     53  N   UNL A   1      44.720  29.014  28.103  1.00  0.00    -0.354 N 
ATOM     54  N   UNL A   1      43.672  26.298  27.561  1.00  0.00    -0.248 NA
ATOM     55  C   UNL A   1      43.981  24.152  26.698  1.00  0.00     0.031 C 
ATOM     56  C   UNL A   1      46.825  29.454  27.551  1.00  0.00     0.029 A 
ATOM     57  C   UNL A   1      45.861  28.458  27.551  1.00  0.00     0.049 A 
ATOM     58  H   UNL A   1      43.864  28.543  28.225  1.00  0.00     0.167 HD
ATOM     59  C   UNL A   1      44.977  26.178  27.101  1.00  0.00     0.074 A 
ATOM     60  C   UNL A   1      45.120  24.824  26.609  1.00  0.00     0.031 C 
ATOM     61  C   UNL A   1      45.971  27.101  27.084  1.00  0.00     0.037 A 
BRANCH  48  62
ATOM     62  C   UNL A   1      44.370  32.610  29.388  1.00  0.00     0.064 A 
ATOM     63  C   UNL A   1      44.830  32.952  30.671  1.00  0.00     0.173 A 
ATOM     64  C   UNL A   1      44.278  33.630  28.431  1.00  0.00     0.173 A 
ATOM     65  F   UNL A   1      44.912  32.017  31.629  1.00  0.00    -0.203 F 
ATOM     66  C   UNL A   1      45.158  34.267  30.988  1.00  0.00     0.198 A 
ATOM     67  C   UNL A   1      44.633  34.940  28.744  1.00  0.00     0.198 A 
ATOM     68  F   UNL A   1      43.839  33.358  27.193  1.00  0.00    -0.203 F 
ATOM     69  F   UNL A   1      45.543  34.578  32.233  1.00  0.00    -0.200 F 
ATOM     70  C   UNL A   1      45.065  35.258  30.024  1.00  0.00     0.200 A 
ATOM     71  F   UNL A   1      44.549  35.896  27.809  1.00  0.00    -0.200 F 
ATOM     72  F   UNL A   1      45.382  36.524  30.329  1.00  0.00    -0.200 F 
ENDBRANCH  48  62
BRANCH  49  73
ATOM     73  C   UNL A   1      41.250  23.303  27.353  1.00  0.00     0.064 A 
ATOM     74  C   UNL A   1      41.856  22.180  27.934  1.00  0.00     0.173 A 
ATOM     75  C   UNL A   1      40.221  23.082  26.427  1.00  0.00     0.173 A 
ATOM     76  F   UNL A   1      42.861  22.338  28.808  1.00  0.00    -0.203 F 
ATOM     77  C   UNL A   1      41.465  20.889  27.583  1.00  0.00     0.198 A 
ATOM     78  C   UNL A   1      39.813  21.791  26.097  1.00  0.00     0.198 A 
ATOM     79  F   UNL A   1      39.609  24.123  25.841  1.00  0.00    -0.203 F 
ATOM     80  F   UNL A   1      42.095  19.833  28.115  1.00  0.00    -0.200 F 
ATOM     81  C   UNL A   1      40.441  20.696  26.668  1.00  0.00     0.200 A 
ATOM     82  F   UNL A   1      38.816  21.610  25.220  1.00  0.00    -0.200 F 
ATOM     83  F   UNL A   1      40.067  19.455  26.330  1.00  0.00    -0.200 F 
ENDBRANCH  49  73
BRANCH  61  84
ATOM     84  C   UNL A   1      47.305  26.663  26.555  1.00  0.00     0.064 A 
ATOM     85  C   UNL A   1      47.650  26.827  25.206  1.00  0.00     0.173 A 
ATOM     86  C   UNL A   1      48.265  26.117  27.420  1.00  0.00     0.173 A 
ATOM     87  F   UNL A   1      46.760  27.335  24.338  1.00  0.00    -0.203 F 
ATOM     88  C   UNL A   1      48.899  26.434  24.735  1.00  0.00     0.198 A 
ATOM     89  C   UNL A   1      49.524  25.753  26.952  1.00  0.00     0.198 A 
ATOM     90  F   UNL A   1      47.986  25.951  28.721  1.00  0.00    -0.203 F 
ATOM     91  F   UNL A   1      49.191  26.556  23.434  1.00  0.00    -0.200 F 
ATOM     92  C   UNL A   1      49.837  25.904  25.610  1.00  0.00     0.200 A 
ATOM     93  F   UNL A   1      50.433  25.256  27.801  1.00  0.00    -0.200 F 
ATOM     94  F   UNL A   1      51.042  25.533  25.157  1.00  0.00    -0.200 F 
ENDBRANCH  61  84
ENDBRANCH  35  36
ENDBRANCH  28  30
ENDBRANCH  27  28
ENDBRANCH  26  27
ENDBRANCH   1  26
TORSDOF 15
ENDMDL
MODEL 3
REMARK VINA RESULT:     -12.4      4.791     10.585
REMARK SMILES O=C(CC[C@@H]1CN(c2ccncc2)CC[C@@H]1[NH+]1CCOCC1)OCCOC(=O)c1ccc(-c2c3nc(c(-c4c(F)c(F)c(F)c(F)c4F)c4ccc([nH]4)c(-c4c(F)c(F)c(F)c(F)c4F)c4nc(c(-c5c(F)c(F)c(F)c(F)c5F)c5ccc2[nH]5)C=C4)C=C3)cc1
REMARK SMILES IDX 24 1 23 2 2 3 1 4 3 5 4 6 5 7 6 8 16 9 7 10 15 11 14 12
REMARK SMILES IDX 17 13 18 14 22 15 19 17 21 18 20 19 8 20 9 21 13 22 10 23
REMARK SMILES IDX 12 24 11 25 25 26 26 27 27 28 28 29 29 30 30 31 91 32 31 33
REMARK SMILES IDX 90 34 32 35 33 36 34 37 84 38 35 39 89 40 83 41 85 42 36 43
REMARK SMILES IDX 88 44 82 45 81 46 37 48 69 49 49 50 68 51 50 52 53 53 67 54
REMARK SMILES IDX 86 55 51 56 52 57 66 59 87 60 54 61 38 62 39 63 47 64 40 65
REMARK SMILES IDX 41 66 45 67 48 68 42 69 43 70 46 71 44 72 70 73 71 74 79 75
REMARK SMILES IDX 72 76 73 77 77 78 80 79 74 80 75 81 78 82 76 83 55 84 56 85
REMARK SMILES IDX 64 86 57 87 58 88 62 89 65 90 59 91 60 92 63 93 61 94
REMARK H PARENT 17 16 85 47 53 58
REMARK Flexibility Score: inf
ROOT
ATOM      1  C   UNL A   1      37.956  20.794  25.112  1.00  0.00     0.274 C 
ENDROOT
BRANCH   1   2
ATOM      2  O   UNL A   1      38.496  22.010  25.675  1.00  0.00    -0.462 OA
BRANCH   2   3
ATOM      3  C   UNL A   1      37.856  23.196  25.767  1.00  0.00     0.305 C 
ATOM      4  O   UNL A   1      38.188  24.021  26.617  1.00  0.00    -0.252 OA
BRANCH   3   5
ATOM      5  C   UNL A   1      36.690  23.459  24.854  1.00  0.00     0.123 C 
BRANCH   5   6
ATOM      6  C   UNL A   1      35.402  23.903  25.544  1.00  0.00     0.023 C 
BRANCH   6   7
ATOM      7  C   UNL A   1      34.168  22.961  25.591  1.00  0.00     0.067 C 
ATOM      8  C   UNL A   1      34.394  21.555  24.989  1.00  0.00     0.126 C 
ATOM      9  C   UNL A   1      32.768  23.650  25.409  1.00  0.00     0.190 C 
ATOM     10  N   UNL A   1      33.181  20.821  24.618  1.00  0.00    -0.371 N 
ATOM     11  C   UNL A   1      31.691  22.571  25.439  1.00  0.00     0.087 C 
ATOM     12  C   UNL A   1      31.909  21.493  24.405  1.00  0.00     0.122 C 
BRANCH   9  13
ATOM     13  N   UNL A   1      32.659  24.743  24.419  1.00  0.00    -0.328 N 
ATOM     14  C   UNL A   1      32.680  26.096  25.046  1.00  0.00     0.291 C 
ATOM     15  C   UNL A   1      31.574  24.773  23.420  1.00  0.00     0.291 C 
ATOM     16  H   UNL A   1      33.496  24.500  23.889  1.00  0.00     0.348 HD
ATOM     17  C   UNL A   1      31.306  26.577  25.551  1.00  0.00     0.221 C 
ATOM     18  C   UNL A   1      30.215  25.337  23.872  1.00  0.00     0.221 C 
ATOM     19  O   UNL A   1      30.343  26.615  24.494  1.00  0.00    -0.370 OA
ENDBRANCH   9  13
BRANCH  10  20
ATOM     20  C   UNL A   1      33.261  19.494  24.194  1.00  0.00     0.040 A 
ATOM     21  C   UNL A   1      34.286  18.640  24.625  1.00  0.00     0.046 A 
ATOM     22  C   UNL A   1      32.375  18.984  23.245  1.00  0.00     0.046 A 
ATOM     23  C   UNL A   1      34.403  17.370  24.077  1.00  0.00     0.113 A 
ATOM     24  C   UNL A   1      32.577  17.705  22.743  1.00  0.00     0.113 A 
ATOM     25  N   UNL A   1      33.571  16.884  23.139  1.00  0.00    -0.265 NA
ENDBRANCH  10  20
ENDBRANCH   6   7
ENDBRANCH   5   6
ENDBRANCH   3   5
ENDBRANCH   2   3
ENDBRANCH   1   2
BRANCH   1  26
ATOM     26  C   UNL A   1      38.934  19.647  25.369  1.00  0.00     0.275 C 
BRANCH  26  27
ATOM     27  O   UNL A   1      39.786  20.045  26.449  1.00  0.00    -0.458 OA
BRANCH  27  28
ATOM     28  C   UNL A   1      41.082  19.725  26.223  1.00  0.00     0.338 C 
ATOM     29  O   UNL A   1      41.487  18.677  25.751  1.00  0.00    -0.246 OA
BRANCH  28  30
ATOM     30  C   UNL A   1      41.914  20.935  26.442  1.00  0.00     0.060 A 
ATOM     31  C   UNL A   1      42.286  21.248  27.755  1.00  0.00     0.016 A 
ATOM     32  C   UNL A   1      42.349  21.735  25.376  1.00  0.00     0.016 A 
ATOM     33  C   UNL A   1      42.983  22.425  28.019  1.00  0.00     0.010 A 
ATOM     34  C   UNL A   1      43.054  22.907  25.635  1.00  0.00     0.010 A 
ATOM     35  C   UNL A   1      43.297  23.291  26.964  1.00  0.00    -0.014 A 
BRANCH  35  36
ATOM     36  C   UNL A   1      43.544  24.720  27.255  1.00  0.00     0.031 A 
ATOM     37  C   UNL A   1      44.941  25.232  27.019  1.00  0.00     0.074 A 
ATOM     38  C   UNL A   1      42.574  25.531  27.702  1.00  0.00     0.049 A 
ATOM     39  N   UNL A   1      45.442  26.422  27.225  1.00  0.00    -0.248 NA
ATOM     40  C   UNL A   1      45.911  24.258  26.484  1.00  0.00     0.031 C 
ATOM     41  C   UNL A   1      41.186  25.145  27.941  1.00  0.00     0.029 A 
ATOM     42  N   UNL A   1      42.621  26.858  28.043  1.00  0.00    -0.354 N 
ATOM     43  C   UNL A   1      46.773  26.337  26.836  1.00  0.00     0.074 A 
ATOM     44  C   UNL A   1      47.022  24.973  26.434  1.00  0.00     0.031 C 
ATOM     45  C   UNL A   1      40.513  26.212  28.407  1.00  0.00     0.029 A 
ATOM     46  C   UNL A   1      41.429  27.347  28.513  1.00  0.00     0.049 A 
ATOM     47  H   UNL A   1      43.433  27.408  27.957  1.00  0.00     0.167 HD
ATOM     48  C   UNL A   1      47.704  27.318  26.794  1.00  0.00     0.037 A 
ATOM     49  C   UNL A   1      41.129  28.573  28.983  1.00  0.00     0.037 A 
ATOM     50  C   UNL A   1      47.454  28.669  27.209  1.00  0.00     0.049 A 
ATOM     51  C   UNL A   1      42.201  29.635  28.989  1.00  0.00     0.074 A 
ATOM     52  C   UNL A   1      48.323  29.743  27.229  1.00  0.00     0.029 A 
ATOM     53  N   UNL A   1      46.234  29.125  27.685  1.00  0.00    -0.354 N 
ATOM     54  N   UNL A   1      43.449  29.557  28.594  1.00  0.00    -0.248 NA
ATOM     55  C   UNL A   1      41.817  30.960  29.496  1.00  0.00     0.031 C 
ATOM     56  C   UNL A   1      47.637  30.844  27.753  1.00  0.00     0.029 A 
ATOM     57  C   UNL A   1      46.329  30.466  28.015  1.00  0.00     0.049 A 
ATOM     58  H   UNL A   1      45.421  28.577  27.775  1.00  0.00     0.167 HD
ATOM     59  C   UNL A   1      43.989  30.824  28.774  1.00  0.00     0.074 A 
ATOM     60  C   UNL A   1      42.928  31.656  29.303  1.00  0.00     0.031 C 
ATOM     61  C   UNL A   1      45.248  31.266  28.526  1.00  0.00     0.037 A 
BRANCH  48  62
ATOM     62  C   UNL A   1      49.068  26.948  26.296  1.00  0.00     0.064 A 
ATOM     63  C   UNL A   1      49.414  27.077  24.940  1.00  0.00     0.173 A 
ATOM     64  C   UNL A   1      50.042  26.455  27.177  1.00  0.00     0.173 A 
ATOM     65  F   UNL A   1      48.509  27.520  24.054  1.00  0.00    -0.203 F 
ATOM     66  C   UNL A   1      50.674  26.701  24.482  1.00  0.00     0.198 A 
ATOM     67  C   UNL A   1      51.310  26.106  26.720  1.00  0.00     0.198 A 
ATOM     68  F   UNL A   1      49.761  26.305  28.480  1.00  0.00    -0.203 F 
ATOM     69  F   UNL A   1      50.962  26.784  23.177  1.00  0.00    -0.200 F 
ATOM     70  C   UNL A   1      51.622  26.223  25.373  1.00  0.00     0.200 A 
ATOM     71  F   UNL A   1      52.229  25.649  27.582  1.00  0.00    -0.200 F 
ATOM     72  F   UNL A   1      52.836  25.863  24.932  1.00  0.00    -0.200 F 
ENDBRANCH  48  62
BRANCH  49  73
ATOM     73  C   UNL A   1      39.760  28.868  29.484  1.00  0.00     0.064 A 
ATOM     74  C   UNL A   1      39.423  28.670  30.830  1.00  0.00     0.173 A 
ATOM     75  C   UNL A   1      38.754  29.326  28.621  1.00  0.00     0.173 A 
ATOM     76  F   UNL A   1      40.344  28.209  31.690  1.00  0.00    -0.203 F 
ATOM     77  C   UNL A   1      38.127  28.896  31.288  1.00  0.00     0.198 A 
ATOM     78  C   UNL A   1      37.465  29.579  29.086  1.00  0.00     0.198 A 
ATOM     79  F   UNL A   1      39.024  29.532  27.323  1.00  0.00    -0.203 F 
ATOM     80  F   UNL A   1      37.818  28.649  32.569  1.00  0.00    -0.200 F 
ATOM     81  C   UNL A   1      37.150  29.354  30.417  1.00  0.00     0.200 A 
ATOM     82  F   UNL A   1      36.528  30.031  28.243  1.00  0.00    -0.200 F 
ATOM     83  F   UNL A   1      35.903  29.570  30.858  1.00  0.00    -0.200 F 
ENDBRANCH  49  73
BRANCH  61  84
ATOM     84  C   UNL A   1      45.530  32.717  28.786  1.00  0.00     0.064 A 
ATOM     85  C   UNL A   1      46.051  33.156  30.010  1.00  0.00     0.173 A 
ATOM     86  C   UNL A   1      45.319  33.670  27.778  1.00  0.00     0.173 A 
ATOM     87  F   UNL A   1      46.259  32.282  31.008  1.00  0.00    -0.203 F 
ATOM     88  C   UNL A   1      46.326  34.503  30.228  1.00  0.00     0.198 A 
ATOM     89  C   UNL A   1      45.622  35.011  27.988  1.00  0.00     0.198 A 
ATOM     90  F   UNL A   1      44.832  33.297  26.585  1.00  0.00    -0.203 F 
ATOM     91  F   UNL A   1      46.780  34.908  31.421  1.00  0.00    -0.200 F 
ATOM     92  C   UNL A   1      46.118  35.427  29.214  1.00  0.00     0.200 A 
ATOM     93  F   UNL A   1      45.435  35.900  27.004  1.00  0.00    -0.200 F 
ATOM     94  F   UNL A   1      46.390  36.723  29.422  1.00  0.00    -0.200 F 
ENDBRANCH  61  84
ENDBRANCH  35  36
ENDBRANCH  28  30
ENDBRANCH  27  28
ENDBRANCH  26  27
ENDBRANCH   1  26
TORSDOF 15
ENDMDL
