MODEL 1
REMARK VINA RESULT:     -11.4      0.000      0.000
REMARK SMILES C=CCc1cccc(-c2ccc([C@@H](C)C(=O)OCCOC(=O)c3ccc(-c4c5nc(c(-c6c(F)c(F)c(F)c(F)c6F)c6ccc([nH]6)c(-c6c(F)c(F)c(F)c(F)c6F)c6nc(c(-c7c(F)c(F)c(F)c(F)c7F)c7ccc4[nH]7)C=C6)C=C5)cc3)cc2)c1
REMARK SMILES IDX 18 1 17 2 15 3 16 4 13 5 14 6 12 7 9 8 10 9 87 10 11 11
REMARK SMILES IDX 86 12 8 13 4 14 5 15 88 16 6 17 7 18 3 19 2 20 1 21 19 22
REMARK SMILES IDX 20 23 21 24 22 25 23 26 24 27 85 28 25 29 84 30 26 31 27 32
REMARK SMILES IDX 28 33 78 34 29 35 83 36 77 37 79 38 30 39 82 40 76 41 75 42
REMARK SMILES IDX 31 44 63 45 43 46 62 47 44 48 47 49 61 50 80 51 45 52 46 53
REMARK SMILES IDX 60 55 81 56 48 57 32 58 33 59 41 60 34 61 35 62 39 63 42 64
REMARK SMILES IDX 36 65 37 66 40 67 38 68 64 69 65 70 73 71 66 72 67 73 71 74
REMARK SMILES IDX 74 75 68 76 69 77 72 78 70 79 49 80 50 81 58 82 51 83 52 84
REMARK SMILES IDX 56 85 59 86 53 87 54 88 57 89 55 90
REMARK H PARENT 79 43 47 54
REMARK Flexibility Score: inf
ROOT
ATOM      1  C   UNL A   1      42.552  18.855  26.759  1.00  0.00     0.274 C 
ENDROOT
BRANCH   1   2
ATOM      2  O   UNL A   1      41.995  20.131  26.390  1.00  0.00    -0.462 OA
BRANCH   2   3
ATOM      3  C   UNL A   1      41.152  20.713  27.280  1.00  0.00     0.313 C 
ATOM      4  O   UNL A   1      40.778  20.187  28.325  1.00  0.00    -0.252 OA
BRANCH   3   5
ATOM      5  C   UNL A   1      40.656  22.086  26.847  1.00  0.00     0.126 C 
ATOM      6  C   UNL A   1      40.696  23.050  28.033  1.00  0.00     0.025 C 
BRANCH   5   7
ATOM      7  C   UNL A   1      39.321  22.117  26.120  1.00  0.00    -0.034 A 
ATOM      8  C   UNL A   1      36.750  22.178  24.899  1.00  0.00    -0.018 A 
ATOM      9  C   UNL A   1      37.555  21.028  24.851  1.00  0.00     0.009 A 
ATOM     10  C   UNL A   1      37.276  23.312  25.532  1.00  0.00     0.009 A 
ATOM     11  C   UNL A   1      38.814  20.994  25.456  1.00  0.00     0.005 A 
ATOM     12  C   UNL A   1      38.539  23.283  26.135  1.00  0.00     0.005 A 
BRANCH   8  13
ATOM     13  C   UNL A   1      35.380  22.166  24.352  1.00  0.00    -0.018 A 
ATOM     14  C   UNL A   1      33.150  21.163  24.157  1.00  0.00    -0.044 A 
ATOM     15  C   UNL A   1      32.786  22.160  23.242  1.00  0.00     0.004 A 
ATOM     16  C   UNL A   1      34.447  21.174  24.702  1.00  0.00     0.012 A 
ATOM     17  C   UNL A   1      33.696  23.150  22.883  1.00  0.00     0.001 A 
ATOM     18  C   UNL A   1      34.978  23.149  23.432  1.00  0.00     0.009 A 
BRANCH  14  19
ATOM     19  C   UNL A   1      32.171  20.069  24.513  1.00  0.00     0.062 C 
BRANCH  19  20
ATOM     20  C   UNL A   1      32.688  18.706  24.147  1.00  0.00    -0.030 C 
ATOM     21  C   UNL A   1      32.527  18.129  22.948  1.00  0.00     0.004 C 
ENDBRANCH  19  20
ENDBRANCH  14  19
ENDBRANCH   8  13
ENDBRANCH   5   7
ENDBRANCH   3   5
ENDBRANCH   2   3
ENDBRANCH   1   2
BRANCH   1  22
ATOM     22  C   UNL A   1      43.447  18.300  25.650  1.00  0.00     0.275 C 
BRANCH  22  23
ATOM     23  O   UNL A   1      43.499  19.202  24.529  1.00  0.00    -0.458 OA
BRANCH  23  24
ATOM     24  C   UNL A   1      44.743  19.520  24.101  1.00  0.00     0.338 C 
ATOM     25  O   UNL A   1      45.508  18.834  23.450  1.00  0.00    -0.246 OA
BRANCH  24  26
ATOM     26  C   UNL A   1      45.033  20.916  24.455  1.00  0.00     0.060 A 
ATOM     27  C   UNL A   1      45.465  21.192  25.754  1.00  0.00     0.016 A 
ATOM     28  C   UNL A   1      44.797  21.949  23.548  1.00  0.00     0.016 A 
ATOM     29  C   UNL A   1      45.658  22.510  26.160  1.00  0.00     0.010 A 
ATOM     30  C   UNL A   1      44.996  23.271  23.955  1.00  0.00     0.010 A 
ATOM     31  C   UNL A   1      45.415  23.559  25.266  1.00  0.00    -0.014 A 
BRANCH  31  32
ATOM     32  C   UNL A   1      45.555  24.962  25.721  1.00  0.00     0.031 A 
ATOM     33  C   UNL A   1      46.892  25.640  25.648  1.00  0.00     0.074 A 
ATOM     34  C   UNL A   1      44.482  25.625  26.189  1.00  0.00     0.049 A 
ATOM     35  N   UNL A   1      47.246  26.823  26.079  1.00  0.00    -0.248 NA
ATOM     36  C   UNL A   1      47.978  24.884  25.002  1.00  0.00     0.031 C 
ATOM     37  C   UNL A   1      43.126  25.084  26.271  1.00  0.00     0.029 A 
ATOM     38  N   UNL A   1      44.368  26.896  26.692  1.00  0.00    -0.354 N 
ATOM     39  C   UNL A   1      48.595  26.946  25.781  1.00  0.00     0.074 A 
ATOM     40  C   UNL A   1      49.003  25.716  25.137  1.00  0.00     0.031 C 
ATOM     41  C   UNL A   1      42.315  26.015  26.801  1.00  0.00     0.029 A 
ATOM     42  C   UNL A   1      43.103  27.199  27.134  1.00  0.00     0.049 A 
ATOM     43  H   UNL A   1      45.120  27.530  26.734  1.00  0.00     0.167 HD
ATOM     44  C   UNL A   1      49.417  27.994  26.024  1.00  0.00     0.037 A 
ATOM     45  C   UNL A   1      42.643  28.297  27.763  1.00  0.00     0.037 A 
ATOM     46  C   UNL A   1      49.003  29.226  26.643  1.00  0.00     0.049 A 
ATOM     47  C   UNL A   1      43.589  29.430  28.055  1.00  0.00     0.074 A 
ATOM     48  C   UNL A   1      49.760  30.354  26.912  1.00  0.00     0.029 A 
ATOM     49  N   UNL A   1      47.717  29.493  27.086  1.00  0.00    -0.354 N 
ATOM     50  N   UNL A   1      44.863  29.539  27.769  1.00  0.00    -0.248 NA
ATOM     51  C   UNL A   1      43.032  30.593  28.761  1.00  0.00     0.031 C 
ATOM     52  C   UNL A   1      48.939  31.290  27.549  1.00  0.00     0.029 A 
ATOM     53  C   UNL A   1      47.662  30.760  27.643  1.00  0.00     0.049 A 
ATOM     54  H   UNL A   1      46.956  28.872  27.016  1.00  0.00     0.167 HD
ATOM     55  C   UNL A   1      45.256  30.782  28.241  1.00  0.00     0.074 A 
ATOM     56  C   UNL A   1      44.081  31.401  28.820  1.00  0.00     0.031 C 
ATOM     57  C   UNL A   1      46.481  31.361  28.203  1.00  0.00     0.037 A 
BRANCH  44  58
ATOM     58  C   UNL A   1      50.859  27.852  25.643  1.00  0.00     0.064 A 
ATOM     59  C   UNL A   1      51.830  27.455  26.573  1.00  0.00     0.173 A 
ATOM     60  C   UNL A   1      51.262  28.057  24.316  1.00  0.00     0.173 A 
ATOM     61  F   UNL A   1      51.496  27.261  27.857  1.00  0.00    -0.203 F 
ATOM     62  C   UNL A   1      53.157  27.280  26.189  1.00  0.00     0.198 A 
ATOM     63  C   UNL A   1      52.585  27.861  23.930  1.00  0.00     0.198 A 
ATOM     64  F   UNL A   1      50.368  28.434  23.389  1.00  0.00    -0.203 F 
ATOM     65  F   UNL A   1      54.076  26.927  27.098  1.00  0.00    -0.200 F 
ATOM     66  C   UNL A   1      53.532  27.475  24.867  1.00  0.00     0.200 A 
ATOM     67  F   UNL A   1      52.944  28.041  22.651  1.00  0.00    -0.200 F 
ATOM     68  F   UNL A   1      54.808  27.296  24.497  1.00  0.00    -0.200 F 
ENDBRANCH  44  58
BRANCH  45  69
ATOM     69  C   UNL A   1      41.221  28.368  28.186  1.00  0.00     0.064 A 
ATOM     70  C   UNL A   1      40.237  28.883  27.332  1.00  0.00     0.173 A 
ATOM     71  C   UNL A   1      40.823  27.942  29.461  1.00  0.00     0.173 A 
ATOM     72  F   UNL A   1      40.576  29.328  26.113  1.00  0.00    -0.203 F 
ATOM     73  C   UNL A   1      38.911  28.987  27.744  1.00  0.00     0.198 A 
ATOM     74  C   UNL A   1      39.491  28.021  29.863  1.00  0.00     0.198 A 
ATOM     75  F   UNL A   1      41.728  27.445  30.318  1.00  0.00    -0.203 F 
ATOM     76  F   UNL A   1      37.998  29.528  26.926  1.00  0.00    -0.200 F 
ATOM     77  C   UNL A   1      38.538  28.551  29.007  1.00  0.00     0.200 A 
ATOM     78  F   UNL A   1      39.133  27.592  31.081  1.00  0.00    -0.200 F 
ATOM     79  F   UNL A   1      37.261  28.653  29.403  1.00  0.00    -0.200 F 
ENDBRANCH  45  69
BRANCH  57  80
ATOM     80  C   UNL A   1      46.604  32.742  28.772  1.00  0.00     0.064 A 
ATOM     81  C   UNL A   1      46.962  32.952  30.111  1.00  0.00     0.173 A 
ATOM     82  C   UNL A   1      46.399  33.866  27.959  1.00  0.00     0.173 A 
ATOM     83  F   UNL A   1      47.152  31.907  30.930  1.00  0.00    -0.203 F 
ATOM     84  C   UNL A   1      47.092  34.241  30.620  1.00  0.00     0.198 A 
ATOM     85  C   UNL A   1      46.553  35.153  28.465  1.00  0.00     0.198 A 
ATOM     86  F   UNL A   1      46.060  33.716  26.670  1.00  0.00    -0.203 F 
ATOM     87  F   UNL A   1      47.397  34.421  31.913  1.00  0.00    -0.200 F 
ATOM     88  C   UNL A   1      46.894  35.339  29.797  1.00  0.00     0.200 A 
ATOM     89  F   UNL A   1      46.370  36.213  27.666  1.00  0.00    -0.200 F 
ATOM     90  F   UNL A   1      47.025  36.579  30.289  1.00  0.00    -0.200 F 
ENDBRANCH  57  80
ENDBRANCH  31  32
ENDBRANCH  24  26
ENDBRANCH  23  24
ENDBRANCH  22  23
ENDBRANCH   1  22
TORSDOF 15
ENDMDL
MODEL 2
REMARK VINA RESULT:     -11.4      5.160      7.790
REMARK SMILES C=CCc1cccc(-c2ccc([C@@H](C)C(=O)OCCOC(=O)c3ccc(-c4c5nc(c(-c6c(F)c(F)c(F)c(F)c6F)c6ccc([nH]6)c(-c6c(F)c(F)c(F)c(F)c6F)c6nc(c(-c7c(F)c(F)c(F)c(F)c7F)c7ccc4[nH]7)C=C6)C=C5)cc3)cc2)c1
REMARK SMILES IDX 18 1 17 2 15 3 16 4 13 5 14 6 12 7 9 8 10 9 87 10 11 11
REMARK SMILES IDX 86 12 8 13 4 14 5 15 88 16 6 17 7 18 3 19 2 20 1 21 19 22
REMARK SMILES IDX 20 23 21 24 22 25 23 26 24 27 85 28 25 29 84 30 26 31 27 32
REMARK SMILES IDX 28 33 78 34 29 35 83 36 77 37 79 38 30 39 82 40 76 41 75 42
REMARK SMILES IDX 31 44 63 45 43 46 62 47 44 48 47 49 61 50 80 51 45 52 46 53
REMARK SMILES IDX 60 55 81 56 48 57 32 58 33 59 41 60 34 61 35 62 39 63 42 64
REMARK SMILES IDX 36 65 37 66 40 67 38 68 64 69 65 70 73 71 66 72 67 73 71 74
REMARK SMILES IDX 74 75 68 76 69 77 72 78 70 79 49 80 50 81 58 82 51 83 52 84
REMARK SMILES IDX 56 85 59 86 53 87 54 88 57 89 55 90
REMARK H PARENT 79 43 47 54
REMARK Flexibility Score: inf
ROOT
ATOM      1  C   UNL A   1      44.067  21.076  25.358  1.00  0.00     0.274 C 
ENDROOT
BRANCH   1   2
ATOM      2  O   UNL A   1      43.273  19.984  24.857  1.00  0.00    -0.462 OA
BRANCH   2   3
ATOM      3  C   UNL A   1      42.718  19.156  25.779  1.00  0.00     0.313 C 
ATOM      4  O   UNL A   1      42.926  17.947  25.838  1.00  0.00    -0.252 OA
BRANCH   3   5
ATOM      5  C   UNL A   1      41.754  19.855  26.729  1.00  0.00     0.126 C 
ATOM      6  C   UNL A   1      41.556  19.005  27.984  1.00  0.00     0.025 C 
BRANCH   5   7
ATOM      7  C   UNL A   1      40.435  20.314  26.127  1.00  0.00    -0.034 A 
ATOM      8  C   UNL A   1      37.914  21.197  25.143  1.00  0.00    -0.018 A 
ATOM      9  C   UNL A   1      38.310  19.853  25.039  1.00  0.00     0.009 A 
ATOM     10  C   UNL A   1      38.825  22.099  25.709  1.00  0.00     0.009 A 
ATOM     11  C   UNL A   1      39.544  19.417  25.527  1.00  0.00     0.005 A 
ATOM     12  C   UNL A   1      40.065  21.666  26.195  1.00  0.00     0.005 A 
BRANCH   8  13
ATOM     13  C   UNL A   1      36.566  21.624  24.724  1.00  0.00    -0.018 A 
ATOM     14  C   UNL A   1      34.133  21.316  24.662  1.00  0.00    -0.044 A 
ATOM     15  C   UNL A   1      34.013  22.455  23.856  1.00  0.00     0.004 A 
ATOM     16  C   UNL A   1      35.411  20.908  25.086  1.00  0.00     0.012 A 
ATOM     17  C   UNL A   1      35.145  23.177  23.487  1.00  0.00     0.001 A 
ATOM     18  C   UNL A   1      36.405  22.763  23.916  1.00  0.00     0.009 A 
BRANCH  14  19
ATOM     19  C   UNL A   1      32.906  20.514  25.027  1.00  0.00     0.062 C 
BRANCH  19  20
ATOM     20  C   UNL A   1      32.617  19.432  24.025  1.00  0.00    -0.030 C 
ATOM     21  C   UNL A   1      33.022  18.160  24.142  1.00  0.00     0.004 C 
ENDBRANCH  19  20
ENDBRANCH  14  19
ENDBRANCH   8  13
ENDBRANCH   5   7
ENDBRANCH   3   5
ENDBRANCH   2   3
ENDBRANCH   1   2
BRANCH   1  22
ATOM     22  C   UNL A   1      44.132  22.222  24.347  1.00  0.00     0.275 C 
BRANCH  22  23
ATOM     23  O   UNL A   1      43.445  23.386  24.842  1.00  0.00    -0.458 OA
BRANCH  23  24
ATOM     24  C   UNL A   1      44.231  24.462  25.082  1.00  0.00     0.338 C 
ATOM     25  O   UNL A   1      45.260  24.778  24.516  1.00  0.00    -0.246 OA
BRANCH  24  26
ATOM     26  C   UNL A   1      43.596  25.304  26.106  1.00  0.00     0.060 A 
ATOM     27  C   UNL A   1      43.965  26.649  26.178  1.00  0.00     0.016 A 
ATOM     28  C   UNL A   1      42.715  24.756  27.038  1.00  0.00     0.016 A 
ATOM     29  C   UNL A   1      43.461  27.457  27.193  1.00  0.00     0.010 A 
ATOM     30  C   UNL A   1      42.205  25.570  28.054  1.00  0.00     0.010 A 
ATOM     31  C   UNL A   1      42.585  26.921  28.144  1.00  0.00    -0.014 A 
BRANCH  31  32
ATOM     32  C   UNL A   1      42.105  27.766  29.262  1.00  0.00     0.031 A 
ATOM     33  C   UNL A   1      42.850  27.773  30.565  1.00  0.00     0.074 A 
ATOM     34  C   UNL A   1      41.008  28.528  29.102  1.00  0.00     0.049 A 
ATOM     35  N   UNL A   1      42.545  28.366  31.691  1.00  0.00    -0.248 NA
ATOM     36  C   UNL A   1      44.108  27.011  30.607  1.00  0.00     0.031 C 
ATOM     37  C   UNL A   1      40.225  28.633  27.871  1.00  0.00     0.029 A 
ATOM     38  N   UNL A   1      40.359  29.354  29.984  1.00  0.00    -0.354 N 
ATOM     39  C   UNL A   1      43.555  28.031  32.580  1.00  0.00     0.074 A 
ATOM     40  C   UNL A   1      44.483  27.177  31.869  1.00  0.00     0.031 C 
ATOM     41  C   UNL A   1      39.195  29.470  28.078  1.00  0.00     0.029 A 
ATOM     42  C   UNL A   1      39.223  29.925  29.466  1.00  0.00     0.049 A 
ATOM     43  H   UNL A   1      40.676  29.521  30.902  1.00  0.00     0.167 HD
ATOM     44  C   UNL A   1      43.694  28.405  33.874  1.00  0.00     0.037 A 
ATOM     45  C   UNL A   1      38.295  30.703  30.055  1.00  0.00     0.037 A 
ATOM     46  C   UNL A   1      42.783  29.273  34.571  1.00  0.00     0.049 A 
ATOM     47  C   UNL A   1      38.455  31.071  31.506  1.00  0.00     0.074 A 
ATOM     48  C   UNL A   1      42.851  29.726  35.878  1.00  0.00     0.029 A 
ATOM     49  N   UNL A   1      41.638  29.824  34.017  1.00  0.00    -0.354 N 
ATOM     50  N   UNL A   1      39.414  30.750  32.340  1.00  0.00    -0.248 NA
ATOM     51  C   UNL A   1      37.400  31.905  32.099  1.00  0.00     0.031 C 
ATOM     52  C   UNL A   1      41.728  30.524  36.124  1.00  0.00     0.029 A 
ATOM     53  C   UNL A   1      40.981  30.598  34.959  1.00  0.00     0.049 A 
ATOM     54  H   UNL A   1      41.336  29.685  33.090  1.00  0.00     0.167 HD
ATOM     55  C   UNL A   1      39.091  31.356  33.545  1.00  0.00     0.074 A 
ATOM     56  C   UNL A   1      37.853  32.077  33.332  1.00  0.00     0.031 C 
ATOM     57  C   UNL A   1      39.757  31.317  34.724  1.00  0.00     0.037 A 
BRANCH  44  58
ATOM     58  C   UNL A   1      44.863  27.859  34.635  1.00  0.00     0.064 A 
ATOM     59  C   UNL A   1      46.049  28.591  34.787  1.00  0.00     0.173 A 
ATOM     60  C   UNL A   1      44.772  26.612  35.270  1.00  0.00     0.173 A 
ATOM     61  F   UNL A   1      46.188  29.782  34.187  1.00  0.00    -0.203 F 
ATOM     62  C   UNL A   1      47.107  28.088  35.539  1.00  0.00     0.198 A 
ATOM     63  C   UNL A   1      45.824  26.121  36.038  1.00  0.00     0.198 A 
ATOM     64  F   UNL A   1      43.656  25.876  35.156  1.00  0.00    -0.203 F 
ATOM     65  F   UNL A   1      48.242  28.791  35.651  1.00  0.00    -0.200 F 
ATOM     66  C   UNL A   1      46.991  26.858  36.171  1.00  0.00     0.200 A 
ATOM     67  F   UNL A   1      45.706  24.936  36.655  1.00  0.00    -0.200 F 
ATOM     68  F   UNL A   1      48.007  26.380  36.903  1.00  0.00    -0.200 F 
ENDBRANCH  44  58
BRANCH  45  69
ATOM     69  C   UNL A   1      37.115  31.165  29.282  1.00  0.00     0.064 A 
ATOM     70  C   UNL A   1      37.012  32.492  28.843  1.00  0.00     0.173 A 
ATOM     71  C   UNL A   1      36.057  30.294  28.986  1.00  0.00     0.173 A 
ATOM     72  F   UNL A   1      37.987  33.368  29.128  1.00  0.00    -0.203 F 
ATOM     73  C   UNL A   1      35.886  32.935  28.153  1.00  0.00     0.198 A 
ATOM     74  C   UNL A   1      34.943  30.731  28.271  1.00  0.00     0.198 A 
ATOM     75  F   UNL A   1      36.106  29.015  29.387  1.00  0.00    -0.203 F 
ATOM     76  F   UNL A   1      35.790  34.221  27.787  1.00  0.00    -0.200 F 
ATOM     77  C   UNL A   1      34.855  32.054  27.863  1.00  0.00     0.200 A 
ATOM     78  F   UNL A   1      33.953  29.875  27.987  1.00  0.00    -0.200 F 
ATOM     79  F   UNL A   1      33.772  32.481  27.200  1.00  0.00    -0.200 F 
ENDBRANCH  45  69
BRANCH  57  80
ATOM     80  C   UNL A   1      39.179  32.100  35.864  1.00  0.00     0.064 A 
ATOM     81  C   UNL A   1      38.295  31.514  36.780  1.00  0.00     0.173 A 
ATOM     82  C   UNL A   1      39.543  33.440  36.062  1.00  0.00     0.173 A 
ATOM     83  F   UNL A   1      37.906  30.240  36.623  1.00  0.00    -0.203 F 
ATOM     84  C   UNL A   1      37.782  32.249  37.846  1.00  0.00     0.198 A 
ATOM     85  C   UNL A   1      39.046  34.165  37.140  1.00  0.00     0.198 A 
ATOM     86  F   UNL A   1      40.389  34.043  35.213  1.00  0.00    -0.203 F 
ATOM     87  F   UNL A   1      36.908  31.681  38.689  1.00  0.00    -0.200 F 
ATOM     88  C   UNL A   1      38.161  33.570  38.028  1.00  0.00     0.200 A 
ATOM     89  F   UNL A   1      39.421  35.438  37.321  1.00  0.00    -0.200 F 
ATOM     90  F   UNL A   1      37.669  34.274  39.057  1.00  0.00    -0.200 F 
ENDBRANCH  57  80
ENDBRANCH  31  32
ENDBRANCH  24  26
ENDBRANCH  23  24
ENDBRANCH  22  23
ENDBRANCH   1  22
TORSDOF 15
ENDMDL
MODEL 3
REMARK VINA RESULT:     -11.3      6.443     12.351
REMARK SMILES C=CCc1cccc(-c2ccc([C@@H](C)C(=O)OCCOC(=O)c3ccc(-c4c5nc(c(-c6c(F)c(F)c(F)c(F)c6F)c6ccc([nH]6)c(-c6c(F)c(F)c(F)c(F)c6F)c6nc(c(-c7c(F)c(F)c(F)c(F)c7F)c7ccc4[nH]7)C=C6)C=C5)cc3)cc2)c1
REMARK SMILES IDX 18 1 17 2 15 3 16 4 13 5 14 6 12 7 9 8 10 9 87 10 11 11
REMARK SMILES IDX 86 12 8 13 4 14 5 15 88 16 6 17 7 18 3 19 2 20 1 21 19 22
REMARK SMILES IDX 20 23 21 24 22 25 23 26 24 27 85 28 25 29 84 30 26 31 27 32
REMARK SMILES IDX 28 33 78 34 29 35 83 36 77 37 79 38 30 39 82 40 76 41 75 42
REMARK SMILES IDX 31 44 63 45 43 46 62 47 44 48 47 49 61 50 80 51 45 52 46 53
REMARK SMILES IDX 60 55 81 56 48 57 32 58 33 59 41 60 34 61 35 62 39 63 42 64
REMARK SMILES IDX 36 65 37 66 40 67 38 68 64 69 65 70 73 71 66 72 67 73 71 74
REMARK SMILES IDX 74 75 68 76 69 77 72 78 70 79 49 80 50 81 58 82 51 83 52 84
REMARK SMILES IDX 56 85 59 86 53 87 54 88 57 89 55 90
REMARK H PARENT 79 43 47 54
REMARK Flexibility Score: inf
ROOT
ATOM      1  C   UNL A   1      33.720  34.506  28.729  1.00  0.00     0.274 C 
ENDROOT
BRANCH   1   2
ATOM      2  O   UNL A   1      33.266  34.457  30.095  1.00  0.00    -0.462 OA
BRANCH   2   3
ATOM      3  C   UNL A   1      34.213  34.568  31.060  1.00  0.00     0.313 C 
ATOM      4  O   UNL A   1      34.299  35.513  31.840  1.00  0.00    -0.252 OA
BRANCH   3   5
ATOM      5  C   UNL A   1      35.217  33.423  31.069  1.00  0.00     0.126 C 
ATOM      6  C   UNL A   1      35.086  32.629  32.369  1.00  0.00     0.025 C 
BRANCH   5   7
ATOM      7  C   UNL A   1      36.658  33.793  30.760  1.00  0.00    -0.034 A 
ATOM      8  C   UNL A   1      39.388  34.336  30.163  1.00  0.00    -0.018 A 
ATOM      9  C   UNL A   1      38.870  34.530  31.453  1.00  0.00     0.009 A 
ATOM     10  C   UNL A   1      38.502  33.908  29.165  1.00  0.00     0.009 A 
ATOM     11  C   UNL A   1      37.532  34.257  31.750  1.00  0.00     0.005 A 
ATOM     12  C   UNL A   1      37.159  33.639  29.458  1.00  0.00     0.005 A 
BRANCH   8  13
ATOM     13  C   UNL A   1      40.826  34.521  29.889  1.00  0.00    -0.018 A 
ATOM     14  C   UNL A   1      42.659  35.497  28.584  1.00  0.00    -0.044 A 
ATOM     15  C   UNL A   1      43.585  34.806  29.376  1.00  0.00     0.004 A 
ATOM     16  C   UNL A   1      41.286  35.345  28.846  1.00  0.00     0.012 A 
ATOM     17  C   UNL A   1      43.150  33.985  30.413  1.00  0.00     0.001 A 
ATOM     18  C   UNL A   1      41.785  33.845  30.663  1.00  0.00     0.009 A 
BRANCH  14  19
ATOM     19  C   UNL A   1      43.136  36.355  27.435  1.00  0.00     0.062 C 
BRANCH  19  20
ATOM     20  C   UNL A   1      42.929  35.688  26.105  1.00  0.00    -0.030 C 
ATOM     21  C   UNL A   1      43.450  34.502  25.760  1.00  0.00     0.004 C 
ENDBRANCH  19  20
ENDBRANCH  14  19
ENDBRANCH   8  13
ENDBRANCH   5   7
ENDBRANCH   3   5
ENDBRANCH   2   3
ENDBRANCH   1   2
BRANCH   1  22
ATOM     22  C   UNL A   1      33.401  33.204  27.993  1.00  0.00     0.275 C 
BRANCH  22  23
ATOM     23  O   UNL A   1      34.601  32.453  27.731  1.00  0.00    -0.458 OA
BRANCH  23  24
ATOM     24  C   UNL A   1      34.462  31.107  27.777  1.00  0.00     0.338 C 
ATOM     25  O   UNL A   1      33.512  30.440  27.415  1.00  0.00    -0.246 OA
BRANCH  24  26
ATOM     26  C   UNL A   1      35.716  30.509  28.256  1.00  0.00     0.060 A 
ATOM     27  C   UNL A   1      35.707  29.854  29.489  1.00  0.00     0.016 A 
ATOM     28  C   UNL A   1      36.904  30.669  27.542  1.00  0.00     0.016 A 
ATOM     29  C   UNL A   1      36.893  29.358  30.025  1.00  0.00     0.010 A 
ATOM     30  C   UNL A   1      38.093  30.166  28.078  1.00  0.00     0.010 A 
ATOM     31  C   UNL A   1      38.096  29.519  29.327  1.00  0.00    -0.014 A 
BRANCH  31  32
ATOM     32  C   UNL A   1      39.366  29.052  29.931  1.00  0.00     0.031 A 
ATOM     33  C   UNL A   1      39.921  29.752  31.136  1.00  0.00     0.074 A 
ATOM     34  C   UNL A   1      40.010  27.996  29.401  1.00  0.00     0.049 A 
ATOM     35  N   UNL A   1      41.057  29.561  31.755  1.00  0.00    -0.248 NA
ATOM     36  C   UNL A   1      39.084  30.811  31.725  1.00  0.00     0.031 C 
ATOM     37  C   UNL A   1      39.548  27.213  28.256  1.00  0.00     0.029 A 
ATOM     38  N   UNL A   1      41.198  27.407  29.753  1.00  0.00    -0.354 N 
ATOM     39  C   UNL A   1      41.085  30.487  32.788  1.00  0.00     0.074 A 
ATOM     40  C   UNL A   1      39.856  31.246  32.712  1.00  0.00     0.031 C 
ATOM     41  C   UNL A   1      40.447  26.249  27.994  1.00  0.00     0.029 A 
ATOM     42  C   UNL A   1      41.565  26.375  28.925  1.00  0.00     0.049 A 
ATOM     43  H   UNL A   1      41.737  27.698  30.525  1.00  0.00     0.167 HD
ATOM     44  C   UNL A   1      42.052  30.682  33.716  1.00  0.00     0.037 A 
ATOM     45  C   UNL A   1      42.691  25.637  28.904  1.00  0.00     0.037 A 
ATOM     46  C   UNL A   1      43.263  29.909  33.803  1.00  0.00     0.049 A 
ATOM     47  C   UNL A   1      43.765  25.903  29.923  1.00  0.00     0.074 A 
ATOM     48  C   UNL A   1      44.293  30.019  34.722  1.00  0.00     0.029 A 
ATOM     49  N   UNL A   1      43.605  28.879  32.941  1.00  0.00    -0.354 N 
ATOM     50  N   UNL A   1      43.784  26.780  30.897  1.00  0.00    -0.248 NA
ATOM     51  C   UNL A   1      44.979  25.078  29.837  1.00  0.00     0.031 C 
ATOM     52  C   UNL A   1      45.274  29.077  34.394  1.00  0.00     0.029 A 
ATOM     53  C   UNL A   1      44.838  28.355  33.294  1.00  0.00     0.049 A 
ATOM     54  H   UNL A   1      43.053  28.566  32.188  1.00  0.00     0.167 HD
ATOM     55  C   UNL A   1      44.995  26.602  31.549  1.00  0.00     0.074 A 
ATOM     56  C   UNL A   1      45.681  25.521  30.870  1.00  0.00     0.031 C 
ATOM     57  C   UNL A   1      45.497  27.273  32.613  1.00  0.00     0.037 A 
BRANCH  44  58
ATOM     58  C   UNL A   1      41.857  31.793  34.702  1.00  0.00     0.064 A 
ATOM     59  C   UNL A   1      42.453  33.049  34.523  1.00  0.00     0.173 A 
ATOM     60  C   UNL A   1      41.015  31.614  35.809  1.00  0.00     0.173 A 
ATOM     61  F   UNL A   1      43.277  33.263  33.487  1.00  0.00    -0.203 F 
ATOM     62  C   UNL A   1      42.221  34.084  35.425  1.00  0.00     0.198 A 
ATOM     63  C   UNL A   1      40.768  32.657  36.697  1.00  0.00     0.198 A 
ATOM     64  F   UNL A   1      40.420  30.430  36.020  1.00  0.00    -0.203 F 
ATOM     65  F   UNL A   1      42.820  35.270  35.252  1.00  0.00    -0.200 F 
ATOM     66  C   UNL A   1      41.373  33.890  36.506  1.00  0.00     0.200 A 
ATOM     67  F   UNL A   1      39.941  32.470  37.736  1.00  0.00    -0.200 F 
ATOM     68  F   UNL A   1      41.141  34.891  37.366  1.00  0.00    -0.200 F 
ENDBRANCH  44  58
BRANCH  45  69
ATOM     69  C   UNL A   1      42.873  24.592  27.865  1.00  0.00     0.064 A 
ATOM     70  C   UNL A   1      42.555  23.252  28.122  1.00  0.00     0.173 A 
ATOM     71  C   UNL A   1      43.390  24.911  26.601  1.00  0.00     0.173 A 
ATOM     72  F   UNL A   1      42.084  22.896  29.326  1.00  0.00    -0.203 F 
ATOM     73  C   UNL A   1      42.765  22.266  27.161  1.00  0.00     0.198 A 
ATOM     74  C   UNL A   1      43.573  23.929  25.630  1.00  0.00     0.198 A 
ATOM     75  F   UNL A   1      43.714  26.179  26.306  1.00  0.00    -0.203 F 
ATOM     76  F   UNL A   1      42.498  20.985  27.449  1.00  0.00    -0.200 F 
ATOM     77  C   UNL A   1      43.269  22.606  25.914  1.00  0.00     0.200 A 
ATOM     78  F   UNL A   1      44.053  24.261  24.424  1.00  0.00    -0.200 F 
ATOM     79  F   UNL A   1      43.471  21.656  24.990  1.00  0.00    -0.200 F 
ENDBRANCH  45  69
BRANCH  57  80
ATOM     80  C   UNL A   1      46.836  26.839  33.128  1.00  0.00     0.064 A 
ATOM     81  C   UNL A   1      48.021  27.444  32.687  1.00  0.00     0.173 A 
ATOM     82  C   UNL A   1      46.931  25.833  34.101  1.00  0.00     0.173 A 
ATOM     83  F   UNL A   1      47.981  28.399  31.746  1.00  0.00    -0.203 F 
ATOM     84  C   UNL A   1      49.256  27.043  33.189  1.00  0.00     0.198 A 
ATOM     85  C   UNL A   1      48.165  25.451  34.617  1.00  0.00     0.198 A 
ATOM     86  F   UNL A   1      45.824  25.227  34.557  1.00  0.00    -0.203 F 
ATOM     87  F   UNL A   1      50.380  27.607  32.726  1.00  0.00    -0.200 F 
ATOM     88  C   UNL A   1      49.327  26.052  34.157  1.00  0.00     0.200 A 
ATOM     89  F   UNL A   1      48.231  24.500  35.559  1.00  0.00    -0.200 F 
ATOM     90  F   UNL A   1      50.517  25.672  34.642  1.00  0.00    -0.200 F 
ENDBRANCH  57  80
ENDBRANCH  31  32
ENDBRANCH  24  26
ENDBRANCH  23  24
ENDBRANCH  22  23
ENDBRANCH   1  22
TORSDOF 15
ENDMDL
