MODEL 1
REMARK VINA RESULT:     -11.9      0.000      0.000
REMARK SMILES [NH3+][C@@]1(C(=O)OCCOC(=O)c2ccc(-c3c4nc(c(-c5c(F)c(F)c(F)c(F)c5F)c5ccc([nH]5)c(-c5c(F)c(F)c(F)c(F)c5F)c5nc(c(-c6c(F)c(F)c(F)c(F)c6F)c6ccc3[nH]6)C=C5)C=C4)cc2)CC[C@H](SC2CCOCC2)C1
REMARK SMILES IDX 6 1 5 2 3 3 4 4 2 5 74 6 84 7 75 8 76 9 1 10 77 14 78 15
REMARK SMILES IDX 79 16 83 17 80 18 82 19 81 20 7 21 8 22 9 23 10 24 11 25
REMARK SMILES IDX 12 26 73 27 13 28 72 29 14 30 15 31 16 32 66 33 17 34 71 35
REMARK SMILES IDX 65 36 67 37 18 38 70 39 64 40 63 41 19 43 51 44 31 45 50 46
REMARK SMILES IDX 32 47 35 48 49 49 68 50 33 51 34 52 48 54 69 55 36 56 20 57
REMARK SMILES IDX 21 58 29 59 22 60 23 61 27 62 30 63 24 64 25 65 28 66 26 67
REMARK SMILES IDX 52 68 53 69 61 70 54 71 55 72 59 73 62 74 56 75 57 76 60 77
REMARK SMILES IDX 58 78 37 79 38 80 46 81 39 82 40 83 44 84 47 85 41 86 42 87
REMARK SMILES IDX 45 88 43 89
REMARK H PARENT 1 11 1 12 1 13 67 42 35 53
REMARK Flexibility Score: inf
ROOT
ATOM      1  C   UNL A   1      31.881  28.218  27.273  1.00  0.00     0.274 C 
ENDROOT
BRANCH   1   2
ATOM      2  O   UNL A   1      32.380  27.467  26.152  1.00  0.00    -0.457 OA
BRANCH   2   3
ATOM      3  C   UNL A   1      31.466  26.858  25.350  1.00  0.00     0.368 C 
ATOM      4  O   UNL A   1      30.404  26.393  25.752  1.00  0.00    -0.245 OA
BRANCH   3   5
ATOM      5  C   UNL A   1      31.942  26.781  23.864  1.00  0.00     0.193 C 
ATOM      6  C   UNL A   1      32.766  28.031  23.555  1.00  0.00     0.082 C 
ATOM      7  C   UNL A   1      30.814  26.825  22.821  1.00  0.00     0.095 C 
ATOM      8  C   UNL A   1      31.700  29.072  23.245  1.00  0.00     0.022 C 
ATOM      9  C   UNL A   1      30.645  28.310  22.439  1.00  0.00     0.054 C 
BRANCH   5  10
ATOM     10  N   UNL A   1      32.758  25.561  23.672  1.00  0.00    -0.343 N 
ATOM     11  H   UNL A   1      32.966  25.144  24.580  1.00  0.00     0.345 HD
ATOM     12  H   UNL A   1      33.630  25.805  23.203  1.00  0.00     0.345 HD
ATOM     13  H   UNL A   1      32.241  24.892  23.101  1.00  0.00     0.345 HD
ENDBRANCH   5  10
BRANCH   9  14
ATOM     14  S   UNL A   1      28.928  28.863  22.727  1.00  0.00    -0.155 SA
BRANCH  14  15
ATOM     15  C   UNL A   1      28.945  30.618  22.188  1.00  0.00     0.051 C 
ATOM     16  C   UNL A   1      28.802  31.635  23.318  1.00  0.00     0.043 C 
ATOM     17  C   UNL A   1      27.945  30.893  21.064  1.00  0.00     0.043 C 
ATOM     18  C   UNL A   1      28.868  33.045  22.745  1.00  0.00     0.161 C 
ATOM     19  C   UNL A   1      28.046  32.349  20.631  1.00  0.00     0.161 C 
ATOM     20  O   UNL A   1      27.863  33.221  21.747  1.00  0.00    -0.381 OA
ENDBRANCH  14  15
ENDBRANCH   9  14
ENDBRANCH   3   5
ENDBRANCH   2   3
ENDBRANCH   1   2
BRANCH   1  21
ATOM     21  C   UNL A   1      31.747  29.696  26.912  1.00  0.00     0.275 C 
BRANCH  21  22
ATOM     22  O   UNL A   1      33.014  30.225  26.486  1.00  0.00    -0.458 OA
BRANCH  22  23
ATOM     23  C   UNL A   1      33.444  31.309  27.168  1.00  0.00     0.338 C 
ATOM     24  O   UNL A   1      32.850  32.351  27.383  1.00  0.00    -0.246 OA
BRANCH  23  25
ATOM     25  C   UNL A   1      34.782  31.044  27.703  1.00  0.00     0.060 A 
ATOM     26  C   UNL A   1      35.103  29.745  28.096  1.00  0.00     0.016 A 
ATOM     27  C   UNL A   1      35.658  32.099  27.946  1.00  0.00     0.016 A 
ATOM     28  C   UNL A   1      36.272  29.504  28.807  1.00  0.00     0.010 A 
ATOM     29  C   UNL A   1      36.868  31.842  28.592  1.00  0.00     0.010 A 
ATOM     30  C   UNL A   1      37.172  30.547  29.054  1.00  0.00    -0.014 A 
BRANCH  30  31
ATOM     31  C   UNL A   1      38.417  30.309  29.822  1.00  0.00     0.031 A 
ATOM     32  C   UNL A   1      39.491  29.439  29.240  1.00  0.00     0.074 A 
ATOM     33  C   UNL A   1      38.576  30.846  31.045  1.00  0.00     0.049 A 
ATOM     34  N   UNL A   1      40.517  28.879  29.829  1.00  0.00    -0.248 NA
ATOM     35  C   UNL A   1      39.392  29.148  27.801  1.00  0.00     0.031 C 
ATOM     36  C   UNL A   1      37.641  31.763  31.696  1.00  0.00     0.029 A 
ATOM     37  N   UNL A   1      39.581  30.683  31.964  1.00  0.00    -0.354 N 
ATOM     38  C   UNL A   1      41.142  28.118  28.852  1.00  0.00     0.074 A 
ATOM     39  C   UNL A   1      40.400  28.305  27.625  1.00  0.00     0.031 C 
ATOM     40  C   UNL A   1      38.117  32.087  32.908  1.00  0.00     0.029 A 
ATOM     41  C   UNL A   1      39.345  31.336  33.149  1.00  0.00     0.049 A 
ATOM     42  H   UNL A   1      40.391  30.151  31.792  1.00  0.00     0.167 HD
ATOM     43  C   UNL A   1      42.230  27.322  28.982  1.00  0.00     0.037 A 
ATOM     44  C   UNL A   1      40.012  31.291  34.316  1.00  0.00     0.037 A 
ATOM     45  C   UNL A   1      42.991  27.186  30.196  1.00  0.00     0.049 A 
ATOM     46  C   UNL A   1      41.211  30.395  34.442  1.00  0.00     0.074 A 
ATOM     47  C   UNL A   1      44.106  26.403  30.436  1.00  0.00     0.029 A 
ATOM     48  N   UNL A   1      42.721  27.872  31.371  1.00  0.00    -0.354 N 
ATOM     49  N   UNL A   1      41.746  29.605  33.545  1.00  0.00    -0.248 NA
ATOM     50  C   UNL A   1      41.881  30.366  35.749  1.00  0.00     0.031 C 
ATOM     51  C   UNL A   1      44.502  26.603  31.763  1.00  0.00     0.029 A 
ATOM     52  C   UNL A   1      43.649  27.531  32.340  1.00  0.00     0.049 A 
ATOM     53  H   UNL A   1      41.980  28.508  31.497  1.00  0.00     0.167 HD
ATOM     54  C   UNL A   1      42.817  28.986  34.172  1.00  0.00     0.074 A 
ATOM     55  C   UNL A   1      42.865  29.504  35.526  1.00  0.00     0.031 C 
ATOM     56  C   UNL A   1      43.678  28.066  33.676  1.00  0.00     0.037 A 
BRANCH  43  57
ATOM     57  C   UNL A   1      42.630  26.500  27.796  1.00  0.00     0.064 A 
ATOM     58  C   UNL A   1      43.584  26.947  26.872  1.00  0.00     0.173 A 
ATOM     59  C   UNL A   1      42.061  25.233  27.597  1.00  0.00     0.173 A 
ATOM     60  F   UNL A   1      44.141  28.159  27.009  1.00  0.00    -0.203 F 
ATOM     61  C   UNL A   1      43.942  26.159  25.781  1.00  0.00     0.198 A 
ATOM     62  C   UNL A   1      42.436  24.440  26.517  1.00  0.00     0.198 A 
ATOM     63  F   UNL A   1      41.143  24.762  28.455  1.00  0.00    -0.203 F 
ATOM     64  F   UNL A   1      44.831  26.618  24.888  1.00  0.00    -0.200 F 
ATOM     65  C   UNL A   1      43.373  24.905  25.607  1.00  0.00     0.200 A 
ATOM     66  F   UNL A   1      41.889  23.227  26.354  1.00  0.00    -0.200 F 
ATOM     67  F   UNL A   1      43.721  24.149  24.557  1.00  0.00    -0.200 F 
ENDBRANCH  43  57
BRANCH  44  68
ATOM     68  C   UNL A   1      39.516  32.083  35.467  1.00  0.00     0.064 A 
ATOM     69  C   UNL A   1      38.600  31.538  36.375  1.00  0.00     0.173 A 
ATOM     70  C   UNL A   1      39.980  33.387  35.704  1.00  0.00     0.173 A 
ATOM     71  F   UNL A   1      38.112  30.305  36.173  1.00  0.00    -0.203 F 
ATOM     72  C   UNL A   1      38.169  32.265  37.482  1.00  0.00     0.198 A 
ATOM     73  C   UNL A   1      39.565  34.104  36.824  1.00  0.00     0.198 A 
ATOM     74  F   UNL A   1      40.857  33.951  34.862  1.00  0.00    -0.203 F 
ATOM     75  F   UNL A   1      37.276  31.730  38.326  1.00  0.00    -0.200 F 
ATOM     76  C   UNL A   1      38.659  33.543  37.711  1.00  0.00     0.200 A 
ATOM     77  F   UNL A   1      40.050  35.332  37.047  1.00  0.00    -0.200 F 
ATOM     78  F   UNL A   1      38.255  34.235  38.785  1.00  0.00    -0.200 F 
ENDBRANCH  44  68
BRANCH  56  79
ATOM     79  C   UNL A   1      44.757  27.580  34.592  1.00  0.00     0.064 A 
ATOM     80  C   UNL A   1      44.580  26.436  35.381  1.00  0.00     0.173 A 
ATOM     81  C   UNL A   1      45.995  28.237  34.640  1.00  0.00     0.173 A 
ATOM     82  F   UNL A   1      43.406  25.787  35.375  1.00  0.00    -0.203 F 
ATOM     83  C   UNL A   1      45.605  25.971  36.198  1.00  0.00     0.198 A 
ATOM     84  C   UNL A   1      47.022  27.760  35.446  1.00  0.00     0.198 A 
ATOM     85  F   UNL A   1      46.206  29.335  33.899  1.00  0.00    -0.203 F 
ATOM     86  F   UNL A   1      45.411  24.889  36.964  1.00  0.00    -0.200 F 
ATOM     87  C   UNL A   1      46.827  26.629  36.226  1.00  0.00     0.200 A 
ATOM     88  F   UNL A   1      48.203  28.393  35.470  1.00  0.00    -0.200 F 
ATOM     89  F   UNL A   1      47.815  26.176  37.009  1.00  0.00    -0.200 F 
ENDBRANCH  56  79
ENDBRANCH  30  31
ENDBRANCH  23  25
ENDBRANCH  22  23
ENDBRANCH  21  22
ENDBRANCH   1  21
TORSDOF 14
ENDMDL
MODEL 2
REMARK VINA RESULT:     -11.6      5.587     10.708
REMARK SMILES [NH3+][C@@]1(C(=O)OCCOC(=O)c2ccc(-c3c4nc(c(-c5c(F)c(F)c(F)c(F)c5F)c5ccc([nH]5)c(-c5c(F)c(F)c(F)c(F)c5F)c5nc(c(-c6c(F)c(F)c(F)c(F)c6F)c6ccc3[nH]6)C=C5)C=C4)cc2)CC[C@H](SC2CCOCC2)C1
REMARK SMILES IDX 6 1 5 2 3 3 4 4 2 5 74 6 84 7 75 8 76 9 1 10 77 14 78 15
REMARK SMILES IDX 79 16 83 17 80 18 82 19 81 20 7 21 8 22 9 23 10 24 11 25
REMARK SMILES IDX 12 26 73 27 13 28 72 29 14 30 15 31 16 32 66 33 17 34 71 35
REMARK SMILES IDX 65 36 67 37 18 38 70 39 64 40 63 41 19 43 51 44 31 45 50 46
REMARK SMILES IDX 32 47 35 48 49 49 68 50 33 51 34 52 48 54 69 55 36 56 20 57
REMARK SMILES IDX 21 58 29 59 22 60 23 61 27 62 30 63 24 64 25 65 28 66 26 67
REMARK SMILES IDX 52 68 53 69 61 70 54 71 55 72 59 73 62 74 56 75 57 76 60 77
REMARK SMILES IDX 58 78 37 79 38 80 46 81 39 82 40 83 44 84 47 85 41 86 42 87
REMARK SMILES IDX 45 88 43 89
REMARK H PARENT 1 11 1 12 1 13 67 42 35 53
REMARK Flexibility Score: inf
ROOT
ATOM      1  C   UNL A   1      36.681  22.636  23.630  1.00  0.00     0.274 C 
ENDROOT
BRANCH   1   2
ATOM      2  O   UNL A   1      35.556  23.297  24.238  1.00  0.00    -0.457 OA
BRANCH   2   3
ATOM      3  C   UNL A   1      34.338  23.117  23.661  1.00  0.00     0.368 C 
ATOM      4  O   UNL A   1      34.155  23.068  22.448  1.00  0.00    -0.245 OA
BRANCH   3   5
ATOM      5  C   UNL A   1      33.191  23.023  24.718  1.00  0.00     0.193 C 
ATOM      6  C   UNL A   1      33.772  22.450  26.012  1.00  0.00     0.082 C 
ATOM      7  C   UNL A   1      32.064  22.041  24.362  1.00  0.00     0.095 C 
ATOM      8  C   UNL A   1      33.766  20.951  25.751  1.00  0.00     0.022 C 
ATOM      9  C   UNL A   1      32.449  20.697  25.013  1.00  0.00     0.054 C 
BRANCH   5  10
ATOM     10  N   UNL A   1      32.629  24.372  24.954  1.00  0.00    -0.343 N 
ATOM     11  H   UNL A   1      32.588  24.553  25.957  1.00  0.00     0.345 HD
ATOM     12  H   UNL A   1      31.689  24.422  24.561  1.00  0.00     0.345 HD
ATOM     13  H   UNL A   1      33.222  25.071  24.508  1.00  0.00     0.345 HD
ENDBRANCH   5  10
BRANCH   9  14
ATOM     14  S   UNL A   1      32.527  19.369  23.762  1.00  0.00    -0.155 SA
BRANCH  14  15
ATOM     15  C   UNL A   1      33.202  17.939  24.694  1.00  0.00     0.051 C 
ATOM     16  C   UNL A   1      34.491  17.353  24.121  1.00  0.00     0.043 C 
ATOM     17  C   UNL A   1      32.155  16.849  24.932  1.00  0.00     0.043 C 
ATOM     18  C   UNL A   1      34.963  16.203  25.002  1.00  0.00     0.161 C 
ATOM     19  C   UNL A   1      32.765  15.719  25.750  1.00  0.00     0.161 C 
ATOM     20  O   UNL A   1      33.941  15.214  25.117  1.00  0.00    -0.381 OA
ENDBRANCH  14  15
ENDBRANCH   9  14
ENDBRANCH   3   5
ENDBRANCH   2   3
ENDBRANCH   1   2
BRANCH   1  21
ATOM     21  C   UNL A   1      37.048  21.375  24.410  1.00  0.00     0.275 C 
BRANCH  21  22
ATOM     22  O   UNL A   1      37.468  21.714  25.742  1.00  0.00    -0.458 OA
BRANCH  22  23
ATOM     23  C   UNL A   1      38.766  21.459  26.019  1.00  0.00     0.338 C 
ATOM     24  O   UNL A   1      39.399  20.442  25.799  1.00  0.00    -0.246 OA
BRANCH  23  25
ATOM     25  C   UNL A   1      39.378  22.653  26.607  1.00  0.00     0.060 A 
ATOM     26  C   UNL A   1      38.951  23.908  26.175  1.00  0.00     0.016 A 
ATOM     27  C   UNL A   1      40.463  22.527  27.471  1.00  0.00     0.016 A 
ATOM     28  C   UNL A   1      39.658  25.047  26.544  1.00  0.00     0.010 A 
ATOM     29  C   UNL A   1      41.125  23.679  27.902  1.00  0.00     0.010 A 
ATOM     30  C   UNL A   1      40.746  24.945  27.419  1.00  0.00    -0.014 A 
BRANCH  30  31
ATOM     31  C   UNL A   1      41.518  26.148  27.812  1.00  0.00     0.031 A 
ATOM     32  C   UNL A   1      40.858  27.215  28.635  1.00  0.00     0.074 A 
ATOM     33  C   UNL A   1      42.793  26.298  27.413  1.00  0.00     0.049 A 
ATOM     34  N   UNL A   1      41.239  28.447  28.856  1.00  0.00    -0.248 NA
ATOM     35  C   UNL A   1      39.592  26.850  29.289  1.00  0.00     0.031 C 
ATOM     36  C   UNL A   1      43.572  25.308  26.670  1.00  0.00     0.029 A 
ATOM     37  N   UNL A   1      43.655  27.355  27.568  1.00  0.00    -0.354 N 
ATOM     38  C   UNL A   1      40.229  29.023  29.613  1.00  0.00     0.074 A 
ATOM     39  C   UNL A   1      39.230  28.001  29.838  1.00  0.00     0.031 C 
ATOM     40  C   UNL A   1      44.798  25.800  26.436  1.00  0.00     0.029 A 
ATOM     41  C   UNL A   1      44.862  27.168  26.941  1.00  0.00     0.049 A 
ATOM     42  H   UNL A   1      43.431  28.166  28.078  1.00  0.00     0.167 HD
ATOM     43  C   UNL A   1      40.144  30.297  30.062  1.00  0.00     0.037 A 
ATOM     44  C   UNL A   1      45.883  28.022  26.744  1.00  0.00     0.037 A 
ATOM     45  C   UNL A   1      41.170  31.289  29.876  1.00  0.00     0.049 A 
ATOM     46  C   UNL A   1      45.765  29.433  27.242  1.00  0.00     0.074 A 
ATOM     47  C   UNL A   1      41.182  32.611  30.286  1.00  0.00     0.029 A 
ATOM     48  N   UNL A   1      42.381  31.055  29.241  1.00  0.00    -0.354 N 
ATOM     49  N   UNL A   1      44.770  30.002  27.876  1.00  0.00    -0.248 NA
ATOM     50  C   UNL A   1      46.899  30.327  26.973  1.00  0.00     0.031 C 
ATOM     51  C   UNL A   1      42.394  33.182  29.884  1.00  0.00     0.029 A 
ATOM     52  C   UNL A   1      43.148  32.207  29.247  1.00  0.00     0.049 A 
ATOM     53  H   UNL A   1      42.654  30.196  28.844  1.00  0.00     0.167 HD
ATOM     54  C   UNL A   1      45.155  31.317  28.088  1.00  0.00     0.074 A 
ATOM     55  C   UNL A   1      46.484  31.460  27.525  1.00  0.00     0.031 C 
ATOM     56  C   UNL A   1      44.469  32.320  28.686  1.00  0.00     0.037 A 
BRANCH  43  57
ATOM     57  C   UNL A   1      38.879  30.703  30.752  1.00  0.00     0.064 A 
ATOM     58  C   UNL A   1      38.748  30.660  32.146  1.00  0.00     0.173 A 
ATOM     59  C   UNL A   1      37.787  31.166  30.000  1.00  0.00     0.173 A 
ATOM     60  F   UNL A   1      39.757  30.209  32.905  1.00  0.00    -0.203 F 
ATOM     61  C   UNL A   1      37.561  31.050  32.763  1.00  0.00     0.198 A 
ATOM     62  C   UNL A   1      36.611  31.573  30.622  1.00  0.00     0.198 A 
ATOM     63  F   UNL A   1      37.865  31.224  28.662  1.00  0.00    -0.203 F 
ATOM     64  F   UNL A   1      37.442  30.968  34.096  1.00  0.00    -0.200 F 
ATOM     65  C   UNL A   1      36.496  31.511  32.002  1.00  0.00     0.200 A 
ATOM     66  F   UNL A   1      35.586  32.023  29.884  1.00  0.00    -0.200 F 
ATOM     67  F   UNL A   1      35.357  31.887  32.598  1.00  0.00    -0.200 F 
ENDBRANCH  43  57
BRANCH  44  68
ATOM     68  C   UNL A   1      47.077  27.565  25.992  1.00  0.00     0.064 A 
ATOM     69  C   UNL A   1      47.123  27.647  24.596  1.00  0.00     0.173 A 
ATOM     70  C   UNL A   1      48.211  27.076  26.660  1.00  0.00     0.173 A 
ATOM     71  F   UNL A   1      46.053  28.084  23.916  1.00  0.00    -0.203 F 
ATOM     72  C   UNL A   1      48.262  27.262  23.892  1.00  0.00     0.198 A 
ATOM     73  C   UNL A   1      49.357  26.713  25.957  1.00  0.00     0.198 A 
ATOM     74  F   UNL A   1      48.213  26.980  27.998  1.00  0.00    -0.203 F 
ATOM     75  F   UNL A   1      48.274  27.329  22.554  1.00  0.00    -0.200 F 
ATOM     76  C   UNL A   1      49.381  26.805  24.574  1.00  0.00     0.200 A 
ATOM     77  F   UNL A   1      50.439  26.284  26.620  1.00  0.00    -0.200 F 
ATOM     78  F   UNL A   1      50.481  26.448  23.897  1.00  0.00    -0.200 F 
ENDBRANCH  44  68
BRANCH  56  79
ATOM     79  C   UNL A   1      45.150  33.648  28.784  1.00  0.00     0.064 A 
ATOM     80  C   UNL A   1      45.980  33.961  29.869  1.00  0.00     0.173 A 
ATOM     81  C   UNL A   1      45.010  34.594  27.759  1.00  0.00     0.173 A 
ATOM     82  F   UNL A   1      46.130  33.089  30.878  1.00  0.00    -0.203 F 
ATOM     83  C   UNL A   1      46.640  35.184  29.929  1.00  0.00     0.198 A 
ATOM     84  C   UNL A   1      45.684  35.810  27.816  1.00  0.00     0.198 A 
ATOM     85  F   UNL A   1      44.226  34.334  26.702  1.00  0.00    -0.203 F 
ATOM     86  F   UNL A   1      47.411  35.476  30.985  1.00  0.00    -0.200 F 
ATOM     87  C   UNL A   1      46.497  36.105  28.900  1.00  0.00     0.200 A 
ATOM     88  F   UNL A   1      45.548  36.697  26.820  1.00  0.00    -0.200 F 
ATOM     89  F   UNL A   1      47.138  37.280  28.957  1.00  0.00    -0.200 F 
ENDBRANCH  56  79
ENDBRANCH  30  31
ENDBRANCH  23  25
ENDBRANCH  22  23
ENDBRANCH  21  22
ENDBRANCH   1  21
TORSDOF 14
ENDMDL
MODEL 3
REMARK VINA RESULT:     -11.6      1.960      3.602
REMARK SMILES [NH3+][C@@]1(C(=O)OCCOC(=O)c2ccc(-c3c4nc(c(-c5c(F)c(F)c(F)c(F)c5F)c5ccc([nH]5)c(-c5c(F)c(F)c(F)c(F)c5F)c5nc(c(-c6c(F)c(F)c(F)c(F)c6F)c6ccc3[nH]6)C=C5)C=C4)cc2)CC[C@H](SC2CCOCC2)C1
REMARK SMILES IDX 6 1 5 2 3 3 4 4 2 5 74 6 84 7 75 8 76 9 1 10 77 14 78 15
REMARK SMILES IDX 79 16 83 17 80 18 82 19 81 20 7 21 8 22 9 23 10 24 11 25
REMARK SMILES IDX 12 26 73 27 13 28 72 29 14 30 15 31 16 32 66 33 17 34 71 35
REMARK SMILES IDX 65 36 67 37 18 38 70 39 64 40 63 41 19 43 51 44 31 45 50 46
REMARK SMILES IDX 32 47 35 48 49 49 68 50 33 51 34 52 48 54 69 55 36 56 20 57
REMARK SMILES IDX 21 58 29 59 22 60 23 61 27 62 30 63 24 64 25 65 28 66 26 67
REMARK SMILES IDX 52 68 53 69 61 70 54 71 55 72 59 73 62 74 56 75 57 76 60 77
REMARK SMILES IDX 58 78 37 79 38 80 46 81 39 82 40 83 44 84 47 85 41 86 42 87
REMARK SMILES IDX 45 88 43 89
REMARK H PARENT 1 11 1 12 1 13 67 42 35 53
REMARK Flexibility Score: inf
ROOT
ATOM      1  C   UNL A   1      31.552  29.326  24.099  1.00  0.00     0.274 C 
ENDROOT
BRANCH   1   2
ATOM      2  O   UNL A   1      30.314  28.604  23.974  1.00  0.00    -0.457 OA
BRANCH   2   3
ATOM      3  C   UNL A   1      30.310  27.503  23.176  1.00  0.00     0.368 C 
ATOM      4  O   UNL A   1      30.670  27.505  22.003  1.00  0.00    -0.245 OA
BRANCH   3   5
ATOM      5  C   UNL A   1      29.754  26.241  23.913  1.00  0.00     0.193 C 
ATOM      6  C   UNL A   1      30.256  26.266  25.358  1.00  0.00     0.082 C 
ATOM      7  C   UNL A   1      30.272  24.898  23.374  1.00  0.00     0.095 C 
ATOM      8  C   UNL A   1      31.656  25.682  25.241  1.00  0.00     0.022 C 
ATOM      9  C   UNL A   1      31.514  24.550  24.220  1.00  0.00     0.054 C 
BRANCH   5  10
ATOM     10  N   UNL A   1      28.275  26.263  23.876  1.00  0.00    -0.343 N 
ATOM     11  H   UNL A   1      27.953  25.945  22.962  1.00  0.00     0.345 HD
ATOM     12  H   UNL A   1      27.944  27.213  24.042  1.00  0.00     0.345 HD
ATOM     13  H   UNL A   1      27.908  25.643  24.599  1.00  0.00     0.345 HD
ENDBRANCH   5  10
BRANCH   9  14
ATOM     14  S   UNL A   1      32.977  24.305  23.154  1.00  0.00    -0.155 SA
BRANCH  14  15
ATOM     15  C   UNL A   1      33.497  22.584  23.528  1.00  0.00     0.051 C 
ATOM     16  C   UNL A   1      32.388  21.683  24.066  1.00  0.00     0.043 C 
ATOM     17  C   UNL A   1      34.739  22.530  24.419  1.00  0.00     0.043 C 
ATOM     18  C   UNL A   1      32.939  20.282  24.299  1.00  0.00     0.161 C 
ATOM     19  C   UNL A   1      35.145  21.080  24.648  1.00  0.00     0.161 C 
ATOM     20  O   UNL A   1      34.056  20.329  25.185  1.00  0.00    -0.381 OA
ENDBRANCH  14  15
ENDBRANCH   9  14
ENDBRANCH   3   5
ENDBRANCH   2   3
ENDBRANCH   1   2
BRANCH   1  21
ATOM     21  C   UNL A   1      31.567  30.145  25.387  1.00  0.00     0.275 C 
BRANCH  21  22
ATOM     22  O   UNL A   1      32.845  30.035  26.037  1.00  0.00    -0.458 OA
BRANCH  22  23
ATOM     23  C   UNL A   1      33.154  31.049  26.874  1.00  0.00     0.338 C 
ATOM     24  O   UNL A   1      32.465  32.002  27.195  1.00  0.00    -0.246 OA
BRANCH  23  25
ATOM     25  C   UNL A   1      34.491  30.825  27.431  1.00  0.00     0.060 A 
ATOM     26  C   UNL A   1      34.876  29.524  27.751  1.00  0.00     0.016 A 
ATOM     27  C   UNL A   1      35.299  31.910  27.764  1.00  0.00     0.016 A 
ATOM     28  C   UNL A   1      36.038  29.303  28.480  1.00  0.00     0.010 A 
ATOM     29  C   UNL A   1      36.504  31.679  28.429  1.00  0.00     0.010 A 
ATOM     30  C   UNL A   1      36.870  30.377  28.818  1.00  0.00    -0.014 A 
BRANCH  30  31
ATOM     31  C   UNL A   1      38.106  30.159  29.606  1.00  0.00     0.031 A 
ATOM     32  C   UNL A   1      39.197  29.293  29.048  1.00  0.00     0.074 A 
ATOM     33  C   UNL A   1      38.243  30.712  30.824  1.00  0.00     0.049 A 
ATOM     34  N   UNL A   1      40.219  28.749  29.659  1.00  0.00    -0.248 NA
ATOM     35  C   UNL A   1      39.120  28.984  27.612  1.00  0.00     0.031 C 
ATOM     36  C   UNL A   1      37.291  31.627  31.452  1.00  0.00     0.029 A 
ATOM     37  N   UNL A   1      39.236  30.569  31.760  1.00  0.00    -0.354 N 
ATOM     38  C   UNL A   1      40.865  27.983  28.699  1.00  0.00     0.074 A 
ATOM     39  C   UNL A   1      40.138  28.149  27.460  1.00  0.00     0.031 C 
ATOM     40  C   UNL A   1      37.746  31.969  32.666  1.00  0.00     0.029 A 
ATOM     41  C   UNL A   1      38.978  31.233  32.933  1.00  0.00     0.049 A 
ATOM     42  H   UNL A   1      40.054  30.042  31.605  1.00  0.00     0.167 HD
ATOM     43  C   UNL A   1      41.958  27.199  28.854  1.00  0.00     0.037 A 
ATOM     44  C   UNL A   1      39.629  31.208  34.110  1.00  0.00     0.037 A 
ATOM     45  C   UNL A   1      42.704  27.084  30.080  1.00  0.00     0.049 A 
ATOM     46  C   UNL A   1      40.834  30.325  34.263  1.00  0.00     0.074 A 
ATOM     47  C   UNL A   1      43.822  26.315  30.345  1.00  0.00     0.029 A 
ATOM     48  N   UNL A   1      42.411  27.781  31.243  1.00  0.00    -0.354 N 
ATOM     49  N   UNL A   1      41.389  29.530  33.382  1.00  0.00    -0.248 NA
ATOM     50  C   UNL A   1      41.487  30.317  35.579  1.00  0.00     0.031 C 
ATOM     51  C   UNL A   1      44.198  26.534  31.674  1.00  0.00     0.029 A 
ATOM     52  C   UNL A   1      43.328  27.460  32.228  1.00  0.00     0.049 A 
ATOM     53  H   UNL A   1      41.662  28.411  31.351  1.00  0.00     0.167 HD
ATOM     54  C   UNL A   1      42.457  28.928  34.032  1.00  0.00     0.074 A 
ATOM     55  C   UNL A   1      42.481  29.462  35.380  1.00  0.00     0.031 C 
ATOM     56  C   UNL A   1      43.333  28.011  33.559  1.00  0.00     0.037 A 
BRANCH  43  57
ATOM     57  C   UNL A   1      42.382  26.368  27.683  1.00  0.00     0.064 A 
ATOM     58  C   UNL A   1      43.369  26.798  26.786  1.00  0.00     0.173 A 
ATOM     59  C   UNL A   1      41.804  25.106  27.473  1.00  0.00     0.173 A 
ATOM     60  F   UNL A   1      43.937  28.004  26.935  1.00  0.00    -0.203 F 
ATOM     61  C   UNL A   1      43.749  26.002  25.708  1.00  0.00     0.198 A 
ATOM     62  C   UNL A   1      42.201  24.305  26.407  1.00  0.00     0.198 A 
ATOM     63  F   UNL A   1      40.855  24.651  28.304  1.00  0.00    -0.203 F 
ATOM     64  F   UNL A   1      44.669  26.446  24.840  1.00  0.00    -0.200 F 
ATOM     65  C   UNL A   1      43.170  24.754  25.523  1.00  0.00     0.200 A 
ATOM     66  F   UNL A   1      41.644  23.098  26.233  1.00  0.00    -0.200 F 
ATOM     67  F   UNL A   1      43.539  23.989  24.487  1.00  0.00    -0.200 F 
ENDBRANCH  43  57
BRANCH  44  68
ATOM     68  C   UNL A   1      39.109  32.009  35.244  1.00  0.00     0.064 A 
ATOM     69  C   UNL A   1      38.367  31.409  36.268  1.00  0.00     0.173 A 
ATOM     70  C   UNL A   1      39.381  33.382  35.347  1.00  0.00     0.173 A 
ATOM     71  F   UNL A   1      38.063  30.104  36.198  1.00  0.00    -0.203 F 
ATOM     72  C   UNL A   1      37.918  32.151  37.358  1.00  0.00     0.198 A 
ATOM     73  C   UNL A   1      38.951  34.119  36.449  1.00  0.00     0.198 A 
ATOM     74  F   UNL A   1      40.088  34.000  34.390  1.00  0.00    -0.203 F 
ATOM     75  F   UNL A   1      37.191  31.559  38.315  1.00  0.00    -0.200 F 
ATOM     76  C   UNL A   1      38.219  33.503  37.452  1.00  0.00     0.200 A 
ATOM     77  F   UNL A   1      39.254  35.420  36.541  1.00  0.00    -0.200 F 
ATOM     78  F   UNL A   1      37.799  34.213  38.508  1.00  0.00    -0.200 F 
ENDBRANCH  44  68
BRANCH  56  79
ATOM     79  C   UNL A   1      44.404  27.546  34.495  1.00  0.00     0.064 A 
ATOM     80  C   UNL A   1      44.231  26.403  35.287  1.00  0.00     0.173 A 
ATOM     81  C   UNL A   1      45.631  28.221  34.560  1.00  0.00     0.173 A 
ATOM     82  F   UNL A   1      43.067  25.736  35.264  1.00  0.00    -0.203 F 
ATOM     83  C   UNL A   1      45.249  25.957  36.123  1.00  0.00     0.198 A 
ATOM     84  C   UNL A   1      46.652  27.764  35.387  1.00  0.00     0.198 A 
ATOM     85  F   UNL A   1      45.838  29.319  33.818  1.00  0.00    -0.203 F 
ATOM     86  F   UNL A   1      45.058  24.877  36.892  1.00  0.00    -0.200 F 
ATOM     87  C   UNL A   1      46.460  26.634  36.168  1.00  0.00     0.200 A 
ATOM     88  F   UNL A   1      47.822  28.415  35.427  1.00  0.00    -0.200 F 
ATOM     89  F   UNL A   1      47.442  26.200  36.970  1.00  0.00    -0.200 F 
ENDBRANCH  56  79
ENDBRANCH  30  31
ENDBRANCH  23  25
ENDBRANCH  22  23
ENDBRANCH  21  22
ENDBRANCH   1  21
TORSDOF 14
ENDMDL
