MODEL 1
REMARK VINA RESULT:     -11.4      0.000      0.000
REMARK SMILES C[NH2+]C[C@H](C)C(=O)N1CC[C@@](C(=O)OCCOC(=O)c2ccc(-c3c4nc(c(-c5c(F)c(F)c(F)c(F)c5F)c5ccc([nH]5)c(-c5c(F)c(F)c(F)c(F)c5F)c5nc(c(-c6c(F)c(F)c(F)c(F)c6F)c6ccc3[nH]6)C=C5)C=C4)cc2)(C(F)(F)F)C1
REMARK SMILES IDX 15 1 14 2 12 3 13 4 11 5 8 6 9 7 87 8 10 9 6 10 7 11 4 12
REMARK SMILES IDX 5 13 3 14 2 15 1 16 83 19 84 20 85 21 86 22 16 23 17 24
REMARK SMILES IDX 18 25 19 26 20 27 21 28 82 29 22 30 81 31 23 32 24 33 25 34
REMARK SMILES IDX 75 35 26 36 80 37 74 38 76 39 27 40 79 41 73 42 72 43 28 45
REMARK SMILES IDX 60 46 40 47 59 48 41 49 44 50 58 51 77 52 42 53 43 54 57 56
REMARK SMILES IDX 78 57 45 58 29 59 30 60 38 61 31 62 32 63 36 64 39 65 33 66
REMARK SMILES IDX 34 67 37 68 35 69 61 70 62 71 70 72 63 73 64 74 68 75 71 76
REMARK SMILES IDX 65 77 66 78 69 79 67 80 46 81 47 82 55 83 48 84 49 85 53 86
REMARK SMILES IDX 56 87 50 88 51 89 54 90 52 91
REMARK H PARENT 2 17 2 18 76 44 44 55
REMARK Flexibility Score: inf
ROOT
ATOM      1  C   UNL A   1      31.707  28.596  27.168  1.00  0.00     0.274 C 
ENDROOT
BRANCH   1   2
ATOM      2  O   UNL A   1      32.439  27.386  26.872  1.00  0.00    -0.461 OA
BRANCH   2   3
ATOM      3  C   UNL A   1      31.758  26.325  26.363  1.00  0.00     0.323 C 
ATOM      4  O   UNL A   1      30.609  26.043  26.675  1.00  0.00    -0.251 OA
BRANCH   3   5
ATOM      5  C   UNL A   1      32.607  25.482  25.442  1.00  0.00     0.182 C 
ATOM      6  N   UNL A   1      33.555  23.327  25.787  1.00  0.00    -0.341 N 
ATOM      7  C   UNL A   1      34.649  24.198  25.403  1.00  0.00     0.121 C 
ATOM      8  C   UNL A   1      32.277  24.019  25.716  1.00  0.00     0.148 C 
ATOM      9  C   UNL A   1      34.125  25.589  25.684  1.00  0.00     0.052 C 
BRANCH   6  10
ATOM     10  C   UNL A   1      33.577  21.997  26.132  1.00  0.00     0.231 C 
ATOM     11  O   UNL A   1      33.582  21.665  27.323  1.00  0.00    -0.274 OA
BRANCH  10  12
ATOM     12  C   UNL A   1      33.777  20.927  25.066  1.00  0.00     0.130 C 
ATOM     13  C   UNL A   1      35.188  20.354  24.995  1.00  0.00     0.024 C 
BRANCH  12  14
ATOM     14  C   UNL A   1      32.688  19.841  25.185  1.00  0.00     0.273 C 
BRANCH  14  15
ATOM     15  N   UNL A   1      32.903  18.843  26.244  1.00  0.00    -0.348 N 
ATOM     16  C   UNL A   1      32.840  17.475  25.744  1.00  0.00     0.330 C 
ATOM     17  H   UNL A   1      33.822  18.998  26.659  1.00  0.00     0.346 HD
ATOM     18  H   UNL A   1      32.158  18.955  26.933  1.00  0.00     0.346 HD
ENDBRANCH  14  15
ENDBRANCH  12  14
ENDBRANCH  10  12
ENDBRANCH   6  10
BRANCH   5  19
ATOM     19  C   UNL A   1      32.269  25.818  24.012  1.00  0.00     0.406 C 
ATOM     20  F   UNL A   1      31.595  24.804  23.416  1.00  0.00    -0.170 F 
ATOM     21  F   UNL A   1      31.507  26.921  23.877  1.00  0.00    -0.170 F 
ATOM     22  F   UNL A   1      33.389  26.000  23.279  1.00  0.00    -0.170 F 
ENDBRANCH   5  19
ENDBRANCH   3   5
ENDBRANCH   2   3
ENDBRANCH   1   2
BRANCH   1  23
ATOM     23  C   UNL A   1      31.776  29.540  25.970  1.00  0.00     0.275 C 
BRANCH  23  24
ATOM     24  O   UNL A   1      33.078  30.149  25.955  1.00  0.00    -0.458 OA
BRANCH  24  25
ATOM     25  C   UNL A   1      33.302  31.105  26.880  1.00  0.00     0.338 C 
ATOM     26  O   UNL A   1      32.539  31.990  27.250  1.00  0.00    -0.246 OA
BRANCH  25  27
ATOM     27  C   UNL A   1      34.621  30.876  27.481  1.00  0.00     0.060 A 
ATOM     28  C   UNL A   1      35.020  29.566  27.733  1.00  0.00     0.016 A 
ATOM     29  C   UNL A   1      35.407  31.943  27.913  1.00  0.00     0.016 A 
ATOM     30  C   UNL A   1      36.142  29.315  28.515  1.00  0.00     0.010 A 
ATOM     31  C   UNL A   1      36.605  31.681  28.588  1.00  0.00     0.010 A 
ATOM     32  C   UNL A   1      36.970  30.366  28.929  1.00  0.00    -0.014 A 
BRANCH  32  33
ATOM     33  C   UNL A   1      38.193  30.084  29.733  1.00  0.00     0.031 A 
ATOM     34  C   UNL A   1      39.301  29.243  29.157  1.00  0.00     0.074 A 
ATOM     35  C   UNL A   1      38.328  30.592  30.974  1.00  0.00     0.049 A 
ATOM     36  N   UNL A   1      40.328  28.699  29.763  1.00  0.00    -0.248 NA
ATOM     37  C   UNL A   1      39.242  28.964  27.715  1.00  0.00     0.031 C 
ATOM     38  C   UNL A   1      37.367  31.470  31.644  1.00  0.00     0.029 A 
ATOM     39  N   UNL A   1      39.339  30.452  31.893  1.00  0.00    -0.354 N 
ATOM     40  C   UNL A   1      40.986  27.953  28.795  1.00  0.00     0.074 A 
ATOM     41  C   UNL A   1      40.258  28.127  27.557  1.00  0.00     0.031 C 
ATOM     42  C   UNL A   1      37.857  31.833  32.838  1.00  0.00     0.029 A 
ATOM     43  C   UNL A   1      39.113  31.130  33.067  1.00  0.00     0.049 A 
ATOM     44  H   UNL A   1      40.150  29.917  31.728  1.00  0.00     0.167 HD
ATOM     45  C   UNL A   1      42.092  27.183  28.936  1.00  0.00     0.037 A 
ATOM     46  C   UNL A   1      39.805  31.146  34.220  1.00  0.00     0.037 A 
ATOM     47  C   UNL A   1      42.862  27.079  30.149  1.00  0.00     0.049 A 
ATOM     48  C   UNL A   1      41.029  30.286  34.353  1.00  0.00     0.074 A 
ATOM     49  C   UNL A   1      44.008  26.340  30.385  1.00  0.00     0.029 A 
ATOM     50  N   UNL A   1      42.576  27.759  31.323  1.00  0.00    -0.354 N 
ATOM     51  N   UNL A   1      41.587  29.503  33.464  1.00  0.00    -0.248 NA
ATOM     52  C   UNL A   1      41.697  30.285  35.661  1.00  0.00     0.031 C 
ATOM     53  C   UNL A   1      44.404  26.555  31.710  1.00  0.00     0.029 A 
ATOM     54  C   UNL A   1      43.521  27.451  32.289  1.00  0.00     0.049 A 
ATOM     55  H   UNL A   1      41.815  28.370  31.452  1.00  0.00     0.167 HD
ATOM     56  C   UNL A   1      42.663  28.908  34.103  1.00  0.00     0.074 A 
ATOM     57  C   UNL A   1      42.701  29.444  35.449  1.00  0.00     0.031 C 
ATOM     58  C   UNL A   1      43.535  27.989  33.623  1.00  0.00     0.037 A 
BRANCH  45  59
ATOM     59  C   UNL A   1      42.520  26.357  27.760  1.00  0.00     0.064 A 
ATOM     60  C   UNL A   1      43.515  26.784  26.871  1.00  0.00     0.173 A 
ATOM     61  C   UNL A   1      41.948  25.092  27.552  1.00  0.00     0.173 A 
ATOM     62  F   UNL A   1      44.081  27.991  27.019  1.00  0.00    -0.203 F 
ATOM     63  C   UNL A   1      43.912  25.980  25.804  1.00  0.00     0.198 A 
ATOM     64  C   UNL A   1      42.363  24.282  26.498  1.00  0.00     0.198 A 
ATOM     65  F   UNL A   1      40.994  24.636  28.377  1.00  0.00    -0.203 F 
ATOM     66  F   UNL A   1      44.841  26.420  24.945  1.00  0.00    -0.200 F 
ATOM     67  C   UNL A   1      43.341  24.727  25.623  1.00  0.00     0.200 A 
ATOM     68  F   UNL A   1      41.816  23.069  26.331  1.00  0.00    -0.200 F 
ATOM     69  F   UNL A   1      43.730  23.954  24.601  1.00  0.00    -0.200 F 
ENDBRANCH  45  59
BRANCH  46  70
ATOM     70  C   UNL A   1      39.316  31.963  35.360  1.00  0.00     0.064 A 
ATOM     71  C   UNL A   1      38.511  31.398  36.358  1.00  0.00     0.173 A 
ATOM     72  C   UNL A   1      39.664  33.316  35.488  1.00  0.00     0.173 A 
ATOM     73  F   UNL A   1      38.128  30.116  36.263  1.00  0.00    -0.203 F 
ATOM     74  C   UNL A   1      38.072  32.158  37.440  1.00  0.00     0.198 A 
ATOM     75  C   UNL A   1      39.249  34.066  36.585  1.00  0.00     0.198 A 
ATOM     76  F   UNL A   1      40.432  33.903  34.556  1.00  0.00    -0.203 F 
ATOM     77  F   UNL A   1      37.275  31.604  38.365  1.00  0.00    -0.200 F 
ATOM     78  C   UNL A   1      38.450  33.487  37.558  1.00  0.00     0.200 A 
ATOM     79  F   UNL A   1      39.629  35.345  36.701  1.00  0.00    -0.200 F 
ATOM     80  F   UNL A   1      38.038  34.212  38.607  1.00  0.00    -0.200 F 
ENDBRANCH  46  70
BRANCH  58  81
ATOM     81  C   UNL A   1      44.599  27.511  34.562  1.00  0.00     0.064 A 
ATOM     82  C   UNL A   1      45.819  28.191  34.683  1.00  0.00     0.173 A 
ATOM     83  C   UNL A   1      44.389  26.382  35.365  1.00  0.00     0.173 A 
ATOM     84  F   UNL A   1      46.070  29.266  33.921  1.00  0.00    -0.203 F 
ATOM     85  C   UNL A   1      46.800  27.745  35.563  1.00  0.00     0.198 A 
ATOM     86  C   UNL A   1      45.364  25.949  36.258  1.00  0.00     0.198 A 
ATOM     87  F   UNL A   1      43.235  25.700  35.284  1.00  0.00    -0.203 F 
ATOM     88  F   UNL A   1      47.974  28.386  35.637  1.00  0.00    -0.200 F 
ATOM     89  C   UNL A   1      46.570  26.628  36.353  1.00  0.00     0.200 A 
ATOM     90  F   UNL A   1      45.139  24.874  37.025  1.00  0.00    -0.200 F 
ATOM     91  F   UNL A   1      47.516  26.200  37.201  1.00  0.00    -0.200 F 
ENDBRANCH  58  81
ENDBRANCH  32  33
ENDBRANCH  25  27
ENDBRANCH  24  25
ENDBRANCH  23  24
ENDBRANCH   1  23
TORSDOF 16
ENDMDL
MODEL 2
REMARK VINA RESULT:     -11.2      1.023      2.444
REMARK SMILES C[NH2+]C[C@H](C)C(=O)N1CC[C@@](C(=O)OCCOC(=O)c2ccc(-c3c4nc(c(-c5c(F)c(F)c(F)c(F)c5F)c5ccc([nH]5)c(-c5c(F)c(F)c(F)c(F)c5F)c5nc(c(-c6c(F)c(F)c(F)c(F)c6F)c6ccc3[nH]6)C=C5)C=C4)cc2)(C(F)(F)F)C1
REMARK SMILES IDX 15 1 14 2 12 3 13 4 11 5 8 6 9 7 87 8 10 9 6 10 7 11 4 12
REMARK SMILES IDX 5 13 3 14 2 15 1 16 83 19 84 20 85 21 86 22 16 23 17 24
REMARK SMILES IDX 18 25 19 26 20 27 21 28 82 29 22 30 81 31 23 32 24 33 25 34
REMARK SMILES IDX 75 35 26 36 80 37 74 38 76 39 27 40 79 41 73 42 72 43 28 45
REMARK SMILES IDX 60 46 40 47 59 48 41 49 44 50 58 51 77 52 42 53 43 54 57 56
REMARK SMILES IDX 78 57 45 58 29 59 30 60 38 61 31 62 32 63 36 64 39 65 33 66
REMARK SMILES IDX 34 67 37 68 35 69 61 70 62 71 70 72 63 73 64 74 68 75 71 76
REMARK SMILES IDX 65 77 66 78 69 79 67 80 46 81 47 82 55 83 48 84 49 85 53 86
REMARK SMILES IDX 56 87 50 88 51 89 54 90 52 91
REMARK H PARENT 2 17 2 18 76 44 44 55
REMARK Flexibility Score: inf
ROOT
ATOM      1  C   UNL A   1      32.751  29.155  24.429  1.00  0.00     0.274 C 
ENDROOT
BRANCH   1   2
ATOM      2  O   UNL A   1      32.491  27.751  24.647  1.00  0.00    -0.461 OA
BRANCH   2   3
ATOM      3  C   UNL A   1      31.943  27.028  23.634  1.00  0.00     0.323 C 
ATOM      4  O   UNL A   1      32.056  27.323  22.452  1.00  0.00    -0.251 OA
BRANCH   3   5
ATOM      5  C   UNL A   1      31.104  25.877  24.133  1.00  0.00     0.182 C 
ATOM      6  N   UNL A   1      31.742  23.943  25.365  1.00  0.00    -0.341 N 
ATOM      7  C   UNL A   1      31.045  23.466  24.186  1.00  0.00     0.121 C 
ATOM      8  C   UNL A   1      31.709  25.396  25.447  1.00  0.00     0.148 C 
ATOM      9  C   UNL A   1      31.109  24.632  23.225  1.00  0.00     0.052 C 
BRANCH   6  10
ATOM     10  C   UNL A   1      32.341  23.230  26.375  1.00  0.00     0.231 C 
ATOM     11  O   UNL A   1      31.841  23.215  27.505  1.00  0.00    -0.274 OA
BRANCH  10  12
ATOM     12  C   UNL A   1      33.714  22.601  26.165  1.00  0.00     0.130 C 
ATOM     13  C   UNL A   1      34.868  23.596  26.117  1.00  0.00     0.024 C 
BRANCH  12  14
ATOM     14  C   UNL A   1      33.941  21.458  27.176  1.00  0.00     0.273 C 
BRANCH  14  15
ATOM     15  N   UNL A   1      33.279  20.185  26.850  1.00  0.00    -0.348 N 
ATOM     16  C   UNL A   1      33.194  19.952  25.414  1.00  0.00     0.330 C 
ATOM     17  H   UNL A   1      33.807  19.423  27.275  1.00  0.00     0.346 HD
ATOM     18  H   UNL A   1      32.326  20.229  27.214  1.00  0.00     0.346 HD
ENDBRANCH  14  15
ENDBRANCH  12  14
ENDBRANCH  10  12
ENDBRANCH   6  10
BRANCH   5  19
ATOM     19  C   UNL A   1      29.695  26.359  24.370  1.00  0.00     0.406 C 
ATOM     20  F   UNL A   1      29.634  27.713  24.367  1.00  0.00    -0.170 F 
ATOM     21  F   UNL A   1      28.811  25.930  23.449  1.00  0.00    -0.170 F 
ATOM     22  F   UNL A   1      29.247  25.970  25.583  1.00  0.00    -0.170 F 
ENDBRANCH   5  19
ENDBRANCH   3   5
ENDBRANCH   2   3
ENDBRANCH   1   2
BRANCH   1  23
ATOM     23  C   UNL A   1      31.922  29.985  25.404  1.00  0.00     0.275 C 
BRANCH  23  24
ATOM     24  O   UNL A   1      32.592  29.982  26.676  1.00  0.00    -0.458 OA
BRANCH  24  25
ATOM     25  C   UNL A   1      33.114  31.157  27.081  1.00  0.00     0.338 C 
ATOM     26  O   UNL A   1      32.586  32.263  27.063  1.00  0.00    -0.246 OA
BRANCH  25  27
ATOM     27  C   UNL A   1      34.440  30.907  27.660  1.00  0.00     0.060 A 
ATOM     28  C   UNL A   1      34.791  29.597  27.979  1.00  0.00     0.016 A 
ATOM     29  C   UNL A   1      35.281  31.961  28.006  1.00  0.00     0.016 A 
ATOM     30  C   UNL A   1      35.923  29.344  28.744  1.00  0.00     0.010 A 
ATOM     31  C   UNL A   1      36.486  31.688  28.664  1.00  0.00     0.010 A 
ATOM     32  C   UNL A   1      36.806  30.380  29.073  1.00  0.00    -0.014 A 
BRANCH  32  33
ATOM     33  C   UNL A   1      38.038  30.092  29.860  1.00  0.00     0.031 A 
ATOM     34  C   UNL A   1      39.142  29.261  29.263  1.00  0.00     0.074 A 
ATOM     35  C   UNL A   1      38.187  30.587  31.105  1.00  0.00     0.049 A 
ATOM     36  N   UNL A   1      40.176  28.712  29.851  1.00  0.00    -0.248 NA
ATOM     37  C   UNL A   1      39.067  28.996  27.818  1.00  0.00     0.031 C 
ATOM     38  C   UNL A   1      37.231  31.456  31.795  1.00  0.00     0.029 A 
ATOM     39  N   UNL A   1      39.208  30.441  32.011  1.00  0.00    -0.354 N 
ATOM     40  C   UNL A   1      40.826  27.978  28.868  1.00  0.00     0.074 A 
ATOM     41  C   UNL A   1      40.083  28.164  27.640  1.00  0.00     0.031 C 
ATOM     42  C   UNL A   1      37.734  31.807  32.987  1.00  0.00     0.029 A 
ATOM     43  C   UNL A   1      38.994  31.105  33.194  1.00  0.00     0.049 A 
ATOM     44  H   UNL A   1      40.019  29.909  31.831  1.00  0.00     0.167 HD
ATOM     45  C   UNL A   1      41.935  27.210  28.988  1.00  0.00     0.037 A 
ATOM     46  C   UNL A   1      39.699  31.111  34.340  1.00  0.00     0.037 A 
ATOM     47  C   UNL A   1      42.719  27.095  30.191  1.00  0.00     0.049 A 
ATOM     48  C   UNL A   1      40.926  30.252  34.449  1.00  0.00     0.074 A 
ATOM     49  C   UNL A   1      43.869  26.356  30.406  1.00  0.00     0.029 A 
ATOM     50  N   UNL A   1      42.445  27.762  31.375  1.00  0.00    -0.354 N 
ATOM     51  N   UNL A   1      41.476  29.480  33.546  1.00  0.00    -0.248 NA
ATOM     52  C   UNL A   1      41.609  30.239  35.750  1.00  0.00     0.031 C 
ATOM     53  C   UNL A   1      44.279  26.558  31.729  1.00  0.00     0.029 A 
ATOM     54  C   UNL A   1      43.402  27.446  32.327  1.00  0.00     0.049 A 
ATOM     55  H   UNL A   1      41.684  28.369  31.519  1.00  0.00     0.167 HD
ATOM     56  C   UNL A   1      42.561  28.882  34.166  1.00  0.00     0.074 A 
ATOM     57  C   UNL A   1      42.612  29.403  35.517  1.00  0.00     0.031 C 
ATOM     58  C   UNL A   1      43.429  27.969  33.667  1.00  0.00     0.037 A 
BRANCH  45  59
ATOM     59  C   UNL A   1      42.351  26.398  27.799  1.00  0.00     0.064 A 
ATOM     60  C   UNL A   1      41.766  25.160  27.499  1.00  0.00     0.173 A 
ATOM     61  C   UNL A   1      43.326  26.896  26.920  1.00  0.00     0.173 A 
ATOM     62  F   UNL A   1      40.842  24.635  28.316  1.00  0.00    -0.203 F 
ATOM     63  C   UNL A   1      42.154  24.442  26.370  1.00  0.00     0.198 A 
ATOM     64  C   UNL A   1      43.695  26.187  25.780  1.00  0.00     0.198 A 
ATOM     65  F   UNL A   1      43.913  28.078  27.160  1.00  0.00    -0.203 F 
ATOM     66  F   UNL A   1      41.607  23.245  26.119  1.00  0.00    -0.200 F 
ATOM     67  C   UNL A   1      43.112  24.959  25.508  1.00  0.00     0.200 A 
ATOM     68  F   UNL A   1      44.613  26.692  24.945  1.00  0.00    -0.200 F 
ATOM     69  F   UNL A   1      43.477  24.269  24.419  1.00  0.00    -0.200 F 
ENDBRANCH  45  59
BRANCH  46  70
ATOM     70  C   UNL A   1      39.221  31.914  35.494  1.00  0.00     0.064 A 
ATOM     71  C   UNL A   1      39.593  33.257  35.641  1.00  0.00     0.173 A 
ATOM     72  C   UNL A   1      38.364  31.363  36.459  1.00  0.00     0.173 A 
ATOM     73  F   UNL A   1      40.434  33.819  34.760  1.00  0.00    -0.203 F 
ATOM     74  C   UNL A   1      39.125  34.017  36.711  1.00  0.00     0.198 A 
ATOM     75  C   UNL A   1      37.874  32.132  37.511  1.00  0.00     0.198 A 
ATOM     76  F   UNL A   1      37.982  30.080  36.363  1.00  0.00    -0.203 F 
ATOM     77  F   UNL A   1      39.520  35.290  36.848  1.00  0.00    -0.200 F 
ATOM     78  C   UNL A   1      38.259  33.458  37.638  1.00  0.00     0.200 A 
ATOM     79  F   UNL A   1      37.027  31.590  38.395  1.00  0.00    -0.200 F 
ATOM     80  F   UNL A   1      37.798  34.194  38.658  1.00  0.00    -0.200 F 
ENDBRANCH  46  70
BRANCH  58  81
ATOM     81  C   UNL A   1      44.505  27.484  34.588  1.00  0.00     0.064 A 
ATOM     82  C   UNL A   1      44.325  26.337  35.374  1.00  0.00     0.173 A 
ATOM     83  C   UNL A   1      45.734  28.154  34.667  1.00  0.00     0.173 A 
ATOM     84  F   UNL A   1      43.159  25.675  35.344  1.00  0.00    -0.203 F 
ATOM     85  C   UNL A   1      45.333  25.889  36.222  1.00  0.00     0.198 A 
ATOM     86  C   UNL A   1      46.747  27.692  35.501  1.00  0.00     0.198 A 
ATOM     87  F   UNL A   1      45.952  29.255  33.931  1.00  0.00    -0.203 F 
ATOM     88  F   UNL A   1      45.128  24.812  36.994  1.00  0.00    -0.200 F 
ATOM     89  C   UNL A   1      46.544  26.563  36.281  1.00  0.00     0.200 A 
ATOM     90  F   UNL A   1      47.918  28.340  35.554  1.00  0.00    -0.200 F 
ATOM     91  F   UNL A   1      47.514  26.130  37.099  1.00  0.00    -0.200 F 
ENDBRANCH  58  81
ENDBRANCH  32  33
ENDBRANCH  25  27
ENDBRANCH  24  25
ENDBRANCH  23  24
ENDBRANCH   1  23
TORSDOF 16
ENDMDL
MODEL 3
REMARK VINA RESULT:     -11.1      4.486      9.760
REMARK SMILES C[NH2+]C[C@H](C)C(=O)N1CC[C@@](C(=O)OCCOC(=O)c2ccc(-c3c4nc(c(-c5c(F)c(F)c(F)c(F)c5F)c5ccc([nH]5)c(-c5c(F)c(F)c(F)c(F)c5F)c5nc(c(-c6c(F)c(F)c(F)c(F)c6F)c6ccc3[nH]6)C=C5)C=C4)cc2)(C(F)(F)F)C1
REMARK SMILES IDX 15 1 14 2 12 3 13 4 11 5 8 6 9 7 87 8 10 9 6 10 7 11 4 12
REMARK SMILES IDX 5 13 3 14 2 15 1 16 83 19 84 20 85 21 86 22 16 23 17 24
REMARK SMILES IDX 18 25 19 26 20 27 21 28 82 29 22 30 81 31 23 32 24 33 25 34
REMARK SMILES IDX 75 35 26 36 80 37 74 38 76 39 27 40 79 41 73 42 72 43 28 45
REMARK SMILES IDX 60 46 40 47 59 48 41 49 44 50 58 51 77 52 42 53 43 54 57 56
REMARK SMILES IDX 78 57 45 58 29 59 30 60 38 61 31 62 32 63 36 64 39 65 33 66
REMARK SMILES IDX 34 67 37 68 35 69 61 70 62 71 70 72 63 73 64 74 68 75 71 76
REMARK SMILES IDX 65 77 66 78 69 79 67 80 46 81 47 82 55 83 48 84 49 85 53 86
REMARK SMILES IDX 56 87 50 88 51 89 54 90 52 91
REMARK H PARENT 2 17 2 18 76 44 44 55
REMARK Flexibility Score: inf
ROOT
ATOM      1  C   UNL A   1      35.113  21.024  25.176  1.00  0.00     0.274 C 
ENDROOT
BRANCH   1   2
ATOM      2  O   UNL A   1      34.822  22.282  24.529  1.00  0.00    -0.461 OA
BRANCH   2   3
ATOM      3  C   UNL A   1      33.561  22.498  24.070  1.00  0.00     0.323 C 
ATOM      4  O   UNL A   1      32.976  21.738  23.312  1.00  0.00    -0.251 OA
BRANCH   3   5
ATOM      5  C   UNL A   1      32.999  23.825  24.524  1.00  0.00     0.182 C 
ATOM      6  N   UNL A   1      32.249  25.684  23.242  1.00  0.00    -0.341 N 
ATOM      7  C   UNL A   1      33.239  26.198  24.169  1.00  0.00     0.121 C 
ATOM      8  C   UNL A   1      31.977  24.275  23.487  1.00  0.00     0.148 C 
ATOM      9  C   UNL A   1      34.024  24.973  24.584  1.00  0.00     0.052 C 
BRANCH   6  10
ATOM     10  C   UNL A   1      31.545  26.341  22.262  1.00  0.00     0.231 C 
ATOM     11  O   UNL A   1      31.815  26.152  21.071  1.00  0.00    -0.274 OA
BRANCH  10  12
ATOM     12  C   UNL A   1      30.553  27.438  22.631  1.00  0.00     0.130 C 
ATOM     13  C   UNL A   1      29.706  27.142  23.864  1.00  0.00     0.024 C 
BRANCH  12  14
ATOM     14  C   UNL A   1      31.265  28.804  22.699  1.00  0.00     0.273 C 
BRANCH  14  15
ATOM     15  N   UNL A   1      30.895  29.764  21.648  1.00  0.00    -0.348 N 
ATOM     16  C   UNL A   1      29.523  30.237  21.782  1.00  0.00     0.330 C 
ATOM     17  H   UNL A   1      31.524  30.566  21.699  1.00  0.00     0.346 HD
ATOM     18  H   UNL A   1      30.972  29.286  20.750  1.00  0.00     0.346 HD
ENDBRANCH  14  15
ENDBRANCH  12  14
ENDBRANCH  10  12
ENDBRANCH   6  10
BRANCH   5  19
ATOM     19  C   UNL A   1      32.322  23.643  25.858  1.00  0.00     0.406 C 
ATOM     20  F   UNL A   1      31.145  24.314  25.905  1.00  0.00    -0.170 F 
ATOM     21  F   UNL A   1      32.048  22.359  26.160  1.00  0.00    -0.170 F 
ATOM     22  F   UNL A   1      33.077  24.149  26.858  1.00  0.00    -0.170 F 
ENDBRANCH   5  19
ENDBRANCH   3   5
ENDBRANCH   2   3
ENDBRANCH   1   2
BRANCH   1  23
ATOM     23  C   UNL A   1      36.592  20.690  25.000  1.00  0.00     0.275 C 
BRANCH  23  24
ATOM     24  O   UNL A   1      37.363  21.737  25.612  1.00  0.00    -0.458 OA
BRANCH  24  25
ATOM     25  C   UNL A   1      38.633  21.429  25.943  1.00  0.00     0.338 C 
ATOM     26  O   UNL A   1      39.228  20.374  25.752  1.00  0.00    -0.246 OA
BRANCH  25  27
ATOM     27  C   UNL A   1      39.273  22.621  26.513  1.00  0.00     0.060 A 
ATOM     28  C   UNL A   1      38.807  23.875  26.126  1.00  0.00     0.016 A 
ATOM     29  C   UNL A   1      40.402  22.512  27.321  1.00  0.00     0.016 A 
ATOM     30  C   UNL A   1      39.530  25.018  26.445  1.00  0.00     0.010 A 
ATOM     31  C   UNL A   1      41.053  23.675  27.748  1.00  0.00     0.010 A 
ATOM     32  C   UNL A   1      40.647  24.942  27.287  1.00  0.00    -0.014 A 
BRANCH  32  33
ATOM     33  C   UNL A   1      41.393  26.178  27.657  1.00  0.00     0.031 A 
ATOM     34  C   UNL A   1      40.739  27.231  28.511  1.00  0.00     0.074 A 
ATOM     35  C   UNL A   1      42.664  26.358  27.248  1.00  0.00     0.049 A 
ATOM     36  N   UNL A   1      41.124  28.459  28.751  1.00  0.00    -0.248 NA
ATOM     37  C   UNL A   1      39.477  26.861  29.171  1.00  0.00     0.031 C 
ATOM     38  C   UNL A   1      43.451  25.403  26.466  1.00  0.00     0.029 A 
ATOM     39  N   UNL A   1      43.528  27.408  27.446  1.00  0.00    -0.354 N 
ATOM     40  C   UNL A   1      40.118  29.029  29.519  1.00  0.00     0.074 A 
ATOM     41  C   UNL A   1      39.112  28.009  29.724  1.00  0.00     0.031 C 
ATOM     42  C   UNL A   1      44.691  25.883  26.298  1.00  0.00     0.029 A 
ATOM     43  C   UNL A   1      44.759  27.224  26.863  1.00  0.00     0.049 A 
ATOM     44  H   UNL A   1      43.289  28.216  27.957  1.00  0.00     0.167 HD
ATOM     45  C   UNL A   1      40.040  30.294  29.998  1.00  0.00     0.037 A 
ATOM     46  C   UNL A   1      45.809  28.057  26.747  1.00  0.00     0.037 A 
ATOM     47  C   UNL A   1      41.080  31.281  29.863  1.00  0.00     0.049 A 
ATOM     48  C   UNL A   1      45.700  29.454  27.285  1.00  0.00     0.074 A 
ATOM     49  C   UNL A   1      41.102  32.583  30.329  1.00  0.00     0.029 A 
ATOM     50  N   UNL A   1      42.298  31.059  29.237  1.00  0.00    -0.354 N 
ATOM     51  N   UNL A   1      44.703  30.018  27.921  1.00  0.00    -0.248 NA
ATOM     52  C   UNL A   1      46.849  30.342  27.058  1.00  0.00     0.031 C 
ATOM     53  C   UNL A   1      42.325  33.159  29.965  1.00  0.00     0.029 A 
ATOM     54  C   UNL A   1      43.076  32.205  29.299  1.00  0.00     0.049 A 
ATOM     55  H   UNL A   1      42.569  30.214  28.810  1.00  0.00     0.167 HD
ATOM     56  C   UNL A   1      45.096  31.325  28.162  1.00  0.00     0.074 A 
ATOM     57  C   UNL A   1      46.437  31.464  27.631  1.00  0.00     0.031 C 
ATOM     58  C   UNL A   1      44.402  32.325  28.757  1.00  0.00     0.037 A 
BRANCH  45  59
ATOM     59  C   UNL A   1      38.769  30.703  30.680  1.00  0.00     0.064 A 
ATOM     60  C   UNL A   1      37.645  31.138  29.965  1.00  0.00     0.173 A 
ATOM     61  C   UNL A   1      38.667  30.612  32.078  1.00  0.00     0.173 A 
ATOM     62  F   UNL A   1      37.698  31.256  28.631  1.00  0.00    -0.203 F 
ATOM     63  C   UNL A   1      36.469  31.484  30.627  1.00  0.00     0.198 A 
ATOM     64  C   UNL A   1      37.482  30.937  32.734  1.00  0.00     0.198 A 
ATOM     65  F   UNL A   1      39.714  30.198  32.807  1.00  0.00    -0.203 F 
ATOM     66  F   UNL A   1      35.416  31.930  29.928  1.00  0.00    -0.200 F 
ATOM     67  C   UNL A   1      36.386  31.376  32.008  1.00  0.00     0.200 A 
ATOM     68  F   UNL A   1      37.403  30.823  34.067  1.00  0.00    -0.200 F 
ATOM     69  F   UNL A   1      35.250  31.702  32.640  1.00  0.00    -0.200 F 
ENDBRANCH  45  59
BRANCH  46  70
ATOM     70  C   UNL A   1      47.031  27.604  26.034  1.00  0.00     0.064 A 
ATOM     71  C   UNL A   1      48.113  27.057  26.736  1.00  0.00     0.173 A 
ATOM     72  C   UNL A   1      47.132  27.687  24.637  1.00  0.00     0.173 A 
ATOM     73  F   UNL A   1      48.074  26.984  28.075  1.00  0.00    -0.203 F 
ATOM     74  C   UNL A   1      49.250  26.610  26.066  1.00  0.00     0.198 A 
ATOM     75  C   UNL A   1      48.256  27.213  23.967  1.00  0.00     0.198 A 
ATOM     76  F   UNL A   1      46.123  28.207  23.921  1.00  0.00    -0.203 F 
ATOM     77  F   UNL A   1      50.285  26.119  26.762  1.00  0.00    -0.200 F 
ATOM     78  C   UNL A   1      49.316  26.678  24.683  1.00  0.00     0.200 A 
ATOM     79  F   UNL A   1      48.309  27.270  22.630  1.00  0.00    -0.200 F 
ATOM     80  F   UNL A   1      50.404  26.235  24.039  1.00  0.00    -0.200 F 
ENDBRANCH  46  70
BRANCH  58  81
ATOM     81  C   UNL A   1      45.087  33.653  28.863  1.00  0.00     0.064 A 
ATOM     82  C   UNL A   1      44.926  34.634  27.875  1.00  0.00     0.173 A 
ATOM     83  C   UNL A   1      45.887  33.957  29.973  1.00  0.00     0.173 A 
ATOM     84  F   UNL A   1      44.183  34.380  26.787  1.00  0.00    -0.203 F 
ATOM     85  C   UNL A   1      45.560  35.868  27.985  1.00  0.00     0.198 A 
ATOM     86  C   UNL A   1      46.504  35.198  30.090  1.00  0.00     0.198 A 
ATOM     87  F   UNL A   1      46.068  33.048  30.945  1.00  0.00    -0.203 F 
ATOM     88  F   UNL A   1      45.424  36.779  27.011  1.00  0.00    -0.200 F 
ATOM     89  C   UNL A   1      46.343  36.151  29.094  1.00  0.00     0.200 A 
ATOM     90  F   UNL A   1      47.257  35.473  31.164  1.00  0.00    -0.200 F 
ATOM     91  F   UNL A   1      46.953  37.340  29.199  1.00  0.00    -0.200 F 
ENDBRANCH  58  81
ENDBRANCH  32  33
ENDBRANCH  25  27
ENDBRANCH  24  25
ENDBRANCH  23  24
ENDBRANCH   1  23
TORSDOF 16
ENDMDL
