MODEL 1
REMARK VINA RESULT:     -11.3      0.000      0.000
REMARK SMILES CC[C@H](C)CN(CC)C(=O)Nc1ccc(C(=O)OCCOC(=O)c2ccc(-c3c4nc(c(-c5c(F)c(F)c(F)c(F)c5F)c5ccc([nH]5)c(-c5c(F)c(F)c(F)c(F)c5F)c5nc(c(-c6c(F)c(F)c(F)c(F)c6F)c6ccc3[nH]6)C=C5)C=C4)cc2)cc1Cl
REMARK SMILES IDX 18 1 16 2 17 3 15 4 12 5 13 6 88 7 14 8 87 9 89 10 11 11
REMARK SMILES IDX 9 12 10 13 6 15 5 16 3 17 4 18 2 19 1 20 7 21 8 22 19 23
REMARK SMILES IDX 20 24 21 25 22 26 23 27 24 28 25 29 86 30 26 31 85 32 27 33
REMARK SMILES IDX 28 34 29 35 79 36 30 37 84 38 78 39 80 40 31 41 83 42 77 43
REMARK SMILES IDX 76 44 32 46 64 47 44 48 63 49 45 50 48 51 62 52 81 53 46 54
REMARK SMILES IDX 47 55 61 57 82 58 49 59 33 60 34 61 42 62 35 63 36 64 40 65
REMARK SMILES IDX 43 66 37 67 38 68 41 69 39 70 65 71 66 72 74 73 67 74 68 75
REMARK SMILES IDX 72 76 75 77 69 78 70 79 73 80 71 81 50 82 51 83 59 84 52 85
REMARK SMILES IDX 53 86 57 87 60 88 54 89 55 90 58 91 56 92
REMARK H PARENT 11 14 80 45 48 56
REMARK Flexibility Score: inf
ROOT
ATOM      1  O   UNL A   1      34.796  22.583  24.743  1.00  0.00    -0.458 OA
ENDROOT
BRANCH   1   2
ATOM      2  C   UNL A   1      33.865  23.203  25.506  1.00  0.00     0.338 C 
ATOM      3  O   UNL A   1      33.773  23.153  26.718  1.00  0.00    -0.246 OA
BRANCH   2   4
ATOM      4  C   UNL A   1      32.959  24.038  24.675  1.00  0.00     0.061 A 
ATOM      5  C   UNL A   1      31.499  25.797  23.094  1.00  0.00     0.061 A 
ATOM      6  C   UNL A   1      32.604  25.146  22.544  1.00  0.00     0.028 A 
ATOM      7  C   UNL A   1      31.024  25.446  24.364  1.00  0.00     0.065 A 
ATOM      8  C   UNL A   1      33.354  24.298  23.350  1.00  0.00     0.018 A 
ATOM      9  C   UNL A   1      31.758  24.567  25.160  1.00  0.00     0.038 A 
ATOM     10  Cl  UNL A   1      29.561  26.112  24.997  1.00  0.00    -0.082 Cl
BRANCH   5  11
ATOM     11  N   UNL A   1      30.967  26.863  22.374  1.00  0.00    -0.306 N 
ATOM     12  C   UNL A   1      31.054  28.202  22.581  1.00  0.00     0.321 C 
ATOM     13  O   UNL A   1      30.316  28.885  21.860  1.00  0.00    -0.248 OA
ATOM     14  H   UNL A   1      30.441  26.603  21.585  1.00  0.00     0.171 HD
BRANCH  12  15
ATOM     15  N   UNL A   1      31.931  28.785  23.477  1.00  0.00    -0.325 N 
BRANCH  15  16
ATOM     16  C   UNL A   1      31.328  29.433  24.651  1.00  0.00     0.124 C 
BRANCH  16  17
ATOM     17  C   UNL A   1      32.346  29.626  25.801  1.00  0.00     0.005 C 
ATOM     18  C   UNL A   1      31.968  30.793  26.716  1.00  0.00     0.009 C 
BRANCH  17  19
ATOM     19  C   UNL A   1      32.549  28.318  26.589  1.00  0.00     0.002 C 
ATOM     20  C   UNL A   1      31.471  28.014  27.619  1.00  0.00     0.004 C 
ENDBRANCH  17  19
ENDBRANCH  16  17
ENDBRANCH  15  16
BRANCH  15  21
ATOM     21  C   UNL A   1      33.393  28.912  23.416  1.00  0.00     0.118 C 
ATOM     22  C   UNL A   1      33.977  28.488  22.077  1.00  0.00     0.027 C 
ENDBRANCH  15  21
ENDBRANCH  12  15
ENDBRANCH   5  11
ENDBRANCH   2   4
ENDBRANCH   1   2
BRANCH   1  23
ATOM     23  C   UNL A   1      34.787  21.146  24.803  1.00  0.00     0.275 C 
BRANCH  23  24
ATOM     24  C   UNL A   1      36.177  20.621  25.165  1.00  0.00     0.275 C 
BRANCH  24  25
ATOM     25  O   UNL A   1      36.985  21.656  25.758  1.00  0.00    -0.458 OA
BRANCH  25  26
ATOM     26  C   UNL A   1      38.309  21.395  25.822  1.00  0.00     0.338 C 
ATOM     27  O   UNL A   1      38.901  20.413  25.403  1.00  0.00    -0.246 OA
BRANCH  26  28
ATOM     28  C   UNL A   1      39.007  22.539  26.424  1.00  0.00     0.060 A 
ATOM     29  C   UNL A   1      38.571  23.826  26.115  1.00  0.00     0.016 A 
ATOM     30  C   UNL A   1      40.157  22.352  27.185  1.00  0.00     0.016 A 
ATOM     31  C   UNL A   1      39.303  24.937  26.518  1.00  0.00     0.010 A 
ATOM     32  C   UNL A   1      40.858  23.471  27.650  1.00  0.00     0.010 A 
ATOM     33  C   UNL A   1      40.449  24.774  27.304  1.00  0.00    -0.014 A 
BRANCH  33  34
ATOM     34  C   UNL A   1      41.239  25.955  27.737  1.00  0.00     0.031 A 
ATOM     35  C   UNL A   1      40.583  27.030  28.555  1.00  0.00     0.074 A 
ATOM     36  C   UNL A   1      42.537  26.072  27.396  1.00  0.00     0.049 A 
ATOM     37  N   UNL A   1      41.010  28.234  28.840  1.00  0.00    -0.248 NA
ATOM     38  C   UNL A   1      39.262  26.712  29.121  1.00  0.00     0.031 C 
ATOM     39  C   UNL A   1      43.314  25.073  26.662  1.00  0.00     0.029 A 
ATOM     40  N   UNL A   1      43.430  27.092  27.614  1.00  0.00    -0.354 N 
ATOM     41  C   UNL A   1      39.989  28.836  29.561  1.00  0.00     0.074 A 
ATOM     42  C   UNL A   1      38.924  27.864  29.683  1.00  0.00     0.031 C 
ATOM     43  C   UNL A   1      44.567  25.526  26.494  1.00  0.00     0.029 A 
ATOM     44  C   UNL A   1      44.657  26.878  27.033  1.00  0.00     0.049 A 
ATOM     45  H   UNL A   1      43.213  27.899  28.134  1.00  0.00     0.167 HD
ATOM     46  C   UNL A   1      39.947  30.092  30.068  1.00  0.00     0.037 A 
ATOM     47  C   UNL A   1      45.717  27.699  26.899  1.00  0.00     0.037 A 
ATOM     48  C   UNL A   1      41.033  31.033  29.990  1.00  0.00     0.049 A 
ATOM     49  C   UNL A   1      45.633  29.099  27.439  1.00  0.00     0.074 A 
ATOM     50  C   UNL A   1      41.096  32.323  30.490  1.00  0.00     0.029 A 
ATOM     51  N   UNL A   1      42.255  30.779  29.385  1.00  0.00    -0.354 N 
ATOM     52  N   UNL A   1      44.645  29.683  28.073  1.00  0.00    -0.248 NA
ATOM     53  C   UNL A   1      46.803  29.963  27.228  1.00  0.00     0.031 C 
ATOM     54  C   UNL A   1      42.344  32.860  30.157  1.00  0.00     0.029 A 
ATOM     55  C   UNL A   1      43.073  31.891  29.486  1.00  0.00     0.049 A 
ATOM     56  H   UNL A   1      42.503  29.933  28.946  1.00  0.00     0.167 HD
ATOM     57  C   UNL A   1      45.077  30.972  28.349  1.00  0.00     0.074 A 
ATOM     58  C   UNL A   1      46.424  31.082  27.828  1.00  0.00     0.031 C 
ATOM     59  C   UNL A   1      44.415  31.977  28.972  1.00  0.00     0.037 A 
BRANCH  46  60
ATOM     60  C   UNL A   1      38.672  30.541  30.717  1.00  0.00     0.064 A 
ATOM     61  C   UNL A   1      38.504  30.542  32.108  1.00  0.00     0.173 A 
ATOM     62  C   UNL A   1      37.617  31.026  29.928  1.00  0.00     0.173 A 
ATOM     63  F   UNL A   1      39.477  30.075  32.905  1.00  0.00    -0.203 F 
ATOM     64  C   UNL A   1      37.321  30.995  32.686  1.00  0.00     0.198 A 
ATOM     65  C   UNL A   1      36.444  31.503  30.509  1.00  0.00     0.198 A 
ATOM     66  F   UNL A   1      37.727  31.051  28.591  1.00  0.00    -0.203 F 
ATOM     67  F   UNL A   1      37.167  30.952  34.016  1.00  0.00    -0.200 F 
ATOM     68  C   UNL A   1      36.295  31.482  31.887  1.00  0.00     0.200 A 
ATOM     69  F   UNL A   1      35.461  31.983  29.736  1.00  0.00    -0.200 F 
ATOM     70  F   UNL A   1      35.162  31.927  32.446  1.00  0.00    -0.200 F 
ENDBRANCH  46  60
BRANCH  47  71
ATOM     71  C   UNL A   1      46.927  27.232  26.172  1.00  0.00     0.064 A 
ATOM     72  C   UNL A   1      47.078  27.463  24.799  1.00  0.00     0.173 A 
ATOM     73  C   UNL A   1      47.956  26.548  26.838  1.00  0.00     0.173 A 
ATOM     74  F   UNL A   1      46.110  28.089  24.114  1.00  0.00    -0.203 F 
ATOM     75  C   UNL A   1      48.208  27.016  24.115  1.00  0.00     0.198 A 
ATOM     76  C   UNL A   1      49.097  26.129  26.160  1.00  0.00     0.198 A 
ATOM     77  F   UNL A   1      47.859  26.300  28.152  1.00  0.00    -0.203 F 
ATOM     78  F   UNL A   1      48.309  27.212  22.794  1.00  0.00    -0.200 F 
ATOM     79  C   UNL A   1      49.220  26.358  24.798  1.00  0.00     0.200 A 
ATOM     80  F   UNL A   1      50.079  25.506  26.826  1.00  0.00    -0.200 F 
ATOM     81  F   UNL A   1      50.309  25.936  24.141  1.00  0.00    -0.200 F 
ENDBRANCH  47  71
BRANCH  59  82
ATOM     82  C   UNL A   1      45.150  33.270  29.160  1.00  0.00     0.064 A 
ATOM     83  C   UNL A   1      45.050  34.311  28.227  1.00  0.00     0.173 A 
ATOM     84  C   UNL A   1      45.922  33.485  30.310  1.00  0.00     0.173 A 
ATOM     85  F   UNL A   1      44.336  34.146  27.104  1.00  0.00    -0.203 F 
ATOM     86  C   UNL A   1      45.712  35.519  28.432  1.00  0.00     0.198 A 
ATOM     87  C   UNL A   1      46.563  34.702  30.524  1.00  0.00     0.198 A 
ATOM     88  F   UNL A   1      46.045  32.519  31.233  1.00  0.00    -0.203 F 
ATOM     89  F   UNL A   1      45.633  36.489  27.511  1.00  0.00    -0.200 F 
ATOM     90  C   UNL A   1      46.461  35.716  29.583  1.00  0.00     0.200 A 
ATOM     91  F   UNL A   1      47.278  34.894  31.641  1.00  0.00    -0.200 F 
ATOM     92  F   UNL A   1      47.091  36.882  29.784  1.00  0.00    -0.200 F 
ENDBRANCH  59  82
ENDBRANCH  33  34
ENDBRANCH  26  28
ENDBRANCH  25  26
ENDBRANCH  24  25
ENDBRANCH  23  24
ENDBRANCH   1  23
TORSDOF 17
ENDMDL
MODEL 2
REMARK VINA RESULT:     -11.2      4.154      9.696
REMARK SMILES CC[C@H](C)CN(CC)C(=O)Nc1ccc(C(=O)OCCOC(=O)c2ccc(-c3c4nc(c(-c5c(F)c(F)c(F)c(F)c5F)c5ccc([nH]5)c(-c5c(F)c(F)c(F)c(F)c5F)c5nc(c(-c6c(F)c(F)c(F)c(F)c6F)c6ccc3[nH]6)C=C5)C=C4)cc2)cc1Cl
REMARK SMILES IDX 18 1 16 2 17 3 15 4 12 5 13 6 88 7 14 8 87 9 89 10 11 11
REMARK SMILES IDX 9 12 10 13 6 15 5 16 3 17 4 18 2 19 1 20 7 21 8 22 19 23
REMARK SMILES IDX 20 24 21 25 22 26 23 27 24 28 25 29 86 30 26 31 85 32 27 33
REMARK SMILES IDX 28 34 29 35 79 36 30 37 84 38 78 39 80 40 31 41 83 42 77 43
REMARK SMILES IDX 76 44 32 46 64 47 44 48 63 49 45 50 48 51 62 52 81 53 46 54
REMARK SMILES IDX 47 55 61 57 82 58 49 59 33 60 34 61 42 62 35 63 36 64 40 65
REMARK SMILES IDX 43 66 37 67 38 68 41 69 39 70 65 71 66 72 74 73 67 74 68 75
REMARK SMILES IDX 72 76 75 77 69 78 70 79 73 80 71 81 50 82 51 83 59 84 52 85
REMARK SMILES IDX 53 86 57 87 60 88 54 89 55 90 58 91 56 92
REMARK H PARENT 11 14 80 45 48 56
REMARK Flexibility Score: inf
ROOT
ATOM      1  O   UNL A   1      32.153  28.968  23.798  1.00  0.00    -0.458 OA
ENDROOT
BRANCH   1   2
ATOM      2  C   UNL A   1      31.927  27.698  23.388  1.00  0.00     0.338 C 
ATOM      3  O   UNL A   1      31.483  27.355  22.307  1.00  0.00    -0.246 OA
BRANCH   2   4
ATOM      4  C   UNL A   1      32.351  26.716  24.420  1.00  0.00     0.061 A 
ATOM      5  C   UNL A   1      33.323  24.754  26.132  1.00  0.00     0.061 A 
ATOM      6  C   UNL A   1      34.203  25.713  25.628  1.00  0.00     0.028 A 
ATOM      7  C   UNL A   1      31.943  24.873  25.923  1.00  0.00     0.065 A 
ATOM      8  C   UNL A   1      33.720  26.668  24.741  1.00  0.00     0.018 A 
ATOM      9  C   UNL A   1      31.454  25.855  25.060  1.00  0.00     0.038 A 
ATOM     10  Cl  UNL A   1      30.820  23.800  26.678  1.00  0.00    -0.082 Cl
BRANCH   5  11
ATOM     11  N   UNL A   1      33.884  23.642  26.751  1.00  0.00    -0.306 N 
ATOM     12  C   UNL A   1      33.950  22.346  26.352  1.00  0.00     0.321 C 
ATOM     13  O   UNL A   1      34.360  21.560  27.215  1.00  0.00    -0.248 OA
ATOM     14  H   UNL A   1      34.302  23.824  27.623  1.00  0.00     0.171 HD
BRANCH  12  15
ATOM     15  N   UNL A   1      33.647  21.921  25.073  1.00  0.00    -0.325 N 
BRANCH  15  16
ATOM     16  C   UNL A   1      32.789  20.730  24.967  1.00  0.00     0.124 C 
BRANCH  16  17
ATOM     17  C   UNL A   1      33.465  19.590  24.169  1.00  0.00     0.005 C 
ATOM     18  C   UNL A   1      34.805  19.175  24.780  1.00  0.00     0.009 C 
BRANCH  17  19
ATOM     19  C   UNL A   1      32.513  18.392  23.996  1.00  0.00     0.002 C 
ATOM     20  C   UNL A   1      32.945  17.373  22.952  1.00  0.00     0.004 C 
ENDBRANCH  17  19
ENDBRANCH  16  17
ENDBRANCH  15  16
BRANCH  15  21
ATOM     21  C   UNL A   1      34.097  22.442  23.775  1.00  0.00     0.118 C 
ATOM     22  C   UNL A   1      35.588  22.745  23.735  1.00  0.00     0.027 C 
ENDBRANCH  15  21
ENDBRANCH  12  15
ENDBRANCH   5  11
ENDBRANCH   2   4
ENDBRANCH   1   2
BRANCH   1  23
ATOM     23  C   UNL A   1      31.135  29.535  24.641  1.00  0.00     0.275 C 
BRANCH  23  24
ATOM     24  C   UNL A   1      31.667  29.728  26.061  1.00  0.00     0.275 C 
BRANCH  24  25
ATOM     25  O   UNL A   1      33.037  30.179  26.045  1.00  0.00    -0.458 OA
BRANCH  25  26
ATOM     26  C   UNL A   1      33.328  31.183  26.901  1.00  0.00     0.338 C 
ATOM     27  O   UNL A   1      32.626  32.133  27.210  1.00  0.00    -0.246 OA
BRANCH  26  28
ATOM     28  C   UNL A   1      34.642  30.942  27.512  1.00  0.00     0.060 A 
ATOM     29  C   UNL A   1      34.965  29.648  27.915  1.00  0.00     0.016 A 
ATOM     30  C   UNL A   1      35.499  32.001  27.799  1.00  0.00     0.016 A 
ATOM     31  C   UNL A   1      36.118  29.403  28.651  1.00  0.00     0.010 A 
ATOM     32  C   UNL A   1      36.695  31.746  28.482  1.00  0.00     0.010 A 
ATOM     33  C   UNL A   1      37.006  30.448  28.932  1.00  0.00    -0.014 A 
BRANCH  33  34
ATOM     34  C   UNL A   1      38.239  30.196  29.721  1.00  0.00     0.031 A 
ATOM     35  C   UNL A   1      39.316  29.313  29.159  1.00  0.00     0.074 A 
ATOM     36  C   UNL A   1      38.396  30.748  30.940  1.00  0.00     0.049 A 
ATOM     37  N   UNL A   1      40.351  28.781  29.757  1.00  0.00    -0.248 NA
ATOM     38  C   UNL A   1      39.208  28.974  27.730  1.00  0.00     0.031 C 
ATOM     39  C   UNL A   1      37.460  31.676  31.577  1.00  0.00     0.029 A 
ATOM     40  N   UNL A   1      39.397  30.599  31.867  1.00  0.00    -0.354 N 
ATOM     41  C   UNL A   1      40.979  27.997  28.800  1.00  0.00     0.074 A 
ATOM     42  C   UNL A   1      40.219  28.130  27.575  1.00  0.00     0.031 C 
ATOM     43  C   UNL A   1      37.933  32.016  32.787  1.00  0.00     0.029 A 
ATOM     44  C   UNL A   1      39.159  31.268  33.043  1.00  0.00     0.049 A 
ATOM     45  H   UNL A   1      40.208  30.064  31.705  1.00  0.00     0.167 HD
ATOM     46  C   UNL A   1      42.088  27.231  28.938  1.00  0.00     0.037 A 
ATOM     47  C   UNL A   1      39.820  31.238  34.217  1.00  0.00     0.037 A 
ATOM     48  C   UNL A   1      42.869  27.149  30.144  1.00  0.00     0.049 A 
ATOM     49  C   UNL A   1      41.027  30.353  34.356  1.00  0.00     0.074 A 
ATOM     50  C   UNL A   1      44.021  26.417  30.379  1.00  0.00     0.029 A 
ATOM     51  N   UNL A   1      42.586  27.835  31.315  1.00  0.00    -0.354 N 
ATOM     52  N   UNL A   1      41.586  29.572  33.464  1.00  0.00    -0.248 NA
ATOM     53  C   UNL A   1      41.684  30.329  35.671  1.00  0.00     0.031 C 
ATOM     54  C   UNL A   1      44.415  26.634  31.703  1.00  0.00     0.029 A 
ATOM     55  C   UNL A   1      43.533  27.534  32.280  1.00  0.00     0.049 A 
ATOM     56  H   UNL A   1      41.824  28.446  31.442  1.00  0.00     0.167 HD
ATOM     57  C   UNL A   1      42.666  28.977  34.102  1.00  0.00     0.074 A 
ATOM     58  C   UNL A   1      42.694  29.499  35.452  1.00  0.00     0.031 C 
ATOM     59  C   UNL A   1      43.551  28.074  33.615  1.00  0.00     0.037 A 
BRANCH  46  60
ATOM     60  C   UNL A   1      42.503  26.386  27.771  1.00  0.00     0.064 A 
ATOM     61  C   UNL A   1      41.923  25.137  27.512  1.00  0.00     0.173 A 
ATOM     62  C   UNL A   1      43.468  26.862  26.869  1.00  0.00     0.173 A 
ATOM     63  F   UNL A   1      41.008  24.631  28.352  1.00  0.00    -0.203 F 
ATOM     64  C   UNL A   1      42.306  24.387  26.402  1.00  0.00     0.198 A 
ATOM     65  C   UNL A   1      43.830  26.122  25.746  1.00  0.00     0.198 A 
ATOM     66  F   UNL A   1      44.052  28.054  27.069  1.00  0.00    -0.203 F 
ATOM     67  F   UNL A   1      41.765  23.179  26.194  1.00  0.00    -0.200 F 
ATOM     68  C   UNL A   1      43.252  24.883  25.517  1.00  0.00     0.200 A 
ATOM     69  F   UNL A   1      44.735  26.609  24.887  1.00  0.00    -0.200 F 
ATOM     70  F   UNL A   1      43.611  24.165  24.444  1.00  0.00    -0.200 F 
ENDBRANCH  46  60
BRANCH  47  71
ATOM     71  C   UNL A   1      39.317  32.030  35.369  1.00  0.00     0.064 A 
ATOM     72  C   UNL A   1      38.482  31.452  36.334  1.00  0.00     0.173 A 
ATOM     73  C   UNL A   1      39.662  33.382  35.529  1.00  0.00     0.173 A 
ATOM     74  F   UNL A   1      38.103  30.172  36.211  1.00  0.00    -0.203 F 
ATOM     75  C   UNL A   1      38.002  32.198  37.410  1.00  0.00     0.198 A 
ATOM     76  C   UNL A   1      39.207  34.117  36.620  1.00  0.00     0.198 A 
ATOM     77  F   UNL A   1      40.457  33.983  34.632  1.00  0.00    -0.203 F 
ATOM     78  F   UNL A   1      37.171  31.633  38.295  1.00  0.00    -0.200 F 
ATOM     79  C   UNL A   1      38.372  33.527  37.556  1.00  0.00     0.200 A 
ATOM     80  F   UNL A   1      39.578  35.397  36.765  1.00  0.00    -0.200 F 
ATOM     81  F   UNL A   1      37.916  34.240  38.594  1.00  0.00    -0.200 F 
ENDBRANCH  47  71
BRANCH  59  82
ATOM     82  C   UNL A   1      44.646  27.622  34.533  1.00  0.00     0.064 A 
ATOM     83  C   UNL A   1      45.848  28.333  34.644  1.00  0.00     0.173 A 
ATOM     84  C   UNL A   1      44.468  26.492  35.344  1.00  0.00     0.173 A 
ATOM     85  F   UNL A   1      46.070  29.410  33.876  1.00  0.00    -0.203 F 
ATOM     86  C   UNL A   1      46.843  27.919  35.526  1.00  0.00     0.198 A 
ATOM     87  C   UNL A   1      45.454  26.096  36.243  1.00  0.00     0.198 A 
ATOM     88  F   UNL A   1      43.332  25.782  35.276  1.00  0.00    -0.203 F 
ATOM     89  F   UNL A   1      48.000  28.592  35.593  1.00  0.00    -0.200 F 
ATOM     90  C   UNL A   1      46.642  26.806  36.330  1.00  0.00     0.200 A 
ATOM     91  F   UNL A   1      45.254  25.026  37.025  1.00  0.00    -0.200 F 
ATOM     92  F   UNL A   1      47.596  26.414  37.185  1.00  0.00    -0.200 F 
ENDBRANCH  59  82
ENDBRANCH  33  34
ENDBRANCH  26  28
ENDBRANCH  25  26
ENDBRANCH  24  25
ENDBRANCH  23  24
ENDBRANCH   1  23
TORSDOF 17
ENDMDL
MODEL 3
REMARK VINA RESULT:     -11.2      4.674      8.884
REMARK SMILES CC[C@H](C)CN(CC)C(=O)Nc1ccc(C(=O)OCCOC(=O)c2ccc(-c3c4nc(c(-c5c(F)c(F)c(F)c(F)c5F)c5ccc([nH]5)c(-c5c(F)c(F)c(F)c(F)c5F)c5nc(c(-c6c(F)c(F)c(F)c(F)c6F)c6ccc3[nH]6)C=C5)C=C4)cc2)cc1Cl
REMARK SMILES IDX 18 1 16 2 17 3 15 4 12 5 13 6 88 7 14 8 87 9 89 10 11 11
REMARK SMILES IDX 9 12 10 13 6 15 5 16 3 17 4 18 2 19 1 20 7 21 8 22 19 23
REMARK SMILES IDX 20 24 21 25 22 26 23 27 24 28 25 29 86 30 26 31 85 32 27 33
REMARK SMILES IDX 28 34 29 35 79 36 30 37 84 38 78 39 80 40 31 41 83 42 77 43
REMARK SMILES IDX 76 44 32 46 64 47 44 48 63 49 45 50 48 51 62 52 81 53 46 54
REMARK SMILES IDX 47 55 61 57 82 58 49 59 33 60 34 61 42 62 35 63 36 64 40 65
REMARK SMILES IDX 43 66 37 67 38 68 41 69 39 70 65 71 66 72 74 73 67 74 68 75
REMARK SMILES IDX 72 76 75 77 69 78 70 79 73 80 71 81 50 82 51 83 59 84 52 85
REMARK SMILES IDX 53 86 57 87 60 88 54 89 55 90 58 91 56 92
REMARK H PARENT 11 14 80 45 48 56
REMARK Flexibility Score: inf
ROOT
ATOM      1  O   UNL A   1      40.941  20.626  26.890  1.00  0.00    -0.458 OA
ENDROOT
BRANCH   1   2
ATOM      2  C   UNL A   1      40.051  19.997  26.087  1.00  0.00     0.338 C 
ATOM      3  O   UNL A   1      40.082  18.828  25.748  1.00  0.00    -0.246 OA
BRANCH   2   4
ATOM      4  C   UNL A   1      38.946  20.909  25.691  1.00  0.00     0.061 A 
ATOM      5  C   UNL A   1      36.991  22.597  24.664  1.00  0.00     0.061 A 
ATOM      6  C   UNL A   1      37.024  21.265  24.251  1.00  0.00     0.028 A 
ATOM      7  C   UNL A   1      37.815  23.041  25.708  1.00  0.00     0.065 A 
ATOM      8  C   UNL A   1      38.028  20.435  24.737  1.00  0.00     0.018 A 
ATOM      9  C   UNL A   1      38.799  22.196  26.221  1.00  0.00     0.038 A 
ATOM     10  Cl  UNL A   1      37.673  24.637  26.354  1.00  0.00    -0.082 Cl
BRANCH   5  11
ATOM     11  N   UNL A   1      36.190  23.469  23.934  1.00  0.00    -0.306 N 
ATOM     12  C   UNL A   1      34.842  23.507  23.769  1.00  0.00     0.321 C 
ATOM     13  O   UNL A   1      34.449  24.303  22.907  1.00  0.00    -0.248 OA
ATOM     14  H   UNL A   1      36.681  24.175  23.456  1.00  0.00     0.171 HD
BRANCH  12  15
ATOM     15  N   UNL A   1      33.956  22.769  24.531  1.00  0.00    -0.325 N 
BRANCH  15  16
ATOM     16  C   UNL A   1      33.598  23.332  25.842  1.00  0.00     0.124 C 
BRANCH  16  17
ATOM     17  C   UNL A   1      32.287  24.152  25.789  1.00  0.00     0.005 C 
ATOM     18  C   UNL A   1      31.299  23.730  26.881  1.00  0.00     0.009 C 
BRANCH  17  19
ATOM     19  C   UNL A   1      32.574  25.664  25.824  1.00  0.00     0.002 C 
ATOM     20  C   UNL A   1      31.351  26.547  26.023  1.00  0.00     0.004 C 
ENDBRANCH  17  19
ENDBRANCH  16  17
ENDBRANCH  15  16
BRANCH  15  21
ATOM     21  C   UNL A   1      33.345  21.461  24.262  1.00  0.00     0.118 C 
ATOM     22  C   UNL A   1      32.308  21.500  23.150  1.00  0.00     0.027 C 
ENDBRANCH  15  21
ENDBRANCH  12  15
ENDBRANCH   5  11
ENDBRANCH   2   4
ENDBRANCH   1   2
BRANCH   1  23
ATOM     23  C   UNL A   1      42.300  20.167  26.783  1.00  0.00     0.275 C 
BRANCH  23  24
ATOM     24  C   UNL A   1      43.068  21.011  25.766  1.00  0.00     0.275 C 
BRANCH  24  25
ATOM     25  O   UNL A   1      42.311  22.176  25.380  1.00  0.00    -0.458 OA
BRANCH  25  26
ATOM     26  C   UNL A   1      43.030  23.306  25.208  1.00  0.00     0.338 C 
ATOM     27  O   UNL A   1      43.897  23.524  24.376  1.00  0.00    -0.246 OA
BRANCH  26  28
ATOM     28  C   UNL A   1      42.564  24.333  26.150  1.00  0.00     0.060 A 
ATOM     29  C   UNL A   1      43.150  25.596  26.104  1.00  0.00     0.016 A 
ATOM     30  C   UNL A   1      41.649  24.020  27.151  1.00  0.00     0.016 A 
ATOM     31  C   UNL A   1      42.869  26.543  27.082  1.00  0.00     0.010 A 
ATOM     32  C   UNL A   1      41.313  24.995  28.098  1.00  0.00     0.010 A 
ATOM     33  C   UNL A   1      41.935  26.259  28.085  1.00  0.00    -0.014 A 
BRANCH  33  34
ATOM     34  C   UNL A   1      41.630  27.263  29.137  1.00  0.00     0.031 A 
ATOM     35  C   UNL A   1      42.463  27.310  30.386  1.00  0.00     0.074 A 
ATOM     36  C   UNL A   1      40.609  28.128  28.981  1.00  0.00     0.049 A 
ATOM     37  N   UNL A   1      42.237  27.936  31.512  1.00  0.00    -0.248 NA
ATOM     38  C   UNL A   1      43.716  26.537  30.369  1.00  0.00     0.031 C 
ATOM     39  C   UNL A   1      39.763  28.235  27.792  1.00  0.00     0.029 A 
ATOM     40  N   UNL A   1      40.101  29.074  29.836  1.00  0.00    -0.354 N 
ATOM     41  C   UNL A   1      43.281  27.585  32.356  1.00  0.00     0.074 A 
ATOM     42  C   UNL A   1      44.150  26.699  31.611  1.00  0.00     0.031 C 
ATOM     43  C   UNL A   1      38.845  29.196  27.990  1.00  0.00     0.029 A 
ATOM     44  C   UNL A   1      38.986  29.711  29.348  1.00  0.00     0.049 A 
ATOM     45  H   UNL A   1      40.498  29.278  30.714  1.00  0.00     0.167 HD
ATOM     46  C   UNL A   1      43.487  27.965  33.640  1.00  0.00     0.037 A 
ATOM     47  C   UNL A   1      38.137  30.570  29.944  1.00  0.00     0.037 A 
ATOM     48  C   UNL A   1      42.646  28.889  34.354  1.00  0.00     0.049 A 
ATOM     49  C   UNL A   1      38.366  30.949  31.381  1.00  0.00     0.074 A 
ATOM     50  C   UNL A   1      42.781  29.354  35.652  1.00  0.00     0.029 A 
ATOM     51  N   UNL A   1      41.521  29.503  33.825  1.00  0.00    -0.354 N 
ATOM     52  N   UNL A   1      39.325  30.573  32.192  1.00  0.00    -0.248 NA
ATOM     53  C   UNL A   1      37.386  31.858  31.992  1.00  0.00     0.031 C 
ATOM     54  C   UNL A   1      41.718  30.223  35.918  1.00  0.00     0.029 A 
ATOM     55  C   UNL A   1      40.944  30.332  34.773  1.00  0.00     0.049 A 
ATOM     56  H   UNL A   1      41.181  29.369  32.911  1.00  0.00     0.167 HD
ATOM     57  C   UNL A   1      39.072  31.206  33.400  1.00  0.00     0.074 A 
ATOM     58  C   UNL A   1      37.880  32.005  33.213  1.00  0.00     0.031 C 
ATOM     59  C   UNL A   1      39.764  31.129  34.564  1.00  0.00     0.037 A 
BRANCH  46  60
ATOM     60  C   UNL A   1      44.641  27.352  34.374  1.00  0.00     0.064 A 
ATOM     61  C   UNL A   1      45.904  27.958  34.414  1.00  0.00     0.173 A 
ATOM     62  C   UNL A   1      44.463  26.158  35.090  1.00  0.00     0.173 A 
ATOM     63  F   UNL A   1      46.130  29.092  33.734  1.00  0.00    -0.203 F 
ATOM     64  C   UNL A   1      46.951  27.383  35.131  1.00  0.00     0.198 A 
ATOM     65  C   UNL A   1      45.503  25.598  35.827  1.00  0.00     0.198 A 
ATOM     66  F   UNL A   1      43.272  25.539  35.088  1.00  0.00    -0.203 F 
ATOM     67  F   UNL A   1      48.161  27.960  35.126  1.00  0.00    -0.200 F 
ATOM     68  C   UNL A   1      46.748  26.209  35.842  1.00  0.00     0.200 A 
ATOM     69  F   UNL A   1      45.301  24.471  36.522  1.00  0.00    -0.200 F 
ATOM     70  F   UNL A   1      47.754  25.663  36.539  1.00  0.00    -0.200 F 
ENDBRANCH  46  60
BRANCH  47  71
ATOM     71  C   UNL A   1      36.958  31.084  29.198  1.00  0.00     0.064 A 
ATOM     72  C   UNL A   1      35.875  30.248  28.894  1.00  0.00     0.173 A 
ATOM     73  C   UNL A   1      36.892  32.420  28.774  1.00  0.00     0.173 A 
ATOM     74  F   UNL A   1      35.904  28.957  29.255  1.00  0.00    -0.203 F 
ATOM     75  C   UNL A   1      34.775  30.728  28.186  1.00  0.00     0.198 A 
ATOM     76  C   UNL A   1      35.779  32.905  28.094  1.00  0.00     0.198 A 
ATOM     77  F   UNL A   1      37.903  33.260  29.038  1.00  0.00    -0.203 F 
ATOM     78  F   UNL A   1      33.771  29.898  27.871  1.00  0.00    -0.200 F 
ATOM     79  C   UNL A   1      34.724  32.057  27.794  1.00  0.00     0.200 A 
ATOM     80  F   UNL A   1      35.727  34.194  27.729  1.00  0.00    -0.200 F 
ATOM     81  F   UNL A   1      33.662  32.518  27.119  1.00  0.00    -0.200 F 
ENDBRANCH  47  71
BRANCH  59  82
ATOM     82  C   UNL A   1      39.271  31.956  35.711  1.00  0.00     0.064 A 
ATOM     83  C   UNL A   1      39.676  33.287  35.883  1.00  0.00     0.173 A 
ATOM     84  C   UNL A   1      38.345  31.425  36.620  1.00  0.00     0.173 A 
ATOM     85  F   UNL A   1      40.573  33.833  35.047  1.00  0.00    -0.203 F 
ATOM     86  C   UNL A   1      39.184  34.053  36.935  1.00  0.00     0.198 A 
ATOM     87  C   UNL A   1      37.835  32.202  37.657  1.00  0.00     0.198 A 
ATOM     88  F   UNL A   1      37.924  30.158  36.495  1.00  0.00    -0.203 F 
ATOM     89  F   UNL A   1      39.611  35.313  37.103  1.00  0.00    -0.200 F 
ATOM     90  C   UNL A   1      38.258  33.513  37.816  1.00  0.00     0.200 A 
ATOM     91  F   UNL A   1      36.934  31.681  38.502  1.00  0.00    -0.200 F 
ATOM     92  F   UNL A   1      37.777  34.255  38.824  1.00  0.00    -0.200 F 
ENDBRANCH  59  82
ENDBRANCH  33  34
ENDBRANCH  26  28
ENDBRANCH  25  26
ENDBRANCH  24  25
ENDBRANCH  23  24
ENDBRANCH   1  23
TORSDOF 17
ENDMDL
