MODEL 1
REMARK VINA RESULT:     -13.8      0.000      0.000
REMARK SMILES Cc1c(NCc2ccccn2)cccc1C(=O)N1CCOC[C@@H]1CC(=O)OCCOC(=O)c1ccc(-c2c3nc(c(-c4c(F)c(F)c(F)c(F)c4F)c4ccc([nH]4)c(-c4c(F)c(F)c(F)c(F)c4F)c4nc(c(-c5c(F)c(F)c(F)c(F)c5F)c5ccc2[nH]5)C=C4)C=C3)cc1
REMARK SMILES IDX 25 1 26 2 24 3 23 4 18 5 19 6 20 7 22 8 21 9 16 10 17 11
REMARK SMILES IDX 15 12 1 13 2 14 3 15 12 16 14 17 13 18 4 19 5 21 6 22 7 23
REMARK SMILES IDX 11 24 8 25 10 26 9 27 27 28 28 29 29 30 30 31 31 32 32 33
REMARK SMILES IDX 33 34 34 35 95 36 35 37 94 38 36 39 37 40 38 41 88 42 39 43
REMARK SMILES IDX 93 44 87 45 89 46 40 47 92 48 86 49 85 50 41 52 73 53 53 54
REMARK SMILES IDX 72 55 54 56 57 57 71 58 90 59 55 60 56 61 70 63 91 64 58 65
REMARK SMILES IDX 42 66 43 67 51 68 44 69 45 70 49 71 52 72 46 73 47 74 50 75
REMARK SMILES IDX 48 76 74 77 75 78 83 79 76 80 77 81 81 82 84 83 78 84 79 85
REMARK SMILES IDX 82 86 80 87 59 88 60 89 68 90 61 91 62 92 66 93 69 94 63 95
REMARK SMILES IDX 64 96 67 97 65 98
REMARK H PARENT 4 20 89 51 57 62
REMARK Flexibility Score: inf
ROOT
ATOM      1  C   UNL A   1      33.481  27.065  25.316  1.00  0.00     0.308 C 
ATOM      2  O   UNL A   1      34.058  27.400  24.291  1.00  0.00    -0.252 OA
ENDROOT
BRANCH   1   3
ATOM      3  C   UNL A   1      33.590  25.684  25.909  1.00  0.00     0.150 C 
BRANCH   3   4
ATOM      4  C   UNL A   1      34.207  24.649  24.976  1.00  0.00     0.122 C 
ATOM      5  N   UNL A   1      33.330  23.508  24.645  1.00  0.00    -0.330 N 
ATOM      6  C   UNL A   1      33.972  22.562  23.735  1.00  0.00     0.148 C 
ATOM      7  C   UNL A   1      35.340  22.122  24.277  1.00  0.00     0.181 C 
ATOM      8  C   UNL A   1      35.560  24.124  25.520  1.00  0.00     0.185 C 
ATOM      9  O   UNL A   1      36.179  23.252  24.558  1.00  0.00    -0.377 OA
BRANCH   5  10
ATOM     10  C   UNL A   1      31.957  23.695  24.526  1.00  0.00     0.254 C 
ATOM     11  O   UNL A   1      31.174  22.839  24.928  1.00  0.00    -0.269 OA
BRANCH  10  12
ATOM     12  C   UNL A   1      31.467  24.861  23.671  1.00  0.00     0.045 A 
ATOM     13  C   UNL A   1      29.877  25.873  25.409  1.00  0.00     0.047 C 
ATOM     14  C   UNL A   1      30.542  25.878  24.054  1.00  0.00    -0.015 A 
ATOM     15  C   UNL A   1      30.300  26.990  23.181  1.00  0.00     0.038 A 
ATOM     16  C   UNL A   1      31.032  27.085  21.990  1.00  0.00     0.026 A 
ATOM     17  C   UNL A   1      32.159  25.008  22.453  1.00  0.00     0.014 A 
ATOM     18  C   UNL A   1      31.961  26.115  21.633  1.00  0.00     0.003 A 
BRANCH  15  19
ATOM     19  N   UNL A   1      29.464  28.034  23.578  1.00  0.00    -0.379 N 
ATOM     20  H   UNL A   1      29.729  28.562  24.366  1.00  0.00     0.160 HD
BRANCH  19  21
ATOM     21  C   UNL A   1      28.222  28.396  22.903  1.00  0.00     0.169 C 
BRANCH  21  22
ATOM     22  C   UNL A   1      28.213  29.861  22.503  1.00  0.00     0.059 A 
ATOM     23  C   UNL A   1      28.292  30.883  23.453  1.00  0.00     0.026 A 
ATOM     24  N   UNL A   1      28.118  30.127  21.177  1.00  0.00    -0.259 NA
ATOM     25  C   UNL A   1      28.289  32.208  23.037  1.00  0.00     0.004 A 
ATOM     26  C   UNL A   1      28.101  31.425  20.801  1.00  0.00     0.111 A 
ATOM     27  C   UNL A   1      28.185  32.487  21.685  1.00  0.00     0.020 A 
ENDBRANCH  21  22
ENDBRANCH  19  21
ENDBRANCH  15  19
ENDBRANCH  10  12
ENDBRANCH   5  10
ENDBRANCH   3   4
ENDBRANCH   1   3
BRANCH   1  28
ATOM     28  O   UNL A   1      32.701  27.894  26.056  1.00  0.00    -0.462 OA
BRANCH  28  29
ATOM     29  C   UNL A   1      33.291  28.369  27.268  1.00  0.00     0.274 C 
BRANCH  29  30
ATOM     30  C   UNL A   1      33.905  29.759  27.117  1.00  0.00     0.275 C 
BRANCH  30  31
ATOM     31  O   UNL A   1      35.356  29.944  27.150  1.00  0.00    -0.458 OA
BRANCH  31  32
ATOM     32  C   UNL A   1      36.087  30.565  28.109  1.00  0.00     0.338 C 
ATOM     33  O   UNL A   1      35.750  31.640  28.601  1.00  0.00    -0.246 OA
BRANCH  32  34
ATOM     34  C   UNL A   1      37.320  29.884  28.543  1.00  0.00     0.060 A 
ATOM     35  C   UNL A   1      37.343  29.062  29.688  1.00  0.00     0.016 A 
ATOM     36  C   UNL A   1      38.376  29.882  27.659  1.00  0.00     0.016 A 
ATOM     37  C   UNL A   1      38.378  28.135  29.863  1.00  0.00     0.010 A 
ATOM     38  C   UNL A   1      39.166  28.770  27.665  1.00  0.00     0.010 A 
ATOM     39  C   UNL A   1      39.267  27.961  28.808  1.00  0.00    -0.014 A 
BRANCH  39  40
ATOM     40  C   UNL A   1      40.526  27.224  28.811  1.00  0.00     0.031 A 
ATOM     41  C   UNL A   1      40.663  25.789  28.507  1.00  0.00     0.074 A 
ATOM     42  C   UNL A   1      41.566  28.094  28.923  1.00  0.00     0.049 A 
ATOM     43  N   UNL A   1      41.760  25.153  28.719  1.00  0.00    -0.248 NA
ATOM     44  C   UNL A   1      39.641  24.923  27.930  1.00  0.00     0.031 C 
ATOM     45  C   UNL A   1      42.997  27.990  28.729  1.00  0.00     0.029 A 
ATOM     46  N   UNL A   1      41.426  29.429  29.377  1.00  0.00    -0.354 N 
ATOM     47  C   UNL A   1      41.706  23.941  28.059  1.00  0.00     0.074 A 
ATOM     48  C   UNL A   1      40.337  23.814  27.634  1.00  0.00     0.031 C 
ATOM     49  C   UNL A   1      43.579  28.995  29.428  1.00  0.00     0.029 A 
ATOM     50  C   UNL A   1      42.529  29.694  30.173  1.00  0.00     0.049 A 
ATOM     51  H   UNL A   1      40.688  30.047  29.168  1.00  0.00     0.167 HD
ATOM     52  C   UNL A   1      42.887  23.280  27.869  1.00  0.00     0.037 A 
ATOM     53  C   UNL A   1      42.260  29.672  31.513  1.00  0.00     0.037 A 
ATOM     54  C   UNL A   1      43.951  23.987  28.591  1.00  0.00     0.049 A 
ATOM     55  C   UNL A   1      42.851  28.433  32.151  1.00  0.00     0.074 A 
ATOM     56  C   UNL A   1      44.884  24.944  28.229  1.00  0.00     0.029 A 
ATOM     57  N   UNL A   1      43.845  24.067  29.968  1.00  0.00    -0.354 N 
ATOM     58  N   UNL A   1      43.336  27.423  31.481  1.00  0.00    -0.248 NA
ATOM     59  C   UNL A   1      42.880  28.210  33.590  1.00  0.00     0.031 C 
ATOM     60  C   UNL A   1      45.277  25.645  29.415  1.00  0.00     0.029 A 
ATOM     61  C   UNL A   1      44.597  25.102  30.492  1.00  0.00     0.049 A 
ATOM     62  H   UNL A   1      43.298  23.456  30.513  1.00  0.00     0.167 HD
ATOM     63  C   UNL A   1      43.803  26.475  32.337  1.00  0.00     0.074 A 
ATOM     64  C   UNL A   1      43.420  26.982  33.648  1.00  0.00     0.031 C 
ATOM     65  C   UNL A   1      44.487  25.366  31.921  1.00  0.00     0.037 A 
BRANCH  52  66
ATOM     66  C   UNL A   1      43.157  22.146  26.902  1.00  0.00     0.064 A 
ATOM     67  C   UNL A   1      42.454  20.924  27.041  1.00  0.00     0.173 A 
ATOM     68  C   UNL A   1      44.089  22.164  25.846  1.00  0.00     0.173 A 
ATOM     69  F   UNL A   1      41.497  20.769  27.966  1.00  0.00    -0.203 F 
ATOM     70  C   UNL A   1      42.709  19.803  26.245  1.00  0.00     0.198 A 
ATOM     71  C   UNL A   1      44.361  21.030  25.062  1.00  0.00     0.198 A 
ATOM     72  F   UNL A   1      44.736  23.282  25.504  1.00  0.00    -0.203 F 
ATOM     73  F   UNL A   1      42.012  18.676  26.446  1.00  0.00    -0.200 F 
ATOM     74  C   UNL A   1      43.676  19.849  25.268  1.00  0.00     0.200 A 
ATOM     75  F   UNL A   1      45.294  21.093  24.100  1.00  0.00    -0.200 F 
ATOM     76  F   UNL A   1      43.937  18.768  24.519  1.00  0.00    -0.200 F 
ENDBRANCH  52  66
BRANCH  53  77
ATOM     77  C   UNL A   1      40.913  30.286  31.868  1.00  0.00     0.064 A 
ATOM     78  C   UNL A   1      39.881  29.451  32.376  1.00  0.00     0.173 A 
ATOM     79  C   UNL A   1      40.700  31.666  32.004  1.00  0.00     0.173 A 
ATOM     80  F   UNL A   1      39.999  28.114  32.302  1.00  0.00    -0.203 F 
ATOM     81  C   UNL A   1      38.779  29.961  33.069  1.00  0.00     0.198 A 
ATOM     82  C   UNL A   1      39.568  32.176  32.658  1.00  0.00     0.198 A 
ATOM     83  F   UNL A   1      41.621  32.546  31.586  1.00  0.00    -0.203 F 
ATOM     84  F   UNL A   1      37.916  29.125  33.665  1.00  0.00    -0.200 F 
ATOM     85  C   UNL A   1      38.626  31.325  33.214  1.00  0.00     0.200 A 
ATOM     86  F   UNL A   1      39.442  33.500  32.836  1.00  0.00    -0.200 F 
ATOM     87  F   UNL A   1      37.615  31.817  33.944  1.00  0.00    -0.200 F 
ENDBRANCH  53  77
BRANCH  65  88
ATOM     88  C   UNL A   1      45.100  24.405  32.898  1.00  0.00     0.064 A 
ATOM     89  C   UNL A   1      46.412  24.569  33.367  1.00  0.00     0.173 A 
ATOM     90  C   UNL A   1      44.427  23.247  33.343  1.00  0.00     0.173 A 
ATOM     91  F   UNL A   1      47.209  25.529  32.876  1.00  0.00    -0.203 F 
ATOM     92  C   UNL A   1      46.946  23.735  34.345  1.00  0.00     0.198 A 
ATOM     93  C   UNL A   1      44.992  22.374  34.263  1.00  0.00     0.198 A 
ATOM     94  F   UNL A   1      43.197  22.925  32.924  1.00  0.00    -0.203 F 
ATOM     95  F   UNL A   1      48.157  24.004  34.849  1.00  0.00    -0.200 F 
ATOM     96  C   UNL A   1      46.233  22.642  34.797  1.00  0.00     0.200 A 
ATOM     97  F   UNL A   1      44.312  21.282  34.640  1.00  0.00    -0.200 F 
ATOM     98  F   UNL A   1      46.745  21.842  35.740  1.00  0.00    -0.200 F 
ENDBRANCH  65  88
ENDBRANCH  39  40
ENDBRANCH  32  34
ENDBRANCH  31  32
ENDBRANCH  30  31
ENDBRANCH  29  30
ENDBRANCH  28  29
ENDBRANCH   1  28
TORSDOF 17
ENDMDL
MODEL 2
REMARK VINA RESULT:     -13.8      1.895      4.677
REMARK SMILES Cc1c(NCc2ccccn2)cccc1C(=O)N1CCOC[C@@H]1CC(=O)OCCOC(=O)c1ccc(-c2c3nc(c(-c4c(F)c(F)c(F)c(F)c4F)c4ccc([nH]4)c(-c4c(F)c(F)c(F)c(F)c4F)c4nc(c(-c5c(F)c(F)c(F)c(F)c5F)c5ccc2[nH]5)C=C4)C=C3)cc1
REMARK SMILES IDX 25 1 26 2 24 3 23 4 18 5 19 6 20 7 22 8 21 9 16 10 17 11
REMARK SMILES IDX 15 12 1 13 2 14 3 15 12 16 14 17 13 18 4 19 5 21 6 22 7 23
REMARK SMILES IDX 11 24 8 25 10 26 9 27 27 28 28 29 29 30 30 31 31 32 32 33
REMARK SMILES IDX 33 34 34 35 95 36 35 37 94 38 36 39 37 40 38 41 88 42 39 43
REMARK SMILES IDX 93 44 87 45 89 46 40 47 92 48 86 49 85 50 41 52 73 53 53 54
REMARK SMILES IDX 72 55 54 56 57 57 71 58 90 59 55 60 56 61 70 63 91 64 58 65
REMARK SMILES IDX 42 66 43 67 51 68 44 69 45 70 49 71 52 72 46 73 47 74 50 75
REMARK SMILES IDX 48 76 74 77 75 78 83 79 76 80 77 81 81 82 84 83 78 84 79 85
REMARK SMILES IDX 82 86 80 87 59 88 60 89 68 90 61 91 62 92 66 93 69 94 63 95
REMARK SMILES IDX 64 96 67 97 65 98
REMARK H PARENT 4 20 89 51 57 62
REMARK Flexibility Score: inf
ROOT
ATOM      1  C   UNL A   1      31.891  28.582  27.236  1.00  0.00     0.308 C 
ATOM      2  O   UNL A   1      31.101  28.030  27.989  1.00  0.00    -0.252 OA
ENDROOT
BRANCH   1   3
ATOM      3  C   UNL A   1      32.660  27.850  26.167  1.00  0.00     0.150 C 
BRANCH   3   4
ATOM      4  C   UNL A   1      31.834  27.486  24.939  1.00  0.00     0.122 C 
ATOM      5  N   UNL A   1      31.748  26.041  24.652  1.00  0.00    -0.330 N 
ATOM      6  C   UNL A   1      30.929  25.757  23.475  1.00  0.00     0.148 C 
ATOM      7  C   UNL A   1      31.406  26.576  22.266  1.00  0.00     0.181 C 
ATOM      8  C   UNL A   1      32.325  28.239  23.676  1.00  0.00     0.185 C 
ATOM      9  O   UNL A   1      31.447  27.978  22.568  1.00  0.00    -0.377 OA
BRANCH   5  10
ATOM     10  C   UNL A   1      31.726  25.123  25.696  1.00  0.00     0.254 C 
ATOM     11  O   UNL A   1      30.879  25.206  26.582  1.00  0.00    -0.269 OA
BRANCH  10  12
ATOM     12  C   UNL A   1      32.915  24.177  25.841  1.00  0.00     0.045 A 
ATOM     13  C   UNL A   1      31.577  21.991  25.823  1.00  0.00     0.047 C 
ATOM     14  C   UNL A   1      32.880  22.751  25.877  1.00  0.00    -0.015 A 
ATOM     15  C   UNL A   1      34.104  22.004  25.866  1.00  0.00     0.038 A 
ATOM     16  C   UNL A   1      35.317  22.698  25.757  1.00  0.00     0.026 A 
ATOM     17  C   UNL A   1      34.168  24.815  25.747  1.00  0.00     0.014 A 
ATOM     18  C   UNL A   1      35.352  24.086  25.684  1.00  0.00     0.003 A 
BRANCH  15  19
ATOM     19  N   UNL A   1      34.085  20.610  25.815  1.00  0.00    -0.379 N 
ATOM     20  H   UNL A   1      33.840  20.123  26.635  1.00  0.00     0.160 HD
BRANCH  19  21
ATOM     21  C   UNL A   1      34.403  19.826  24.627  1.00  0.00     0.169 C 
BRANCH  21  22
ATOM     22  C   UNL A   1      33.880  18.404  24.743  1.00  0.00     0.059 A 
ATOM     23  C   UNL A   1      32.905  18.053  25.681  1.00  0.00     0.026 A 
ATOM     24  N   UNL A   1      34.412  17.492  23.892  1.00  0.00    -0.259 NA
ATOM     25  C   UNL A   1      32.453  16.742  25.742  1.00  0.00     0.004 A 
ATOM     26  C   UNL A   1      33.965  16.220  23.984  1.00  0.00     0.111 A 
ATOM     27  C   UNL A   1      32.997  15.803  24.882  1.00  0.00     0.020 A 
ENDBRANCH  21  22
ENDBRANCH  19  21
ENDBRANCH  15  19
ENDBRANCH  10  12
ENDBRANCH   5  10
ENDBRANCH   3   4
ENDBRANCH   1   3
BRANCH   1  28
ATOM     28  O   UNL A   1      32.152  29.914  27.251  1.00  0.00    -0.462 OA
BRANCH  28  29
ATOM     29  C   UNL A   1      33.482  30.282  26.878  1.00  0.00     0.274 C 
BRANCH  29  30
ATOM     30  C   UNL A   1      34.172  31.139  27.936  1.00  0.00     0.275 C 
BRANCH  30  31
ATOM     31  O   UNL A   1      35.613  31.028  28.166  1.00  0.00    -0.458 OA
BRANCH  31  32
ATOM     32  C   UNL A   1      36.239  30.375  29.177  1.00  0.00     0.338 C 
ATOM     33  O   UNL A   1      35.907  30.509  30.354  1.00  0.00    -0.246 OA
BRANCH  32  34
ATOM     34  C   UNL A   1      37.348  29.481  28.799  1.00  0.00     0.060 A 
ATOM     35  C   UNL A   1      38.103  29.700  27.628  1.00  0.00     0.016 A 
ATOM     36  C   UNL A   1      37.775  28.580  29.748  1.00  0.00     0.016 A 
ATOM     37  C   UNL A   1      39.363  29.104  27.486  1.00  0.00     0.010 A 
ATOM     38  C   UNL A   1      39.109  28.293  29.752  1.00  0.00     0.010 A 
ATOM     39  C   UNL A   1      39.883  28.436  28.589  1.00  0.00    -0.014 A 
BRANCH  39  40
ATOM     40  C   UNL A   1      41.057  27.572  28.640  1.00  0.00     0.031 A 
ATOM     41  C   UNL A   1      41.047  26.122  28.379  1.00  0.00     0.074 A 
ATOM     42  C   UNL A   1      42.181  28.331  28.749  1.00  0.00     0.049 A 
ATOM     43  N   UNL A   1      42.066  25.380  28.632  1.00  0.00    -0.248 NA
ATOM     44  C   UNL A   1      39.950  25.351  27.804  1.00  0.00     0.031 C 
ATOM     45  C   UNL A   1      43.596  28.071  28.589  1.00  0.00     0.029 A 
ATOM     46  N   UNL A   1      42.174  29.686  29.162  1.00  0.00    -0.354 N 
ATOM     47  C   UNL A   1      41.897  24.161  28.006  1.00  0.00     0.074 A 
ATOM     48  C   UNL A   1      40.530  24.167  27.555  1.00  0.00     0.031 C 
ATOM     49  C   UNL A   1      44.268  29.029  29.272  1.00  0.00     0.029 A 
ATOM     50  C   UNL A   1      43.284  29.858  29.974  1.00  0.00     0.049 A 
ATOM     51  H   UNL A   1      41.510  30.371  28.920  1.00  0.00     0.167 HD
ATOM     52  C   UNL A   1      43.005  23.375  27.860  1.00  0.00     0.037 A 
ATOM     53  C   UNL A   1      42.990  29.904  31.308  1.00  0.00     0.037 A 
ATOM     54  C   UNL A   1      44.124  23.987  28.585  1.00  0.00     0.049 A 
ATOM     55  C   UNL A   1      43.434  28.630  31.994  1.00  0.00     0.074 A 
ATOM     56  C   UNL A   1      45.159  24.829  28.216  1.00  0.00     0.029 A 
ATOM     57  N   UNL A   1      44.002  24.119  29.956  1.00  0.00    -0.354 N 
ATOM     58  N   UNL A   1      43.822  27.554  31.363  1.00  0.00    -0.248 NA
ATOM     59  C   UNL A   1      43.413  28.449  33.438  1.00  0.00     0.031 C 
ATOM     60  C   UNL A   1      45.602  25.521  29.390  1.00  0.00     0.029 A 
ATOM     61  C   UNL A   1      44.849  25.084  30.467  1.00  0.00     0.049 A 
ATOM     62  H   UNL A   1      43.383  23.586  30.506  1.00  0.00     0.167 HD
ATOM     63  C   UNL A   1      44.170  26.589  32.255  1.00  0.00     0.074 A 
ATOM     64  C   UNL A   1      43.819  27.173  33.543  1.00  0.00     0.031 C 
ATOM     65  C   UNL A   1      44.740  25.402  31.885  1.00  0.00     0.037 A 
BRANCH  52  66
ATOM     66  C   UNL A   1      43.170  22.190  26.931  1.00  0.00     0.064 A 
ATOM     67  C   UNL A   1      42.344  21.051  27.092  1.00  0.00     0.173 A 
ATOM     68  C   UNL A   1      44.116  22.079  25.893  1.00  0.00     0.173 A 
ATOM     69  F   UNL A   1      41.361  21.024  28.004  1.00  0.00    -0.203 F 
ATOM     70  C   UNL A   1      42.493  19.886  26.334  1.00  0.00     0.198 A 
ATOM     71  C   UNL A   1      44.281  20.900  25.147  1.00  0.00     0.198 A 
ATOM     72  F   UNL A   1      44.881  23.114  25.530  1.00  0.00    -0.203 F 
ATOM     73  F   UNL A   1      41.681  18.843  26.554  1.00  0.00    -0.200 F 
ATOM     74  C   UNL A   1      43.475  19.802  25.374  1.00  0.00     0.200 A 
ATOM     75  F   UNL A   1      45.231  20.837  24.201  1.00  0.00    -0.200 F 
ATOM     76  F   UNL A   1      43.635  18.678  24.661  1.00  0.00    -0.200 F 
ENDBRANCH  52  66
BRANCH  53  77
ATOM     77  C   UNL A   1      41.708  30.667  31.616  1.00  0.00     0.064 A 
ATOM     78  C   UNL A   1      40.600  29.969  32.167  1.00  0.00     0.173 A 
ATOM     79  C   UNL A   1      41.632  32.067  31.667  1.00  0.00     0.173 A 
ATOM     80  F   UNL A   1      40.587  28.625  32.175  1.00  0.00    -0.203 F 
ATOM     81  C   UNL A   1      39.553  30.625  32.821  1.00  0.00     0.198 A 
ATOM     82  C   UNL A   1      40.554  32.723  32.282  1.00  0.00     0.198 A 
ATOM     83  F   UNL A   1      42.634  32.826  31.203  1.00  0.00    -0.203 F 
ATOM     84  F   UNL A   1      38.611  29.914  33.461  1.00  0.00    -0.200 F 
ATOM     85  C   UNL A   1      39.533  32.003  32.882  1.00  0.00     0.200 A 
ATOM     86  F   UNL A   1      40.558  34.062  32.379  1.00  0.00    -0.200 F 
ATOM     87  F   UNL A   1      38.575  32.635  33.575  1.00  0.00    -0.200 F 
ENDBRANCH  53  77
BRANCH  65  88
ATOM     88  C   UNL A   1      45.230  24.412  32.902  1.00  0.00     0.064 A 
ATOM     89  C   UNL A   1      46.513  24.506  33.463  1.00  0.00     0.173 A 
ATOM     90  C   UNL A   1      44.466  23.294  33.297  1.00  0.00     0.173 A 
ATOM     91  F   UNL A   1      47.394  25.420  33.030  1.00  0.00    -0.203 F 
ATOM     92  C   UNL A   1      46.931  23.647  34.475  1.00  0.00     0.198 A 
ATOM     93  C   UNL A   1      44.917  22.394  34.254  1.00  0.00     0.198 A 
ATOM     94  F   UNL A   1      43.253  23.037  32.792  1.00  0.00    -0.203 F 
ATOM     95  F   UNL A   1      48.116  23.851  35.063  1.00  0.00    -0.200 F 
ATOM     96  C   UNL A   1      46.130  22.595  34.874  1.00  0.00     0.200 A 
ATOM     97  F   UNL A   1      44.153  21.341  34.580  1.00  0.00    -0.200 F 
ATOM     98  F   UNL A   1      46.530  21.771  35.849  1.00  0.00    -0.200 F 
ENDBRANCH  65  88
ENDBRANCH  39  40
ENDBRANCH  32  34
ENDBRANCH  31  32
ENDBRANCH  30  31
ENDBRANCH  29  30
ENDBRANCH  28  29
ENDBRANCH   1  28
TORSDOF 17
ENDMDL
MODEL 3
REMARK VINA RESULT:     -13.7      3.718     10.420
REMARK SMILES Cc1c(NCc2ccccn2)cccc1C(=O)N1CCOC[C@@H]1CC(=O)OCCOC(=O)c1ccc(-c2c3nc(c(-c4c(F)c(F)c(F)c(F)c4F)c4ccc([nH]4)c(-c4c(F)c(F)c(F)c(F)c4F)c4nc(c(-c5c(F)c(F)c(F)c(F)c5F)c5ccc2[nH]5)C=C4)C=C3)cc1
REMARK SMILES IDX 25 1 26 2 24 3 23 4 18 5 19 6 20 7 22 8 21 9 16 10 17 11
REMARK SMILES IDX 15 12 1 13 2 14 3 15 12 16 14 17 13 18 4 19 5 21 6 22 7 23
REMARK SMILES IDX 11 24 8 25 10 26 9 27 27 28 28 29 29 30 30 31 31 32 32 33
REMARK SMILES IDX 33 34 34 35 95 36 35 37 94 38 36 39 37 40 38 41 88 42 39 43
REMARK SMILES IDX 93 44 87 45 89 46 40 47 92 48 86 49 85 50 41 52 73 53 53 54
REMARK SMILES IDX 72 55 54 56 57 57 71 58 90 59 55 60 56 61 70 63 91 64 58 65
REMARK SMILES IDX 42 66 43 67 51 68 44 69 45 70 49 71 52 72 46 73 47 74 50 75
REMARK SMILES IDX 48 76 74 77 75 78 83 79 76 80 77 81 81 82 84 83 78 84 79 85
REMARK SMILES IDX 82 86 80 87 59 88 60 89 68 90 61 91 62 92 66 93 69 94 63 95
REMARK SMILES IDX 64 96 67 97 65 98
REMARK H PARENT 4 20 89 51 57 62
REMARK Flexibility Score: inf
ROOT
ATOM      1  C   UNL A   1      34.689  24.745  25.290  1.00  0.00     0.308 C 
ATOM      2  O   UNL A   1      34.024  24.430  26.268  1.00  0.00    -0.252 OA
ENDROOT
BRANCH   1   3
ATOM      3  C   UNL A   1      34.286  25.841  24.338  1.00  0.00     0.150 C 
BRANCH   3   4
ATOM      4  C   UNL A   1      33.091  26.664  24.800  1.00  0.00     0.122 C 
ATOM      5  N   UNL A   1      31.964  26.715  23.847  1.00  0.00    -0.330 N 
ATOM      6  C   UNL A   1      30.844  27.504  24.356  1.00  0.00     0.148 C 
ATOM      7  C   UNL A   1      31.311  28.899  24.797  1.00  0.00     0.181 C 
ATOM      8  C   UNL A   1      33.506  28.106  25.191  1.00  0.00     0.185 C 
ATOM      9  O   UNL A   1      32.384  28.814  25.746  1.00  0.00    -0.377 OA
BRANCH   5  10
ATOM     10  C   UNL A   1      31.674  25.613  23.051  1.00  0.00     0.254 C 
ATOM     11  O   UNL A   1      31.346  25.761  21.876  1.00  0.00    -0.269 OA
BRANCH  10  12
ATOM     12  C   UNL A   1      31.535  24.255  23.734  1.00  0.00     0.045 A 
ATOM     13  C   UNL A   1      33.134  22.969  22.196  1.00  0.00     0.047 C 
ATOM     14  C   UNL A   1      32.203  23.043  23.383  1.00  0.00    -0.015 A 
ATOM     15  C   UNL A   1      32.076  21.887  24.222  1.00  0.00     0.038 A 
ATOM     16  C   UNL A   1      31.342  21.994  25.411  1.00  0.00     0.026 A 
ATOM     17  C   UNL A   1      30.800  24.291  24.935  1.00  0.00     0.014 A 
ATOM     18  C   UNL A   1      30.721  23.183  25.773  1.00  0.00     0.003 A 
BRANCH  15  19
ATOM     19  N   UNL A   1      32.791  20.723  23.938  1.00  0.00    -0.379 N 
ATOM     20  H   UNL A   1      33.733  20.682  24.219  1.00  0.00     0.160 HD
BRANCH  19  21
ATOM     21  C   UNL A   1      32.233  19.562  23.251  1.00  0.00     0.169 C 
BRANCH  21  22
ATOM     22  C   UNL A   1      32.725  18.263  23.866  1.00  0.00     0.059 A 
ATOM     23  C   UNL A   1      33.651  17.445  23.214  1.00  0.00     0.026 A 
ATOM     24  N   UNL A   1      32.215  17.936  25.079  1.00  0.00    -0.259 NA
ATOM     25  C   UNL A   1      34.078  16.271  23.822  1.00  0.00     0.004 A 
ATOM     26  C   UNL A   1      32.635  16.781  25.641  1.00  0.00     0.111 A 
ATOM     27  C   UNL A   1      33.556  15.927  25.057  1.00  0.00     0.020 A 
ENDBRANCH  21  22
ENDBRANCH  19  21
ENDBRANCH  15  19
ENDBRANCH  10  12
ENDBRANCH   5  10
ENDBRANCH   3   4
ENDBRANCH   1   3
BRANCH   1  28
ATOM     28  O   UNL A   1      35.874  24.171  24.959  1.00  0.00    -0.462 OA
BRANCH  28  29
ATOM     29  C   UNL A   1      36.133  22.905  25.570  1.00  0.00     0.274 C 
BRANCH  29  30
ATOM     30  C   UNL A   1      37.616  22.686  25.860  1.00  0.00     0.275 C 
BRANCH  30  31
ATOM     31  O   UNL A   1      38.515  23.823  26.060  1.00  0.00    -0.458 OA
BRANCH  31  32
ATOM     32  C   UNL A   1      39.566  23.903  26.914  1.00  0.00     0.338 C 
ATOM     33  O   UNL A   1      40.237  22.922  27.227  1.00  0.00    -0.246 OA
BRANCH  32  34
ATOM     34  C   UNL A   1      39.876  25.239  27.454  1.00  0.00     0.060 A 
ATOM     35  C   UNL A   1      40.412  26.257  26.640  1.00  0.00     0.016 A 
ATOM     36  C   UNL A   1      39.397  25.529  28.712  1.00  0.00     0.016 A 
ATOM     37  C   UNL A   1      40.335  27.594  27.049  1.00  0.00     0.010 A 
ATOM     38  C   UNL A   1      39.028  26.823  28.934  1.00  0.00     0.010 A 
ATOM     39  C   UNL A   1      39.587  27.873  28.188  1.00  0.00    -0.014 A 
BRANCH  39  40
ATOM     40  C   UNL A   1      39.518  29.128  28.928  1.00  0.00     0.031 A 
ATOM     41  C   UNL A   1      38.506  30.177  28.715  1.00  0.00     0.074 A 
ATOM     42  C   UNL A   1      40.384  29.090  29.977  1.00  0.00     0.049 A 
ATOM     43  N   UNL A   1      38.611  31.340  29.253  1.00  0.00    -0.248 NA
ATOM     44  C   UNL A   1      37.285  30.057  27.926  1.00  0.00     0.031 C 
ATOM     45  C   UNL A   1      40.569  29.895  31.166  1.00  0.00     0.029 A 
ATOM     46  N   UNL A   1      41.456  28.168  30.076  1.00  0.00    -0.354 N 
ATOM     47  C   UNL A   1      37.396  31.990  29.151  1.00  0.00     0.074 A 
ATOM     48  C   UNL A   1      36.618  31.174  28.256  1.00  0.00     0.031 C 
ATOM     49  C   UNL A   1      41.841  29.709  31.593  1.00  0.00     0.029 A 
ATOM     50  C   UNL A   1      42.527  28.862  30.614  1.00  0.00     0.049 A 
ATOM     51  H   UNL A   1      41.441  27.219  29.812  1.00  0.00     0.167 HD
ATOM     52  C   UNL A   1      37.199  33.076  29.956  1.00  0.00     0.037 A 
ATOM     53  C   UNL A   1      43.481  29.203  29.696  1.00  0.00     0.037 A 
ATOM     54  C   UNL A   1      38.453  33.389  30.650  1.00  0.00     0.049 A 
ATOM     55  C   UNL A   1      43.436  30.690  29.412  1.00  0.00     0.074 A 
ATOM     56  C   UNL A   1      38.971  33.059  31.890  1.00  0.00     0.029 A 
ATOM     57  N   UNL A   1      39.538  33.757  29.874  1.00  0.00    -0.354 N 
ATOM     58  N   UNL A   1      42.476  31.483  29.805  1.00  0.00    -0.248 NA
ATOM     59  C   UNL A   1      44.434  31.382  28.609  1.00  0.00     0.031 C 
ATOM     60  C   UNL A   1      40.398  33.169  31.813  1.00  0.00     0.029 A 
ATOM     61  C   UNL A   1      40.738  33.581  30.537  1.00  0.00     0.049 A 
ATOM     62  H   UNL A   1      39.463  34.105  28.957  1.00  0.00     0.167 HD
ATOM     63  C   UNL A   1      42.731  32.757  29.408  1.00  0.00     0.074 A 
ATOM     64  C   UNL A   1      43.931  32.627  28.593  1.00  0.00     0.031 C 
ATOM     65  C   UNL A   1      41.967  33.825  29.792  1.00  0.00     0.037 A 
BRANCH  52  66
ATOM     66  C   UNL A   1      35.878  33.737  30.294  1.00  0.00     0.064 A 
ATOM     67  C   UNL A   1      35.108  34.329  29.264  1.00  0.00     0.173 A 
ATOM     68  C   UNL A   1      35.319  33.856  31.581  1.00  0.00     0.173 A 
ATOM     69  F   UNL A   1      35.481  34.254  27.979  1.00  0.00    -0.203 F 
ATOM     70  C   UNL A   1      33.925  35.034  29.506  1.00  0.00     0.198 A 
ATOM     71  C   UNL A   1      34.143  34.584  31.827  1.00  0.00     0.198 A 
ATOM     72  F   UNL A   1      35.859  33.240  32.638  1.00  0.00    -0.203 F 
ATOM     73  F   UNL A   1      33.256  35.580  28.481  1.00  0.00    -0.200 F 
ATOM     74  C   UNL A   1      33.451  35.179  30.790  1.00  0.00     0.200 A 
ATOM     75  F   UNL A   1      33.682  34.703  33.081  1.00  0.00    -0.200 F 
ATOM     76  F   UNL A   1      32.329  35.873  31.027  1.00  0.00    -0.200 F 
ENDBRANCH  52  66
BRANCH  53  77
ATOM     77  C   UNL A   1      43.734  28.118  28.658  1.00  0.00     0.064 A 
ATOM     78  C   UNL A   1      43.411  28.369  27.298  1.00  0.00     0.173 A 
ATOM     79  C   UNL A   1      44.531  26.988  28.895  1.00  0.00     0.173 A 
ATOM     80  F   UNL A   1      42.661  29.435  26.969  1.00  0.00    -0.203 F 
ATOM     81  C   UNL A   1      43.943  27.611  26.250  1.00  0.00     0.198 A 
ATOM     82  C   UNL A   1      45.024  26.201  27.843  1.00  0.00     0.198 A 
ATOM     83  F   UNL A   1      44.921  26.673  30.138  1.00  0.00    -0.203 F 
ATOM     84  F   UNL A   1      43.734  27.985  24.978  1.00  0.00    -0.200 F 
ATOM     85  C   UNL A   1      44.755  26.529  26.524  1.00  0.00     0.200 A 
ATOM     86  F   UNL A   1      45.848  25.175  28.109  1.00  0.00    -0.200 F 
ATOM     87  F   UNL A   1      45.332  25.847  25.524  1.00  0.00    -0.200 F 
ENDBRANCH  53  77
BRANCH  65  88
ATOM     88  C   UNL A   1      42.349  35.234  29.441  1.00  0.00     0.064 A 
ATOM     89  C   UNL A   1      43.235  35.976  30.237  1.00  0.00     0.173 A 
ATOM     90  C   UNL A   1      41.787  35.919  28.343  1.00  0.00     0.173 A 
ATOM     91  F   UNL A   1      43.691  35.495  31.403  1.00  0.00    -0.203 F 
ATOM     92  C   UNL A   1      43.664  37.245  29.861  1.00  0.00     0.198 A 
ATOM     93  C   UNL A   1      42.161  37.215  28.013  1.00  0.00     0.198 A 
ATOM     94  F   UNL A   1      40.875  35.361  27.537  1.00  0.00    -0.203 F 
ATOM     95  F   UNL A   1      44.603  37.865  30.588  1.00  0.00    -0.200 F 
ATOM     96  C   UNL A   1      43.132  37.862  28.745  1.00  0.00     0.200 A 
ATOM     97  F   UNL A   1      41.584  37.821  26.965  1.00  0.00    -0.200 F 
ATOM     98  F   UNL A   1      43.546  39.081  28.382  1.00  0.00    -0.200 F 
ENDBRANCH  65  88
ENDBRANCH  39  40
ENDBRANCH  32  34
ENDBRANCH  31  32
ENDBRANCH  30  31
ENDBRANCH  29  30
ENDBRANCH  28  29
ENDBRANCH   1  28
TORSDOF 17
ENDMDL
