MODEL 1
REMARK VINA RESULT:     -12.3      0.000      0.000
REMARK SMILES Nc1ccc2[nH]cc(C(=O)OCCOC(=O)c3ccc(-c4c5nc(c(-c6c(F)c(F)c(F)c(F)c6F)c6ccc([nH]6)c(-c6c(F)c(F)c(F)c(F)c6F)c6nc(c(-c7c(F)c(F)c(F)c(F)c7F)c7ccc4[nH]7)C=C6)C=C5)cc3)c2c1
REMARK SMILES IDX 13 1 12 2 11 3 9 4 10 5 8 6 2 7 3 8 81 9 4 10 80 11 5 12
REMARK SMILES IDX 6 13 7 14 1 16 14 19 15 20 16 21 17 22 18 23 79 24 19 25
REMARK SMILES IDX 78 26 20 27 21 28 22 29 72 30 23 31 77 32 71 33 73 34 24 35
REMARK SMILES IDX 76 36 70 37 69 38 25 40 57 41 37 42 56 43 38 44 41 45 55 46
REMARK SMILES IDX 74 47 39 48 40 49 54 51 75 52 42 53 26 54 27 55 35 56 28 57
REMARK SMILES IDX 29 58 33 59 36 60 30 61 31 62 34 63 32 64 58 65 59 66 67 67
REMARK SMILES IDX 60 68 61 69 65 70 68 71 62 72 63 73 66 74 64 75 43 76 44 77
REMARK SMILES IDX 52 78 45 79 46 80 50 81 53 82 47 83 48 84 51 85 49 86
REMARK H PARENT 6 15 1 17 1 18 73 39 41 50
REMARK Flexibility Score: inf
ROOT
ATOM      1  C   UNL A   1      41.828  20.552  27.566  1.00  0.00     0.275 C 
ENDROOT
BRANCH   1   2
ATOM      2  C   UNL A   1      41.308  19.576  26.502  1.00  0.00     0.275 C 
BRANCH   2   3
ATOM      3  O   UNL A   1      42.215  19.481  25.376  1.00  0.00    -0.458 OA
BRANCH   3   4
ATOM      4  C   UNL A   1      43.425  18.891  25.602  1.00  0.00     0.340 C 
ATOM      5  O   UNL A   1      43.562  17.791  26.130  1.00  0.00    -0.246 OA
BRANCH   4   6
ATOM      6  C   UNL A   1      44.558  19.687  25.134  1.00  0.00     0.085 A 
ATOM      7  C   UNL A   1      44.195  23.489  24.910  1.00  0.00     0.032 A 
ATOM      8  C   UNL A   1      45.503  23.725  24.480  1.00  0.00     0.027 A 
ATOM      9  C   UNL A   1      43.758  22.174  25.117  1.00  0.00     0.036 A 
ATOM     10  C   UNL A   1      46.403  22.685  24.253  1.00  0.00     0.029 A 
ATOM     11  C   UNL A   1      44.646  21.099  24.921  1.00  0.00     0.016 A 
ATOM     12  C   UNL A   1      45.952  21.393  24.515  1.00  0.00     0.046 A 
ATOM     13  N   UNL A   1      46.647  20.217  24.491  1.00  0.00    -0.360 N 
ATOM     14  C   UNL A   1      45.842  19.216  24.941  1.00  0.00     0.099 A 
ATOM     15  H   UNL A   1      47.581  20.111  24.196  1.00  0.00     0.166 HD
BRANCH   7  16
ATOM     16  N   UNL A   1      43.375  24.551  25.250  1.00  0.00    -0.399 N 
ATOM     17  H   UNL A   1      43.732  25.468  25.253  1.00  0.00     0.156 HD
ATOM     18  H   UNL A   1      42.434  24.388  25.488  1.00  0.00     0.156 HD
ENDBRANCH   7  16
ENDBRANCH   4   6
ENDBRANCH   3   4
ENDBRANCH   2   3
ENDBRANCH   1   2
BRANCH   1  19
ATOM     19  O   UNL A   1      40.745  21.402  27.968  1.00  0.00    -0.458 OA
BRANCH  19  20
ATOM     20  C   UNL A   1      40.150  22.116  26.989  1.00  0.00     0.338 C 
ATOM     21  O   UNL A   1      39.223  21.759  26.275  1.00  0.00    -0.246 OA
BRANCH  20  22
ATOM     22  C   UNL A   1      40.577  23.520  27.175  1.00  0.00     0.060 A 
ATOM     23  C   UNL A   1      41.497  23.879  28.170  1.00  0.00     0.016 A 
ATOM     24  C   UNL A   1      39.834  24.497  26.516  1.00  0.00     0.016 A 
ATOM     25  C   UNL A   1      41.534  25.192  28.633  1.00  0.00     0.010 A 
ATOM     26  C   UNL A   1      39.908  25.812  26.956  1.00  0.00     0.010 A 
ATOM     27  C   UNL A   1      40.676  26.146  28.082  1.00  0.00    -0.014 A 
BRANCH  27  28
ATOM     28  C   UNL A   1      40.701  27.516  28.603  1.00  0.00     0.031 A 
ATOM     29  C   UNL A   1      41.798  28.339  28.060  1.00  0.00     0.074 A 
ATOM     30  C   UNL A   1      39.838  28.140  29.437  1.00  0.00     0.049 A 
ATOM     31  N   UNL A   1      42.885  28.662  28.678  1.00  0.00    -0.248 NA
ATOM     32  C   UNL A   1      41.724  28.795  26.669  1.00  0.00     0.031 C 
ATOM     33  C   UNL A   1      38.528  27.710  29.918  1.00  0.00     0.029 A 
ATOM     34  N   UNL A   1      39.954  29.398  29.978  1.00  0.00    -0.354 N 
ATOM     35  C   UNL A   1      43.579  29.482  27.806  1.00  0.00     0.074 A 
ATOM     36  C   UNL A   1      42.902  29.404  26.536  1.00  0.00     0.031 C 
ATOM     37  C   UNL A   1      37.875  28.758  30.475  1.00  0.00     0.029 A 
ATOM     38  C   UNL A   1      38.799  29.874  30.580  1.00  0.00     0.049 A 
ATOM     39  H   UNL A   1      40.788  29.919  29.942  1.00  0.00     0.167 HD
ATOM     40  C   UNL A   1      44.531  30.340  28.251  1.00  0.00     0.037 A 
ATOM     41  C   UNL A   1      38.614  31.089  31.150  1.00  0.00     0.037 A 
ATOM     42  C   UNL A   1      44.899  30.086  29.619  1.00  0.00     0.049 A 
ATOM     43  C   UNL A   1      39.938  31.594  31.574  1.00  0.00     0.074 A 
ATOM     44  C   UNL A   1      45.477  29.041  30.310  1.00  0.00     0.029 A 
ATOM     45  N   UNL A   1      44.359  30.920  30.562  1.00  0.00    -0.354 N 
ATOM     46  N   UNL A   1      40.633  31.096  32.558  1.00  0.00    -0.248 NA
ATOM     47  C   UNL A   1      40.640  32.561  30.740  1.00  0.00     0.031 C 
ATOM     48  C   UNL A   1      44.953  29.111  31.634  1.00  0.00     0.029 A 
ATOM     49  C   UNL A   1      44.071  30.191  31.686  1.00  0.00     0.049 A 
ATOM     50  H   UNL A   1      44.203  31.886  30.450  1.00  0.00     0.167 HD
ATOM     51  C   UNL A   1      41.945  31.349  32.213  1.00  0.00     0.074 A 
ATOM     52  C   UNL A   1      41.877  32.404  31.215  1.00  0.00     0.031 C 
ATOM     53  C   UNL A   1      42.927  30.461  32.530  1.00  0.00     0.037 A 
BRANCH  40  54
ATOM     54  C   UNL A   1      44.878  31.629  27.566  1.00  0.00     0.064 A 
ATOM     55  C   UNL A   1      46.149  31.777  26.980  1.00  0.00     0.173 A 
ATOM     56  C   UNL A   1      44.115  32.809  27.694  1.00  0.00     0.173 A 
ATOM     57  F   UNL A   1      46.971  30.724  26.864  1.00  0.00    -0.203 F 
ATOM     58  C   UNL A   1      46.629  33.024  26.578  1.00  0.00     0.198 A 
ATOM     59  C   UNL A   1      44.572  34.041  27.233  1.00  0.00     0.198 A 
ATOM     60  F   UNL A   1      42.958  32.832  28.368  1.00  0.00    -0.203 F 
ATOM     61  F   UNL A   1      47.886  33.138  26.128  1.00  0.00    -0.200 F 
ATOM     62  C   UNL A   1      45.839  34.153  26.698  1.00  0.00     0.200 A 
ATOM     63  F   UNL A   1      43.802  35.128  27.382  1.00  0.00    -0.200 F 
ATOM     64  F   UNL A   1      46.312  35.355  26.348  1.00  0.00    -0.200 F 
ENDBRANCH  40  54
BRANCH  41  65
ATOM     65  C   UNL A   1      37.393  31.918  31.283  1.00  0.00     0.064 A 
ATOM     66  C   UNL A   1      36.824  32.172  32.545  1.00  0.00     0.173 A 
ATOM     67  C   UNL A   1      36.944  32.723  30.221  1.00  0.00     0.173 A 
ATOM     68  F   UNL A   1      37.219  31.474  33.621  1.00  0.00    -0.203 F 
ATOM     69  C   UNL A   1      35.899  33.202  32.742  1.00  0.00     0.198 A 
ATOM     70  C   UNL A   1      36.013  33.745  30.418  1.00  0.00     0.198 A 
ATOM     71  F   UNL A   1      37.477  32.600  28.997  1.00  0.00    -0.203 F 
ATOM     72  F   UNL A   1      35.444  33.464  33.975  1.00  0.00    -0.200 F 
ATOM     73  C   UNL A   1      35.506  33.997  31.680  1.00  0.00     0.200 A 
ATOM     74  F   UNL A   1      35.664  34.533  29.390  1.00  0.00    -0.200 F 
ATOM     75  F   UNL A   1      34.678  35.031  31.881  1.00  0.00    -0.200 F 
ENDBRANCH  41  65
BRANCH  53  76
ATOM     76  C   UNL A   1      42.671  29.523  33.672  1.00  0.00     0.064 A 
ATOM     77  C   UNL A   1      41.980  28.305  33.558  1.00  0.00     0.173 A 
ATOM     78  C   UNL A   1      43.242  29.830  34.915  1.00  0.00     0.173 A 
ATOM     79  F   UNL A   1      41.483  27.901  32.382  1.00  0.00    -0.203 F 
ATOM     80  C   UNL A   1      41.832  27.458  34.656  1.00  0.00     0.198 A 
ATOM     81  C   UNL A   1      43.126  28.965  35.998  1.00  0.00     0.198 A 
ATOM     82  F   UNL A   1      43.951  30.960  35.068  1.00  0.00    -0.203 F 
ATOM     83  F   UNL A   1      41.151  26.309  34.532  1.00  0.00    -0.200 F 
ATOM     84  C   UNL A   1      42.411  27.785  35.871  1.00  0.00     0.200 A 
ATOM     85  F   UNL A   1      43.724  29.265  37.160  1.00  0.00    -0.200 F 
ATOM     86  F   UNL A   1      42.302  26.950  36.915  1.00  0.00    -0.200 F 
ENDBRANCH  53  76
ENDBRANCH  27  28
ENDBRANCH  20  22
ENDBRANCH  19  20
ENDBRANCH   1  19
TORSDOF 12
ENDMDL
MODEL 2
REMARK VINA RESULT:     -12.3      2.809      4.841
REMARK SMILES Nc1ccc2[nH]cc(C(=O)OCCOC(=O)c3ccc(-c4c5nc(c(-c6c(F)c(F)c(F)c(F)c6F)c6ccc([nH]6)c(-c6c(F)c(F)c(F)c(F)c6F)c6nc(c(-c7c(F)c(F)c(F)c(F)c7F)c7ccc4[nH]7)C=C6)C=C5)cc3)c2c1
REMARK SMILES IDX 13 1 12 2 11 3 9 4 10 5 8 6 2 7 3 8 81 9 4 10 80 11 5 12
REMARK SMILES IDX 6 13 7 14 1 16 14 19 15 20 16 21 17 22 18 23 79 24 19 25
REMARK SMILES IDX 78 26 20 27 21 28 22 29 72 30 23 31 77 32 71 33 73 34 24 35
REMARK SMILES IDX 76 36 70 37 69 38 25 40 57 41 37 42 56 43 38 44 41 45 55 46
REMARK SMILES IDX 74 47 39 48 40 49 54 51 75 52 42 53 26 54 27 55 35 56 28 57
REMARK SMILES IDX 29 58 33 59 36 60 30 61 31 62 34 63 32 64 58 65 59 66 67 67
REMARK SMILES IDX 60 68 61 69 65 70 68 71 62 72 63 73 66 74 64 75 43 76 44 77
REMARK SMILES IDX 52 78 45 79 46 80 50 81 53 82 47 83 48 84 51 85 49 86
REMARK H PARENT 6 15 1 17 1 18 73 39 41 50
REMARK Flexibility Score: inf
ROOT
ATOM      1  C   UNL A   1      43.418  18.722  25.700  1.00  0.00     0.275 C 
ENDROOT
BRANCH   1   2
ATOM      2  C   UNL A   1      42.306  19.244  26.619  1.00  0.00     0.275 C 
BRANCH   2   3
ATOM      3  O   UNL A   1      41.506  20.260  25.965  1.00  0.00    -0.458 OA
BRANCH   3   4
ATOM      4  C   UNL A   1      40.188  19.976  25.758  1.00  0.00     0.340 C 
ATOM      5  O   UNL A   1      39.751  18.840  25.588  1.00  0.00    -0.246 OA
BRANCH   4   6
ATOM      6  C   UNL A   1      39.326  21.156  25.777  1.00  0.00     0.085 A 
ATOM      7  C   UNL A   1      35.599  20.751  25.011  1.00  0.00     0.032 A 
ATOM      8  C   UNL A   1      35.274  22.096  25.203  1.00  0.00     0.027 A 
ATOM      9  C   UNL A   1      36.931  20.334  25.134  1.00  0.00     0.036 A 
ATOM     10  C   UNL A   1      36.241  23.049  25.523  1.00  0.00     0.029 A 
ATOM     11  C   UNL A   1      37.930  21.263  25.479  1.00  0.00     0.016 A 
ATOM     12  C   UNL A   1      37.547  22.592  25.685  1.00  0.00     0.046 A 
ATOM     13  N   UNL A   1      38.653  23.276  26.106  1.00  0.00    -0.360 N 
ATOM     14  C   UNL A   1      39.689  22.405  26.242  1.00  0.00     0.099 A 
ATOM     15  H   UNL A   1      38.692  24.244  26.282  1.00  0.00     0.166 HD
BRANCH   7  16
ATOM     16  N   UNL A   1      34.596  19.816  24.825  1.00  0.00    -0.399 N 
ATOM     17  H   UNL A   1      33.661  20.108  24.733  1.00  0.00     0.156 HD
ATOM     18  H   UNL A   1      34.819  18.858  24.784  1.00  0.00     0.156 HD
ENDBRANCH   7  16
ENDBRANCH   4   6
ENDBRANCH   3   4
ENDBRANCH   2   3
ENDBRANCH   1   2
BRANCH   1  19
ATOM     19  O   UNL A   1      43.671  19.709  24.690  1.00  0.00    -0.458 OA
BRANCH  19  20
ATOM     20  C   UNL A   1      44.943  20.150  24.590  1.00  0.00     0.338 C 
ATOM     21  O   UNL A   1      45.877  19.586  24.035  1.00  0.00    -0.246 OA
BRANCH  20  22
ATOM     22  C   UNL A   1      44.921  21.583  24.953  1.00  0.00     0.060 A 
ATOM     23  C   UNL A   1      45.706  22.084  26.001  1.00  0.00     0.016 A 
ATOM     24  C   UNL A   1      43.901  22.356  24.404  1.00  0.00     0.016 A 
ATOM     25  C   UNL A   1      45.347  23.278  26.621  1.00  0.00     0.010 A 
ATOM     26  C   UNL A   1      43.575  23.567  25.003  1.00  0.00     0.010 A 
ATOM     27  C   UNL A   1      44.227  23.982  26.175  1.00  0.00    -0.014 A 
BRANCH  27  28
ATOM     28  C   UNL A   1      43.839  25.219  26.859  1.00  0.00     0.031 A 
ATOM     29  C   UNL A   1      44.752  26.350  26.605  1.00  0.00     0.074 A 
ATOM     30  C   UNL A   1      42.749  25.484  27.616  1.00  0.00     0.049 A 
ATOM     31  N   UNL A   1      45.636  26.813  27.425  1.00  0.00    -0.248 NA
ATOM     32  C   UNL A   1      44.739  26.992  25.288  1.00  0.00     0.031 C 
ATOM     33  C   UNL A   1      41.541  24.691  27.823  1.00  0.00     0.029 A 
ATOM     34  N   UNL A   1      42.475  26.632  28.320  1.00  0.00    -0.354 N 
ATOM     35  C   UNL A   1      46.203  27.900  26.784  1.00  0.00     0.074 A 
ATOM     36  C   UNL A   1      45.731  27.871  25.422  1.00  0.00     0.031 C 
ATOM     37  C   UNL A   1      40.581  25.456  28.395  1.00  0.00     0.029 A 
ATOM     38  C   UNL A   1      41.172  26.725  28.784  1.00  0.00     0.049 A 
ATOM     39  H   UNL A   1      43.149  27.331  28.484  1.00  0.00     0.167 HD
ATOM     40  C   UNL A   1      46.844  28.873  27.479  1.00  0.00     0.037 A 
ATOM     41  C   UNL A   1      40.616  27.756  29.464  1.00  0.00     0.037 A 
ATOM     42  C   UNL A   1      47.091  28.496  28.845  1.00  0.00     0.049 A 
ATOM     43  C   UNL A   1      41.706  28.480  30.154  1.00  0.00     0.074 A 
ATOM     44  C   UNL A   1      47.823  27.517  29.485  1.00  0.00     0.029 A 
ATOM     45  N   UNL A   1      46.245  29.020  29.786  1.00  0.00    -0.354 N 
ATOM     46  N   UNL A   1      42.376  28.006  31.166  1.00  0.00    -0.248 NA
ATOM     47  C   UNL A   1      42.239  29.704  29.570  1.00  0.00     0.031 C 
ATOM     48  C   UNL A   1      47.138  27.251  30.706  1.00  0.00     0.029 A 
ATOM     49  C   UNL A   1      46.012  28.075  30.750  1.00  0.00     0.049 A 
ATOM     50  H   UNL A   1      45.865  29.929  29.772  1.00  0.00     0.167 HD
ATOM     51  C   UNL A   1      43.614  28.609  31.070  1.00  0.00     0.074 A 
ATOM     52  C   UNL A   1      43.407  29.765  30.213  1.00  0.00     0.031 C 
ATOM     53  C   UNL A   1      44.742  27.934  31.427  1.00  0.00     0.037 A 
BRANCH  40  54
ATOM     54  C   UNL A   1      46.937  30.300  27.023  1.00  0.00     0.064 A 
ATOM     55  C   UNL A   1      48.187  30.945  27.031  1.00  0.00     0.173 A 
ATOM     56  C   UNL A   1      45.813  31.132  26.835  1.00  0.00     0.173 A 
ATOM     57  F   UNL A   1      49.311  30.249  27.258  1.00  0.00    -0.203 F 
ATOM     58  C   UNL A   1      48.297  32.329  26.889  1.00  0.00     0.198 A 
ATOM     59  C   UNL A   1      45.932  32.503  26.628  1.00  0.00     0.198 A 
ATOM     60  F   UNL A   1      44.562  30.667  26.957  1.00  0.00    -0.203 F 
ATOM     61  F   UNL A   1      49.495  32.916  27.013  1.00  0.00    -0.200 F 
ATOM     62  C   UNL A   1      47.172  33.106  26.680  1.00  0.00     0.200 A 
ATOM     63  F   UNL A   1      44.828  33.242  26.455  1.00  0.00    -0.200 F 
ATOM     64  F   UNL A   1      47.273  34.437  26.581  1.00  0.00    -0.200 F 
ENDBRANCH  40  54
BRANCH  41  65
ATOM     65  C   UNL A   1      39.219  28.247  29.502  1.00  0.00     0.064 A 
ATOM     66  C   UNL A   1      38.516  28.340  30.718  1.00  0.00     0.173 A 
ATOM     67  C   UNL A   1      38.656  28.919  28.402  1.00  0.00     0.173 A 
ATOM     68  F   UNL A   1      38.999  27.758  31.827  1.00  0.00    -0.203 F 
ATOM     69  C   UNL A   1      37.349  29.100  30.838  1.00  0.00     0.198 A 
ATOM     70  C   UNL A   1      37.484  29.670  28.522  1.00  0.00     0.198 A 
ATOM     71  F   UNL A   1      39.287  28.944  27.220  1.00  0.00    -0.203 F 
ATOM     72  F   UNL A   1      36.757  29.229  32.034  1.00  0.00    -0.200 F 
ATOM     73  C   UNL A   1      36.842  29.777  29.743  1.00  0.00     0.200 A 
ATOM     74  F   UNL A   1      37.020  30.351  27.463  1.00  0.00    -0.200 F 
ATOM     75  F   UNL A   1      35.767  30.565  29.874  1.00  0.00    -0.200 F 
ENDBRANCH  41  65
BRANCH  53  76
ATOM     76  C   UNL A   1      44.590  26.792  32.387  1.00  0.00     0.064 A 
ATOM     77  C   UNL A   1      44.527  26.931  33.784  1.00  0.00     0.173 A 
ATOM     78  C   UNL A   1      44.399  25.508  31.855  1.00  0.00     0.173 A 
ATOM     79  F   UNL A   1      44.612  28.137  34.361  1.00  0.00    -0.203 F 
ATOM     80  C   UNL A   1      44.327  25.825  34.608  1.00  0.00     0.198 A 
ATOM     81  C   UNL A   1      44.160  24.412  32.679  1.00  0.00     0.198 A 
ATOM     82  F   UNL A   1      44.404  25.324  30.525  1.00  0.00    -0.203 F 
ATOM     83  F   UNL A   1      44.290  25.976  35.940  1.00  0.00    -0.200 F 
ATOM     84  C   UNL A   1      44.136  24.569  34.055  1.00  0.00     0.200 A 
ATOM     85  F   UNL A   1      43.933  23.207  32.137  1.00  0.00    -0.200 F 
ATOM     86  F   UNL A   1      43.903  23.512  34.847  1.00  0.00    -0.200 F 
ENDBRANCH  53  76
ENDBRANCH  27  28
ENDBRANCH  20  22
ENDBRANCH  19  20
ENDBRANCH   1  19
TORSDOF 12
ENDMDL
MODEL 3
REMARK VINA RESULT:     -12.2      1.438      2.284
REMARK SMILES Nc1ccc2[nH]cc(C(=O)OCCOC(=O)c3ccc(-c4c5nc(c(-c6c(F)c(F)c(F)c(F)c6F)c6ccc([nH]6)c(-c6c(F)c(F)c(F)c(F)c6F)c6nc(c(-c7c(F)c(F)c(F)c(F)c7F)c7ccc4[nH]7)C=C6)C=C5)cc3)c2c1
REMARK SMILES IDX 13 1 12 2 11 3 9 4 10 5 8 6 2 7 3 8 81 9 4 10 80 11 5 12
REMARK SMILES IDX 6 13 7 14 1 16 14 19 15 20 16 21 17 22 18 23 79 24 19 25
REMARK SMILES IDX 78 26 20 27 21 28 22 29 72 30 23 31 77 32 71 33 73 34 24 35
REMARK SMILES IDX 76 36 70 37 69 38 25 40 57 41 37 42 56 43 38 44 41 45 55 46
REMARK SMILES IDX 74 47 39 48 40 49 54 51 75 52 42 53 26 54 27 55 35 56 28 57
REMARK SMILES IDX 29 58 33 59 36 60 30 61 31 62 34 63 32 64 58 65 59 66 67 67
REMARK SMILES IDX 60 68 61 69 65 70 68 71 62 72 63 73 66 74 64 75 43 76 44 77
REMARK SMILES IDX 52 78 45 79 46 80 50 81 53 82 47 83 48 84 51 85 49 86
REMARK H PARENT 6 15 1 17 1 18 73 39 41 50
REMARK Flexibility Score: inf
ROOT
ATOM      1  C   UNL A   1      41.698  20.393  25.981  1.00  0.00     0.275 C 
ENDROOT
BRANCH   1   2
ATOM      2  C   UNL A   1      43.214  20.177  25.889  1.00  0.00     0.275 C 
BRANCH   2   3
ATOM      3  O   UNL A   1      43.828  21.099  24.955  1.00  0.00    -0.458 OA
BRANCH   3   4
ATOM      4  C   UNL A   1      44.875  21.845  25.415  1.00  0.00     0.340 C 
ATOM      5  O   UNL A   1      45.973  21.377  25.704  1.00  0.00    -0.246 OA
BRANCH   4   6
ATOM      6  C   UNL A   1      44.575  23.272  25.514  1.00  0.00     0.085 A 
ATOM      7  C   UNL A   1      46.468  25.396  28.072  1.00  0.00     0.032 A 
ATOM      8  C   UNL A   1      45.858  26.604  27.724  1.00  0.00     0.027 A 
ATOM      9  C   UNL A   1      46.084  24.212  27.429  1.00  0.00     0.036 A 
ATOM     10  C   UNL A   1      44.873  26.674  26.740  1.00  0.00     0.029 A 
ATOM     11  C   UNL A   1      45.108  24.248  26.414  1.00  0.00     0.016 A 
ATOM     12  C   UNL A   1      44.549  25.487  26.087  1.00  0.00     0.046 A 
ATOM     13  N   UNL A   1      43.716  25.291  25.021  1.00  0.00    -0.360 N 
ATOM     14  C   UNL A   1      43.798  23.991  24.627  1.00  0.00     0.099 A 
ATOM     15  H   UNL A   1      43.149  25.980  24.605  1.00  0.00     0.166 HD
BRANCH   7  16
ATOM     16  N   UNL A   1      47.532  25.387  28.957  1.00  0.00    -0.399 N 
ATOM     17  H   UNL A   1      47.584  24.698  29.659  1.00  0.00     0.156 HD
ATOM     18  H   UNL A   1      48.237  26.070  28.885  1.00  0.00     0.156 HD
ENDBRANCH   7  16
ENDBRANCH   4   6
ENDBRANCH   3   4
ENDBRANCH   2   3
ENDBRANCH   1   2
BRANCH   1  19
ATOM     19  O   UNL A   1      41.449  21.797  26.143  1.00  0.00    -0.458 OA
BRANCH  19  20
ATOM     20  C   UNL A   1      41.035  22.194  27.365  1.00  0.00     0.338 C 
ATOM     21  O   UNL A   1      40.791  21.480  28.328  1.00  0.00    -0.246 OA
BRANCH  20  22
ATOM     22  C   UNL A   1      41.274  23.651  27.437  1.00  0.00     0.060 A 
ATOM     23  C   UNL A   1      42.132  24.206  28.397  1.00  0.00     0.016 A 
ATOM     24  C   UNL A   1      40.417  24.467  26.701  1.00  0.00     0.016 A 
ATOM     25  C   UNL A   1      41.994  25.545  28.752  1.00  0.00     0.010 A 
ATOM     26  C   UNL A   1      40.316  25.812  27.033  1.00  0.00     0.010 A 
ATOM     27  C   UNL A   1      41.024  26.332  28.127  1.00  0.00    -0.014 A 
BRANCH  27  28
ATOM     28  C   UNL A   1      40.866  27.732  28.535  1.00  0.00     0.031 A 
ATOM     29  C   UNL A   1      41.896  28.632  27.983  1.00  0.00     0.074 A 
ATOM     30  C   UNL A   1      39.891  28.314  29.271  1.00  0.00     0.049 A 
ATOM     31  N   UNL A   1      42.902  29.123  28.627  1.00  0.00    -0.248 NA
ATOM     32  C   UNL A   1      41.855  28.970  26.558  1.00  0.00     0.031 C 
ATOM     33  C   UNL A   1      38.611  27.773  29.718  1.00  0.00     0.029 A 
ATOM     34  N   UNL A   1      39.835  29.614  29.712  1.00  0.00    -0.354 N 
ATOM     35  C   UNL A   1      43.552  29.949  27.727  1.00  0.00     0.074 A 
ATOM     36  C   UNL A   1      42.964  29.699  26.435  1.00  0.00     0.031 C 
ATOM     37  C   UNL A   1      37.814  28.778  30.154  1.00  0.00     0.029 A 
ATOM     38  C   UNL A   1      38.601  29.998  30.214  1.00  0.00     0.049 A 
ATOM     39  H   UNL A   1      40.608  30.222  29.677  1.00  0.00     0.167 HD
ATOM     40  C   UNL A   1      44.375  30.942  28.149  1.00  0.00     0.037 A 
ATOM     41  C   UNL A   1      38.249  31.222  30.674  1.00  0.00     0.037 A 
ATOM     42  C   UNL A   1      44.687  30.836  29.549  1.00  0.00     0.049 A 
ATOM     43  C   UNL A   1      39.481  31.907  31.121  1.00  0.00     0.074 A 
ATOM     44  C   UNL A   1      45.334  29.919  30.352  1.00  0.00     0.029 A 
ATOM     45  N   UNL A   1      44.003  31.671  30.392  1.00  0.00    -0.354 N 
ATOM     46  N   UNL A   1      40.167  31.568  32.176  1.00  0.00    -0.248 NA
ATOM     47  C   UNL A   1      40.121  32.882  30.248  1.00  0.00     0.031 C 
ATOM     48  C   UNL A   1      44.728  30.028  31.637  1.00  0.00     0.029 A 
ATOM     49  C   UNL A   1      43.730  31.000  31.556  1.00  0.00     0.049 A 
ATOM     50  H   UNL A   1      43.748  32.601  30.195  1.00  0.00     0.167 HD
ATOM     51  C   UNL A   1      41.462  31.943  31.879  1.00  0.00     0.074 A 
ATOM     52  C   UNL A   1      41.338  32.905  30.796  1.00  0.00     0.031 C 
ATOM     53  C   UNL A   1      42.516  31.200  32.317  1.00  0.00     0.037 A 
BRANCH  40  54
ATOM     54  C   UNL A   1      44.617  32.207  27.378  1.00  0.00     0.064 A 
ATOM     55  C   UNL A   1      45.857  32.398  26.741  1.00  0.00     0.173 A 
ATOM     56  C   UNL A   1      43.786  33.344  27.467  1.00  0.00     0.173 A 
ATOM     57  F   UNL A   1      46.740  31.392  26.656  1.00  0.00    -0.203 F 
ATOM     58  C   UNL A   1      46.244  33.646  26.252  1.00  0.00     0.198 A 
ATOM     59  C   UNL A   1      44.149  34.572  26.920  1.00  0.00     0.198 A 
ATOM     60  F   UNL A   1      42.652  33.335  28.179  1.00  0.00    -0.203 F 
ATOM     61  F   UNL A   1      47.476  33.810  25.751  1.00  0.00    -0.200 F 
ATOM     62  C   UNL A   1      45.388  34.730  26.334  1.00  0.00     0.200 A 
ATOM     63  F   UNL A   1      43.317  35.616  27.034  1.00  0.00    -0.200 F 
ATOM     64  F   UNL A   1      45.773  35.936  25.899  1.00  0.00    -0.200 F 
ENDBRANCH  40  54
BRANCH  41  65
ATOM     65  C   UNL A   1      36.938  31.914  30.676  1.00  0.00     0.064 A 
ATOM     66  C   UNL A   1      36.138  31.944  31.834  1.00  0.00     0.173 A 
ATOM     67  C   UNL A   1      36.590  32.810  29.651  1.00  0.00     0.173 A 
ATOM     68  F   UNL A   1      36.420  31.147  32.875  1.00  0.00    -0.203 F 
ATOM     69  C   UNL A   1      35.084  32.851  31.976  1.00  0.00     0.198 A 
ATOM     70  C   UNL A   1      35.529  33.709  29.791  1.00  0.00     0.198 A 
ATOM     71  F   UNL A   1      37.332  32.901  28.539  1.00  0.00    -0.203 F 
ATOM     72  F   UNL A   1      34.399  32.904  33.127  1.00  0.00    -0.200 F 
ATOM     73  C   UNL A   1      34.790  33.743  30.960  1.00  0.00     0.200 A 
ATOM     74  F   UNL A   1      35.274  34.593  28.815  1.00  0.00    -0.200 F 
ATOM     75  F   UNL A   1      33.830  34.662  31.125  1.00  0.00    -0.200 F 
ENDBRANCH  41  65
BRANCH  53  76
ATOM     76  C   UNL A   1      42.297  30.327  33.516  1.00  0.00     0.064 A 
ATOM     77  C   UNL A   1      42.414  30.762  34.847  1.00  0.00     0.173 A 
ATOM     78  C   UNL A   1      41.850  29.015  33.301  1.00  0.00     0.173 A 
ATOM     79  F   UNL A   1      42.750  32.027  35.131  1.00  0.00    -0.203 F 
ATOM     80  C   UNL A   1      42.137  29.904  35.911  1.00  0.00     0.198 A 
ATOM     81  C   UNL A   1      41.537  28.174  34.364  1.00  0.00     0.198 A 
ATOM     82  F   UNL A   1      41.677  28.562  32.049  1.00  0.00    -0.203 F 
ATOM     83  F   UNL A   1      42.274  30.333  37.174  1.00  0.00    -0.200 F 
ATOM     84  C   UNL A   1      41.692  28.615  35.668  1.00  0.00     0.200 A 
ATOM     85  F   UNL A   1      41.066  26.942  34.124  1.00  0.00    -0.200 F 
ATOM     86  F   UNL A   1      41.388  27.803  36.691  1.00  0.00    -0.200 F 
ENDBRANCH  53  76
ENDBRANCH  27  28
ENDBRANCH  20  22
ENDBRANCH  19  20
ENDBRANCH   1  19
TORSDOF 12
ENDMDL
