MODEL 1
REMARK VINA RESULT:     -11.9      0.000      0.000
REMARK SMILES C[C@@H](Sc1nc2ccccc2c(=O)n1N)C(=O)OCCOC(=O)c1ccc(-c2c3nc(c(-c4c(F)c(F)c(F)c(F)c4F)c4ccc([nH]4)c(-c4c(F)c(F)c(F)c(F)c4F)c4nc(c(-c5c(F)c(F)c(F)c(F)c5F)c5ccc2[nH]5)C=C4)C=C3)cc1
REMARK SMILES IDX 19 1 18 2 16 3 17 4 2 5 1 6 3 7 4 8 5 9 14 10 6 11 12 12
REMARK SMILES IDX 7 13 11 14 13 15 8 16 10 17 9 18 15 19 20 22 21 23 22 24
REMARK SMILES IDX 23 25 24 26 25 27 86 28 26 29 85 30 27 31 28 32 29 33 79 34
REMARK SMILES IDX 30 35 84 36 78 37 80 38 31 39 83 40 77 41 76 42 32 44 64 45
REMARK SMILES IDX 44 46 63 47 45 48 48 49 62 50 81 51 46 52 47 53 61 55 82 56
REMARK SMILES IDX 49 57 33 58 34 59 42 60 35 61 36 62 40 63 43 64 37 65 38 66
REMARK SMILES IDX 41 67 39 68 65 69 66 70 74 71 67 72 68 73 72 74 75 75 69 76
REMARK SMILES IDX 70 77 73 78 71 79 50 80 51 81 59 82 52 83 53 84 57 85 60 86
REMARK SMILES IDX 54 87 55 88 58 89 56 90
REMARK H PARENT 15 20 15 21 80 43 48 54
REMARK Flexibility Score: inf
ROOT
ATOM      1  C   UNL A   1      31.120  29.881  24.694  1.00  0.00     0.274 C 
ENDROOT
BRANCH   1   2
ATOM      2  O   UNL A   1      31.342  28.460  24.598  1.00  0.00    -0.461 OA
BRANCH   2   3
ATOM      3  C   UNL A   1      31.658  27.980  23.364  1.00  0.00     0.319 C 
ATOM      4  O   UNL A   1      30.864  27.910  22.429  1.00  0.00    -0.251 OA
BRANCH   3   5
ATOM      5  C   UNL A   1      33.112  27.533  23.250  1.00  0.00     0.161 C 
ATOM      6  C   UNL A   1      34.034  28.526  22.553  1.00  0.00     0.032 C 
BRANCH   5   7
ATOM      7  S   UNL A   1      33.685  27.120  24.934  1.00  0.00    -0.071 SA
BRANCH   7   8
ATOM      8  C   UNL A   1      32.994  25.525  25.122  1.00  0.00     0.191 A 
ATOM      9  N   UNL A   1      33.509  24.581  24.404  1.00  0.00    -0.222 NA
ATOM     10  N   UNL A   1      31.985  25.323  26.059  1.00  0.00    -0.202 N 
ATOM     11  C   UNL A   1      33.040  23.275  24.591  1.00  0.00     0.079 A 
ATOM     12  C   UNL A   1      31.459  24.053  26.303  1.00  0.00     0.280 A 
ATOM     13  C   UNL A   1      33.621  22.245  23.847  1.00  0.00     0.029 A 
ATOM     14  C   UNL A   1      32.044  22.954  25.513  1.00  0.00     0.068 A 
ATOM     15  O   UNL A   1      30.574  23.835  27.130  1.00  0.00    -0.267 OA
ATOM     16  C   UNL A   1      33.217  20.920  24.029  1.00  0.00     0.002 A 
ATOM     17  C   UNL A   1      31.629  21.631  25.701  1.00  0.00     0.016 A 
ATOM     18  C   UNL A   1      32.222  20.613  24.956  1.00  0.00     0.001 A 
BRANCH  10  19
ATOM     19  N   UNL A   1      31.435  26.400  26.835  1.00  0.00    -0.334 N 
ATOM     20  H   UNL A   1      30.493  26.369  27.124  1.00  0.00     0.178 HD
ATOM     21  H   UNL A   1      31.999  27.170  27.080  1.00  0.00     0.178 HD
ENDBRANCH  10  19
ENDBRANCH   7   8
ENDBRANCH   5   7
ENDBRANCH   3   5
ENDBRANCH   2   3
ENDBRANCH   1   2
BRANCH   1  22
ATOM     22  C   UNL A   1      31.456  30.414  26.091  1.00  0.00     0.275 C 
BRANCH  22  23
ATOM     23  O   UNL A   1      32.875  30.469  26.328  1.00  0.00    -0.458 OA
BRANCH  23  24
ATOM     24  C   UNL A   1      33.288  31.491  27.111  1.00  0.00     0.338 C 
ATOM     25  O   UNL A   1      32.662  32.491  27.419  1.00  0.00    -0.246 OA
BRANCH  24  26
ATOM     26  C   UNL A   1      34.613  31.189  27.671  1.00  0.00     0.060 A 
ATOM     27  C   UNL A   1      34.884  29.873  28.059  1.00  0.00     0.016 A 
ATOM     28  C   UNL A   1      35.538  32.207  27.905  1.00  0.00     0.016 A 
ATOM     29  C   UNL A   1      36.078  29.567  28.704  1.00  0.00     0.010 A 
ATOM     30  C   UNL A   1      36.735  31.899  28.551  1.00  0.00     0.010 A 
ATOM     31  C   UNL A   1      37.003  30.584  28.968  1.00  0.00    -0.014 A 
BRANCH  31  32
ATOM     32  C   UNL A   1      38.226  30.294  29.746  1.00  0.00     0.031 A 
ATOM     33  C   UNL A   1      39.251  29.357  29.181  1.00  0.00     0.074 A 
ATOM     34  C   UNL A   1      38.399  30.847  30.959  1.00  0.00     0.049 A 
ATOM     35  N   UNL A   1      40.298  28.827  29.758  1.00  0.00    -0.248 NA
ATOM     36  C   UNL A   1      39.065  28.959  27.778  1.00  0.00     0.031 C 
ATOM     37  C   UNL A   1      37.496  31.812  31.581  1.00  0.00     0.029 A 
ATOM     38  N   UNL A   1      39.385  30.653  31.891  1.00  0.00    -0.354 N 
ATOM     39  C   UNL A   1      40.878  28.008  28.801  1.00  0.00     0.074 A 
ATOM     40  C   UNL A   1      40.065  28.108  27.606  1.00  0.00     0.031 C 
ATOM     41  C   UNL A   1      37.958  32.112  32.807  1.00  0.00     0.029 A 
ATOM     42  C   UNL A   1      39.158  31.320  33.069  1.00  0.00     0.049 A 
ATOM     43  H   UNL A   1      40.179  30.091  31.732  1.00  0.00     0.167 HD
ATOM     44  C   UNL A   1      41.987  27.239  28.916  1.00  0.00     0.037 A 
ATOM     45  C   UNL A   1      39.818  31.261  34.240  1.00  0.00     0.037 A 
ATOM     46  C   UNL A   1      42.794  27.161  30.104  1.00  0.00     0.049 A 
ATOM     47  C   UNL A   1      41.017  30.361  34.363  1.00  0.00     0.074 A 
ATOM     48  C   UNL A   1      43.943  26.422  30.323  1.00  0.00     0.029 A 
ATOM     49  N   UNL A   1      42.531  27.850  31.279  1.00  0.00    -0.354 N 
ATOM     50  N   UNL A   1      41.553  29.572  33.463  1.00  0.00    -0.248 NA
ATOM     51  C   UNL A   1      41.699  30.337  35.663  1.00  0.00     0.031 C 
ATOM     52  C   UNL A   1      44.355  26.635  31.643  1.00  0.00     0.029 A 
ATOM     53  C   UNL A   1      43.488  27.542  32.232  1.00  0.00     0.049 A 
ATOM     54  H   UNL A   1      41.777  28.468  31.416  1.00  0.00     0.167 HD
ATOM     55  C   UNL A   1      42.646  28.977  34.078  1.00  0.00     0.074 A 
ATOM     56  C   UNL A   1      42.699  29.499  35.428  1.00  0.00     0.031 C 
ATOM     57  C   UNL A   1      43.527  28.082  33.568  1.00  0.00     0.037 A 
BRANCH  44  58
ATOM     58  C   UNL A   1      42.361  26.391  27.737  1.00  0.00     0.064 A 
ATOM     59  C   UNL A   1      41.779  25.134  27.514  1.00  0.00     0.173 A 
ATOM     60  C   UNL A   1      43.312  26.849  26.813  1.00  0.00     0.173 A 
ATOM     61  F   UNL A   1      40.878  24.644  28.378  1.00  0.00    -0.203 F 
ATOM     62  C   UNL A   1      42.156  24.356  26.422  1.00  0.00     0.198 A 
ATOM     63  C   UNL A   1      43.667  26.080  25.708  1.00  0.00     0.198 A 
ATOM     64  F   UNL A   1      43.896  28.045  26.980  1.00  0.00    -0.203 F 
ATOM     65  F   UNL A   1      41.623  23.138  26.253  1.00  0.00    -0.200 F 
ATOM     66  C   UNL A   1      43.095  24.831  25.518  1.00  0.00     0.200 A 
ATOM     67  F   UNL A   1      44.568  26.544  24.832  1.00  0.00    -0.200 F 
ATOM     68  F   UNL A   1      43.458  24.081  24.468  1.00  0.00    -0.200 F 
ENDBRANCH  44  58
BRANCH  45  69
ATOM     69  C   UNL A   1      39.336  32.062  35.392  1.00  0.00     0.064 A 
ATOM     70  C   UNL A   1      39.667  33.416  35.518  1.00  0.00     0.173 A 
ATOM     71  C   UNL A   1      38.509  31.496  36.374  1.00  0.00     0.173 A 
ATOM     72  F   UNL A   1      40.474  33.994  34.615  1.00  0.00    -0.203 F 
ATOM     73  C   UNL A   1      39.193  34.175  36.585  1.00  0.00     0.198 A 
ATOM     74  C   UNL A   1      38.017  32.260  37.428  1.00  0.00     0.198 A 
ATOM     75  F   UNL A   1      38.164  30.202  36.297  1.00  0.00    -0.203 F 
ATOM     76  F   UNL A   1      39.549  35.463  36.699  1.00  0.00    -0.200 F 
ATOM     77  C   UNL A   1      38.361  33.600  37.535  1.00  0.00     0.200 A 
ATOM     78  F   UNL A   1      37.204  31.703  38.336  1.00  0.00    -0.200 F 
ATOM     79  F   UNL A   1      37.896  34.334  38.555  1.00  0.00    -0.200 F 
ENDBRANCH  45  69
BRANCH  57  80
ATOM     80  C   UNL A   1      44.651  27.641  34.457  1.00  0.00     0.064 A 
ATOM     81  C   UNL A   1      45.851  28.359  34.535  1.00  0.00     0.173 A 
ATOM     82  C   UNL A   1      44.498  26.516  35.282  1.00  0.00     0.173 A 
ATOM     83  F   UNL A   1      46.049  29.433  33.754  1.00  0.00    -0.203 F 
ATOM     84  C   UNL A   1      46.866  27.960  35.400  1.00  0.00     0.198 A 
ATOM     85  C   UNL A   1      45.505  26.134  36.162  1.00  0.00     0.198 A 
ATOM     86  F   UNL A   1      43.364  25.800  35.246  1.00  0.00    -0.203 F 
ATOM     87  F   UNL A   1      48.020  28.642  35.437  1.00  0.00    -0.200 F 
ATOM     88  C   UNL A   1      46.690  26.853  36.218  1.00  0.00     0.200 A 
ATOM     89  F   UNL A   1      45.330  25.070  36.959  1.00  0.00    -0.200 F 
ATOM     90  F   UNL A   1      47.665  26.476  37.057  1.00  0.00    -0.200 F 
ENDBRANCH  57  80
ENDBRANCH  31  32
ENDBRANCH  24  26
ENDBRANCH  23  24
ENDBRANCH  22  23
ENDBRANCH   1  22
TORSDOF 14
ENDMDL
MODEL 2
REMARK VINA RESULT:     -11.8      1.099      1.768
REMARK SMILES C[C@@H](Sc1nc2ccccc2c(=O)n1N)C(=O)OCCOC(=O)c1ccc(-c2c3nc(c(-c4c(F)c(F)c(F)c(F)c4F)c4ccc([nH]4)c(-c4c(F)c(F)c(F)c(F)c4F)c4nc(c(-c5c(F)c(F)c(F)c(F)c5F)c5ccc2[nH]5)C=C4)C=C3)cc1
REMARK SMILES IDX 19 1 18 2 16 3 17 4 2 5 1 6 3 7 4 8 5 9 14 10 6 11 12 12
REMARK SMILES IDX 7 13 11 14 13 15 8 16 10 17 9 18 15 19 20 22 21 23 22 24
REMARK SMILES IDX 23 25 24 26 25 27 86 28 26 29 85 30 27 31 28 32 29 33 79 34
REMARK SMILES IDX 30 35 84 36 78 37 80 38 31 39 83 40 77 41 76 42 32 44 64 45
REMARK SMILES IDX 44 46 63 47 45 48 48 49 62 50 81 51 46 52 47 53 61 55 82 56
REMARK SMILES IDX 49 57 33 58 34 59 42 60 35 61 36 62 40 63 43 64 37 65 38 66
REMARK SMILES IDX 41 67 39 68 65 69 66 70 74 71 67 72 68 73 72 74 75 75 69 76
REMARK SMILES IDX 70 77 73 78 71 79 50 80 51 81 59 82 52 83 53 84 57 85 60 86
REMARK SMILES IDX 54 87 55 88 58 89 56 90
REMARK H PARENT 15 20 15 21 80 43 48 54
REMARK Flexibility Score: inf
ROOT
ATOM      1  C   UNL A   1      31.439  29.462  24.630  1.00  0.00     0.274 C 
ENDROOT
BRANCH   1   2
ATOM      2  O   UNL A   1      31.065  28.074  24.733  1.00  0.00    -0.461 OA
BRANCH   2   3
ATOM      3  C   UNL A   1      31.237  27.318  23.615  1.00  0.00     0.319 C 
ATOM      4  O   UNL A   1      30.316  26.894  22.922  1.00  0.00    -0.251 OA
BRANCH   3   5
ATOM      5  C   UNL A   1      32.704  27.044  23.298  1.00  0.00     0.161 C 
ATOM      6  C   UNL A   1      33.531  26.541  24.474  1.00  0.00     0.032 C 
BRANCH   5   7
ATOM      7  S   UNL A   1      32.746  25.894  21.880  1.00  0.00    -0.071 SA
BRANCH   7   8
ATOM      8  C   UNL A   1      33.274  24.429  22.675  1.00  0.00     0.191 A 
ATOM      9  N   UNL A   1      34.550  24.240  22.755  1.00  0.00    -0.222 NA
ATOM     10  N   UNL A   1      32.327  23.576  23.235  1.00  0.00    -0.202 N 
ATOM     11  C   UNL A   1      35.012  23.121  23.461  1.00  0.00     0.079 A 
ATOM     12  C   UNL A   1      32.703  22.437  23.951  1.00  0.00     0.280 A 
ATOM     13  C   UNL A   1      36.390  22.933  23.585  1.00  0.00     0.029 A 
ATOM     14  C   UNL A   1      34.154  22.209  24.076  1.00  0.00     0.068 A 
ATOM     15  O   UNL A   1      31.895  21.667  24.468  1.00  0.00    -0.267 OA
ATOM     16  C   UNL A   1      36.899  21.857  24.316  1.00  0.00     0.002 A 
ATOM     17  C   UNL A   1      34.652  21.125  24.808  1.00  0.00     0.016 A 
ATOM     18  C   UNL A   1      36.031  20.954  24.928  1.00  0.00     0.001 A 
BRANCH  10  19
ATOM     19  N   UNL A   1      30.915  23.819  23.121  1.00  0.00    -0.334 N 
ATOM     20  H   UNL A   1      30.548  24.703  23.352  1.00  0.00     0.178 HD
ATOM     21  H   UNL A   1      30.315  23.103  22.810  1.00  0.00     0.178 HD
ENDBRANCH  10  19
ENDBRANCH   7   8
ENDBRANCH   5   7
ENDBRANCH   3   5
ENDBRANCH   2   3
ENDBRANCH   1   2
BRANCH   1  22
ATOM     22  C   UNL A   1      31.780  30.061  26.000  1.00  0.00     0.275 C 
BRANCH  22  23
ATOM     23  O   UNL A   1      33.194  30.278  26.163  1.00  0.00    -0.458 OA
BRANCH  23  24
ATOM     24  C   UNL A   1      33.528  31.242  27.051  1.00  0.00     0.338 C 
ATOM     25  O   UNL A   1      32.841  32.176  27.427  1.00  0.00    -0.246 OA
BRANCH  24  26
ATOM     26  C   UNL A   1      34.849  30.956  27.626  1.00  0.00     0.060 A 
ATOM     27  C   UNL A   1      35.166  29.629  27.932  1.00  0.00     0.016 A 
ATOM     28  C   UNL A   1      35.724  31.992  27.955  1.00  0.00     0.016 A 
ATOM     29  C   UNL A   1      36.355  29.328  28.587  1.00  0.00     0.010 A 
ATOM     30  C   UNL A   1      36.917  31.690  28.612  1.00  0.00     0.010 A 
ATOM     31  C   UNL A   1      37.229  30.360  28.946  1.00  0.00    -0.014 A 
BRANCH  31  32
ATOM     32  C   UNL A   1      38.444  30.068  29.737  1.00  0.00     0.031 A 
ATOM     33  C   UNL A   1      39.467  29.121  29.187  1.00  0.00     0.074 A 
ATOM     34  C   UNL A   1      38.609  30.627  30.948  1.00  0.00     0.049 A 
ATOM     35  N   UNL A   1      40.505  28.587  29.777  1.00  0.00    -0.248 NA
ATOM     36  C   UNL A   1      39.292  28.715  27.785  1.00  0.00     0.031 C 
ATOM     37  C   UNL A   1      37.707  31.602  31.556  1.00  0.00     0.029 A 
ATOM     38  N   UNL A   1      39.585  30.432  31.891  1.00  0.00    -0.354 N 
ATOM     39  C   UNL A   1      41.089  27.759  28.829  1.00  0.00     0.074 A 
ATOM     40  C   UNL A   1      40.288  27.857  27.626  1.00  0.00     0.031 C 
ATOM     41  C   UNL A   1      38.159  31.905  32.784  1.00  0.00     0.029 A 
ATOM     42  C   UNL A   1      39.351  31.108  33.062  1.00  0.00     0.049 A 
ATOM     43  H   UNL A   1      40.377  29.865  31.742  1.00  0.00     0.167 HD
ATOM     44  C   UNL A   1      42.192  26.983  28.959  1.00  0.00     0.037 A 
ATOM     45  C   UNL A   1      40.000  31.051  34.239  1.00  0.00     0.037 A 
ATOM     46  C   UNL A   1      42.988  26.907  30.155  1.00  0.00     0.049 A 
ATOM     47  C   UNL A   1      41.193  30.145  34.378  1.00  0.00     0.074 A 
ATOM     48  C   UNL A   1      44.130  26.163  30.389  1.00  0.00     0.029 A 
ATOM     49  N   UNL A   1      42.719  27.606  31.324  1.00  0.00    -0.354 N 
ATOM     50  N   UNL A   1      41.732  29.347  33.488  1.00  0.00    -0.248 NA
ATOM     51  C   UNL A   1      41.863  30.124  35.685  1.00  0.00     0.031 C 
ATOM     52  C   UNL A   1      44.531  26.381  31.711  1.00  0.00     0.029 A 
ATOM     53  C   UNL A   1      43.665  27.297  32.288  1.00  0.00     0.049 A 
ATOM     54  H   UNL A   1      41.968  28.229  31.450  1.00  0.00     0.167 HD
ATOM     55  C   UNL A   1      42.816  28.749  34.116  1.00  0.00     0.074 A 
ATOM     56  C   UNL A   1      42.860  29.278  35.464  1.00  0.00     0.031 C 
ATOM     57  C   UNL A   1      43.695  27.845  33.620  1.00  0.00     0.037 A 
BRANCH  44  58
ATOM     58  C   UNL A   1      42.572  26.126  27.789  1.00  0.00     0.064 A 
ATOM     59  C   UNL A   1      43.558  26.518  26.873  1.00  0.00     0.173 A 
ATOM     60  C   UNL A   1      41.943  24.887  27.589  1.00  0.00     0.173 A 
ATOM     61  F   UNL A   1      44.176  27.700  27.011  1.00  0.00    -0.203 F 
ATOM     62  C   UNL A   1      43.881  25.713  25.783  1.00  0.00     0.198 A 
ATOM     63  C   UNL A   1      42.287  24.074  26.514  1.00  0.00     0.198 A 
ATOM     64  F   UNL A   1      40.995  24.466  28.439  1.00  0.00    -0.203 F 
ATOM     65  F   UNL A   1      44.793  26.128  24.892  1.00  0.00    -0.200 F 
ATOM     66  C   UNL A   1      43.250  24.491  25.607  1.00  0.00     0.200 A 
ATOM     67  F   UNL A   1      41.682  22.890  26.351  1.00  0.00    -0.200 F 
ATOM     68  F   UNL A   1      43.562  23.717  24.557  1.00  0.00    -0.200 F 
ENDBRANCH  44  58
BRANCH  45  69
ATOM     69  C   UNL A   1      39.513  31.863  35.382  1.00  0.00     0.064 A 
ATOM     70  C   UNL A   1      39.948  33.180  35.568  1.00  0.00     0.173 A 
ATOM     71  C   UNL A   1      38.580  31.345  36.293  1.00  0.00     0.173 A 
ATOM     72  F   UNL A   1      40.857  33.709  34.736  1.00  0.00    -0.203 F 
ATOM     73  C   UNL A   1      39.470  33.951  36.626  1.00  0.00     0.198 A 
ATOM     74  C   UNL A   1      38.086  32.123  37.336  1.00  0.00     0.198 A 
ATOM     75  F   UNL A   1      38.133  30.088  36.156  1.00  0.00    -0.203 F 
ATOM     76  F   UNL A   1      39.924  35.200  36.800  1.00  0.00    -0.200 F 
ATOM     77  C   UNL A   1      38.533  33.425  37.504  1.00  0.00     0.200 A 
ATOM     78  F   UNL A   1      37.172  31.616  38.174  1.00  0.00    -0.200 F 
ATOM     79  F   UNL A   1      38.066  34.172  38.514  1.00  0.00    -0.200 F 
ENDBRANCH  45  69
BRANCH  57  80
ATOM     80  C   UNL A   1      44.808  27.402  34.522  1.00  0.00     0.064 A 
ATOM     81  C   UNL A   1      46.013  28.112  34.605  1.00  0.00     0.173 A 
ATOM     82  C   UNL A   1      44.640  26.285  35.355  1.00  0.00     0.173 A 
ATOM     83  F   UNL A   1      46.226  29.177  33.817  1.00  0.00    -0.203 F 
ATOM     84  C   UNL A   1      47.018  27.711  35.481  1.00  0.00     0.198 A 
ATOM     85  C   UNL A   1      45.637  25.902  36.246  1.00  0.00     0.198 A 
ATOM     86  F   UNL A   1      43.501  25.578  35.314  1.00  0.00    -0.203 F 
ATOM     87  F   UNL A   1      48.177  28.384  35.523  1.00  0.00    -0.200 F 
ATOM     88  C   UNL A   1      46.826  26.613  36.306  1.00  0.00     0.200 A 
ATOM     89  F   UNL A   1      45.446  24.846  37.050  1.00  0.00    -0.200 F 
ATOM     90  F   UNL A   1      47.791  26.235  37.156  1.00  0.00    -0.200 F 
ENDBRANCH  57  80
ENDBRANCH  31  32
ENDBRANCH  24  26
ENDBRANCH  23  24
ENDBRANCH  22  23
ENDBRANCH   1  22
TORSDOF 14
ENDMDL
MODEL 3
REMARK VINA RESULT:     -11.8      1.281      2.359
REMARK SMILES C[C@@H](Sc1nc2ccccc2c(=O)n1N)C(=O)OCCOC(=O)c1ccc(-c2c3nc(c(-c4c(F)c(F)c(F)c(F)c4F)c4ccc([nH]4)c(-c4c(F)c(F)c(F)c(F)c4F)c4nc(c(-c5c(F)c(F)c(F)c(F)c5F)c5ccc2[nH]5)C=C4)C=C3)cc1
REMARK SMILES IDX 19 1 18 2 16 3 17 4 2 5 1 6 3 7 4 8 5 9 14 10 6 11 12 12
REMARK SMILES IDX 7 13 11 14 13 15 8 16 10 17 9 18 15 19 20 22 21 23 22 24
REMARK SMILES IDX 23 25 24 26 25 27 86 28 26 29 85 30 27 31 28 32 29 33 79 34
REMARK SMILES IDX 30 35 84 36 78 37 80 38 31 39 83 40 77 41 76 42 32 44 64 45
REMARK SMILES IDX 44 46 63 47 45 48 48 49 62 50 81 51 46 52 47 53 61 55 82 56
REMARK SMILES IDX 49 57 33 58 34 59 42 60 35 61 36 62 40 63 43 64 37 65 38 66
REMARK SMILES IDX 41 67 39 68 65 69 66 70 74 71 67 72 68 73 72 74 75 75 69 76
REMARK SMILES IDX 70 77 73 78 71 79 50 80 51 81 59 82 52 83 53 84 57 85 60 86
REMARK SMILES IDX 54 87 55 88 58 89 56 90
REMARK H PARENT 15 20 15 21 80 43 48 54
REMARK Flexibility Score: inf
ROOT
ATOM      1  C   UNL A   1      31.126  30.414  25.129  1.00  0.00     0.274 C 
ENDROOT
BRANCH   1   2
ATOM      2  O   UNL A   1      32.030  29.313  24.916  1.00  0.00    -0.461 OA
BRANCH   2   3
ATOM      3  C   UNL A   1      31.473  28.070  24.887  1.00  0.00     0.319 C 
ATOM      4  O   UNL A   1      30.724  27.672  23.999  1.00  0.00    -0.251 OA
BRANCH   3   5
ATOM      5  C   UNL A   1      31.875  27.207  26.079  1.00  0.00     0.161 C 
ATOM      6  C   UNL A   1      31.408  27.728  27.433  1.00  0.00     0.032 C 
BRANCH   5   7
ATOM      7  S   UNL A   1      31.279  25.513  25.746  1.00  0.00    -0.071 SA
BRANCH   7   8
ATOM      8  C   UNL A   1      32.667  24.845  24.922  1.00  0.00     0.191 A 
ATOM      9  N   UNL A   1      33.707  24.590  25.648  1.00  0.00    -0.222 NA
ATOM     10  N   UNL A   1      32.583  24.558  23.562  1.00  0.00    -0.202 N 
ATOM     11  C   UNL A   1      34.807  23.974  25.038  1.00  0.00     0.079 A 
ATOM     12  C   UNL A   1      33.637  23.949  22.878  1.00  0.00     0.280 A 
ATOM     13  C   UNL A   1      35.916  23.660  25.826  1.00  0.00     0.029 A 
ATOM     14  C   UNL A   1      34.827  23.628  23.687  1.00  0.00     0.068 A 
ATOM     15  O   UNL A   1      33.594  23.672  21.679  1.00  0.00    -0.267 OA
ATOM     16  C   UNL A   1      37.021  23.006  25.273  1.00  0.00     0.002 A 
ATOM     17  C   UNL A   1      35.928  22.976  23.121  1.00  0.00     0.016 A 
ATOM     18  C   UNL A   1      37.026  22.663  23.922  1.00  0.00     0.001 A 
BRANCH  10  19
ATOM     19  N   UNL A   1      31.410  24.861  22.788  1.00  0.00    -0.334 N 
ATOM     20  H   UNL A   1      31.137  25.797  22.654  1.00  0.00     0.178 HD
ATOM     21  H   UNL A   1      30.881  24.132  22.390  1.00  0.00     0.178 HD
ENDBRANCH  10  19
ENDBRANCH   7   8
ENDBRANCH   5   7
ENDBRANCH   3   5
ENDBRANCH   2   3
ENDBRANCH   1   2
BRANCH   1  22
ATOM     22  C   UNL A   1      31.487  31.209  26.389  1.00  0.00     0.275 C 
BRANCH  22  23
ATOM     23  O   UNL A   1      32.858  31.014  26.783  1.00  0.00    -0.458 OA
BRANCH  23  24
ATOM     24  C   UNL A   1      33.428  32.062  27.419  1.00  0.00     0.338 C 
ATOM     25  O   UNL A   1      32.945  33.165  27.614  1.00  0.00    -0.246 OA
BRANCH  24  26
ATOM     26  C   UNL A   1      34.726  31.663  27.979  1.00  0.00     0.060 A 
ATOM     27  C   UNL A   1      34.882  30.343  28.416  1.00  0.00     0.016 A 
ATOM     28  C   UNL A   1      35.742  32.600  28.165  1.00  0.00     0.016 A 
ATOM     29  C   UNL A   1      36.051  29.955  29.061  1.00  0.00     0.010 A 
ATOM     30  C   UNL A   1      36.915  32.210  28.811  1.00  0.00     0.010 A 
ATOM     31  C   UNL A   1      37.068  30.892  29.277  1.00  0.00    -0.014 A 
BRANCH  31  32
ATOM     32  C   UNL A   1      38.269  30.522  30.055  1.00  0.00     0.031 A 
ATOM     33  C   UNL A   1      39.254  29.557  29.469  1.00  0.00     0.074 A 
ATOM     34  C   UNL A   1      38.456  31.028  31.286  1.00  0.00     0.049 A 
ATOM     35  N   UNL A   1      40.271  28.961  30.037  1.00  0.00    -0.248 NA
ATOM     36  C   UNL A   1      39.064  29.211  28.052  1.00  0.00     0.031 C 
ATOM     37  C   UNL A   1      37.593  32.014  31.931  1.00  0.00     0.029 A 
ATOM     38  N   UNL A   1      39.424  30.760  32.219  1.00  0.00    -0.354 N 
ATOM     39  C   UNL A   1      40.822  28.146  29.058  1.00  0.00     0.074 A 
ATOM     40  C   UNL A   1      40.025  28.321  27.861  1.00  0.00     0.031 C 
ATOM     41  C   UNL A   1      38.057  32.254  33.169  1.00  0.00     0.029 A 
ATOM     42  C   UNL A   1      39.217  31.400  33.415  1.00  0.00     0.049 A 
ATOM     43  H   UNL A   1      40.193  30.167  32.049  1.00  0.00     0.167 HD
ATOM     44  C   UNL A   1      41.892  27.323  29.158  1.00  0.00     0.037 A 
ATOM     45  C   UNL A   1      39.862  31.273  34.589  1.00  0.00     0.037 A 
ATOM     46  C   UNL A   1      42.684  27.171  30.349  1.00  0.00     0.049 A 
ATOM     47  C   UNL A   1      41.018  30.316  34.693  1.00  0.00     0.074 A 
ATOM     48  C   UNL A   1      43.796  26.373  30.553  1.00  0.00     0.029 A 
ATOM     49  N   UNL A   1      42.443  27.835  31.543  1.00  0.00    -0.354 N 
ATOM     50  N   UNL A   1      41.526  29.532  33.772  1.00  0.00    -0.248 NA
ATOM     51  C   UNL A   1      41.686  30.220  35.997  1.00  0.00     0.031 C 
ATOM     52  C   UNL A   1      44.206  26.526  31.882  1.00  0.00     0.029 A 
ATOM     53  C   UNL A   1      43.376  27.453  32.493  1.00  0.00     0.049 A 
ATOM     54  H   UNL A   1      41.717  28.482  31.693  1.00  0.00     0.167 HD
ATOM     55  C   UNL A   1      42.584  28.868  34.377  1.00  0.00     0.074 A 
ATOM     56  C   UNL A   1      42.649  29.344  35.743  1.00  0.00     0.031 C 
ATOM     57  C   UNL A   1      43.428  27.949  33.845  1.00  0.00     0.037 A 
BRANCH  44  58
ATOM     58  C   UNL A   1      42.238  26.496  27.956  1.00  0.00     0.064 A 
ATOM     59  C   UNL A   1      41.648  25.246  27.722  1.00  0.00     0.173 A 
ATOM     60  C   UNL A   1      43.170  26.968  27.019  1.00  0.00     0.173 A 
ATOM     61  F   UNL A   1      40.763  24.743  28.596  1.00  0.00    -0.203 F 
ATOM     62  C   UNL A   1      41.998  24.487  26.608  1.00  0.00     0.198 A 
ATOM     63  C   UNL A   1      43.498  26.218  25.893  1.00  0.00     0.198 A 
ATOM     64  F   UNL A   1      43.762  28.159  27.196  1.00  0.00    -0.203 F 
ATOM     65  F   UNL A   1      41.457  23.273  26.428  1.00  0.00    -0.200 F 
ATOM     66  C   UNL A   1      42.919  24.975  25.693  1.00  0.00     0.200 A 
ATOM     67  F   UNL A   1      44.381  26.696  25.006  1.00  0.00    -0.200 F 
ATOM     68  F   UNL A   1      43.255  24.243  24.621  1.00  0.00    -0.200 F 
ENDBRANCH  44  58
BRANCH  45  69
ATOM     69  C   UNL A   1      39.408  32.060  35.762  1.00  0.00     0.064 A 
ATOM     70  C   UNL A   1      38.407  31.574  36.612  1.00  0.00     0.173 A 
ATOM     71  C   UNL A   1      39.986  33.300  36.072  1.00  0.00     0.173 A 
ATOM     72  F   UNL A   1      37.810  30.405  36.343  1.00  0.00    -0.203 F 
ATOM     73  C   UNL A   1      37.999  32.301  37.729  1.00  0.00     0.198 A 
ATOM     74  C   UNL A   1      39.594  34.015  37.200  1.00  0.00     0.198 A 
ATOM     75  F   UNL A   1      40.948  33.808  35.286  1.00  0.00    -0.203 F 
ATOM     76  F   UNL A   1      37.019  31.828  38.511  1.00  0.00    -0.200 F 
ATOM     77  C   UNL A   1      38.598  33.517  38.027  1.00  0.00     0.200 A 
ATOM     78  F   UNL A   1      40.183  35.183  37.490  1.00  0.00    -0.200 F 
ATOM     79  F   UNL A   1      38.212  34.209  39.107  1.00  0.00    -0.200 F 
ENDBRANCH  45  69
BRANCH  57  80
ATOM     80  C   UNL A   1      44.522  27.429  34.729  1.00  0.00     0.064 A 
ATOM     81  C   UNL A   1      44.361  26.259  35.485  1.00  0.00     0.173 A 
ATOM     82  C   UNL A   1      45.763  28.080  34.774  1.00  0.00     0.173 A 
ATOM     83  F   UNL A   1      43.186  25.611  35.485  1.00  0.00    -0.203 F 
ATOM     84  C   UNL A   1      45.403  25.766  36.265  1.00  0.00     0.198 A 
ATOM     85  C   UNL A   1      46.810  27.572  35.537  1.00  0.00     0.198 A 
ATOM     86  F   UNL A   1      45.965  29.200  34.064  1.00  0.00    -0.203 F 
ATOM     87  F   UNL A   1      45.221  24.663  37.006  1.00  0.00    -0.200 F 
ATOM     88  C   UNL A   1      46.628  26.417  36.284  1.00  0.00     0.200 A 
ATOM     89  F   UNL A   1      47.996  28.196  35.546  1.00  0.00    -0.200 F 
ATOM     90  F   UNL A   1      47.633  25.935  37.028  1.00  0.00    -0.200 F 
ENDBRANCH  57  80
ENDBRANCH  31  32
ENDBRANCH  24  26
ENDBRANCH  23  24
ENDBRANCH  22  23
ENDBRANCH   1  22
TORSDOF 14
ENDMDL
