MODEL 1
REMARK VINA RESULT:     -12.1      0.000      0.000
REMARK SMILES O=C(C[C@@H](C[NH+]1CCCCC1)C(=O)OCCOC(=O)c1ccc(-c2c3nc(c(-c4c(F)c(F)c(F)c(F)c4F)c4ccc([nH]4)c(-c4c(F)c(F)c(F)c(F)c4F)c4nc(c(-c5c(F)c(F)c(F)c(F)c5F)c5ccc2[nH]5)C=C4)C=C3)cc1)Nc1ccccc1O
REMARK SMILES IDX 15 1 14 2 12 3 13 4 4 5 3 6 2 7 1 8 83 9 84 11 85 12 89 13
REMARK SMILES IDX 86 14 88 15 87 16 90 17 5 19 6 20 7 21 11 22 8 24 10 25 9 26
REMARK SMILES IDX 16 27 17 28 18 29 19 30 20 31 21 32 82 33 22 34 81 35 23 36
REMARK SMILES IDX 24 37 25 38 75 39 26 40 80 41 74 42 76 43 27 44 79 45 73 46
REMARK SMILES IDX 72 47 28 49 60 50 40 51 59 52 41 53 44 54 58 55 77 56 42 57
REMARK SMILES IDX 43 58 57 60 78 61 45 62 29 63 30 64 38 65 31 66 32 67 36 68
REMARK SMILES IDX 39 69 33 70 34 71 37 72 35 73 61 74 62 75 70 76 63 77 64 78
REMARK SMILES IDX 68 79 71 80 65 81 66 82 69 83 67 84 46 85 47 86 55 87 48 88
REMARK SMILES IDX 49 89 53 90 56 91 50 92 51 93 54 94 52 95
REMARK H PARENT 83 10 90 18 6 23 76 48 44 59
REMARK Flexibility Score: inf
ROOT
ATOM      1  C   UNL A   1      32.068  28.180  27.019  1.00  0.00     0.274 C 
ENDROOT
BRANCH   1   2
ATOM      2  O   UNL A   1      32.422  27.082  26.151  1.00  0.00    -0.462 OA
BRANCH   2   3
ATOM      3  C   UNL A   1      31.707  25.933  26.246  1.00  0.00     0.315 C 
ATOM      4  O   UNL A   1      30.492  25.873  26.393  1.00  0.00    -0.252 OA
BRANCH   3   5
ATOM      5  C   UNL A   1      32.596  24.691  26.249  1.00  0.00     0.163 C 
BRANCH   5   6
ATOM      6  C   UNL A   1      31.957  23.511  26.990  1.00  0.00     0.121 C 
BRANCH   6   7
ATOM      7  C   UNL A   1      31.557  22.252  26.220  1.00  0.00     0.225 C 
ATOM      8  O   UNL A   1      30.400  22.145  25.811  1.00  0.00    -0.275 OA
ATOM      9  N   UNL A   1      32.537  21.330  25.963  1.00  0.00    -0.323 N 
ATOM     10  H   UNL A   1      33.367  21.444  26.480  1.00  0.00     0.170 HD
BRANCH   9  11
ATOM     11  C   UNL A   1      32.532  20.231  25.061  1.00  0.00     0.083 A 
ATOM     12  C   UNL A   1      32.404  20.580  23.703  1.00  0.00     0.030 A 
ATOM     13  C   UNL A   1      32.580  18.865  25.378  1.00  0.00     0.139 A 
ATOM     14  C   UNL A   1      32.338  19.610  22.699  1.00  0.00     0.002 A 
ATOM     15  C   UNL A   1      32.501  17.894  24.373  1.00  0.00     0.048 A 
ATOM     16  C   UNL A   1      32.385  18.263  23.035  1.00  0.00     0.004 A 
BRANCH  13  17
ATOM     17  O   UNL A   1      32.666  18.345  26.637  1.00  0.00    -0.506 OA
ATOM     18  H   UNL A   1      32.611  17.418  26.766  1.00  0.00     0.293 HD
ENDBRANCH  13  17
ENDBRANCH   9  11
ENDBRANCH   6   7
ENDBRANCH   5   6
BRANCH   5  19
ATOM     19  C   UNL A   1      33.124  24.468  24.807  1.00  0.00     0.278 C 
BRANCH  19  20
ATOM     20  N   UNL A   1      34.528  24.149  24.529  1.00  0.00    -0.334 N 
ATOM     21  C   UNL A   1      35.360  23.894  25.707  1.00  0.00     0.262 C 
ATOM     22  C   UNL A   1      34.709  23.168  23.460  1.00  0.00     0.262 C 
ATOM     23  H   UNL A   1      34.899  25.025  24.161  1.00  0.00     0.348 HD
ATOM     24  C   UNL A   1      36.835  23.688  25.349  1.00  0.00     0.062 C 
ATOM     25  C   UNL A   1      36.167  23.023  23.045  1.00  0.00     0.062 C 
ATOM     26  C   UNL A   1      37.008  22.641  24.254  1.00  0.00     0.012 C 
ENDBRANCH  19  20
ENDBRANCH   5  19
ENDBRANCH   3   5
ENDBRANCH   2   3
ENDBRANCH   1   2
BRANCH   1  27
ATOM     27  C   UNL A   1      31.968  29.487  26.236  1.00  0.00     0.275 C 
BRANCH  27  28
ATOM     28  O   UNL A   1      33.268  30.086  26.119  1.00  0.00    -0.458 OA
BRANCH  28  29
ATOM     29  C   UNL A   1      33.484  31.116  26.970  1.00  0.00     0.338 C 
ATOM     30  O   UNL A   1      32.710  32.000  27.284  1.00  0.00    -0.246 OA
BRANCH  29  31
ATOM     31  C   UNL A   1      34.761  30.879  27.654  1.00  0.00     0.060 A 
ATOM     32  C   UNL A   1      35.046  29.573  28.060  1.00  0.00     0.016 A 
ATOM     33  C   UNL A   1      35.654  31.920  27.906  1.00  0.00     0.016 A 
ATOM     34  C   UNL A   1      36.227  29.293  28.729  1.00  0.00     0.010 A 
ATOM     35  C   UNL A   1      36.841  31.641  28.584  1.00  0.00     0.010 A 
ATOM     36  C   UNL A   1      37.124  30.329  29.004  1.00  0.00    -0.014 A 
BRANCH  36  37
ATOM     37  C   UNL A   1      38.326  30.040  29.810  1.00  0.00     0.031 A 
ATOM     38  C   UNL A   1      39.368  29.118  29.255  1.00  0.00     0.074 A 
ATOM     39  C   UNL A   1      38.484  30.629  31.007  1.00  0.00     0.049 A 
ATOM     40  N   UNL A   1      40.453  28.659  29.822  1.00  0.00    -0.248 NA
ATOM     41  C   UNL A   1      39.159  28.647  27.877  1.00  0.00     0.031 C 
ATOM     42  C   UNL A   1      37.551  31.585  31.605  1.00  0.00     0.029 A 
ATOM     43  N   UNL A   1      39.483  30.507  31.935  1.00  0.00    -0.354 N 
ATOM     44  C   UNL A   1      41.043  27.828  28.879  1.00  0.00     0.074 A 
ATOM     45  C   UNL A   1      40.191  27.833  27.710  1.00  0.00     0.031 C 
ATOM     46  C   UNL A   1      38.020  31.956  32.808  1.00  0.00     0.029 A 
ATOM     47  C   UNL A   1      39.257  31.229  33.078  1.00  0.00     0.049 A 
ATOM     48  H   UNL A   1      40.286  29.954  31.795  1.00  0.00     0.167 HD
ATOM     49  C   UNL A   1      42.195  27.127  28.990  1.00  0.00     0.037 A 
ATOM     50  C   UNL A   1      39.959  31.270  34.226  1.00  0.00     0.037 A 
ATOM     51  C   UNL A   1      43.036  27.145  30.157  1.00  0.00     0.049 A 
ATOM     52  C   UNL A   1      41.208  30.439  34.340  1.00  0.00     0.074 A 
ATOM     53  C   UNL A   1      44.232  26.483  30.372  1.00  0.00     0.029 A 
ATOM     54  N   UNL A   1      42.766  27.869  31.311  1.00  0.00    -0.354 N 
ATOM     55  N   UNL A   1      41.760  29.647  33.451  1.00  0.00    -0.248 NA
ATOM     56  C   UNL A   1      41.931  30.504  35.616  1.00  0.00     0.031 C 
ATOM     57  C   UNL A   1      44.661  26.770  31.673  1.00  0.00     0.029 A 
ATOM     58  C   UNL A   1      43.760  27.651  32.250  1.00  0.00     0.049 A 
ATOM     59  H   UNL A   1      41.983  28.451  31.442  1.00  0.00     0.167 HD
ATOM     60  C   UNL A   1      42.900  29.134  34.052  1.00  0.00     0.074 A 
ATOM     61  C   UNL A   1      42.973  29.723  35.374  1.00  0.00     0.031 C 
ATOM     62  C   UNL A   1      43.804  28.250  33.561  1.00  0.00     0.037 A 
BRANCH  49  63
ATOM     63  C   UNL A   1      42.588  26.254  27.835  1.00  0.00     0.064 A 
ATOM     64  C   UNL A   1      42.077  24.958  27.676  1.00  0.00     0.173 A 
ATOM     65  C   UNL A   1      43.475  26.734  26.859  1.00  0.00     0.173 A 
ATOM     66  F   UNL A   1      41.241  24.446  28.592  1.00  0.00    -0.203 F 
ATOM     67  C   UNL A   1      42.456  24.165  26.596  1.00  0.00     0.198 A 
ATOM     68  C   UNL A   1      43.832  25.950  25.766  1.00  0.00     0.198 A 
ATOM     69  F   UNL A   1      43.994  27.967  26.964  1.00  0.00    -0.203 F 
ATOM     70  F   UNL A   1      41.990  22.914  26.488  1.00  0.00    -0.200 F 
ATOM     71  C   UNL A   1      43.327  24.664  25.639  1.00  0.00     0.200 A 
ATOM     72  F   UNL A   1      44.666  26.436  24.837  1.00  0.00    -0.200 F 
ATOM     73  F   UNL A   1      43.686  23.903  24.595  1.00  0.00    -0.200 F 
ENDBRANCH  49  63
BRANCH  50  74
ATOM     74  C   UNL A   1      39.481  32.101  35.362  1.00  0.00     0.064 A 
ATOM     75  C   UNL A   1      38.658  31.561  36.358  1.00  0.00     0.173 A 
ATOM     76  C   UNL A   1      39.832  33.455  35.468  1.00  0.00     0.173 A 
ATOM     77  F   UNL A   1      38.275  30.277  36.287  1.00  0.00    -0.203 F 
ATOM     78  C   UNL A   1      38.188  32.347  37.407  1.00  0.00     0.198 A 
ATOM     79  C   UNL A   1      39.386  34.233  36.534  1.00  0.00     0.198 A 
ATOM     80  F   UNL A   1      40.619  34.021  34.540  1.00  0.00    -0.203 F 
ATOM     81  F   UNL A   1      37.364  31.818  38.321  1.00  0.00    -0.200 F 
ATOM     82  C   UNL A   1      38.558  33.681  37.499  1.00  0.00     0.200 A 
ATOM     83  F   UNL A   1      39.758  35.517  36.625  1.00  0.00    -0.200 F 
ATOM     84  F   UNL A   1      38.109  34.436  38.510  1.00  0.00    -0.200 F 
ENDBRANCH  50  74
BRANCH  62  85
ATOM     85  C   UNL A   1      44.954  27.890  34.455  1.00  0.00     0.064 A 
ATOM     86  C   UNL A   1      44.899  26.783  35.315  1.00  0.00     0.173 A 
ATOM     87  C   UNL A   1      46.132  28.653  34.439  1.00  0.00     0.173 A 
ATOM     88  F   UNL A   1      43.787  26.033  35.378  1.00  0.00    -0.203 F 
ATOM     89  C   UNL A   1      45.967  26.472  36.149  1.00  0.00     0.198 A 
ATOM     90  C   UNL A   1      47.211  28.320  35.252  1.00  0.00     0.198 A 
ATOM     91  F   UNL A   1      46.238  29.717  33.629  1.00  0.00    -0.203 F 
ATOM     92  F   UNL A   1      45.871  25.445  37.005  1.00  0.00    -0.200 F 
ATOM     93  C   UNL A   1      47.125  27.236  36.113  1.00  0.00     0.200 A 
ATOM     94  F   UNL A   1      48.333  29.051  35.207  1.00  0.00    -0.200 F 
ATOM     95  F   UNL A   1      48.153  26.935  36.918  1.00  0.00    -0.200 F 
ENDBRANCH  62  85
ENDBRANCH  36  37
ENDBRANCH  29  31
ENDBRANCH  28  29
ENDBRANCH  27  28
ENDBRANCH   1  27
TORSDOF 17
ENDMDL
MODEL 2
REMARK VINA RESULT:     -12.0      4.366      9.731
REMARK SMILES O=C(C[C@@H](C[NH+]1CCCCC1)C(=O)OCCOC(=O)c1ccc(-c2c3nc(c(-c4c(F)c(F)c(F)c(F)c4F)c4ccc([nH]4)c(-c4c(F)c(F)c(F)c(F)c4F)c4nc(c(-c5c(F)c(F)c(F)c(F)c5F)c5ccc2[nH]5)C=C4)C=C3)cc1)Nc1ccccc1O
REMARK SMILES IDX 15 1 14 2 12 3 13 4 4 5 3 6 2 7 1 8 83 9 84 11 85 12 89 13
REMARK SMILES IDX 86 14 88 15 87 16 90 17 5 19 6 20 7 21 11 22 8 24 10 25 9 26
REMARK SMILES IDX 16 27 17 28 18 29 19 30 20 31 21 32 82 33 22 34 81 35 23 36
REMARK SMILES IDX 24 37 25 38 75 39 26 40 80 41 74 42 76 43 27 44 79 45 73 46
REMARK SMILES IDX 72 47 28 49 60 50 40 51 59 52 41 53 44 54 58 55 77 56 42 57
REMARK SMILES IDX 43 58 57 60 78 61 45 62 29 63 30 64 38 65 31 66 32 67 36 68
REMARK SMILES IDX 39 69 33 70 34 71 37 72 35 73 61 74 62 75 70 76 63 77 64 78
REMARK SMILES IDX 68 79 71 80 65 81 66 82 69 83 67 84 46 85 47 86 55 87 48 88
REMARK SMILES IDX 49 89 53 90 56 91 50 92 51 93 54 94 52 95
REMARK H PARENT 83 10 90 18 6 23 76 48 44 59
REMARK Flexibility Score: inf
ROOT
ATOM      1  C   UNL A   1      36.326  20.343  25.053  1.00  0.00     0.274 C 
ENDROOT
BRANCH   1   2
ATOM      2  O   UNL A   1      35.203  21.011  24.440  1.00  0.00    -0.462 OA
BRANCH   2   3
ATOM      3  C   UNL A   1      34.152  21.354  25.226  1.00  0.00     0.315 C 
ATOM      4  O   UNL A   1      34.198  21.478  26.443  1.00  0.00    -0.252 OA
BRANCH   3   5
ATOM      5  C   UNL A   1      32.849  21.475  24.438  1.00  0.00     0.163 C 
BRANCH   5   6
ATOM      6  C   UNL A   1      33.038  22.188  23.094  1.00  0.00     0.121 C 
BRANCH   6   7
ATOM      7  C   UNL A   1      33.745  23.543  23.041  1.00  0.00     0.225 C 
ATOM      8  O   UNL A   1      34.821  23.631  22.450  1.00  0.00    -0.275 OA
ATOM      9  N   UNL A   1      33.102  24.614  23.604  1.00  0.00    -0.323 N 
ATOM     10  H   UNL A   1      32.342  24.388  24.187  1.00  0.00     0.170 HD
BRANCH   9  11
ATOM     11  C   UNL A   1      33.372  26.003  23.472  1.00  0.00     0.083 A 
ATOM     12  C   UNL A   1      33.463  26.706  24.689  1.00  0.00     0.030 A 
ATOM     13  C   UNL A   1      33.497  26.741  22.286  1.00  0.00     0.139 A 
ATOM     14  C   UNL A   1      33.680  28.086  24.724  1.00  0.00     0.002 A 
ATOM     15  C   UNL A   1      33.701  28.125  22.323  1.00  0.00     0.048 A 
ATOM     16  C   UNL A   1      33.798  28.798  23.537  1.00  0.00     0.004 A 
BRANCH  13  17
ATOM     17  O   UNL A   1      33.401  26.234  21.022  1.00  0.00    -0.506 OA
ATOM     18  H   UNL A   1      33.060  26.764  20.329  1.00  0.00     0.293 HD
ENDBRANCH  13  17
ENDBRANCH   9  11
ENDBRANCH   6   7
ENDBRANCH   5   6
BRANCH   5  19
ATOM     19  C   UNL A   1      32.141  20.095  24.456  1.00  0.00     0.278 C 
BRANCH  19  20
ATOM     20  N   UNL A   1      32.888  18.833  24.501  1.00  0.00    -0.334 N 
ATOM     21  C   UNL A   1      32.606  17.977  25.655  1.00  0.00     0.262 C 
ATOM     22  C   UNL A   1      32.908  18.114  23.228  1.00  0.00     0.262 C 
ATOM     23  H   UNL A   1      33.849  19.135  24.659  1.00  0.00     0.348 HD
ATOM     24  C   UNL A   1      33.507  16.738  25.699  1.00  0.00     0.062 C 
ATOM     25  C   UNL A   1      33.867  16.931  23.244  1.00  0.00     0.062 C 
ATOM     26  C   UNL A   1      33.493  15.983  24.374  1.00  0.00     0.012 C 
ENDBRANCH  19  20
ENDBRANCH   5  19
ENDBRANCH   3   5
ENDBRANCH   2   3
ENDBRANCH   1   2
BRANCH   1  27
ATOM     27  C   UNL A   1      37.629  21.087  24.769  1.00  0.00     0.275 C 
BRANCH  27  28
ATOM     28  O   UNL A   1      38.080  21.750  25.960  1.00  0.00    -0.458 OA
BRANCH  28  29
ATOM     29  C   UNL A   1      39.347  21.441  26.322  1.00  0.00     0.338 C 
ATOM     30  O   UNL A   1      39.936  20.390  26.157  1.00  0.00    -0.246 OA
BRANCH  29  31
ATOM     31  C   UNL A   1      40.007  22.677  26.761  1.00  0.00     0.060 A 
ATOM     32  C   UNL A   1      39.593  23.876  26.176  1.00  0.00     0.016 A 
ATOM     33  C   UNL A   1      41.024  22.657  27.715  1.00  0.00     0.016 A 
ATOM     34  C   UNL A   1      40.195  25.071  26.535  1.00  0.00     0.010 A 
ATOM     35  C   UNL A   1      41.634  23.859  28.075  1.00  0.00     0.010 A 
ATOM     36  C   UNL A   1      41.226  25.065  27.478  1.00  0.00    -0.014 A 
BRANCH  36  37
ATOM     37  C   UNL A   1      41.932  26.328  27.775  1.00  0.00     0.031 A 
ATOM     38  C   UNL A   1      41.232  27.380  28.578  1.00  0.00     0.074 A 
ATOM     39  C   UNL A   1      43.194  26.501  27.350  1.00  0.00     0.049 A 
ATOM     40  N   UNL A   1      41.626  28.590  28.880  1.00  0.00    -0.248 NA
ATOM     41  C   UNL A   1      39.908  27.024  29.113  1.00  0.00     0.031 C 
ATOM     42  C   UNL A   1      43.978  25.511  26.611  1.00  0.00     0.029 A 
ATOM     43  N   UNL A   1      44.038  27.572  27.478  1.00  0.00    -0.354 N 
ATOM     44  C   UNL A   1      40.590  29.146  29.618  1.00  0.00     0.074 A 
ATOM     45  C   UNL A   1      39.545  28.150  29.708  1.00  0.00     0.031 C 
ATOM     46  C   UNL A   1      45.188  26.027  26.340  1.00  0.00     0.029 A 
ATOM     47  C   UNL A   1      45.244  27.395  26.848  1.00  0.00     0.049 A 
ATOM     48  H   UNL A   1      43.802  28.390  27.972  1.00  0.00     0.167 HD
ATOM     49  C   UNL A   1      40.528  30.380  30.168  1.00  0.00     0.037 A 
ATOM     50  C   UNL A   1      46.262  28.258  26.676  1.00  0.00     0.037 A 
ATOM     51  C   UNL A   1      41.585  31.353  30.080  1.00  0.00     0.049 A 
ATOM     52  C   UNL A   1      46.143  29.642  27.255  1.00  0.00     0.074 A 
ATOM     53  C   UNL A   1      41.632  32.629  30.611  1.00  0.00     0.029 A 
ATOM     54  N   UNL A   1      42.785  31.151  29.413  1.00  0.00    -0.354 N 
ATOM     55  N   UNL A   1      45.159  30.169  27.946  1.00  0.00    -0.248 NA
ATOM     56  C   UNL A   1      47.272  30.552  27.029  1.00  0.00     0.031 C 
ATOM     57  C   UNL A   1      42.843  33.216  30.227  1.00  0.00     0.029 A 
ATOM     58  C   UNL A   1      43.571  32.288  29.499  1.00  0.00     0.049 A 
ATOM     59  H   UNL A   1      43.040  30.322  28.947  1.00  0.00     0.167 HD
ATOM     60  C   UNL A   1      45.557  31.463  28.249  1.00  0.00     0.074 A 
ATOM     61  C   UNL A   1      46.882  31.632  27.688  1.00  0.00     0.031 C 
ATOM     62  C   UNL A   1      44.887  32.429  28.926  1.00  0.00     0.037 A 
BRANCH  49  63
ATOM     63  C   UNL A   1      39.261  30.758  30.879  1.00  0.00     0.064 A 
ATOM     64  C   UNL A   1      38.183  31.351  30.208  1.00  0.00     0.173 A 
ATOM     65  C   UNL A   1      39.120  30.501  32.251  1.00  0.00     0.173 A 
ATOM     66  F   UNL A   1      38.276  31.636  28.900  1.00  0.00    -0.203 F 
ATOM     67  C   UNL A   1      37.017  31.695  30.888  1.00  0.00     0.198 A 
ATOM     68  C   UNL A   1      37.943  30.820  32.923  1.00  0.00     0.198 A 
ATOM     69  F   UNL A   1      40.122  29.936  32.941  1.00  0.00    -0.203 F 
ATOM     70  F   UNL A   1      36.016  32.301  30.236  1.00  0.00    -0.200 F 
ATOM     71  C   UNL A   1      36.895  31.422  32.242  1.00  0.00     0.200 A 
ATOM     72  F   UNL A   1      37.823  30.548  34.230  1.00  0.00    -0.200 F 
ATOM     73  F   UNL A   1      35.770  31.746  32.895  1.00  0.00    -0.200 F 
ENDBRANCH  49  63
BRANCH  50  74
ATOM     74  C   UNL A   1      47.463  27.848  25.903  1.00  0.00     0.064 A 
ATOM     75  C   UNL A   1      47.449  27.824  24.503  1.00  0.00     0.173 A 
ATOM     76  C   UNL A   1      48.646  27.462  26.551  1.00  0.00     0.173 A 
ATOM     77  F   UNL A   1      46.333  28.161  23.838  1.00  0.00    -0.203 F 
ATOM     78  C   UNL A   1      48.566  27.414  23.779  1.00  0.00     0.198 A 
ATOM     79  C   UNL A   1      49.772  27.080  25.826  1.00  0.00     0.198 A 
ATOM     80  F   UNL A   1      48.712  27.466  27.891  1.00  0.00    -0.203 F 
ATOM     81  F   UNL A   1      48.510  27.356  22.442  1.00  0.00    -0.200 F 
ATOM     82  C   UNL A   1      49.730  27.048  24.440  1.00  0.00     0.200 A 
ATOM     83  F   UNL A   1      50.898  26.742  26.469  1.00  0.00    -0.200 F 
ATOM     84  F   UNL A   1      50.805  26.657  23.743  1.00  0.00    -0.200 F 
ENDBRANCH  50  74
BRANCH  62  85
ATOM     85  C   UNL A   1      45.592  33.741  29.108  1.00  0.00     0.064 A 
ATOM     86  C   UNL A   1      45.474  34.775  28.168  1.00  0.00     0.173 A 
ATOM     87  C   UNL A   1      46.380  33.973  30.246  1.00  0.00     0.173 A 
ATOM     88  F   UNL A   1      44.745  34.596  27.055  1.00  0.00    -0.203 F 
ATOM     89  C   UNL A   1      46.147  35.980  28.343  1.00  0.00     0.198 A 
ATOM     90  C   UNL A   1      47.026  35.191  30.433  1.00  0.00     0.198 A 
ATOM     91  F   UNL A   1      46.518  33.018  31.178  1.00  0.00    -0.203 F 
ATOM     92  F   UNL A   1      46.068  36.933  27.403  1.00  0.00    -0.200 F 
ATOM     93  C   UNL A   1      46.916  36.190  29.478  1.00  0.00     0.200 A 
ATOM     94  F   UNL A   1      47.758  35.396  31.536  1.00  0.00    -0.200 F 
ATOM     95  F   UNL A   1      47.564  37.351  29.645  1.00  0.00    -0.200 F 
ENDBRANCH  62  85
ENDBRANCH  36  37
ENDBRANCH  29  31
ENDBRANCH  28  29
ENDBRANCH  27  28
ENDBRANCH   1  27
TORSDOF 17
ENDMDL
MODEL 3
REMARK VINA RESULT:     -12.0      4.198      7.135
REMARK SMILES O=C(C[C@@H](C[NH+]1CCCCC1)C(=O)OCCOC(=O)c1ccc(-c2c3nc(c(-c4c(F)c(F)c(F)c(F)c4F)c4ccc([nH]4)c(-c4c(F)c(F)c(F)c(F)c4F)c4nc(c(-c5c(F)c(F)c(F)c(F)c5F)c5ccc2[nH]5)C=C4)C=C3)cc1)Nc1ccccc1O
REMARK SMILES IDX 15 1 14 2 12 3 13 4 4 5 3 6 2 7 1 8 83 9 84 11 85 12 89 13
REMARK SMILES IDX 86 14 88 15 87 16 90 17 5 19 6 20 7 21 11 22 8 24 10 25 9 26
REMARK SMILES IDX 16 27 17 28 18 29 19 30 20 31 21 32 82 33 22 34 81 35 23 36
REMARK SMILES IDX 24 37 25 38 75 39 26 40 80 41 74 42 76 43 27 44 79 45 73 46
REMARK SMILES IDX 72 47 28 49 60 50 40 51 59 52 41 53 44 54 58 55 77 56 42 57
REMARK SMILES IDX 43 58 57 60 78 61 45 62 29 63 30 64 38 65 31 66 32 67 36 68
REMARK SMILES IDX 39 69 33 70 34 71 37 72 35 73 61 74 62 75 70 76 63 77 64 78
REMARK SMILES IDX 68 79 71 80 65 81 66 82 69 83 67 84 46 85 47 86 55 87 48 88
REMARK SMILES IDX 49 89 53 90 56 91 50 92 51 93 54 94 52 95
REMARK H PARENT 83 10 90 18 6 23 76 48 44 59
REMARK Flexibility Score: inf
ROOT
ATOM      1  C   UNL A   1      36.338  20.030  25.021  1.00  0.00     0.274 C 
ENDROOT
BRANCH   1   2
ATOM      2  O   UNL A   1      35.393  20.997  24.515  1.00  0.00    -0.462 OA
BRANCH   2   3
ATOM      3  C   UNL A   1      34.390  21.403  25.332  1.00  0.00     0.315 C 
ATOM      4  O   UNL A   1      34.488  21.548  26.545  1.00  0.00    -0.252 OA
BRANCH   3   5
ATOM      5  C   UNL A   1      33.065  21.570  24.591  1.00  0.00     0.163 C 
BRANCH   5   6
ATOM      6  C   UNL A   1      33.232  22.270  23.237  1.00  0.00     0.121 C 
BRANCH   6   7
ATOM      7  C   UNL A   1      33.898  23.644  23.166  1.00  0.00     0.225 C 
ATOM      8  O   UNL A   1      34.967  23.759  22.565  1.00  0.00    -0.275 OA
ATOM      9  N   UNL A   1      33.229  24.702  23.723  1.00  0.00    -0.323 N 
ATOM     10  H   UNL A   1      32.480  24.460  24.314  1.00  0.00     0.170 HD
BRANCH   9  11
ATOM     11  C   UNL A   1      33.457  26.097  23.575  1.00  0.00     0.083 A 
ATOM     12  C   UNL A   1      33.542  26.814  24.784  1.00  0.00     0.030 A 
ATOM     13  C   UNL A   1      33.546  26.827  22.380  1.00  0.00     0.139 A 
ATOM     14  C   UNL A   1      33.719  28.200  24.804  1.00  0.00     0.002 A 
ATOM     15  C   UNL A   1      33.711  28.217  22.402  1.00  0.00     0.048 A 
ATOM     16  C   UNL A   1      33.802  28.904  23.609  1.00  0.00     0.004 A 
BRANCH  13  17
ATOM     17  O   UNL A   1      33.450  26.306  21.123  1.00  0.00    -0.506 OA
ATOM     18  H   UNL A   1      32.783  26.609  20.539  1.00  0.00     0.293 HD
ENDBRANCH  13  17
ENDBRANCH   9  11
ENDBRANCH   6   7
ENDBRANCH   5   6
BRANCH   5  19
ATOM     19  C   UNL A   1      32.306  20.218  24.642  1.00  0.00     0.278 C 
BRANCH  19  20
ATOM     20  N   UNL A   1      33.002  18.928  24.578  1.00  0.00    -0.334 N 
ATOM     21  C   UNL A   1      32.773  18.034  25.715  1.00  0.00     0.262 C 
ATOM     22  C   UNL A   1      32.896  18.265  23.280  1.00  0.00     0.262 C 
ATOM     23  H   UNL A   1      33.984  19.186  24.673  1.00  0.00     0.348 HD
ATOM     24  C   UNL A   1      33.622  16.761  25.640  1.00  0.00     0.062 C 
ATOM     25  C   UNL A   1      33.803  17.047  23.174  1.00  0.00     0.062 C 
ATOM     26  C   UNL A   1      33.477  16.065  24.290  1.00  0.00     0.012 C 
ENDBRANCH  19  20
ENDBRANCH   5  19
ENDBRANCH   3   5
ENDBRANCH   2   3
ENDBRANCH   1   2
BRANCH   1  27
ATOM     27  C   UNL A   1      37.775  20.497  24.792  1.00  0.00     0.275 C 
BRANCH  27  28
ATOM     28  O   UNL A   1      38.138  21.464  25.789  1.00  0.00    -0.458 OA
BRANCH  28  29
ATOM     29  C   UNL A   1      39.350  21.253  26.353  1.00  0.00     0.338 C 
ATOM     30  O   UNL A   1      40.005  20.229  26.354  1.00  0.00    -0.246 OA
BRANCH  29  31
ATOM     31  C   UNL A   1      39.879  22.551  26.789  1.00  0.00     0.060 A 
ATOM     32  C   UNL A   1      39.374  23.697  26.171  1.00  0.00     0.016 A 
ATOM     33  C   UNL A   1      40.864  22.641  27.772  1.00  0.00     0.016 A 
ATOM     34  C   UNL A   1      39.851  24.949  26.526  1.00  0.00     0.010 A 
ATOM     35  C   UNL A   1      41.349  23.899  28.128  1.00  0.00     0.010 A 
ATOM     36  C   UNL A   1      40.850  25.053  27.498  1.00  0.00    -0.014 A 
BRANCH  36  37
ATOM     37  C   UNL A   1      41.426  26.380  27.793  1.00  0.00     0.031 A 
ATOM     38  C   UNL A   1      42.840  26.664  27.391  1.00  0.00     0.074 A 
ATOM     39  C   UNL A   1      40.669  27.319  28.384  1.00  0.00     0.049 A 
ATOM     40  N   UNL A   1      43.572  27.721  27.626  1.00  0.00    -0.248 NA
ATOM     41  C   UNL A   1      43.526  25.613  26.620  1.00  0.00     0.031 C 
ATOM     42  C   UNL A   1      39.264  27.154  28.761  1.00  0.00     0.029 A 
ATOM     43  N   UNL A   1      40.976  28.595  28.775  1.00  0.00    -0.354 N 
ATOM     44  C   UNL A   1      44.809  27.454  27.056  1.00  0.00     0.074 A 
ATOM     45  C   UNL A   1      44.736  26.132  26.474  1.00  0.00     0.031 C 
ATOM     46  C   UNL A   1      38.833  28.288  29.339  1.00  0.00     0.029 A 
ATOM     47  C   UNL A   1      39.943  29.234  29.412  1.00  0.00     0.049 A 
ATOM     48  H   UNL A   1      41.853  29.013  28.614  1.00  0.00     0.167 HD
ATOM     49  C   UNL A   1      45.902  28.251  27.025  1.00  0.00     0.037 A 
ATOM     50  C   UNL A   1      39.913  30.437  30.014  1.00  0.00     0.037 A 
ATOM     51  C   UNL A   1      45.950  29.570  27.597  1.00  0.00     0.049 A 
ATOM     52  C   UNL A   1      41.160  31.279  30.009  1.00  0.00     0.074 A 
ATOM     53  C   UNL A   1      47.003  30.468  27.612  1.00  0.00     0.029 A 
ATOM     54  N   UNL A   1      44.893  30.180  28.258  1.00  0.00    -0.354 N 
ATOM     55  N   UNL A   1      42.331  31.022  29.476  1.00  0.00    -0.248 NA
ATOM     56  C   UNL A   1      41.084  32.577  30.690  1.00  0.00     0.031 C 
ATOM     57  C   UNL A   1      46.596  31.604  28.322  1.00  0.00     0.029 A 
ATOM     58  C   UNL A   1      45.275  31.434  28.706  1.00  0.00     0.049 A 
ATOM     59  H   UNL A   1      44.003  29.780  28.390  1.00  0.00     0.167 HD
ATOM     60  C   UNL A   1      43.124  32.129  29.743  1.00  0.00     0.074 A 
ATOM     61  C   UNL A   1      42.292  33.070  30.465  1.00  0.00     0.031 C 
ATOM     62  C   UNL A   1      44.425  32.348  29.427  1.00  0.00     0.037 A 
BRANCH  49  63
ATOM     63  C   UNL A   1      47.142  27.699  26.385  1.00  0.00     0.064 A 
ATOM     64  C   UNL A   1      48.111  27.004  27.122  1.00  0.00     0.173 A 
ATOM     65  C   UNL A   1      47.351  27.852  25.006  1.00  0.00     0.173 A 
ATOM     66  F   UNL A   1      47.967  26.848  28.447  1.00  0.00    -0.203 F 
ATOM     67  C   UNL A   1      49.255  26.501  26.507  1.00  0.00     0.198 A 
ATOM     68  C   UNL A   1      48.482  27.325  24.389  1.00  0.00     0.198 A 
ATOM     69  F   UNL A   1      46.455  28.510  24.255  1.00  0.00    -0.203 F 
ATOM     70  F   UNL A   1      50.189  25.879  27.239  1.00  0.00    -0.200 F 
ATOM     71  C   UNL A   1      49.436  26.655  25.141  1.00  0.00     0.200 A 
ATOM     72  F   UNL A   1      48.651  27.467  23.067  1.00  0.00    -0.200 F 
ATOM     73  F   UNL A   1      50.534  26.165  24.549  1.00  0.00    -0.200 F 
ENDBRANCH  49  63
BRANCH  50  74
ATOM     74  C   UNL A   1      38.674  30.900  30.691  1.00  0.00     0.064 A 
ATOM     75  C   UNL A   1      37.637  31.504  29.970  1.00  0.00     0.173 A 
ATOM     76  C   UNL A   1      38.508  30.755  32.076  1.00  0.00     0.173 A 
ATOM     77  F   UNL A   1      37.759  31.685  28.646  1.00  0.00    -0.203 F 
ATOM     78  C   UNL A   1      36.487  31.962  30.609  1.00  0.00     0.198 A 
ATOM     79  C   UNL A   1      37.346  31.187  32.711  1.00  0.00     0.198 A 
ATOM     80  F   UNL A   1      39.472  30.184  32.814  1.00  0.00    -0.203 F 
ATOM     81  F   UNL A   1      35.531  32.577  29.903  1.00  0.00    -0.200 F 
ATOM     82  C   UNL A   1      36.339  31.797  31.979  1.00  0.00     0.200 A 
ATOM     83  F   UNL A   1      37.202  31.013  34.033  1.00  0.00    -0.200 F 
ATOM     84  F   UNL A   1      35.232  32.235  32.593  1.00  0.00    -0.200 F 
ENDBRANCH  50  74
BRANCH  62  85
ATOM     85  C   UNL A   1      45.011  33.665  29.846  1.00  0.00     0.064 A 
ATOM     86  C   UNL A   1      44.942  34.796  29.019  1.00  0.00     0.173 A 
ATOM     87  C   UNL A   1      45.632  33.800  31.097  1.00  0.00     0.173 A 
ATOM     88  F   UNL A   1      44.372  34.712  27.807  1.00  0.00    -0.203 F 
ATOM     89  C   UNL A   1      45.503  36.005  29.415  1.00  0.00     0.198 A 
ATOM     90  C   UNL A   1      46.164  35.020  31.503  1.00  0.00     0.198 A 
ATOM     91  F   UNL A   1      45.716  32.750  31.927  1.00  0.00    -0.203 F 
ATOM     92  F   UNL A   1      45.478  37.058  28.585  1.00  0.00    -0.200 F 
ATOM     93  C   UNL A   1      46.108  36.119  30.658  1.00  0.00     0.200 A 
ATOM     94  F   UNL A   1      46.737  35.132  32.709  1.00  0.00    -0.200 F 
ATOM     95  F   UNL A   1      46.648  37.285  31.038  1.00  0.00    -0.200 F 
ENDBRANCH  62  85
ENDBRANCH  36  37
ENDBRANCH  29  31
ENDBRANCH  28  29
ENDBRANCH  27  28
ENDBRANCH   1  27
TORSDOF 17
ENDMDL
