MODEL 1
REMARK VINA RESULT:     -11.9      0.000      0.000
REMARK SMILES O=C(CSc1nc2ccc(Cl)cc2c(=O)n1CC1CCCCC1)OCCOC(=O)c1ccc(-c2c3nc(c(-c4c(F)c(F)c(F)c(F)c4F)c4ccc([nH]4)c(-c4c(F)c(F)c(F)c(F)c4F)c4nc(c(-c5c(F)c(F)c(F)c(F)c5F)c5ccc2[nH]5)C=C4)C=C3)cc1
REMARK SMILES IDX 25 1 24 2 2 3 1 4 3 5 4 6 5 7 6 8 16 9 7 10 14 11 8 12 13 13
REMARK SMILES IDX 15 14 9 15 12 16 10 17 11 18 17 19 18 20 19 21 23 22 20 23
REMARK SMILES IDX 22 24 21 25 26 26 27 27 28 28 29 29 30 30 31 31 92 32 32 33
REMARK SMILES IDX 91 34 33 35 34 36 35 37 85 38 36 39 90 40 84 41 86 42 37 43
REMARK SMILES IDX 89 44 83 45 82 46 38 48 70 49 50 50 69 51 51 52 54 53 68 54
REMARK SMILES IDX 87 55 52 56 53 57 67 59 88 60 55 61 39 62 40 63 48 64 41 65
REMARK SMILES IDX 42 66 46 67 49 68 43 69 44 70 47 71 45 72 71 73 72 74 80 75
REMARK SMILES IDX 73 76 74 77 78 78 81 79 75 80 76 81 79 82 77 83 56 84 57 85
REMARK SMILES IDX 65 86 58 87 59 88 63 89 66 90 60 91 61 92 64 93 62 94
REMARK H PARENT 86 47 54 58
REMARK Flexibility Score: inf
ROOT
ATOM      1  C   UNL A   1      38.983  20.230  25.368  1.00  0.00     0.274 C 
ENDROOT
BRANCH   1   2
ATOM      2  O   UNL A   1      39.042  21.559  25.937  1.00  0.00    -0.461 OA
BRANCH   2   3
ATOM      3  C   UNL A   1      38.103  22.521  25.772  1.00  0.00     0.316 C 
ATOM      4  O   UNL A   1      38.201  23.592  26.367  1.00  0.00    -0.251 OA
BRANCH   3   5
ATOM      5  C   UNL A   1      36.881  22.204  24.955  1.00  0.00     0.200 C 
BRANCH   5   6
ATOM      6  S   UNL A   1      35.467  21.631  25.883  1.00  0.00    -0.076 SA
BRANCH   6   7
ATOM      7  C   UNL A   1      34.170  22.662  25.321  1.00  0.00     0.171 A 
ATOM      8  N   UNL A   1      34.498  23.906  25.194  1.00  0.00    -0.224 NA
ATOM      9  N   UNL A   1      32.980  22.111  24.868  1.00  0.00    -0.287 N 
ATOM     10  C   UNL A   1      33.602  24.762  24.552  1.00  0.00     0.079 A 
ATOM     11  C   UNL A   1      32.263  22.827  23.915  1.00  0.00     0.262 A 
ATOM     12  C   UNL A   1      33.863  26.132  24.518  1.00  0.00     0.031 A 
ATOM     13  C   UNL A   1      32.501  24.273  23.859  1.00  0.00     0.067 A 
ATOM     14  O   UNL A   1      31.506  22.318  23.093  1.00  0.00    -0.269 OA
ATOM     15  C   UNL A   1      33.029  26.991  23.795  1.00  0.00     0.023 A 
ATOM     16  C   UNL A   1      31.660  25.115  23.126  1.00  0.00     0.036 A 
ATOM     17  C   UNL A   1      31.934  26.478  23.100  1.00  0.00     0.042 A 
ATOM     18  Cl  UNL A   1      30.921  27.533  22.197  1.00  0.00    -0.084 Cl
BRANCH   9  19
ATOM     19  C   UNL A   1      32.531  20.736  25.110  1.00  0.00     0.131 C 
BRANCH  19  20
ATOM     20  C   UNL A   1      33.158  19.620  24.223  1.00  0.00     0.009 C 
ATOM     21  C   UNL A   1      33.948  18.563  25.008  1.00  0.00     0.005 C 
ATOM     22  C   UNL A   1      32.156  18.934  23.280  1.00  0.00     0.005 C 
ATOM     23  C   UNL A   1      34.625  17.553  24.079  1.00  0.00     0.000 C 
ATOM     24  C   UNL A   1      32.848  17.947  22.341  1.00  0.00     0.000 C 
ATOM     25  C   UNL A   1      33.633  16.901  23.124  1.00  0.00     0.000 C 
ENDBRANCH  19  20
ENDBRANCH   9  19
ENDBRANCH   6   7
ENDBRANCH   5   6
ENDBRANCH   3   5
ENDBRANCH   2   3
ENDBRANCH   1   2
BRANCH   1  26
ATOM     26  C   UNL A   1      39.880  19.249  26.133  1.00  0.00     0.275 C 
BRANCH  26  27
ATOM     27  O   UNL A   1      41.090  18.992  25.393  1.00  0.00    -0.458 OA
BRANCH  27  28
ATOM     28  C   UNL A   1      42.246  18.966  26.107  1.00  0.00     0.338 C 
ATOM     29  O   UNL A   1      42.972  18.010  26.277  1.00  0.00    -0.246 OA
BRANCH  28  30
ATOM     30  C   UNL A   1      42.619  20.361  26.469  1.00  0.00     0.060 A 
ATOM     31  C   UNL A   1      42.487  20.861  27.770  1.00  0.00     0.016 A 
ATOM     32  C   UNL A   1      43.033  21.213  25.437  1.00  0.00     0.016 A 
ATOM     33  C   UNL A   1      42.752  22.210  28.032  1.00  0.00     0.010 A 
ATOM     34  C   UNL A   1      43.280  22.564  25.696  1.00  0.00     0.010 A 
ATOM     35  C   UNL A   1      43.139  23.074  26.996  1.00  0.00    -0.014 A 
BRANCH  35  36
ATOM     36  C   UNL A   1      43.486  24.487  27.280  1.00  0.00     0.031 A 
ATOM     37  C   UNL A   1      44.857  25.034  27.017  1.00  0.00     0.074 A 
ATOM     38  C   UNL A   1      42.543  25.287  27.805  1.00  0.00     0.049 A 
ATOM     39  N   UNL A   1      45.339  26.228  27.253  1.00  0.00    -0.248 NA
ATOM     40  C   UNL A   1      45.820  24.102  26.427  1.00  0.00     0.031 C 
ATOM     41  C   UNL A   1      41.172  24.880  28.102  1.00  0.00     0.029 A 
ATOM     42  N   UNL A   1      42.597  26.607  28.171  1.00  0.00    -0.354 N 
ATOM     43  C   UNL A   1      46.673  26.184  26.868  1.00  0.00     0.074 A 
ATOM     44  C   UNL A   1      46.928  24.831  26.414  1.00  0.00     0.031 C 
ATOM     45  C   UNL A   1      40.504  25.937  28.586  1.00  0.00     0.029 A 
ATOM     46  C   UNL A   1      41.404  27.087  28.643  1.00  0.00     0.049 A 
ATOM     47  H   UNL A   1      43.411  27.155  28.101  1.00  0.00     0.167 HD
ATOM     48  C   UNL A   1      47.588  27.185  26.867  1.00  0.00     0.037 A 
ATOM     49  C   UNL A   1      41.067  28.323  29.055  1.00  0.00     0.037 A 
ATOM     50  C   UNL A   1      47.308  28.545  27.258  1.00  0.00     0.049 A 
ATOM     51  C   UNL A   1      42.083  29.425  29.019  1.00  0.00     0.074 A 
ATOM     52  C   UNL A   1      48.148  29.645  27.221  1.00  0.00     0.029 A 
ATOM     53  N   UNL A   1      46.089  28.995  27.745  1.00  0.00    -0.354 N 
ATOM     54  N   UNL A   1      43.335  29.383  28.636  1.00  0.00    -0.248 NA
ATOM     55  C   UNL A   1      41.632  30.751  29.461  1.00  0.00     0.031 C 
ATOM     56  C   UNL A   1      47.448  30.753  27.712  1.00  0.00     0.029 A 
ATOM     57  C   UNL A   1      46.157  30.354  28.017  1.00  0.00     0.049 A 
ATOM     58  H   UNL A   1      45.292  28.432  27.878  1.00  0.00     0.167 HD
ATOM     59  C   UNL A   1      43.819  30.677  28.773  1.00  0.00     0.074 A 
ATOM     60  C   UNL A   1      42.719  31.485  29.260  1.00  0.00     0.031 C 
ATOM     61  C   UNL A   1      45.064  31.150  28.516  1.00  0.00     0.037 A 
BRANCH  48  62
ATOM     62  C   UNL A   1      48.984  26.860  26.410  1.00  0.00     0.064 A 
ATOM     63  C   UNL A   1      49.941  26.329  27.286  1.00  0.00     0.173 A 
ATOM     64  C   UNL A   1      49.349  27.019  25.063  1.00  0.00     0.173 A 
ATOM     65  F   UNL A   1      49.646  26.158  28.585  1.00  0.00    -0.203 F 
ATOM     66  C   UNL A   1      51.218  25.995  26.841  1.00  0.00     0.198 A 
ATOM     67  C   UNL A   1      50.617  26.653  24.614  1.00  0.00     0.198 A 
ATOM     68  F   UNL A   1      48.469  27.506  24.176  1.00  0.00    -0.203 F 
ATOM     69  F   UNL A   1      52.126  25.526  27.709  1.00  0.00    -0.200 F 
ATOM     70  C   UNL A   1      51.552  26.148  25.505  1.00  0.00     0.200 A 
ATOM     71  F   UNL A   1      50.929  26.778  23.317  1.00  0.00    -0.200 F 
ATOM     72  F   UNL A   1      52.775  25.806  25.075  1.00  0.00    -0.200 F 
ENDBRANCH  48  62
BRANCH  49  73
ATOM     73  C   UNL A   1      39.663  28.579  29.451  1.00  0.00     0.064 A 
ATOM     74  C   UNL A   1      39.259  28.382  30.777  1.00  0.00     0.173 A 
ATOM     75  C   UNL A   1      38.730  29.101  28.546  1.00  0.00     0.173 A 
ATOM     76  F   UNL A   1      40.121  27.875  31.671  1.00  0.00    -0.203 F 
ATOM     77  C   UNL A   1      37.970  28.708  31.188  1.00  0.00     0.198 A 
ATOM     78  C   UNL A   1      37.446  29.443  28.961  1.00  0.00     0.198 A 
ATOM     79  F   UNL A   1      39.081  29.316  27.268  1.00  0.00    -0.203 F 
ATOM     80  F   UNL A   1      37.604  28.507  32.461  1.00  0.00    -0.200 F 
ATOM     81  C   UNL A   1      37.067  29.247  30.282  1.00  0.00     0.200 A 
ATOM     82  F   UNL A   1      36.583  29.980  28.089  1.00  0.00    -0.200 F 
ATOM     83  F   UNL A   1      35.835  29.583  30.684  1.00  0.00    -0.200 F 
ENDBRANCH  49  73
BRANCH  61  84
ATOM     84  C   UNL A   1      45.305  32.613  28.748  1.00  0.00     0.064 A 
ATOM     85  C   UNL A   1      45.825  33.086  29.961  1.00  0.00     0.173 A 
ATOM     86  C   UNL A   1      45.043  33.549  27.736  1.00  0.00     0.173 A 
ATOM     87  F   UNL A   1      46.078  32.233  30.966  1.00  0.00    -0.203 F 
ATOM     88  C   UNL A   1      46.052  34.446  30.163  1.00  0.00     0.198 A 
ATOM     89  C   UNL A   1      45.296  34.905  27.931  1.00  0.00     0.198 A 
ATOM     90  F   UNL A   1      44.550  33.149  26.554  1.00  0.00    -0.203 F 
ATOM     91  F   UNL A   1      46.508  34.879  31.346  1.00  0.00    -0.200 F 
ATOM     92  C   UNL A   1      45.793  35.352  29.146  1.00  0.00     0.200 A 
ATOM     93  F   UNL A   1      45.054  35.780  26.945  1.00  0.00    -0.200 F 
ATOM     94  F   UNL A   1      46.014  36.660  29.341  1.00  0.00    -0.200 F 
ENDBRANCH  61  84
ENDBRANCH  35  36
ENDBRANCH  28  30
ENDBRANCH  27  28
ENDBRANCH  26  27
ENDBRANCH   1  26
TORSDOF 15
ENDMDL
MODEL 2
REMARK VINA RESULT:     -11.9      5.373     10.870
REMARK SMILES O=C(CSc1nc2ccc(Cl)cc2c(=O)n1CC1CCCCC1)OCCOC(=O)c1ccc(-c2c3nc(c(-c4c(F)c(F)c(F)c(F)c4F)c4ccc([nH]4)c(-c4c(F)c(F)c(F)c(F)c4F)c4nc(c(-c5c(F)c(F)c(F)c(F)c5F)c5ccc2[nH]5)C=C4)C=C3)cc1
REMARK SMILES IDX 25 1 24 2 2 3 1 4 3 5 4 6 5 7 6 8 16 9 7 10 14 11 8 12 13 13
REMARK SMILES IDX 15 14 9 15 12 16 10 17 11 18 17 19 18 20 19 21 23 22 20 23
REMARK SMILES IDX 22 24 21 25 26 26 27 27 28 28 29 29 30 30 31 31 92 32 32 33
REMARK SMILES IDX 91 34 33 35 34 36 35 37 85 38 36 39 90 40 84 41 86 42 37 43
REMARK SMILES IDX 89 44 83 45 82 46 38 48 70 49 50 50 69 51 51 52 54 53 68 54
REMARK SMILES IDX 87 55 52 56 53 57 67 59 88 60 55 61 39 62 40 63 48 64 41 65
REMARK SMILES IDX 42 66 46 67 49 68 43 69 44 70 47 71 45 72 71 73 72 74 80 75
REMARK SMILES IDX 73 76 74 77 78 78 81 79 75 80 76 81 79 82 77 83 56 84 57 85
REMARK SMILES IDX 65 86 58 87 59 88 63 89 66 90 60 91 61 92 64 93 62 94
REMARK H PARENT 86 47 54 58
REMARK Flexibility Score: inf
ROOT
ATOM      1  C   UNL A   1      31.811  31.176  26.491  1.00  0.00     0.274 C 
ENDROOT
BRANCH   1   2
ATOM      2  O   UNL A   1      32.716  30.354  27.264  1.00  0.00    -0.461 OA
BRANCH   2   3
ATOM      3  C   UNL A   1      32.904  29.023  27.092  1.00  0.00     0.316 C 
ATOM      4  O   UNL A   1      32.247  28.214  27.744  1.00  0.00    -0.251 OA
BRANCH   3   5
ATOM      5  C   UNL A   1      34.017  28.563  26.191  1.00  0.00     0.200 C 
BRANCH   5   6
ATOM      6  S   UNL A   1      33.641  28.569  24.445  1.00  0.00    -0.076 SA
BRANCH   6   7
ATOM      7  C   UNL A   1      32.991  26.969  24.167  1.00  0.00     0.171 A 
ATOM      8  N   UNL A   1      33.876  26.084  23.845  1.00  0.00    -0.224 NA
ATOM      9  N   UNL A   1      31.670  26.683  24.482  1.00  0.00    -0.287 N 
ATOM     10  C   UNL A   1      33.489  24.743  23.815  1.00  0.00     0.079 A 
ATOM     11  C   UNL A   1      31.362  25.371  24.827  1.00  0.00     0.262 A 
ATOM     12  C   UNL A   1      34.380  23.780  23.341  1.00  0.00     0.031 A 
ATOM     13  C   UNL A   1      32.269  24.328  24.335  1.00  0.00     0.067 A 
ATOM     14  O   UNL A   1      30.429  25.048  25.558  1.00  0.00    -0.269 OA
ATOM     15  C   UNL A   1      34.046  22.423  23.395  1.00  0.00     0.023 A 
ATOM     16  C   UNL A   1      31.920  22.977  24.404  1.00  0.00     0.036 A 
ATOM     17  C   UNL A   1      32.819  22.028  23.930  1.00  0.00     0.042 A 
ATOM     18  Cl  UNL A   1      32.419  20.358  24.013  1.00  0.00    -0.084 Cl
BRANCH   9  19
ATOM     19  C   UNL A   1      30.619  27.675  24.728  1.00  0.00     0.131 C 
BRANCH  19  20
ATOM     20  C   UNL A   1      29.881  28.249  23.483  1.00  0.00     0.009 C 
ATOM     21  C   UNL A   1      28.351  28.265  23.611  1.00  0.00     0.005 C 
ATOM     22  C   UNL A   1      30.386  29.631  23.039  1.00  0.00     0.005 C 
ATOM     23  C   UNL A   1      27.677  28.741  22.322  1.00  0.00     0.000 C 
ATOM     24  C   UNL A   1      29.724  30.084  21.738  1.00  0.00     0.000 C 
ATOM     25  C   UNL A   1      28.205  30.097  21.869  1.00  0.00     0.000 C 
ENDBRANCH  19  20
ENDBRANCH   9  19
ENDBRANCH   6   7
ENDBRANCH   5   6
ENDBRANCH   3   5
ENDBRANCH   2   3
ENDBRANCH   1   2
BRANCH   1  26
ATOM     26  C   UNL A   1      31.760  32.613  27.024  1.00  0.00     0.275 C 
BRANCH  26  27
ATOM     27  O   UNL A   1      33.069  33.214  26.973  1.00  0.00    -0.458 OA
BRANCH  27  28
ATOM     28  C   UNL A   1      33.414  34.008  28.021  1.00  0.00     0.338 C 
ATOM     29  O   UNL A   1      32.774  34.936  28.469  1.00  0.00    -0.246 OA
BRANCH  28  30
ATOM     30  C   UNL A   1      34.603  33.422  28.697  1.00  0.00     0.060 A 
ATOM     31  C   UNL A   1      35.906  33.872  28.452  1.00  0.00     0.016 A 
ATOM     32  C   UNL A   1      34.397  32.323  29.541  1.00  0.00     0.016 A 
ATOM     33  C   UNL A   1      36.996  33.215  29.035  1.00  0.00     0.010 A 
ATOM     34  C   UNL A   1      35.486  31.656  30.108  1.00  0.00     0.010 A 
ATOM     35  C   UNL A   1      36.795  32.096  29.857  1.00  0.00    -0.014 A 
BRANCH  35  36
ATOM     36  C   UNL A   1      37.940  31.438  30.531  1.00  0.00     0.031 A 
ATOM     37  C   UNL A   1      38.284  31.719  31.962  1.00  0.00     0.074 A 
ATOM     38  C   UNL A   1      38.695  30.581  29.823  1.00  0.00     0.049 A 
ATOM     39  N   UNL A   1      39.278  31.268  32.686  1.00  0.00    -0.248 NA
ATOM     40  C   UNL A   1      37.401  32.651  32.667  1.00  0.00     0.031 C 
ATOM     41  C   UNL A   1      38.463  30.217  28.428  1.00  0.00     0.029 A 
ATOM     42  N   UNL A   1      39.801  29.858  30.188  1.00  0.00    -0.354 N 
ATOM     43  C   UNL A   1      39.157  31.884  33.925  1.00  0.00     0.074 A 
ATOM     44  C   UNL A   1      38.011  32.767  33.839  1.00  0.00     0.031 C 
ATOM     45  C   UNL A   1      39.387  29.320  28.057  1.00  0.00     0.029 A 
ATOM     46  C   UNL A   1      40.279  29.057  29.184  1.00  0.00     0.049 A 
ATOM     47  H   UNL A   1      40.210  29.908  31.081  1.00  0.00     0.167 HD
ATOM     48  C   UNL A   1      39.915  31.708  35.036  1.00  0.00     0.037 A 
ATOM     49  C   UNL A   1      41.309  28.191  29.180  1.00  0.00     0.037 A 
ATOM     50  C   UNL A   1      41.014  30.779  35.134  1.00  0.00     0.049 A 
ATOM     51  C   UNL A   1      42.117  27.986  30.427  1.00  0.00     0.074 A 
ATOM     52  C   UNL A   1      41.794  30.475  36.238  1.00  0.00     0.029 A 
ATOM     53  N   UNL A   1      41.482  29.991  34.092  1.00  0.00    -0.354 N 
ATOM     54  N   UNL A   1      41.988  28.556  31.599  1.00  0.00    -0.248 NA
ATOM     55  C   UNL A   1      43.209  27.006  30.350  1.00  0.00     0.031 C 
ATOM     56  C   UNL A   1      42.750  29.527  35.856  1.00  0.00     0.029 A 
ATOM     57  C   UNL A   1      42.542  29.207  34.525  1.00  0.00     0.049 A 
ATOM     58  H   UNL A   1      41.115  29.989  33.178  1.00  0.00     0.167 HD
ATOM     59  C   UNL A   1      42.967  27.993  32.406  1.00  0.00     0.074 A 
ATOM     60  C   UNL A   1      43.673  27.025  31.592  1.00  0.00     0.031 C 
ATOM     61  C   UNL A   1      43.251  28.256  33.706  1.00  0.00     0.037 A 
BRANCH  48  62
ATOM     62  C   UNL A   1      39.576  32.522  36.255  1.00  0.00     0.064 A 
ATOM     63  C   UNL A   1      40.230  33.730  36.540  1.00  0.00     0.173 A 
ATOM     64  C   UNL A   1      38.536  32.125  37.112  1.00  0.00     0.173 A 
ATOM     65  F   UNL A   1      41.232  34.156  35.755  1.00  0.00    -0.203 F 
ATOM     66  C   UNL A   1      39.878  34.494  37.650  1.00  0.00     0.198 A 
ATOM     67  C   UNL A   1      38.164  32.909  38.203  1.00  0.00     0.198 A 
ATOM     68  F   UNL A   1      37.864  30.989  36.878  1.00  0.00    -0.203 F 
ATOM     69  F   UNL A   1      40.547  35.624  37.921  1.00  0.00    -0.200 F 
ATOM     70  C   UNL A   1      38.840  34.089  38.475  1.00  0.00     0.200 A 
ATOM     71  F   UNL A   1      37.144  32.528  38.983  1.00  0.00    -0.200 F 
ATOM     72  F   UNL A   1      38.490  34.837  39.530  1.00  0.00    -0.200 F 
ENDBRANCH  48  62
BRANCH  49  73
ATOM     73  C   UNL A   1      41.558  27.394  27.958  1.00  0.00     0.064 A 
ATOM     74  C   UNL A   1      42.458  27.853  26.988  1.00  0.00     0.173 A 
ATOM     75  C   UNL A   1      40.977  26.131  27.776  1.00  0.00     0.173 A 
ATOM     76  F   UNL A   1      43.027  29.060  27.123  1.00  0.00    -0.203 F 
ATOM     77  C   UNL A   1      42.776  27.073  25.880  1.00  0.00     0.198 A 
ATOM     78  C   UNL A   1      41.310  25.344  26.676  1.00  0.00     0.198 A 
ATOM     79  F   UNL A   1      40.119  25.649  28.688  1.00  0.00    -0.203 F 
ATOM     80  F   UNL A   1      43.636  27.536  24.964  1.00  0.00    -0.200 F 
ATOM     81  C   UNL A   1      42.209  25.816  25.730  1.00  0.00     0.200 A 
ATOM     82  F   UNL A   1      40.775  24.123  26.543  1.00  0.00    -0.200 F 
ATOM     83  F   UNL A   1      42.535  25.056  24.677  1.00  0.00    -0.200 F 
ENDBRANCH  49  73
BRANCH  61  84
ATOM     84  C   UNL A   1      44.371  27.480  34.336  1.00  0.00     0.064 A 
ATOM     85  C   UNL A   1      45.680  27.980  34.368  1.00  0.00     0.173 A 
ATOM     86  C   UNL A   1      44.126  26.238  34.942  1.00  0.00     0.173 A 
ATOM     87  F   UNL A   1      45.968  29.156  33.790  1.00  0.00    -0.203 F 
ATOM     88  C   UNL A   1      46.710  27.255  34.963  1.00  0.00     0.198 A 
ATOM     89  C   UNL A   1      45.153  25.527  35.558  1.00  0.00     0.198 A 
ATOM     90  F   UNL A   1      42.890  25.717  34.944  1.00  0.00    -0.203 F 
ATOM     91  F   UNL A   1      47.962  27.732  34.942  1.00  0.00    -0.200 F 
ATOM     92  C   UNL A   1      46.445  26.033  35.562  1.00  0.00     0.200 A 
ATOM     93  F   UNL A   1      44.894  24.350  36.145  1.00  0.00    -0.200 F 
ATOM     94  F   UNL A   1      47.436  25.337  36.135  1.00  0.00    -0.200 F 
ENDBRANCH  61  84
ENDBRANCH  35  36
ENDBRANCH  28  30
ENDBRANCH  27  28
ENDBRANCH  26  27
ENDBRANCH   1  26
TORSDOF 15
ENDMDL
MODEL 3
REMARK VINA RESULT:     -11.9      0.330      1.946
REMARK SMILES O=C(CSc1nc2ccc(Cl)cc2c(=O)n1CC1CCCCC1)OCCOC(=O)c1ccc(-c2c3nc(c(-c4c(F)c(F)c(F)c(F)c4F)c4ccc([nH]4)c(-c4c(F)c(F)c(F)c(F)c4F)c4nc(c(-c5c(F)c(F)c(F)c(F)c5F)c5ccc2[nH]5)C=C4)C=C3)cc1
REMARK SMILES IDX 25 1 24 2 2 3 1 4 3 5 4 6 5 7 6 8 16 9 7 10 14 11 8 12 13 13
REMARK SMILES IDX 15 14 9 15 12 16 10 17 11 18 17 19 18 20 19 21 23 22 20 23
REMARK SMILES IDX 22 24 21 25 26 26 27 27 28 28 29 29 30 30 31 31 92 32 32 33
REMARK SMILES IDX 91 34 33 35 34 36 35 37 85 38 36 39 90 40 84 41 86 42 37 43
REMARK SMILES IDX 89 44 83 45 82 46 38 48 70 49 50 50 69 51 51 52 54 53 68 54
REMARK SMILES IDX 87 55 52 56 53 57 67 59 88 60 55 61 39 62 40 63 48 64 41 65
REMARK SMILES IDX 42 66 46 67 49 68 43 69 44 70 47 71 45 72 71 73 72 74 80 75
REMARK SMILES IDX 73 76 74 77 78 78 81 79 75 80 76 81 79 82 77 83 56 84 57 85
REMARK SMILES IDX 65 86 58 87 59 88 63 89 66 90 60 91 61 92 64 93 62 94
REMARK H PARENT 86 47 54 58
REMARK Flexibility Score: inf
ROOT
ATOM      1  C   UNL A   1      38.979  20.503  25.374  1.00  0.00     0.274 C 
ENDROOT
BRANCH   1   2
ATOM      2  O   UNL A   1      38.847  21.745  26.104  1.00  0.00    -0.461 OA
BRANCH   2   3
ATOM      3  C   UNL A   1      37.942  22.717  25.835  1.00  0.00     0.316 C 
ATOM      4  O   UNL A   1      38.065  23.834  26.333  1.00  0.00    -0.251 OA
BRANCH   3   5
ATOM      5  C   UNL A   1      36.723  22.363  25.028  1.00  0.00     0.200 C 
BRANCH   5   6
ATOM      6  S   UNL A   1      35.323  21.781  25.972  1.00  0.00    -0.076 SA
BRANCH   6   7
ATOM      7  C   UNL A   1      34.006  22.781  25.398  1.00  0.00     0.171 A 
ATOM      8  N   UNL A   1      34.301  24.035  25.288  1.00  0.00    -0.224 NA
ATOM      9  N   UNL A   1      32.840  22.201  24.920  1.00  0.00    -0.287 N 
ATOM     10  C   UNL A   1      33.391  24.872  24.639  1.00  0.00     0.079 A 
ATOM     11  C   UNL A   1      32.119  22.905  23.962  1.00  0.00     0.262 A 
ATOM     12  C   UNL A   1      33.613  26.248  24.622  1.00  0.00     0.031 A 
ATOM     13  C   UNL A   1      32.316  24.359  23.923  1.00  0.00     0.067 A 
ATOM     14  O   UNL A   1      31.389  22.384  23.123  1.00  0.00    -0.269 OA
ATOM     15  C   UNL A   1      32.767  27.091  23.894  1.00  0.00     0.023 A 
ATOM     16  C   UNL A   1      31.463  25.183  23.185  1.00  0.00     0.036 A 
ATOM     17  C   UNL A   1      31.698  26.553  23.176  1.00  0.00     0.042 A 
ATOM     18  Cl  UNL A   1      30.670  27.588  22.266  1.00  0.00    -0.084 Cl
BRANCH   9  19
ATOM     19  C   UNL A   1      32.427  20.812  25.142  1.00  0.00     0.131 C 
BRANCH  19  20
ATOM     20  C   UNL A   1      33.107  19.721  24.262  1.00  0.00     0.009 C 
ATOM     21  C   UNL A   1      33.888  18.667  25.059  1.00  0.00     0.005 C 
ATOM     22  C   UNL A   1      32.154  19.032  23.272  1.00  0.00     0.005 C 
ATOM     23  C   UNL A   1      34.618  17.685  24.141  1.00  0.00     0.000 C 
ATOM     24  C   UNL A   1      32.898  18.073  22.344  1.00  0.00     0.000 C 
ATOM     25  C   UNL A   1      33.674  17.029  23.140  1.00  0.00     0.000 C 
ENDBRANCH  19  20
ENDBRANCH   9  19
ENDBRANCH   6   7
ENDBRANCH   5   6
ENDBRANCH   3   5
ENDBRANCH   2   3
ENDBRANCH   1   2
BRANCH   1  26
ATOM     26  C   UNL A   1      39.817  19.480  26.149  1.00  0.00     0.275 C 
BRANCH  26  27
ATOM     27  O   UNL A   1      40.977  19.095  25.383  1.00  0.00    -0.458 OA
BRANCH  27  28
ATOM     28  C   UNL A   1      42.159  19.046  26.053  1.00  0.00     0.338 C 
ATOM     29  O   UNL A   1      42.865  18.073  26.207  1.00  0.00    -0.246 OA
BRANCH  28  30
ATOM     30  C   UNL A   1      42.583  20.434  26.380  1.00  0.00     0.060 A 
ATOM     31  C   UNL A   1      42.572  20.936  27.687  1.00  0.00     0.016 A 
ATOM     32  C   UNL A   1      42.921  21.281  25.315  1.00  0.00     0.016 A 
ATOM     33  C   UNL A   1      42.880  22.281  27.924  1.00  0.00     0.010 A 
ATOM     34  C   UNL A   1      43.210  22.628  25.551  1.00  0.00     0.010 A 
ATOM     35  C   UNL A   1      43.189  23.139  26.858  1.00  0.00    -0.014 A 
BRANCH  35  36
ATOM     36  C   UNL A   1      43.583  24.546  27.110  1.00  0.00     0.031 A 
ATOM     37  C   UNL A   1      44.965  25.046  26.820  1.00  0.00     0.074 A 
ATOM     38  C   UNL A   1      42.670  25.384  27.631  1.00  0.00     0.049 A 
ATOM     39  N   UNL A   1      45.486  26.230  27.026  1.00  0.00    -0.248 NA
ATOM     40  C   UNL A   1      45.893  24.075  26.236  1.00  0.00     0.031 C 
ATOM     41  C   UNL A   1      41.292  25.024  27.954  1.00  0.00     0.029 A 
ATOM     42  N   UNL A   1      42.768  26.708  27.971  1.00  0.00    -0.354 N 
ATOM     43  C   UNL A   1      46.812  26.139  26.625  1.00  0.00     0.074 A 
ATOM     44  C   UNL A   1      47.022  24.770  26.195  1.00  0.00     0.031 C 
ATOM     45  C   UNL A   1      40.662  26.109  28.425  1.00  0.00     0.029 A 
ATOM     46  C   UNL A   1      41.597  27.233  28.448  1.00  0.00     0.049 A 
ATOM     47  H   UNL A   1      43.598  27.230  27.881  1.00  0.00     0.167 HD
ATOM     48  C   UNL A   1      47.757  27.111  26.594  1.00  0.00     0.037 A 
ATOM     49  C   UNL A   1      41.302  28.485  28.841  1.00  0.00     0.037 A 
ATOM     50  C   UNL A   1      47.522  28.487  26.961  1.00  0.00     0.049 A 
ATOM     51  C   UNL A   1      42.350  29.556  28.770  1.00  0.00     0.074 A 
ATOM     52  C   UNL A   1      48.394  29.560  26.892  1.00  0.00     0.029 A 
ATOM     53  N   UNL A   1      46.324  28.982  27.455  1.00  0.00    -0.354 N 
ATOM     54  N   UNL A   1      43.595  29.469  28.373  1.00  0.00    -0.248 NA
ATOM     55  C   UNL A   1      41.944  30.903  29.193  1.00  0.00     0.031 C 
ATOM     56  C   UNL A   1      47.734  30.698  27.370  1.00  0.00     0.029 A 
ATOM     57  C   UNL A   1      46.436  30.343  27.700  1.00  0.00     0.049 A 
ATOM     58  H   UNL A   1      45.513  28.446  27.609  1.00  0.00     0.167 HD
ATOM     59  C   UNL A   1      44.119  30.750  28.479  1.00  0.00     0.074 A 
ATOM     60  C   UNL A   1      43.050  31.600  28.964  1.00  0.00     0.031 C 
ATOM     61  C   UNL A   1      45.373  31.181  28.197  1.00  0.00     0.037 A 
BRANCH  48  62
ATOM     62  C   UNL A   1      49.136  26.736  26.125  1.00  0.00     0.064 A 
ATOM     63  C   UNL A   1      49.531  26.901  24.790  1.00  0.00     0.173 A 
ATOM     64  C   UNL A   1      50.097  26.270  27.037  1.00  0.00     0.173 A 
ATOM     65  F   UNL A   1      48.652  27.342  23.876  1.00  0.00    -0.203 F 
ATOM     66  C   UNL A   1      50.824  26.588  24.378  1.00  0.00     0.198 A 
ATOM     67  C   UNL A   1      51.400  25.989  26.628  1.00  0.00     0.198 A 
ATOM     68  F   UNL A   1      49.782  26.109  28.330  1.00  0.00    -0.203 F 
ATOM     69  F   UNL A   1      51.163  26.718  23.087  1.00  0.00    -0.200 F 
ATOM     70  C   UNL A   1      51.760  26.142  25.297  1.00  0.00     0.200 A 
ATOM     71  F   UNL A   1      52.310  25.582  27.524  1.00  0.00    -0.200 F 
ATOM     72  F   UNL A   1      53.009  25.861  24.902  1.00  0.00    -0.200 F 
ENDBRANCH  48  62
BRANCH  49  73
ATOM     73  C   UNL A   1      39.912  28.790  29.249  1.00  0.00     0.064 A 
ATOM     74  C   UNL A   1      38.966  29.177  28.291  1.00  0.00     0.173 A 
ATOM     75  C   UNL A   1      39.482  28.620  30.572  1.00  0.00     0.173 A 
ATOM     76  F   UNL A   1      39.341  29.359  27.017  1.00  0.00    -0.203 F 
ATOM     77  C   UNL A   1      37.634  29.375  28.641  1.00  0.00     0.198 A 
ATOM     78  C   UNL A   1      38.145  28.801  30.917  1.00  0.00     0.198 A 
ATOM     79  F   UNL A   1      40.354  28.238  31.517  1.00  0.00    -0.203 F 
ATOM     80  F   UNL A   1      36.747  29.749  27.708  1.00  0.00    -0.200 F 
ATOM     81  C   UNL A   1      37.222  29.177  29.952  1.00  0.00     0.200 A 
ATOM     82  F   UNL A   1      37.747  28.592  32.179  1.00  0.00    -0.200 F 
ATOM     83  F   UNL A   1      35.935  29.344  30.282  1.00  0.00    -0.200 F 
ENDBRANCH  49  73
BRANCH  61  84
ATOM     84  C   UNL A   1      45.661  32.640  28.398  1.00  0.00     0.064 A 
ATOM     85  C   UNL A   1      45.442  33.577  27.377  1.00  0.00     0.173 A 
ATOM     86  C   UNL A   1      46.129  33.112  29.634  1.00  0.00     0.173 A 
ATOM     87  F   UNL A   1      45.010  33.174  26.173  1.00  0.00    -0.203 F 
ATOM     88  C   UNL A   1      45.705  34.930  27.578  1.00  0.00     0.198 A 
ATOM     89  C   UNL A   1      46.366  34.470  29.839  1.00  0.00     0.198 A 
ATOM     90  F   UNL A   1      46.349  32.259  30.645  1.00  0.00    -0.203 F 
ATOM     91  F   UNL A   1      45.531  35.800  26.573  1.00  0.00    -0.200 F 
ATOM     92  C   UNL A   1      46.161  35.376  28.809  1.00  0.00     0.200 A 
ATOM     93  F   UNL A   1      46.798  34.901  31.032  1.00  0.00    -0.200 F 
ATOM     94  F   UNL A   1      46.411  36.678  29.001  1.00  0.00    -0.200 F 
ENDBRANCH  61  84
ENDBRANCH  35  36
ENDBRANCH  28  30
ENDBRANCH  27  28
ENDBRANCH  26  27
ENDBRANCH   1  26
TORSDOF 15
ENDMDL
