MODEL 1
REMARK VINA RESULT:     -11.9      0.000      0.000
REMARK SMILES O=C(OCCOC(=O)c1cccc2c(C(F)(F)F)cc(Br)nc12)c1ccc(-c2c3nc(c(-c4c(F)c(F)c(F)c(F)c4F)c4ccc([nH]4)c(-c4c(F)c(F)c(F)c(F)c4F)c4nc(c(-c5c(F)c(F)c(F)c(F)c5F)c5ccc2[nH]5)C=C4)C=C3)cc1
REMARK SMILES IDX 4 1 3 2 2 3 1 4 24 5 25 6 86 7 26 8 85 9 27 10 28 11 29 12
REMARK SMILES IDX 79 13 30 14 84 15 78 16 80 17 31 18 83 19 77 20 76 21 32 23
REMARK SMILES IDX 64 24 44 25 63 26 45 27 48 28 62 29 81 30 46 31 47 32 61 34
REMARK SMILES IDX 82 35 49 36 33 37 34 38 42 39 35 40 36 41 40 42 43 43 37 44
REMARK SMILES IDX 38 45 41 46 39 47 65 48 66 49 74 50 67 51 68 52 72 53 75 54
REMARK SMILES IDX 69 55 70 56 73 57 71 58 50 59 51 60 59 61 52 62 53 63 57 64
REMARK SMILES IDX 60 65 54 66 55 67 58 68 56 69 5 70 6 71 7 72 8 73 9 74 10 75
REMARK SMILES IDX 23 76 11 77 13 78 22 79 12 80 14 81 20 82 19 83 21 84 15 85
REMARK SMILES IDX 16 86 17 87 18 88
REMARK H PARENT 80 22 48 33
REMARK Flexibility Score: inf
ROOT
ATOM      1  C   UNL A   1      32.056  32.882  26.603  1.00  0.00     0.275 C 
ENDROOT
BRANCH   1   2
ATOM      2  O   UNL A   1      32.670  33.447  27.773  1.00  0.00    -0.458 OA
BRANCH   2   3
ATOM      3  C   UNL A   1      33.939  33.924  27.830  1.00  0.00     0.338 C 
ATOM      4  O   UNL A   1      34.259  34.954  27.245  1.00  0.00    -0.246 OA
BRANCH   3   5
ATOM      5  C   UNL A   1      35.017  33.075  28.403  1.00  0.00     0.060 A 
ATOM      6  C   UNL A   1      36.316  33.600  28.366  1.00  0.00     0.016 A 
ATOM      7  C   UNL A   1      34.807  31.852  29.043  1.00  0.00     0.016 A 
ATOM      8  C   UNL A   1      37.399  32.872  28.863  1.00  0.00     0.010 A 
ATOM      9  C   UNL A   1      35.886  31.125  29.556  1.00  0.00     0.010 A 
ATOM     10  C   UNL A   1      37.190  31.625  29.465  1.00  0.00    -0.014 A 
BRANCH  10  11
ATOM     11  C   UNL A   1      38.291  30.946  30.188  1.00  0.00     0.031 A 
ATOM     12  C   UNL A   1      39.084  29.831  29.576  1.00  0.00     0.074 A 
ATOM     13  C   UNL A   1      38.519  31.321  31.460  1.00  0.00     0.049 A 
ATOM     14  N   UNL A   1      40.145  29.225  30.047  1.00  0.00    -0.248 NA
ATOM     15  C   UNL A   1      38.645  29.331  28.267  1.00  0.00     0.031 C 
ATOM     16  C   UNL A   1      37.764  32.354  32.175  1.00  0.00     0.029 A 
ATOM     17  N   UNL A   1      39.421  30.865  32.385  1.00  0.00    -0.354 N 
ATOM     18  C   UNL A   1      40.543  28.332  29.063  1.00  0.00     0.074 A 
ATOM     19  C   UNL A   1      39.577  28.425  27.991  1.00  0.00     0.031 C 
ATOM     20  C   UNL A   1      38.223  32.441  33.430  1.00  0.00     0.029 A 
ATOM     21  C   UNL A   1      39.282  31.455  33.616  1.00  0.00     0.049 A 
ATOM     22  H   UNL A   1      40.100  30.182  32.185  1.00  0.00     0.167 HD
ATOM     23  C   UNL A   1      41.626  27.520  29.063  1.00  0.00     0.037 A 
ATOM     24  C   UNL A   1      39.921  31.212  34.773  1.00  0.00     0.037 A 
ATOM     25  C   UNL A   1      42.502  27.344  30.192  1.00  0.00     0.049 A 
ATOM     26  C   UNL A   1      41.019  30.190  34.794  1.00  0.00     0.074 A 
ATOM     27  C   UNL A   1      43.635  26.555  30.293  1.00  0.00     0.029 A 
ATOM     28  N   UNL A   1      42.303  27.920  31.438  1.00  0.00    -0.354 N 
ATOM     29  N   UNL A   1      41.491  29.470  33.805  1.00  0.00    -0.248 NA
ATOM     30  C   UNL A   1      41.678  29.950  36.083  1.00  0.00     0.031 C 
ATOM     31  C   UNL A   1      44.069  26.586  31.622  1.00  0.00     0.029 A 
ATOM     32  C   UNL A   1      43.247  27.446  32.334  1.00  0.00     0.049 A 
ATOM     33  H   UNL A   1      41.595  28.570  31.654  1.00  0.00     0.167 HD
ATOM     34  C   UNL A   1      42.513  28.704  34.345  1.00  0.00     0.074 A 
ATOM     35  C   UNL A   1      42.601  29.058  35.748  1.00  0.00     0.031 C 
ATOM     36  C   UNL A   1      43.308  27.795  33.732  1.00  0.00     0.037 A 
BRANCH  23  37
ATOM     37  C   UNL A   1      41.940  26.753  27.812  1.00  0.00     0.064 A 
ATOM     38  C   UNL A   1      42.848  27.258  26.869  1.00  0.00     0.173 A 
ATOM     39  C   UNL A   1      41.439  25.458  27.614  1.00  0.00     0.173 A 
ATOM     40  F   UNL A   1      43.346  28.496  27.007  1.00  0.00    -0.203 F 
ATOM     41  C   UNL A   1      43.251  26.489  25.779  1.00  0.00     0.198 A 
ATOM     42  C   UNL A   1      41.854  24.687  26.530  1.00  0.00     0.198 A 
ATOM     43  F   UNL A   1      40.570  24.929  28.488  1.00  0.00    -0.203 F 
ATOM     44  F   UNL A   1      44.118  26.993  24.890  1.00  0.00    -0.200 F 
ATOM     45  C   UNL A   1      42.762  25.201  25.617  1.00  0.00     0.200 A 
ATOM     46  F   UNL A   1      41.386  23.440  26.378  1.00  0.00    -0.200 F 
ATOM     47  F   UNL A   1      43.167  24.455  24.579  1.00  0.00    -0.200 F 
ENDBRANCH  23  37
BRANCH  24  48
ATOM     48  C   UNL A   1      39.523  31.965  35.988  1.00  0.00     0.064 A 
ATOM     49  C   UNL A   1      40.160  33.161  36.338  1.00  0.00     0.173 A 
ATOM     50  C   UNL A   1      38.448  31.538  36.785  1.00  0.00     0.173 A 
ATOM     51  F   UNL A   1      41.200  33.602  35.615  1.00  0.00    -0.203 F 
ATOM     52  C   UNL A   1      39.738  33.903  37.440  1.00  0.00     0.198 A 
ATOM     53  C   UNL A   1      38.010  32.295  37.869  1.00  0.00     0.198 A 
ATOM     54  F   UNL A   1      37.801  30.403  36.486  1.00  0.00    -0.203 F 
ATOM     55  F   UNL A   1      40.378  35.035  37.765  1.00  0.00    -0.200 F 
ATOM     56  C   UNL A   1      38.658  33.476  38.197  1.00  0.00     0.200 A 
ATOM     57  F   UNL A   1      36.953  31.887  38.585  1.00  0.00    -0.200 F 
ATOM     58  F   UNL A   1      38.239  34.202  39.241  1.00  0.00    -0.200 F 
ENDBRANCH  24  48
BRANCH  36  59
ATOM     59  C   UNL A   1      44.338  27.103  34.573  1.00  0.00     0.064 A 
ATOM     60  C   UNL A   1      44.073  25.866  35.178  1.00  0.00     0.173 A 
ATOM     61  C   UNL A   1      45.623  27.647  34.717  1.00  0.00     0.173 A 
ATOM     62  F   UNL A   1      42.854  25.315  35.079  1.00  0.00    -0.203 F 
ATOM     63  C   UNL A   1      45.055  25.205  35.909  1.00  0.00     0.198 A 
ATOM     64  C   UNL A   1      46.612  26.968  35.423  1.00  0.00     0.198 A 
ATOM     65  F   UNL A   1      45.927  28.824  34.150  1.00  0.00    -0.203 F 
ATOM     66  F   UNL A   1      44.771  24.040  36.507  1.00  0.00    -0.200 F 
ATOM     67  C   UNL A   1      46.326  25.750  36.021  1.00  0.00     0.200 A 
ATOM     68  F   UNL A   1      47.843  27.488  35.518  1.00  0.00    -0.200 F 
ATOM     69  F   UNL A   1      47.275  25.102  36.709  1.00  0.00    -0.200 F 
ENDBRANCH  36  59
ENDBRANCH  10  11
ENDBRANCH   3   5
ENDBRANCH   2   3
ENDBRANCH   1   2
BRANCH   1  70
ATOM     70  C   UNL A   1      31.442  31.501  26.829  1.00  0.00     0.275 C 
BRANCH  70  71
ATOM     71  O   UNL A   1      32.405  30.441  26.730  1.00  0.00    -0.458 OA
BRANCH  71  72
ATOM     72  C   UNL A   1      31.929  29.200  27.017  1.00  0.00     0.340 C 
ATOM     73  O   UNL A   1      31.207  28.893  27.956  1.00  0.00    -0.246 OA
BRANCH  72  74
ATOM     74  C   UNL A   1      32.480  28.240  26.046  1.00  0.00     0.086 A 
ATOM     75  C   UNL A   1      33.642  27.539  26.401  1.00  0.00     0.018 A 
ATOM     76  C   UNL A   1      31.830  28.043  24.821  1.00  0.00     0.087 A 
ATOM     77  C   UNL A   1      34.180  26.620  25.517  1.00  0.00     0.002 A 
ATOM     78  C   UNL A   1      32.388  27.106  23.917  1.00  0.00     0.013 A 
ATOM     79  N   UNL A   1      30.737  28.762  24.494  1.00  0.00    -0.240 NA
ATOM     80  C   UNL A   1      33.565  26.410  24.286  1.00  0.00     0.011 A 
ATOM     81  C   UNL A   1      31.743  26.924  22.665  1.00  0.00     0.068 A 
ATOM     82  C   UNL A   1      30.149  28.586  23.298  1.00  0.00     0.107 A 
ATOM     83  C   UNL A   1      30.611  27.690  22.359  1.00  0.00     0.049 A 
ATOM     84  Br  UNL A   1      28.653  29.668  22.881  1.00  0.00    -0.029 Br
BRANCH  81  85
ATOM     85  C   UNL A   1      32.249  25.938  21.641  1.00  0.00     0.417 C 
ATOM     86  F   UNL A   1      32.229  24.658  22.103  1.00  0.00    -0.166 F 
ATOM     87  F   UNL A   1      31.513  25.942  20.497  1.00  0.00    -0.166 F 
ATOM     88  F   UNL A   1      33.534  26.171  21.253  1.00  0.00    -0.166 F 
ENDBRANCH  81  85
ENDBRANCH  72  74
ENDBRANCH  71  72
ENDBRANCH  70  71
ENDBRANCH   1  70
TORSDOF 12
ENDMDL
MODEL 2
REMARK VINA RESULT:     -11.8      1.378      2.115
REMARK SMILES O=C(OCCOC(=O)c1cccc2c(C(F)(F)F)cc(Br)nc12)c1ccc(-c2c3nc(c(-c4c(F)c(F)c(F)c(F)c4F)c4ccc([nH]4)c(-c4c(F)c(F)c(F)c(F)c4F)c4nc(c(-c5c(F)c(F)c(F)c(F)c5F)c5ccc2[nH]5)C=C4)C=C3)cc1
REMARK SMILES IDX 4 1 3 2 2 3 1 4 24 5 25 6 86 7 26 8 85 9 27 10 28 11 29 12
REMARK SMILES IDX 79 13 30 14 84 15 78 16 80 17 31 18 83 19 77 20 76 21 32 23
REMARK SMILES IDX 64 24 44 25 63 26 45 27 48 28 62 29 81 30 46 31 47 32 61 34
REMARK SMILES IDX 82 35 49 36 33 37 34 38 42 39 35 40 36 41 40 42 43 43 37 44
REMARK SMILES IDX 38 45 41 46 39 47 65 48 66 49 74 50 67 51 68 52 72 53 75 54
REMARK SMILES IDX 69 55 70 56 73 57 71 58 50 59 51 60 59 61 52 62 53 63 57 64
REMARK SMILES IDX 60 65 54 66 55 67 58 68 56 69 5 70 6 71 7 72 8 73 9 74 10 75
REMARK SMILES IDX 23 76 11 77 13 78 22 79 12 80 14 81 20 82 19 83 21 84 15 85
REMARK SMILES IDX 16 86 17 87 18 88
REMARK H PARENT 80 22 48 33
REMARK Flexibility Score: inf
ROOT
ATOM      1  C   UNL A   1      32.621  32.846  27.286  1.00  0.00     0.275 C 
ENDROOT
BRANCH   1   2
ATOM      2  O   UNL A   1      32.173  34.120  27.780  1.00  0.00    -0.458 OA
BRANCH   2   3
ATOM      3  C   UNL A   1      32.848  34.887  28.672  1.00  0.00     0.338 C 
ATOM      4  O   UNL A   1      32.569  36.071  28.832  1.00  0.00    -0.246 OA
BRANCH   3   5
ATOM      5  C   UNL A   1      34.096  34.367  29.293  1.00  0.00     0.060 A 
ATOM      6  C   UNL A   1      33.949  33.648  30.488  1.00  0.00     0.016 A 
ATOM      7  C   UNL A   1      35.366  34.471  28.724  1.00  0.00     0.016 A 
ATOM      8  C   UNL A   1      35.062  33.135  31.157  1.00  0.00     0.010 A 
ATOM      9  C   UNL A   1      36.483  33.945  29.382  1.00  0.00     0.010 A 
ATOM     10  C   UNL A   1      36.342  33.279  30.606  1.00  0.00    -0.014 A 
BRANCH  10  11
ATOM     11  C   UNL A   1      37.496  32.555  31.186  1.00  0.00     0.031 A 
ATOM     12  C   UNL A   1      38.098  31.349  30.530  1.00  0.00     0.074 A 
ATOM     13  C   UNL A   1      37.956  32.977  32.378  1.00  0.00     0.049 A 
ATOM     14  N   UNL A   1      39.177  30.686  30.864  1.00  0.00    -0.248 NA
ATOM     15  C   UNL A   1      37.417  30.816  29.343  1.00  0.00     0.031 C 
ATOM     16  C   UNL A   1      37.402  34.103  33.135  1.00  0.00     0.029 A 
ATOM     17  N   UNL A   1      38.963  32.501  33.175  1.00  0.00    -0.354 N 
ATOM     18  C   UNL A   1      39.345  29.714  29.889  1.00  0.00     0.074 A 
ATOM     19  C   UNL A   1      38.225  29.827  28.982  1.00  0.00     0.031 C 
ATOM     20  C   UNL A   1      38.066  34.219  34.293  1.00  0.00     0.029 A 
ATOM     21  C   UNL A   1      39.069  33.164  34.371  1.00  0.00     0.049 A 
ATOM     22  H   UNL A   1      39.551  31.756  32.914  1.00  0.00     0.167 HD
ATOM     23  C   UNL A   1      40.354  28.819  29.769  1.00  0.00     0.037 A 
ATOM     24  C   UNL A   1      39.872  32.933  35.425  1.00  0.00     0.037 A 
ATOM     25  C   UNL A   1      41.389  28.635  30.753  1.00  0.00     0.049 A 
ATOM     26  C   UNL A   1      40.884  31.830  35.337  1.00  0.00     0.074 A 
ATOM     27  C   UNL A   1      42.465  27.765  30.723  1.00  0.00     0.029 A 
ATOM     28  N   UNL A   1      41.438  29.290  31.974  1.00  0.00    -0.354 N 
ATOM     29  N   UNL A   1      41.136  31.023  34.334  1.00  0.00    -0.248 NA
ATOM     30  C   UNL A   1      41.727  31.606  36.517  1.00  0.00     0.031 C 
ATOM     31  C   UNL A   1      43.113  27.832  31.960  1.00  0.00     0.029 A 
ATOM     32  C   UNL A   1      42.481  28.791  32.737  1.00  0.00     0.049 A 
ATOM     33  H   UNL A   1      40.823  30.004  32.258  1.00  0.00     0.167 HD
ATOM     34  C   UNL A   1      42.177  30.208  34.753  1.00  0.00     0.074 A 
ATOM     35  C   UNL A   1      42.518  30.628  36.097  1.00  0.00     0.031 C 
ATOM     36  C   UNL A   1      42.794  29.207  34.081  1.00  0.00     0.037 A 
BRANCH  23  37
ATOM     37  C   UNL A   1      40.404  27.965  28.536  1.00  0.00     0.064 A 
ATOM     38  C   UNL A   1      41.136  28.371  27.410  1.00  0.00     0.173 A 
ATOM     39  C   UNL A   1      39.834  26.683  28.523  1.00  0.00     0.173 A 
ATOM     40  F   UNL A   1      41.690  29.592  27.369  1.00  0.00    -0.203 F 
ATOM     41  C   UNL A   1      41.303  27.520  26.319  1.00  0.00     0.198 A 
ATOM     42  C   UNL A   1      40.015  25.830  27.436  1.00  0.00     0.198 A 
ATOM     43  F   UNL A   1      39.128  26.247  29.576  1.00  0.00    -0.203 F 
ATOM     44  F   UNL A   1      42.005  27.930  25.253  1.00  0.00    -0.200 F 
ATOM     45  C   UNL A   1      40.752  26.247  26.338  1.00  0.00     0.200 A 
ATOM     46  F   UNL A   1      39.488  24.598  27.458  1.00  0.00    -0.200 F 
ATOM     47  F   UNL A   1      40.932  25.423  25.297  1.00  0.00    -0.200 F 
ENDBRANCH  23  37
BRANCH  24  48
ATOM     48  C   UNL A   1      39.731  33.779  36.636  1.00  0.00     0.064 A 
ATOM     49  C   UNL A   1      40.364  35.024  36.725  1.00  0.00     0.173 A 
ATOM     50  C   UNL A   1      38.904  33.387  37.701  1.00  0.00     0.173 A 
ATOM     51  F   UNL A   1      41.175  35.434  35.739  1.00  0.00    -0.203 F 
ATOM     52  C   UNL A   1      40.175  35.848  37.833  1.00  0.00     0.198 A 
ATOM     53  C   UNL A   1      38.694  34.223  38.795  1.00  0.00     0.198 A 
ATOM     54  F   UNL A   1      38.270  32.207  37.659  1.00  0.00    -0.203 F 
ATOM     55  F   UNL A   1      40.808  37.026  37.902  1.00  0.00    -0.200 F 
ATOM     56  C   UNL A   1      39.332  35.452  38.861  1.00  0.00     0.200 A 
ATOM     57  F   UNL A   1      37.863  33.844  39.776  1.00  0.00    -0.200 F 
ATOM     58  F   UNL A   1      39.134  36.255  39.914  1.00  0.00    -0.200 F 
ENDBRANCH  24  48
BRANCH  36  59
ATOM     59  C   UNL A   1      43.898  28.482  34.790  1.00  0.00     0.064 A 
ATOM     60  C   UNL A   1      45.215  28.962  34.769  1.00  0.00     0.173 A 
ATOM     61  C   UNL A   1      43.625  27.338  35.555  1.00  0.00     0.173 A 
ATOM     62  F   UNL A   1      45.527  30.045  34.041  1.00  0.00    -0.203 F 
ATOM     63  C   UNL A   1      46.222  28.315  35.478  1.00  0.00     0.198 A 
ATOM     64  C   UNL A   1      44.629  26.710  36.286  1.00  0.00     0.198 A 
ATOM     65  F   UNL A   1      42.379  26.845  35.613  1.00  0.00    -0.203 F 
ATOM     66  F   UNL A   1      47.481  28.771  35.418  1.00  0.00    -0.200 F 
ATOM     67  C   UNL A   1      45.927  27.197  36.245  1.00  0.00     0.200 A 
ATOM     68  F   UNL A   1      44.338  25.640  37.039  1.00  0.00    -0.200 F 
ATOM     69  F   UNL A   1      46.895  26.586  36.941  1.00  0.00    -0.200 F 
ENDBRANCH  36  59
ENDBRANCH  10  11
ENDBRANCH   3   5
ENDBRANCH   2   3
ENDBRANCH   1   2
BRANCH   1  70
ATOM     70  C   UNL A   1      31.498  31.959  26.750  1.00  0.00     0.275 C 
BRANCH  70  71
ATOM     71  O   UNL A   1      31.986  30.814  26.035  1.00  0.00    -0.458 OA
BRANCH  71  72
ATOM     72  C   UNL A   1      31.839  29.625  26.680  1.00  0.00     0.340 C 
ATOM     73  O   UNL A   1      31.384  29.454  27.803  1.00  0.00    -0.246 OA
BRANCH  72  74
ATOM     74  C   UNL A   1      32.388  28.552  25.835  1.00  0.00     0.086 A 
ATOM     75  C   UNL A   1      33.514  27.858  26.303  1.00  0.00     0.018 A 
ATOM     76  C   UNL A   1      31.772  28.246  24.616  1.00  0.00     0.087 A 
ATOM     77  C   UNL A   1      34.049  26.834  25.540  1.00  0.00     0.002 A 
ATOM     78  C   UNL A   1      32.326  27.203  23.835  1.00  0.00     0.013 A 
ATOM     79  N   UNL A   1      30.715  28.960  24.176  1.00  0.00    -0.240 NA
ATOM     80  C   UNL A   1      33.466  26.514  24.316  1.00  0.00     0.011 A 
ATOM     81  C   UNL A   1      31.716  26.909  22.587  1.00  0.00     0.068 A 
ATOM     82  C   UNL A   1      30.160  28.676  22.985  1.00  0.00     0.107 A 
ATOM     83  C   UNL A   1      30.621  27.671  22.162  1.00  0.00     0.049 A 
ATOM     84  Br  UNL A   1      28.716  29.753  22.405  1.00  0.00    -0.029 Br
BRANCH  81  85
ATOM     85  C   UNL A   1      32.221  25.805  21.691  1.00  0.00     0.417 C 
ATOM     86  F   UNL A   1      32.009  24.570  22.223  1.00  0.00    -0.166 F 
ATOM     87  F   UNL A   1      31.620  25.801  20.470  1.00  0.00    -0.166 F 
ATOM     88  F   UNL A   1      33.558  25.877  21.443  1.00  0.00    -0.166 F 
ENDBRANCH  81  85
ENDBRANCH  72  74
ENDBRANCH  71  72
ENDBRANCH  70  71
ENDBRANCH   1  70
TORSDOF 12
ENDMDL
MODEL 3
REMARK VINA RESULT:     -11.7      1.527      2.634
REMARK SMILES O=C(OCCOC(=O)c1cccc2c(C(F)(F)F)cc(Br)nc12)c1ccc(-c2c3nc(c(-c4c(F)c(F)c(F)c(F)c4F)c4ccc([nH]4)c(-c4c(F)c(F)c(F)c(F)c4F)c4nc(c(-c5c(F)c(F)c(F)c(F)c5F)c5ccc2[nH]5)C=C4)C=C3)cc1
REMARK SMILES IDX 4 1 3 2 2 3 1 4 24 5 25 6 86 7 26 8 85 9 27 10 28 11 29 12
REMARK SMILES IDX 79 13 30 14 84 15 78 16 80 17 31 18 83 19 77 20 76 21 32 23
REMARK SMILES IDX 64 24 44 25 63 26 45 27 48 28 62 29 81 30 46 31 47 32 61 34
REMARK SMILES IDX 82 35 49 36 33 37 34 38 42 39 35 40 36 41 40 42 43 43 37 44
REMARK SMILES IDX 38 45 41 46 39 47 65 48 66 49 74 50 67 51 68 52 72 53 75 54
REMARK SMILES IDX 69 55 70 56 73 57 71 58 50 59 51 60 59 61 52 62 53 63 57 64
REMARK SMILES IDX 60 65 54 66 55 67 58 68 56 69 5 70 6 71 7 72 8 73 9 74 10 75
REMARK SMILES IDX 23 76 11 77 13 78 22 79 12 80 14 81 20 82 19 83 21 84 15 85
REMARK SMILES IDX 16 86 17 87 18 88
REMARK H PARENT 80 22 48 33
REMARK Flexibility Score: inf
ROOT
ATOM      1  C   UNL A   1      32.788  32.885  27.198  1.00  0.00     0.275 C 
ENDROOT
BRANCH   1   2
ATOM      2  O   UNL A   1      32.205  33.995  27.901  1.00  0.00    -0.458 OA
BRANCH   2   3
ATOM      3  C   UNL A   1      32.877  34.822  28.741  1.00  0.00     0.338 C 
ATOM      4  O   UNL A   1      32.615  36.019  28.800  1.00  0.00    -0.246 OA
BRANCH   3   5
ATOM      5  C   UNL A   1      34.105  34.335  29.425  1.00  0.00     0.060 A 
ATOM      6  C   UNL A   1      33.917  33.621  30.617  1.00  0.00     0.016 A 
ATOM      7  C   UNL A   1      35.398  34.465  28.918  1.00  0.00     0.016 A 
ATOM      8  C   UNL A   1      35.008  33.137  31.343  1.00  0.00     0.010 A 
ATOM      9  C   UNL A   1      36.494  33.970  29.633  1.00  0.00     0.010 A 
ATOM     10  C   UNL A   1      36.309  33.308  30.853  1.00  0.00    -0.014 A 
BRANCH  10  11
ATOM     11  C   UNL A   1      37.450  32.614  31.494  1.00  0.00     0.031 A 
ATOM     12  C   UNL A   1      38.074  31.385  30.904  1.00  0.00     0.074 A 
ATOM     13  C   UNL A   1      37.876  33.088  32.679  1.00  0.00     0.049 A 
ATOM     14  N   UNL A   1      39.146  30.742  31.294  1.00  0.00    -0.248 NA
ATOM     15  C   UNL A   1      37.426  30.800  29.723  1.00  0.00     0.031 C 
ATOM     16  C   UNL A   1      37.298  34.242  33.373  1.00  0.00     0.029 A 
ATOM     17  N   UNL A   1      38.863  32.650  33.521  1.00  0.00    -0.354 N 
ATOM     18  C   UNL A   1      39.344  29.731  30.366  1.00  0.00     0.074 A 
ATOM     19  C   UNL A   1      38.248  29.800  29.425  1.00  0.00     0.031 C 
ATOM     20  C   UNL A   1      37.930  34.410  34.542  1.00  0.00     0.029 A 
ATOM     21  C   UNL A   1      38.935  33.364  34.691  1.00  0.00     0.049 A 
ATOM     22  H   UNL A   1      39.461  31.898  33.308  1.00  0.00     0.167 HD
ATOM     23  C   UNL A   1      40.359  28.837  30.310  1.00  0.00     0.037 A 
ATOM     24  C   UNL A   1      39.710  33.181  35.775  1.00  0.00     0.037 A 
ATOM     25  C   UNL A   1      41.368  28.699  31.328  1.00  0.00     0.049 A 
ATOM     26  C   UNL A   1      40.728  32.080  35.760  1.00  0.00     0.074 A 
ATOM     27  C   UNL A   1      42.448  27.834  31.363  1.00  0.00     0.029 A 
ATOM     28  N   UNL A   1      41.382  29.405  32.522  1.00  0.00    -0.354 N 
ATOM     29  N   UNL A   1      41.010  31.233  34.798  1.00  0.00    -0.248 NA
ATOM     30  C   UNL A   1      41.540  31.910  36.970  1.00  0.00     0.031 C 
ATOM     31  C   UNL A   1      43.062  27.956  32.613  1.00  0.00     0.029 A 
ATOM     32  C   UNL A   1      42.406  28.943  33.332  1.00  0.00     0.049 A 
ATOM     33  H   UNL A   1      40.756  30.127  32.759  1.00  0.00     0.167 HD
ATOM     34  C   UNL A   1      42.042  30.442  35.279  1.00  0.00     0.074 A 
ATOM     35  C   UNL A   1      42.346  30.919  36.613  1.00  0.00     0.031 C 
ATOM     36  C   UNL A   1      42.682  29.416  34.666  1.00  0.00     0.037 A 
BRANCH  23  37
ATOM     37  C   UNL A   1      40.446  27.932  29.116  1.00  0.00     0.064 A 
ATOM     38  C   UNL A   1      39.683  26.757  29.049  1.00  0.00     0.173 A 
ATOM     39  C   UNL A   1      41.187  28.300  27.984  1.00  0.00     0.173 A 
ATOM     40  F   UNL A   1      38.966  26.356  30.111  1.00  0.00    -0.203 F 
ATOM     41  C   UNL A   1      39.650  25.988  27.888  1.00  0.00     0.198 A 
ATOM     42  C   UNL A   1      41.142  27.536  26.819  1.00  0.00     0.198 A 
ATOM     43  F   UNL A   1      41.931  29.415  27.997  1.00  0.00    -0.203 F 
ATOM     44  F   UNL A   1      38.915  24.868  27.848  1.00  0.00    -0.200 F 
ATOM     45  C   UNL A   1      40.371  26.384  26.770  1.00  0.00     0.200 A 
ATOM     46  F   UNL A   1      41.833  27.923  25.738  1.00  0.00    -0.200 F 
ATOM     47  F   UNL A   1      40.322  25.655  25.647  1.00  0.00    -0.200 F 
ENDBRANCH  23  37
BRANCH  24  48
ATOM     48  C   UNL A   1      39.534  34.076  36.945  1.00  0.00     0.064 A 
ATOM     49  C   UNL A   1      38.750  33.690  38.038  1.00  0.00     0.173 A 
ATOM     50  C   UNL A   1      40.203  35.308  37.020  1.00  0.00     0.173 A 
ATOM     51  F   UNL A   1      38.082  32.529  38.006  1.00  0.00    -0.203 F 
ATOM     52  C   UNL A   1      38.643  34.502  39.166  1.00  0.00     0.198 A 
ATOM     53  C   UNL A   1      40.117  36.106  38.159  1.00  0.00     0.198 A 
ATOM     54  F   UNL A   1      40.971  35.719  36.001  1.00  0.00    -0.203 F 
ATOM     55  F   UNL A   1      37.871  34.119  40.192  1.00  0.00    -0.200 F 
ATOM     56  C   UNL A   1      39.334  35.703  39.230  1.00  0.00     0.200 A 
ATOM     57  F   UNL A   1      40.802  37.256  38.223  1.00  0.00    -0.200 F 
ATOM     58  F   UNL A   1      39.248  36.471  40.324  1.00  0.00    -0.200 F 
ENDBRANCH  24  48
BRANCH  36  59
ATOM     59  C   UNL A   1      43.769  28.727  35.434  1.00  0.00     0.064 A 
ATOM     60  C   UNL A   1      43.483  27.668  36.308  1.00  0.00     0.173 A 
ATOM     61  C   UNL A   1      45.113  29.079  35.241  1.00  0.00     0.173 A 
ATOM     62  F   UNL A   1      42.212  27.305  36.535  1.00  0.00    -0.203 F 
ATOM     63  C   UNL A   1      44.505  26.996  36.972  1.00  0.00     0.198 A 
ATOM     64  C   UNL A   1      46.134  28.386  35.884  1.00  0.00     0.198 A 
ATOM     65  F   UNL A   1      45.437  30.080  34.408  1.00  0.00    -0.203 F 
ATOM     66  F   UNL A   1      44.208  26.009  37.828  1.00  0.00    -0.200 F 
ATOM     67  C   UNL A   1      45.829  27.347  36.751  1.00  0.00     0.200 A 
ATOM     68  F   UNL A   1      47.412  28.716  35.657  1.00  0.00    -0.200 F 
ATOM     69  F   UNL A   1      46.811  26.686  37.377  1.00  0.00    -0.200 F 
ENDBRANCH  36  59
ENDBRANCH  10  11
ENDBRANCH   3   5
ENDBRANCH   2   3
ENDBRANCH   1   2
BRANCH   1  70
ATOM     70  C   UNL A   1      31.807  31.750  26.907  1.00  0.00     0.275 C 
BRANCH  70  71
ATOM     71  O   UNL A   1      32.444  30.596  26.342  1.00  0.00    -0.458 OA
BRANCH  71  72
ATOM     72  C   UNL A   1      31.989  29.400  26.806  1.00  0.00     0.340 C 
ATOM     73  O   UNL A   1      31.334  29.213  27.822  1.00  0.00    -0.246 OA
BRANCH  72  74
ATOM     74  C   UNL A   1      32.473  28.328  25.921  1.00  0.00     0.086 A 
ATOM     75  C   UNL A   1      33.537  27.533  26.372  1.00  0.00     0.018 A 
ATOM     76  C   UNL A   1      31.856  28.122  24.680  1.00  0.00     0.087 A 
ATOM     77  C   UNL A   1      34.008  26.507  25.571  1.00  0.00     0.002 A 
ATOM     78  C   UNL A   1      32.346  27.076  23.861  1.00  0.00     0.013 A 
ATOM     79  N   UNL A   1      30.862  28.930  24.260  1.00  0.00    -0.240 NA
ATOM     80  C   UNL A   1      33.425  26.285  24.326  1.00  0.00     0.011 A 
ATOM     81  C   UNL A   1      31.737  26.883  22.593  1.00  0.00     0.068 A 
ATOM     82  C   UNL A   1      30.307  28.740  23.050  1.00  0.00     0.107 A 
ATOM     83  C   UNL A   1      30.707  27.742  22.188  1.00  0.00     0.049 A 
ATOM     84  Br  UNL A   1      28.955  29.944  22.499  1.00  0.00    -0.029 Br
BRANCH  81  85
ATOM     85  C   UNL A   1      32.175  25.786  21.655  1.00  0.00     0.417 C 
ATOM     86  F   UNL A   1      31.541  25.850  20.452  1.00  0.00    -0.166 F 
ATOM     87  F   UNL A   1      33.508  25.825  21.385  1.00  0.00    -0.166 F 
ATOM     88  F   UNL A   1      31.933  24.534  22.134  1.00  0.00    -0.166 F 
ENDBRANCH  81  85
ENDBRANCH  72  74
ENDBRANCH  71  72
ENDBRANCH  70  71
ENDBRANCH   1  70
TORSDOF 12
ENDMDL
