MODEL 1
REMARK VINA RESULT:     -11.4      0.000      0.000
REMARK SMILES C[C@@H]1[C@@H](C)CC[C@H]1[NH2+][C@@H](C)[C@@H](C)C(=O)OCCOC(=O)c1ccc(-c2c3nc(c(-c4c(F)c(F)c(F)c(F)c4F)c4ccc([nH]4)c(-c4c(F)c(F)c(F)c(F)c4F)c4nc(c(-c5c(F)c(F)c(F)c(F)c5F)c5ccc2[nH]5)C=C4)C=C3)cc1
REMARK SMILES IDX 16 1 15 2 13 3 14 4 11 5 12 6 9 7 10 8 8 9 7 12 1 13 2 14
REMARK SMILES IDX 3 15 5 16 4 17 6 18 17 19 18 20 19 21 20 22 21 23 22 24
REMARK SMILES IDX 83 25 23 26 82 27 24 28 25 29 26 30 76 31 27 32 81 33 75 34
REMARK SMILES IDX 77 35 28 36 80 37 74 38 73 39 29 41 61 42 41 43 60 44 42 45
REMARK SMILES IDX 45 46 59 47 78 48 43 49 44 50 58 52 79 53 46 54 30 55 31 56
REMARK SMILES IDX 39 57 32 58 33 59 37 60 40 61 34 62 35 63 38 64 36 65 62 66
REMARK SMILES IDX 63 67 71 68 64 69 65 70 69 71 72 72 66 73 67 74 70 75 68 76
REMARK SMILES IDX 47 77 48 78 56 79 49 80 50 81 54 82 57 83 51 84 52 85 55 86
REMARK SMILES IDX 53 87
REMARK H PARENT 8 10 8 11 77 40 45 51
REMARK Flexibility Score: inf
ROOT
ATOM      1  C   UNL A   1      31.635  28.280  25.689  1.00  0.00     0.274 C 
ENDROOT
BRANCH   1   2
ATOM      2  O   UNL A   1      31.090  27.853  24.423  1.00  0.00    -0.462 OA
BRANCH   2   3
ATOM      3  C   UNL A   1      31.794  28.250  23.332  1.00  0.00     0.314 C 
ATOM      4  O   UNL A   1      31.369  29.014  22.469  1.00  0.00    -0.252 OA
BRANCH   3   5
ATOM      5  C   UNL A   1      33.179  27.638  23.239  1.00  0.00     0.154 C 
ATOM      6  C   UNL A   1      34.025  28.578  22.375  1.00  0.00     0.026 C 
BRANCH   5   7
ATOM      7  C   UNL A   1      33.253  26.154  22.779  1.00  0.00     0.193 C 
ATOM      8  C   UNL A   1      32.528  25.946  21.444  1.00  0.00     0.076 C 
BRANCH   7   9
ATOM      9  N   UNL A   1      32.607  25.348  23.831  1.00  0.00    -0.341 N 
ATOM     10  H   UNL A   1      32.221  25.996  24.517  1.00  0.00     0.346 HD
ATOM     11  H   UNL A   1      31.924  24.775  23.334  1.00  0.00     0.346 HD
BRANCH   9  12
ATOM     12  C   UNL A   1      33.436  24.390  24.556  1.00  0.00     0.185 C 
ATOM     13  C   UNL A   1      33.340  22.446  22.889  1.00  0.00     0.014 C 
ATOM     14  C   UNL A   1      34.207  23.518  23.540  1.00  0.00     0.047 C 
ATOM     15  C   UNL A   1      35.381  22.921  24.342  1.00  0.00    -0.005 C 
ATOM     16  C   UNL A   1      35.572  23.847  25.550  1.00  0.00     0.010 C 
ATOM     17  C   UNL A   1      36.649  22.813  23.501  1.00  0.00     0.008 C 
ATOM     18  C   UNL A   1      34.581  24.991  25.371  1.00  0.00     0.065 C 
ENDBRANCH   9  12
ENDBRANCH   7   9
ENDBRANCH   5   7
ENDBRANCH   3   5
ENDBRANCH   2   3
ENDBRANCH   1   2
BRANCH   1  19
ATOM     19  C   UNL A   1      31.699  29.808  25.757  1.00  0.00     0.275 C 
BRANCH  19  20
ATOM     20  O   UNL A   1      33.054  30.227  26.001  1.00  0.00    -0.458 OA
BRANCH  20  21
ATOM     21  C   UNL A   1      33.205  31.210  26.918  1.00  0.00     0.338 C 
ATOM     22  O   UNL A   1      32.439  32.135  27.128  1.00  0.00    -0.246 OA
BRANCH  21  23
ATOM     23  C   UNL A   1      34.475  31.029  27.657  1.00  0.00     0.060 A 
ATOM     24  C   UNL A   1      35.336  32.098  27.929  1.00  0.00     0.016 A 
ATOM     25  C   UNL A   1      34.836  29.735  28.039  1.00  0.00     0.016 A 
ATOM     26  C   UNL A   1      36.563  31.873  28.557  1.00  0.00     0.010 A 
ATOM     27  C   UNL A   1      36.031  29.520  28.724  1.00  0.00     0.010 A 
ATOM     28  C   UNL A   1      36.911  30.584  28.983  1.00  0.00    -0.014 A 
BRANCH  28  29
ATOM     29  C   UNL A   1      38.168  30.319  29.730  1.00  0.00     0.031 A 
ATOM     30  C   UNL A   1      39.196  29.380  29.167  1.00  0.00     0.074 A 
ATOM     31  C   UNL A   1      38.338  30.848  30.956  1.00  0.00     0.049 A 
ATOM     32  N   UNL A   1      40.224  28.826  29.757  1.00  0.00    -0.248 NA
ATOM     33  C   UNL A   1      39.035  29.002  27.755  1.00  0.00     0.031 C 
ATOM     34  C   UNL A   1      37.426  31.789  31.608  1.00  0.00     0.029 A 
ATOM     35  N   UNL A   1      39.324  30.640  31.890  1.00  0.00    -0.354 N 
ATOM     36  C   UNL A   1      40.809  28.003  28.804  1.00  0.00     0.074 A 
ATOM     37  C   UNL A   1      40.022  28.129  27.596  1.00  0.00     0.031 C 
ATOM     38  C   UNL A   1      37.884  32.064  32.837  1.00  0.00     0.029 A 
ATOM     39  C   UNL A   1      39.083  31.270  33.086  1.00  0.00     0.049 A 
ATOM     40  H   UNL A   1      40.124  30.093  31.718  1.00  0.00     0.167 HD
ATOM     41  C   UNL A   1      41.903  27.213  28.932  1.00  0.00     0.037 A 
ATOM     42  C   UNL A   1      39.721  31.180  34.268  1.00  0.00     0.037 A 
ATOM     43  C   UNL A   1      42.700  27.118  30.126  1.00  0.00     0.049 A 
ATOM     44  C   UNL A   1      40.905  30.263  34.397  1.00  0.00     0.074 A 
ATOM     45  C   UNL A   1      43.858  26.389  30.337  1.00  0.00     0.029 A 
ATOM     46  N   UNL A   1      42.421  27.776  31.316  1.00  0.00    -0.354 N 
ATOM     47  N   UNL A   1      41.452  29.488  33.493  1.00  0.00    -0.248 NA
ATOM     48  C   UNL A   1      41.550  30.197  35.715  1.00  0.00     0.031 C 
ATOM     49  C   UNL A   1      44.257  26.573  31.666  1.00  0.00     0.029 A 
ATOM     50  C   UNL A   1      43.371  27.450  32.271  1.00  0.00     0.049 A 
ATOM     51  H   UNL A   1      41.661  28.385  31.460  1.00  0.00     0.167 HD
ATOM     52  C   UNL A   1      42.511  28.854  34.125  1.00  0.00     0.074 A 
ATOM     53  C   UNL A   1      42.540  29.345  35.488  1.00  0.00     0.031 C 
ATOM     54  C   UNL A   1      43.382  27.945  33.622  1.00  0.00     0.037 A 
BRANCH  41  55
ATOM     55  C   UNL A   1      42.293  26.365  27.758  1.00  0.00     0.064 A 
ATOM     56  C   UNL A   1      43.301  26.756  26.866  1.00  0.00     0.173 A 
ATOM     57  C   UNL A   1      41.688  25.115  27.560  1.00  0.00     0.173 A 
ATOM     58  F   UNL A   1      43.903  27.947  27.007  1.00  0.00    -0.203 F 
ATOM     59  C   UNL A   1      43.678  25.933  25.807  1.00  0.00     0.198 A 
ATOM     60  C   UNL A   1      42.082  24.285  26.514  1.00  0.00     0.198 A 
ATOM     61  F   UNL A   1      40.721  24.692  28.389  1.00  0.00    -0.203 F 
ATOM     62  F   UNL A   1      44.621  26.339  24.947  1.00  0.00    -0.200 F 
ATOM     63  C   UNL A   1      43.073  24.696  25.636  1.00  0.00     0.200 A 
ATOM     64  F   UNL A   1      41.503  23.086  26.357  1.00  0.00    -0.200 F 
ATOM     65  F   UNL A   1      43.444  23.902  24.623  1.00  0.00    -0.200 F 
ENDBRANCH  41  55
BRANCH  42  66
ATOM     66  C   UNL A   1      39.220  31.950  35.434  1.00  0.00     0.064 A 
ATOM     67  C   UNL A   1      39.571  33.293  35.612  1.00  0.00     0.173 A 
ATOM     68  C   UNL A   1      38.369  31.363  36.383  1.00  0.00     0.173 A 
ATOM     69  F   UNL A   1      40.403  33.888  34.746  1.00  0.00    -0.203 F 
ATOM     70  C   UNL A   1      39.094  34.021  36.701  1.00  0.00     0.198 A 
ATOM     71  C   UNL A   1      37.872  32.098  37.455  1.00  0.00     0.198 A 
ATOM     72  F   UNL A   1      38.005  30.078  36.255  1.00  0.00    -0.203 F 
ATOM     73  F   UNL A   1      39.472  35.296  36.868  1.00  0.00    -0.200 F 
ATOM     74  C   UNL A   1      38.239  33.426  37.616  1.00  0.00     0.200 A 
ATOM     75  F   UNL A   1      37.037  31.523  38.331  1.00  0.00    -0.200 F 
ATOM     76  F   UNL A   1      37.774  34.129  38.657  1.00  0.00    -0.200 F 
ENDBRANCH  42  66
BRANCH  54  77
ATOM     77  C   UNL A   1      44.449  27.440  34.544  1.00  0.00     0.064 A 
ATOM     78  C   UNL A   1      45.652  28.139  34.720  1.00  0.00     0.173 A 
ATOM     79  C   UNL A   1      44.252  26.266  35.285  1.00  0.00     0.173 A 
ATOM     80  F   UNL A   1      45.892  29.257  34.019  1.00  0.00    -0.203 F 
ATOM     81  C   UNL A   1      46.629  27.668  35.594  1.00  0.00     0.198 A 
ATOM     82  C   UNL A   1      45.221  25.811  36.174  1.00  0.00     0.198 A 
ATOM     83  F   UNL A   1      43.116  25.566  35.152  1.00  0.00    -0.203 F 
ATOM     84  F   UNL A   1      47.788  28.329  35.719  1.00  0.00    -0.200 F 
ATOM     85  C   UNL A   1      46.411  26.508  36.323  1.00  0.00     0.200 A 
ATOM     86  F   UNL A   1      45.005  24.695  36.885  1.00  0.00    -0.200 F 
ATOM     87  F   UNL A   1      47.350  26.059  37.167  1.00  0.00    -0.200 F 
ENDBRANCH  54  77
ENDBRANCH  28  29
ENDBRANCH  21  23
ENDBRANCH  20  21
ENDBRANCH  19  20
ENDBRANCH   1  19
TORSDOF 14
ENDMDL
MODEL 2
REMARK VINA RESULT:     -11.2      1.005      1.637
REMARK SMILES C[C@@H]1[C@@H](C)CC[C@H]1[NH2+][C@@H](C)[C@@H](C)C(=O)OCCOC(=O)c1ccc(-c2c3nc(c(-c4c(F)c(F)c(F)c(F)c4F)c4ccc([nH]4)c(-c4c(F)c(F)c(F)c(F)c4F)c4nc(c(-c5c(F)c(F)c(F)c(F)c5F)c5ccc2[nH]5)C=C4)C=C3)cc1
REMARK SMILES IDX 16 1 15 2 13 3 14 4 11 5 12 6 9 7 10 8 8 9 7 12 1 13 2 14
REMARK SMILES IDX 3 15 5 16 4 17 6 18 17 19 18 20 19 21 20 22 21 23 22 24
REMARK SMILES IDX 83 25 23 26 82 27 24 28 25 29 26 30 76 31 27 32 81 33 75 34
REMARK SMILES IDX 77 35 28 36 80 37 74 38 73 39 29 41 61 42 41 43 60 44 42 45
REMARK SMILES IDX 45 46 59 47 78 48 43 49 44 50 58 52 79 53 46 54 30 55 31 56
REMARK SMILES IDX 39 57 32 58 33 59 37 60 40 61 34 62 35 63 38 64 36 65 62 66
REMARK SMILES IDX 63 67 71 68 64 69 65 70 69 71 72 72 66 73 67 74 70 75 68 76
REMARK SMILES IDX 47 77 48 78 56 79 49 80 50 81 54 82 57 83 51 84 52 85 55 86
REMARK SMILES IDX 53 87
REMARK H PARENT 8 10 8 11 77 40 45 51
REMARK Flexibility Score: inf
ROOT
ATOM      1  C   UNL A   1      32.318  27.789  26.372  1.00  0.00     0.274 C 
ENDROOT
BRANCH   1   2
ATOM      2  O   UNL A   1      31.367  26.891  26.983  1.00  0.00    -0.462 OA
BRANCH   2   3
ATOM      3  C   UNL A   1      30.621  26.165  26.110  1.00  0.00     0.314 C 
ATOM      4  O   UNL A   1      29.686  25.437  26.432  1.00  0.00    -0.252 OA
BRANCH   3   5
ATOM      5  C   UNL A   1      31.061  26.302  24.665  1.00  0.00     0.154 C 
ATOM      6  C   UNL A   1      29.816  26.676  23.854  1.00  0.00     0.026 C 
BRANCH   5   7
ATOM      7  C   UNL A   1      31.846  25.103  24.061  1.00  0.00     0.193 C 
ATOM      8  C   UNL A   1      31.086  24.469  22.890  1.00  0.00     0.076 C 
BRANCH   7   9
ATOM      9  N   UNL A   1      32.015  24.116  25.143  1.00  0.00    -0.341 N 
ATOM     10  H   UNL A   1      31.601  24.514  25.986  1.00  0.00     0.346 HD
ATOM     11  H   UNL A   1      31.568  23.269  24.791  1.00  0.00     0.346 HD
BRANCH   9  12
ATOM     12  C   UNL A   1      33.375  23.703  25.478  1.00  0.00     0.185 C 
ATOM     13  C   UNL A   1      33.402  21.433  24.292  1.00  0.00     0.014 C 
ATOM     14  C   UNL A   1      33.947  22.857  24.320  1.00  0.00     0.047 C 
ATOM     15  C   UNL A   1      35.475  22.900  24.516  1.00  0.00    -0.005 C 
ATOM     16  C   UNL A   1      35.749  24.143  25.371  1.00  0.00     0.010 C 
ATOM     17  C   UNL A   1      36.219  22.948  23.185  1.00  0.00     0.008 C 
ATOM     18  C   UNL A   1      34.404  24.830  25.568  1.00  0.00     0.065 C 
ENDBRANCH   9  12
ENDBRANCH   7   9
ENDBRANCH   5   7
ENDBRANCH   3   5
ENDBRANCH   2   3
ENDBRANCH   1   2
BRANCH   1  19
ATOM     19  C   UNL A   1      31.938  29.245  26.653  1.00  0.00     0.275 C 
BRANCH  19  20
ATOM     20  O   UNL A   1      32.978  30.118  26.177  1.00  0.00    -0.458 OA
BRANCH  20  21
ATOM     21  C   UNL A   1      33.236  31.195  26.953  1.00  0.00     0.338 C 
ATOM     22  O   UNL A   1      32.545  32.193  27.070  1.00  0.00    -0.246 OA
BRANCH  21  23
ATOM     23  C   UNL A   1      34.523  31.017  27.663  1.00  0.00     0.060 A 
ATOM     24  C   UNL A   1      35.457  32.053  27.782  1.00  0.00     0.016 A 
ATOM     25  C   UNL A   1      34.822  29.753  28.177  1.00  0.00     0.016 A 
ATOM     26  C   UNL A   1      36.693  31.821  28.389  1.00  0.00     0.010 A 
ATOM     27  C   UNL A   1      36.030  29.540  28.840  1.00  0.00     0.010 A 
ATOM     28  C   UNL A   1      36.982  30.568  28.946  1.00  0.00    -0.014 A 
BRANCH  28  29
ATOM     29  C   UNL A   1      38.250  30.308  29.674  1.00  0.00     0.031 A 
ATOM     30  C   UNL A   1      39.261  29.352  29.109  1.00  0.00     0.074 A 
ATOM     31  C   UNL A   1      38.447  30.858  30.887  1.00  0.00     0.049 A 
ATOM     32  N   UNL A   1      40.297  28.801  29.690  1.00  0.00    -0.248 NA
ATOM     33  C   UNL A   1      39.072  28.949  27.708  1.00  0.00     0.031 C 
ATOM     34  C   UNL A   1      37.554  31.817  31.538  1.00  0.00     0.029 A 
ATOM     35  N   UNL A   1      39.449  30.661  31.805  1.00  0.00    -0.354 N 
ATOM     36  C   UNL A   1      40.859  27.958  28.741  1.00  0.00     0.074 A 
ATOM     37  C   UNL A   1      40.049  28.067  27.546  1.00  0.00     0.031 C 
ATOM     38  C   UNL A   1      38.037  32.112  32.753  1.00  0.00     0.029 A 
ATOM     39  C   UNL A   1      39.235  31.315  32.994  1.00  0.00     0.049 A 
ATOM     40  H   UNL A   1      40.243  30.105  31.629  1.00  0.00     0.167 HD
ATOM     41  C   UNL A   1      41.949  27.163  28.863  1.00  0.00     0.037 A 
ATOM     42  C   UNL A   1      39.894  31.241  34.165  1.00  0.00     0.037 A 
ATOM     43  C   UNL A   1      42.769  27.084  30.044  1.00  0.00     0.049 A 
ATOM     44  C   UNL A   1      41.074  30.319  34.289  1.00  0.00     0.074 A 
ATOM     45  C   UNL A   1      43.925  26.351  30.246  1.00  0.00     0.029 A 
ATOM     46  N   UNL A   1      42.516  27.766  31.226  1.00  0.00    -0.354 N 
ATOM     47  N   UNL A   1      41.599  29.524  33.389  1.00  0.00    -0.248 NA
ATOM     48  C   UNL A   1      41.744  30.273  35.596  1.00  0.00     0.031 C 
ATOM     49  C   UNL A   1      44.351  26.557  31.564  1.00  0.00     0.029 A 
ATOM     50  C   UNL A   1      43.481  27.450  32.169  1.00  0.00     0.049 A 
ATOM     51  H   UNL A   1      41.763  28.382  31.373  1.00  0.00     0.167 HD
ATOM     52  C   UNL A   1      42.666  28.895  34.013  1.00  0.00     0.074 A 
ATOM     53  C   UNL A   1      42.724  29.410  35.366  1.00  0.00     0.031 C 
ATOM     54  C   UNL A   1      43.521  27.970  33.511  1.00  0.00     0.037 A 
BRANCH  41  55
ATOM     55  C   UNL A   1      42.312  26.290  27.699  1.00  0.00     0.064 A 
ATOM     56  C   UNL A   1      43.304  26.659  26.780  1.00  0.00     0.173 A 
ATOM     57  C   UNL A   1      41.696  25.040  27.536  1.00  0.00     0.173 A 
ATOM     58  F   UNL A   1      43.914  27.849  26.885  1.00  0.00    -0.203 F 
ATOM     59  C   UNL A   1      43.655  25.814  25.729  1.00  0.00     0.198 A 
ATOM     60  C   UNL A   1      42.065  24.188  26.498  1.00  0.00     0.198 A 
ATOM     61  F   UNL A   1      40.744  24.638  28.392  1.00  0.00    -0.203 F 
ATOM     62  F   UNL A   1      44.583  26.199  24.842  1.00  0.00    -0.200 F 
ATOM     63  C   UNL A   1      43.041  24.577  25.593  1.00  0.00     0.200 A 
ATOM     64  F   UNL A   1      41.478  22.990  26.376  1.00  0.00    -0.200 F 
ATOM     65  F   UNL A   1      43.387  23.762  24.588  1.00  0.00    -0.200 F 
ENDBRANCH  41  55
BRANCH  42  66
ATOM     66  C   UNL A   1      39.420  32.036  35.326  1.00  0.00     0.064 A 
ATOM     67  C   UNL A   1      38.584  31.467  36.294  1.00  0.00     0.173 A 
ATOM     68  C   UNL A   1      39.807  33.374  35.498  1.00  0.00     0.173 A 
ATOM     69  F   UNL A   1      38.167  30.200  36.156  1.00  0.00    -0.203 F 
ATOM     70  C   UNL A   1      38.146  32.209  37.388  1.00  0.00     0.198 A 
ATOM     71  C   UNL A   1      39.390  34.106  36.606  1.00  0.00     0.198 A 
ATOM     72  F   UNL A   1      40.606  33.963  34.597  1.00  0.00    -0.203 F 
ATOM     73  F   UNL A   1      37.318  31.652  38.284  1.00  0.00    -0.200 F 
ATOM     74  C   UNL A   1      38.556  33.524  37.549  1.00  0.00     0.200 A 
ATOM     75  F   UNL A   1      39.797  35.372  36.763  1.00  0.00    -0.200 F 
ATOM     76  F   UNL A   1      38.141  34.233  38.607  1.00  0.00    -0.200 F 
ENDBRANCH  42  66
BRANCH  54  77
ATOM     77  C   UNL A   1      44.603  27.475  34.422  1.00  0.00     0.064 A 
ATOM     78  C   UNL A   1      45.820  28.160  34.550  1.00  0.00     0.173 A 
ATOM     79  C   UNL A   1      44.406  26.326  35.200  1.00  0.00     0.173 A 
ATOM     80  F   UNL A   1      46.059  29.254  33.812  1.00  0.00    -0.203 F 
ATOM     81  C   UNL A   1      46.810  27.698  35.414  1.00  0.00     0.198 A 
ATOM     82  C   UNL A   1      45.389  25.881  36.079  1.00  0.00     0.198 A 
ATOM     83  F   UNL A   1      43.256  25.639  35.113  1.00  0.00    -0.203 F 
ATOM     84  F   UNL A   1      47.981  28.345  35.493  1.00  0.00    -0.200 F 
ATOM     85  C   UNL A   1      46.591  26.563  36.181  1.00  0.00     0.200 A 
ATOM     86  F   UNL A   1      45.173  24.789  36.826  1.00  0.00    -0.200 F 
ATOM     87  F   UNL A   1      47.544  26.124  37.015  1.00  0.00    -0.200 F 
ENDBRANCH  54  77
ENDBRANCH  28  29
ENDBRANCH  21  23
ENDBRANCH  20  21
ENDBRANCH  19  20
ENDBRANCH   1  19
TORSDOF 14
ENDMDL
MODEL 3
REMARK VINA RESULT:     -11.0      4.189      9.794
REMARK SMILES C[C@@H]1[C@@H](C)CC[C@H]1[NH2+][C@@H](C)[C@@H](C)C(=O)OCCOC(=O)c1ccc(-c2c3nc(c(-c4c(F)c(F)c(F)c(F)c4F)c4ccc([nH]4)c(-c4c(F)c(F)c(F)c(F)c4F)c4nc(c(-c5c(F)c(F)c(F)c(F)c5F)c5ccc2[nH]5)C=C4)C=C3)cc1
REMARK SMILES IDX 16 1 15 2 13 3 14 4 11 5 12 6 9 7 10 8 8 9 7 12 1 13 2 14
REMARK SMILES IDX 3 15 5 16 4 17 6 18 17 19 18 20 19 21 20 22 21 23 22 24
REMARK SMILES IDX 83 25 23 26 82 27 24 28 25 29 26 30 76 31 27 32 81 33 75 34
REMARK SMILES IDX 77 35 28 36 80 37 74 38 73 39 29 41 61 42 41 43 60 44 42 45
REMARK SMILES IDX 45 46 59 47 78 48 43 49 44 50 58 52 79 53 46 54 30 55 31 56
REMARK SMILES IDX 39 57 32 58 33 59 37 60 40 61 34 62 35 63 38 64 36 65 62 66
REMARK SMILES IDX 63 67 71 68 64 69 65 70 69 71 72 72 66 73 67 74 70 75 68 76
REMARK SMILES IDX 47 77 48 78 56 79 49 80 50 81 54 82 57 83 51 84 52 85 55 86
REMARK SMILES IDX 53 87
REMARK H PARENT 8 10 8 11 77 40 45 51
REMARK Flexibility Score: inf
ROOT
ATOM      1  C   UNL A   1      33.928  33.951  28.409  1.00  0.00     0.274 C 
ENDROOT
BRANCH   1   2
ATOM      2  O   UNL A   1      33.244  34.185  29.658  1.00  0.00    -0.462 OA
BRANCH   2   3
ATOM      3  C   UNL A   1      32.904  35.479  29.892  1.00  0.00     0.314 C 
ATOM      4  O   UNL A   1      32.558  36.277  29.025  1.00  0.00    -0.252 OA
BRANCH   3   5
ATOM      5  C   UNL A   1      33.016  35.888  31.350  1.00  0.00     0.154 C 
ATOM      6  C   UNL A   1      33.278  37.396  31.370  1.00  0.00     0.026 C 
BRANCH   5   7
ATOM      7  C   UNL A   1      34.020  35.081  32.222  1.00  0.00     0.193 C 
ATOM      8  C   UNL A   1      34.308  35.795  33.548  1.00  0.00     0.076 C 
BRANCH   7   9
ATOM      9  N   UNL A   1      35.262  34.956  31.438  1.00  0.00    -0.341 N 
ATOM     10  H   UNL A   1      35.024  35.128  30.461  1.00  0.00     0.346 HD
ATOM     11  H   UNL A   1      35.901  35.630  31.860  1.00  0.00     0.346 HD
BRANCH   9  12
ATOM     12  C   UNL A   1      35.975  33.684  31.495  1.00  0.00     0.185 C 
ATOM     13  C   UNL A   1      38.347  34.578  31.866  1.00  0.00     0.014 C 
ATOM     14  C   UNL A   1      37.170  33.817  32.465  1.00  0.00     0.047 C 
ATOM     15  C   UNL A   1      37.535  32.368  32.844  1.00  0.00    -0.005 C 
ATOM     16  C   UNL A   1      36.278  31.535  32.561  1.00  0.00     0.010 C 
ATOM     17  C   UNL A   1      37.979  32.253  34.299  1.00  0.00     0.008 C 
ATOM     18  C   UNL A   1      35.204  32.522  32.121  1.00  0.00     0.065 C 
ENDBRANCH   9  12
ENDBRANCH   7   9
ENDBRANCH   5   7
ENDBRANCH   3   5
ENDBRANCH   2   3
ENDBRANCH   1   2
BRANCH   1  19
ATOM     19  C   UNL A   1      33.638  32.539  27.895  1.00  0.00     0.275 C 
BRANCH  19  20
ATOM     20  O   UNL A   1      34.419  31.584  28.636  1.00  0.00    -0.458 OA
BRANCH  20  21
ATOM     21  C   UNL A   1      34.779  30.471  27.956  1.00  0.00     0.338 C 
ATOM     22  O   UNL A   1      34.134  29.905  27.090  1.00  0.00    -0.246 OA
BRANCH  21  23
ATOM     23  C   UNL A   1      36.101  29.994  28.421  1.00  0.00     0.060 A 
ATOM     24  C   UNL A   1      36.293  29.464  29.702  1.00  0.00     0.016 A 
ATOM     25  C   UNL A   1      37.192  30.136  27.560  1.00  0.00     0.016 A 
ATOM     26  C   UNL A   1      37.571  29.100  30.131  1.00  0.00     0.010 A 
ATOM     27  C   UNL A   1      38.458  29.713  27.966  1.00  0.00     0.010 A 
ATOM     28  C   UNL A   1      38.662  29.198  29.257  1.00  0.00    -0.014 A 
BRANCH  28  29
ATOM     29  C   UNL A   1      40.021  28.741  29.647  1.00  0.00     0.031 A 
ATOM     30  C   UNL A   1      40.932  29.656  30.415  1.00  0.00     0.074 A 
ATOM     31  C   UNL A   1      40.467  27.543  29.227  1.00  0.00     0.049 A 
ATOM     32  N   UNL A   1      42.218  29.553  30.634  1.00  0.00    -0.248 NA
ATOM     33  C   UNL A   1      40.315  30.854  31.003  1.00  0.00     0.031 C 
ATOM     34  C   UNL A   1      39.678  26.554  28.492  1.00  0.00     0.029 A 
ATOM     35  N   UNL A   1      41.710  26.967  29.328  1.00  0.00    -0.354 N 
ATOM     36  C   UNL A   1      42.573  30.690  31.347  1.00  0.00     0.074 A 
ATOM     37  C   UNL A   1      41.367  31.471  31.525  1.00  0.00     0.031 C 
ATOM     38  C   UNL A   1      40.455  25.503  28.196  1.00  0.00     0.029 A 
ATOM     39  C   UNL A   1      41.813  25.772  28.659  1.00  0.00     0.049 A 
ATOM     40  H   UNL A   1      42.454  27.371  29.831  1.00  0.00     0.167 HD
ATOM     41  C   UNL A   1      43.797  31.047  31.805  1.00  0.00     0.037 A 
ATOM     42  C   UNL A   1      42.887  25.004  28.398  1.00  0.00     0.037 A 
ATOM     43  C   UNL A   1      44.986  30.250  31.653  1.00  0.00     0.049 A 
ATOM     44  C   UNL A   1      44.241  25.444  28.879  1.00  0.00     0.074 A 
ATOM     45  C   UNL A   1      46.261  30.500  32.130  1.00  0.00     0.029 A 
ATOM     46  N   UNL A   1      45.044  29.044  30.969  1.00  0.00    -0.354 N 
ATOM     47  N   UNL A   1      44.569  26.519  29.552  1.00  0.00    -0.248 NA
ATOM     48  C   UNL A   1      45.376  24.569  28.552  1.00  0.00     0.031 C 
ATOM     49  C   UNL A   1      47.100  29.465  31.701  1.00  0.00     0.029 A 
ATOM     50  C   UNL A   1      46.339  28.551  30.990  1.00  0.00     0.049 A 
ATOM     51  H   UNL A   1      44.279  28.605  30.532  1.00  0.00     0.167 HD
ATOM     52  C   UNL A   1      45.941  26.446  29.741  1.00  0.00     0.074 A 
ATOM     53  C   UNL A   1      46.384  25.213  29.123  1.00  0.00     0.031 C 
ATOM     54  C   UNL A   1      46.762  27.324  30.368  1.00  0.00     0.037 A 
BRANCH  41  55
ATOM     55  C   UNL A   1      43.924  32.372  32.497  1.00  0.00     0.064 A 
ATOM     56  C   UNL A   1      43.796  32.495  33.888  1.00  0.00     0.173 A 
ATOM     57  C   UNL A   1      44.239  33.524  31.761  1.00  0.00     0.173 A 
ATOM     58  F   UNL A   1      43.485  31.425  34.634  1.00  0.00    -0.203 F 
ATOM     59  C   UNL A   1      43.960  33.728  34.514  1.00  0.00     0.198 A 
ATOM     60  C   UNL A   1      44.425  34.751  32.393  1.00  0.00     0.198 A 
ATOM     61  F   UNL A   1      44.378  33.458  30.428  1.00  0.00    -0.203 F 
ATOM     62  F   UNL A   1      43.801  33.831  35.841  1.00  0.00    -0.200 F 
ATOM     63  C   UNL A   1      44.281  34.853  33.768  1.00  0.00     0.200 A 
ATOM     64  F   UNL A   1      44.746  35.834  31.671  1.00  0.00    -0.200 F 
ATOM     65  F   UNL A   1      44.449  36.036  34.374  1.00  0.00    -0.200 F 
ENDBRANCH  41  55
BRANCH  42  66
ATOM     66  C   UNL A   1      42.725  23.760  27.603  1.00  0.00     0.064 A 
ATOM     67  C   UNL A   1      42.258  22.582  28.198  1.00  0.00     0.173 A 
ATOM     68  C   UNL A   1      43.018  23.730  26.231  1.00  0.00     0.173 A 
ATOM     69  F   UNL A   1      41.991  22.557  29.512  1.00  0.00    -0.203 F 
ATOM     70  C   UNL A   1      42.097  21.417  27.452  1.00  0.00     0.198 A 
ATOM     71  C   UNL A   1      42.832  22.573  25.481  1.00  0.00     0.198 A 
ATOM     72  F   UNL A   1      43.469  24.834  25.617  1.00  0.00    -0.203 F 
ATOM     73  F   UNL A   1      41.681  20.292  28.052  1.00  0.00    -0.200 F 
ATOM     74  C   UNL A   1      42.375  21.415  26.093  1.00  0.00     0.200 A 
ATOM     75  F   UNL A   1      43.090  22.578  24.167  1.00  0.00    -0.200 F 
ATOM     76  F   UNL A   1      42.210  20.296  25.375  1.00  0.00    -0.200 F 
ENDBRANCH  42  66
BRANCH  54  77
ATOM     77  C   UNL A   1      48.216  26.969  30.435  1.00  0.00     0.064 A 
ATOM     78  C   UNL A   1      48.712  26.104  31.422  1.00  0.00     0.173 A 
ATOM     79  C   UNL A   1      49.115  27.472  29.484  1.00  0.00     0.173 A 
ATOM     80  F   UNL A   1      47.892  25.615  32.363  1.00  0.00    -0.203 F 
ATOM     81  C   UNL A   1      50.063  25.770  31.462  1.00  0.00     0.198 A 
ATOM     82  C   UNL A   1      50.460  27.116  29.514  1.00  0.00     0.198 A 
ATOM     83  F   UNL A   1      48.686  28.300  28.520  1.00  0.00    -0.203 F 
ATOM     84  F   UNL A   1      50.524  24.973  32.436  1.00  0.00    -0.200 F 
ATOM     85  C   UNL A   1      50.934  26.271  30.506  1.00  0.00     0.200 A 
ATOM     86  F   UNL A   1      51.299  27.594  28.584  1.00  0.00    -0.200 F 
ATOM     87  F   UNL A   1      52.233  25.944  30.545  1.00  0.00    -0.200 F 
ENDBRANCH  54  77
ENDBRANCH  28  29
ENDBRANCH  21  23
ENDBRANCH  20  21
ENDBRANCH  19  20
ENDBRANCH   1  19
TORSDOF 14
ENDMDL
