MODEL 1
REMARK VINA RESULT:     -12.0      0.000      0.000
REMARK SMILES O=C(C[C@H]1CC[C@@H](C(=O)OCCOC(=O)c2ccc(-c3c4nc(c(-c5c(F)c(F)c(F)c(F)c5F)c5ccc([nH]5)c(-c5c(F)c(F)c(F)c(F)c5F)c5nc(c(-c6c(F)c(F)c(F)c(F)c6F)c6ccc3[nH]6)C=C5)C=C4)cc2)C1)c1ccc(Cl)cc1
REMARK SMILES IDX 11 1 10 2 8 3 9 4 7 5 4 6 5 7 79 8 6 9 3 10 2 11 1 12 80 13
REMARK SMILES IDX 81 14 86 15 82 16 85 17 83 18 84 19 12 20 13 21 14 22 15 23
REMARK SMILES IDX 16 24 17 25 78 26 18 27 77 28 19 29 20 30 21 31 71 32 22 33
REMARK SMILES IDX 76 34 70 35 72 36 23 37 75 38 69 39 68 40 24 42 56 43 36 44
REMARK SMILES IDX 55 45 37 46 40 47 54 48 73 49 38 50 39 51 53 53 74 54 41 55
REMARK SMILES IDX 25 56 26 57 34 58 27 59 28 60 32 61 35 62 29 63 30 64 33 65
REMARK SMILES IDX 31 66 57 67 58 68 66 69 59 70 60 71 64 72 67 73 61 74 62 75
REMARK SMILES IDX 65 76 63 77 42 78 43 79 51 80 44 81 45 82 49 83 52 84 46 85
REMARK SMILES IDX 47 86 50 87 48 88
REMARK H PARENT 72 41 40 52
REMARK Flexibility Score: inf
ROOT
ATOM      1  C   UNL A   1      32.843  29.161  24.580  1.00  0.00     0.274 C 
ENDROOT
BRANCH   1   2
ATOM      2  O   UNL A   1      32.311  28.945  23.251  1.00  0.00    -0.462 OA
BRANCH   2   3
ATOM      3  C   UNL A   1      32.302  27.663  22.802  1.00  0.00     0.309 C 
ATOM      4  O   UNL A   1      33.307  27.004  22.559  1.00  0.00    -0.252 OA
BRANCH   3   5
ATOM      5  C   UNL A   1      30.902  27.086  22.626  1.00  0.00     0.099 C 
ATOM      6  C   UNL A   1      29.888  25.651  24.353  1.00  0.00    -0.003 C 
ATOM      7  C   UNL A   1      28.875  26.691  23.881  1.00  0.00     0.005 C 
ATOM      8  C   UNL A   1      30.824  25.630  23.134  1.00  0.00     0.019 C 
ATOM      9  C   UNL A   1      29.742  27.813  23.319  1.00  0.00     0.015 C 
BRANCH   6  10
ATOM     10  C   UNL A   1      30.646  26.005  25.648  1.00  0.00     0.084 C 
BRANCH  10  11
ATOM     11  C   UNL A   1      31.203  24.804  26.392  1.00  0.00     0.163 C 
ATOM     12  O   UNL A   1      30.528  24.097  27.131  1.00  0.00    -0.294 OA
BRANCH  11  13
ATOM     13  C   UNL A   1      32.657  24.563  26.256  1.00  0.00     0.018 A 
ATOM     14  C   UNL A   1      33.454  25.585  25.731  1.00  0.00     0.013 A 
ATOM     15  C   UNL A   1      33.198  23.303  26.522  1.00  0.00     0.013 A 
ATOM     16  C   UNL A   1      34.775  25.316  25.374  1.00  0.00     0.021 A 
ATOM     17  C   UNL A   1      34.534  23.050  26.198  1.00  0.00     0.021 A 
ATOM     18  C   UNL A   1      35.305  24.047  25.598  1.00  0.00     0.041 A 
ATOM     19  Cl  UNL A   1      36.918  23.702  25.110  1.00  0.00    -0.084 Cl
ENDBRANCH  11  13
ENDBRANCH  10  11
ENDBRANCH   6  10
ENDBRANCH   3   5
ENDBRANCH   2   3
ENDBRANCH   1   2
BRANCH   1  20
ATOM     20  C   UNL A   1      31.901  30.035  25.410  1.00  0.00     0.275 C 
BRANCH  20  21
ATOM     21  O   UNL A   1      32.422  30.132  26.743  1.00  0.00    -0.458 OA
BRANCH  21  22
ATOM     22  C   UNL A   1      33.025  31.297  27.077  1.00  0.00     0.338 C 
ATOM     23  O   UNL A   1      32.529  32.409  27.021  1.00  0.00    -0.246 OA
BRANCH  22  24
ATOM     24  C   UNL A   1      34.365  31.011  27.660  1.00  0.00     0.060 A 
ATOM     25  C   UNL A   1      34.732  29.706  27.992  1.00  0.00     0.016 A 
ATOM     26  C   UNL A   1      35.225  32.060  27.997  1.00  0.00     0.016 A 
ATOM     27  C   UNL A   1      35.878  29.461  28.747  1.00  0.00     0.010 A 
ATOM     28  C   UNL A   1      36.437  31.794  28.657  1.00  0.00     0.010 A 
ATOM     29  C   UNL A   1      36.771  30.491  29.066  1.00  0.00    -0.014 A 
BRANCH  29  30
ATOM     30  C   UNL A   1      38.034  30.198  29.811  1.00  0.00     0.031 A 
ATOM     31  C   UNL A   1      39.106  29.328  29.206  1.00  0.00     0.074 A 
ATOM     32  C   UNL A   1      38.241  30.716  31.041  1.00  0.00     0.049 A 
ATOM     33  N   UNL A   1      40.140  28.767  29.785  1.00  0.00    -0.248 NA
ATOM     34  C   UNL A   1      38.997  29.039  27.768  1.00  0.00     0.031 C 
ATOM     35  C   UNL A   1      37.332  31.617  31.751  1.00  0.00     0.029 A 
ATOM     36  N   UNL A   1      39.294  30.565  31.913  1.00  0.00    -0.354 N 
ATOM     37  C   UNL A   1      40.756  27.999  28.805  1.00  0.00     0.074 A 
ATOM     38  C   UNL A   1      39.994  28.181  27.587  1.00  0.00     0.031 C 
ATOM     39  C   UNL A   1      37.887  31.983  32.914  1.00  0.00     0.029 A 
ATOM     40  C   UNL A   1      39.135  31.251  33.092  1.00  0.00     0.049 A 
ATOM     41  H   UNL A   1      40.088  30.018  31.710  1.00  0.00     0.167 HD
ATOM     42  C   UNL A   1      41.851  27.207  28.916  1.00  0.00     0.037 A 
ATOM     43  C   UNL A   1      39.867  31.254  34.222  1.00  0.00     0.037 A 
ATOM     44  C   UNL A   1      42.662  27.090  30.102  1.00  0.00     0.049 A 
ATOM     45  C   UNL A   1      41.069  30.363  34.326  1.00  0.00     0.074 A 
ATOM     46  C   UNL A   1      43.801  26.326  30.298  1.00  0.00     0.029 A 
ATOM     47  N   UNL A   1      42.438  27.778  31.284  1.00  0.00    -0.354 N 
ATOM     48  N   UNL A   1      41.577  29.555  33.430  1.00  0.00    -0.248 NA
ATOM     49  C   UNL A   1      41.779  30.358  35.613  1.00  0.00     0.031 C 
ATOM     50  C   UNL A   1      44.252  26.533  31.607  1.00  0.00     0.029 A 
ATOM     51  C   UNL A   1      43.415  27.453  32.215  1.00  0.00     0.049 A 
ATOM     52  H   UNL A   1      41.695  28.406  31.441  1.00  0.00     0.167 HD
ATOM     53  C   UNL A   1      42.660  28.943  34.042  1.00  0.00     0.074 A 
ATOM     54  C   UNL A   1      42.755  29.494  35.378  1.00  0.00     0.031 C 
ATOM     55  C   UNL A   1      43.494  27.999  33.543  1.00  0.00     0.037 A 
BRANCH  42  56
ATOM     56  C   UNL A   1      42.229  26.363  27.734  1.00  0.00     0.064 A 
ATOM     57  C   UNL A   1      43.237  26.742  26.839  1.00  0.00     0.173 A 
ATOM     58  C   UNL A   1      41.616  25.114  27.544  1.00  0.00     0.173 A 
ATOM     59  F   UNL A   1      43.848  27.928  26.974  1.00  0.00    -0.203 F 
ATOM     60  C   UNL A   1      43.609  25.908  25.787  1.00  0.00     0.198 A 
ATOM     61  C   UNL A   1      42.006  24.272  26.507  1.00  0.00     0.198 A 
ATOM     62  F   UNL A   1      40.652  24.699  28.381  1.00  0.00    -0.203 F 
ATOM     63  F   UNL A   1      44.558  26.300  24.924  1.00  0.00    -0.200 F 
ATOM     64  C   UNL A   1      43.001  24.671  25.626  1.00  0.00     0.200 A 
ATOM     65  F   UNL A   1      41.429  23.071  26.364  1.00  0.00    -0.200 F 
ATOM     66  F   UNL A   1      43.372  23.863  24.624  1.00  0.00    -0.200 F 
ENDBRANCH  42  56
BRANCH  43  67
ATOM     67  C   UNL A   1      39.435  32.087  35.374  1.00  0.00     0.064 A 
ATOM     68  C   UNL A   1      39.852  33.419  35.494  1.00  0.00     0.173 A 
ATOM     69  C   UNL A   1      38.578  31.577  36.360  1.00  0.00     0.173 A 
ATOM     70  F   UNL A   1      40.695  33.941  34.592  1.00  0.00    -0.203 F 
ATOM     71  C   UNL A   1      39.426  34.209  36.560  1.00  0.00     0.198 A 
ATOM     72  C   UNL A   1      38.128  32.377  37.407  1.00  0.00     0.198 A 
ATOM     73  F   UNL A   1      38.154  30.306  36.289  1.00  0.00    -0.203 F 
ATOM     74  F   UNL A   1      39.864  35.471  36.671  1.00  0.00    -0.200 F 
ATOM     75  C   UNL A   1      38.555  33.692  37.508  1.00  0.00     0.200 A 
ATOM     76  F   UNL A   1      37.275  31.877  38.310  1.00  0.00    -0.200 F 
ATOM     77  F   UNL A   1      38.133  34.459  38.522  1.00  0.00    -0.200 F 
ENDBRANCH  43  67
BRANCH  55  78
ATOM     78  C   UNL A   1      44.589  27.516  34.445  1.00  0.00     0.064 A 
ATOM     79  C   UNL A   1      45.828  28.171  34.503  1.00  0.00     0.173 A 
ATOM     80  C   UNL A   1      44.397  26.394  35.263  1.00  0.00     0.173 A 
ATOM     81  F   UNL A   1      46.065  29.238  33.724  1.00  0.00    -0.203 F 
ATOM     82  C   UNL A   1      46.846  27.702  35.329  1.00  0.00     0.198 A 
ATOM     83  C   UNL A   1      45.410  25.941  36.105  1.00  0.00     0.198 A 
ATOM     84  F   UNL A   1      43.229  25.735  35.244  1.00  0.00    -0.203 F 
ATOM     85  F   UNL A   1      48.039  28.313  35.333  1.00  0.00    -0.200 F 
ATOM     86  C   UNL A   1      46.635  26.590  36.132  1.00  0.00     0.200 A 
ATOM     87  F   UNL A   1      45.203  24.870  36.883  1.00  0.00    -0.200 F 
ATOM     88  F   UNL A   1      47.617  26.137  36.922  1.00  0.00    -0.200 F 
ENDBRANCH  55  78
ENDBRANCH  29  30
ENDBRANCH  22  24
ENDBRANCH  21  22
ENDBRANCH  20  21
ENDBRANCH   1  20
TORSDOF 14
ENDMDL
MODEL 2
REMARK VINA RESULT:     -11.8      1.513      3.446
REMARK SMILES O=C(C[C@H]1CC[C@@H](C(=O)OCCOC(=O)c2ccc(-c3c4nc(c(-c5c(F)c(F)c(F)c(F)c5F)c5ccc([nH]5)c(-c5c(F)c(F)c(F)c(F)c5F)c5nc(c(-c6c(F)c(F)c(F)c(F)c6F)c6ccc3[nH]6)C=C5)C=C4)cc2)C1)c1ccc(Cl)cc1
REMARK SMILES IDX 11 1 10 2 8 3 9 4 7 5 4 6 5 7 79 8 6 9 3 10 2 11 1 12 80 13
REMARK SMILES IDX 81 14 86 15 82 16 85 17 83 18 84 19 12 20 13 21 14 22 15 23
REMARK SMILES IDX 16 24 17 25 78 26 18 27 77 28 19 29 20 30 21 31 71 32 22 33
REMARK SMILES IDX 76 34 70 35 72 36 23 37 75 38 69 39 68 40 24 42 56 43 36 44
REMARK SMILES IDX 55 45 37 46 40 47 54 48 73 49 38 50 39 51 53 53 74 54 41 55
REMARK SMILES IDX 25 56 26 57 34 58 27 59 28 60 32 61 35 62 29 63 30 64 33 65
REMARK SMILES IDX 31 66 57 67 58 68 66 69 59 70 60 71 64 72 67 73 61 74 62 75
REMARK SMILES IDX 65 76 63 77 42 78 43 79 51 80 44 81 45 82 49 83 52 84 46 85
REMARK SMILES IDX 47 86 50 87 48 88
REMARK H PARENT 72 41 40 52
REMARK Flexibility Score: inf
ROOT
ATOM      1  C   UNL A   1      31.668  28.426  26.765  1.00  0.00     0.274 C 
ENDROOT
BRANCH   1   2
ATOM      2  O   UNL A   1      32.418  27.302  26.245  1.00  0.00    -0.462 OA
BRANCH   2   3
ATOM      3  C   UNL A   1      31.795  26.095  26.265  1.00  0.00     0.309 C 
ATOM      4  O   UNL A   1      30.642  25.914  26.641  1.00  0.00    -0.252 OA
BRANCH   3   5
ATOM      5  C   UNL A   1      32.664  24.949  25.760  1.00  0.00     0.099 C 
ATOM      6  C   UNL A   1      33.331  24.801  23.393  1.00  0.00    -0.003 C 
ATOM      7  C   UNL A   1      34.537  24.534  24.290  1.00  0.00     0.005 C 
ATOM      8  C   UNL A   1      32.198  24.456  24.373  1.00  0.00     0.019 C 
ATOM      9  C   UNL A   1      34.168  25.212  25.606  1.00  0.00     0.015 C 
BRANCH   6  10
ATOM     10  C   UNL A   1      33.207  26.244  22.862  1.00  0.00     0.084 C 
BRANCH  10  11
ATOM     11  C   UNL A   1      31.981  26.486  22.000  1.00  0.00     0.163 C 
ATOM     12  O   UNL A   1      31.807  25.953  20.911  1.00  0.00    -0.294 OA
BRANCH  11  13
ATOM     13  C   UNL A   1      31.013  27.489  22.500  1.00  0.00     0.018 A 
ATOM     14  C   UNL A   1      29.902  27.040  23.218  1.00  0.00     0.013 A 
ATOM     15  C   UNL A   1      31.139  28.836  22.150  1.00  0.00     0.013 A 
ATOM     16  C   UNL A   1      28.859  27.922  23.500  1.00  0.00     0.021 A 
ATOM     17  C   UNL A   1      30.109  29.725  22.470  1.00  0.00     0.021 A 
ATOM     18  C   UNL A   1      28.962  29.257  23.115  1.00  0.00     0.041 A 
ATOM     19  Cl  UNL A   1      27.654  30.332  23.418  1.00  0.00    -0.084 Cl
ENDBRANCH  11  13
ENDBRANCH  10  11
ENDBRANCH   6  10
ENDBRANCH   3   5
ENDBRANCH   2   3
ENDBRANCH   1   2
BRANCH   1  20
ATOM     20  C   UNL A   1      31.714  29.610  25.796  1.00  0.00     0.275 C 
BRANCH  20  21
ATOM     21  O   UNL A   1      33.014  30.212  25.870  1.00  0.00    -0.458 OA
BRANCH  21  22
ATOM     22  C   UNL A   1      33.211  31.111  26.862  1.00  0.00     0.338 C 
ATOM     23  O   UNL A   1      32.410  31.943  27.252  1.00  0.00    -0.246 OA
BRANCH  22  24
ATOM     24  C   UNL A   1      34.523  30.848  27.514  1.00  0.00     0.060 A 
ATOM     25  C   UNL A   1      34.890  29.551  27.877  1.00  0.00     0.016 A 
ATOM     26  C   UNL A   1      35.353  31.911  27.883  1.00  0.00     0.016 A 
ATOM     27  C   UNL A   1      36.000  29.328  28.691  1.00  0.00     0.010 A 
ATOM     28  C   UNL A   1      36.533  31.668  28.605  1.00  0.00     0.010 A 
ATOM     29  C   UNL A   1      36.862  30.373  29.043  1.00  0.00    -0.014 A 
BRANCH  29  30
ATOM     30  C   UNL A   1      38.090  30.103  29.854  1.00  0.00     0.031 A 
ATOM     31  C   UNL A   1      39.218  29.272  29.297  1.00  0.00     0.074 A 
ATOM     32  C   UNL A   1      38.215  30.608  31.100  1.00  0.00     0.049 A 
ATOM     33  N   UNL A   1      40.234  28.730  29.925  1.00  0.00    -0.248 NA
ATOM     34  C   UNL A   1      39.197  29.002  27.852  1.00  0.00     0.031 C 
ATOM     35  C   UNL A   1      37.243  31.473  31.770  1.00  0.00     0.029 A 
ATOM     36  N   UNL A   1      39.222  30.473  32.027  1.00  0.00    -0.354 N 
ATOM     37  C   UNL A   1      40.925  27.994  28.970  1.00  0.00     0.074 A 
ATOM     38  C   UNL A   1      40.225  28.174  27.715  1.00  0.00     0.031 C 
ATOM     39  C   UNL A   1      37.722  31.836  32.967  1.00  0.00     0.029 A 
ATOM     40  C   UNL A   1      38.978  31.136  33.204  1.00  0.00     0.049 A 
ATOM     41  H   UNL A   1      40.040  29.950  31.861  1.00  0.00     0.167 HD
ATOM     42  C   UNL A   1      42.033  27.231  29.131  1.00  0.00     0.037 A 
ATOM     43  C   UNL A   1      39.646  31.141  34.373  1.00  0.00     0.037 A 
ATOM     44  C   UNL A   1      42.781  27.118  30.359  1.00  0.00     0.049 A 
ATOM     45  C   UNL A   1      40.865  30.282  34.532  1.00  0.00     0.074 A 
ATOM     46  C   UNL A   1      43.928  26.383  30.608  1.00  0.00     0.029 A 
ATOM     47  N   UNL A   1      42.472  27.782  31.536  1.00  0.00    -0.354 N 
ATOM     48  N   UNL A   1      41.445  29.502  33.654  1.00  0.00    -0.248 NA
ATOM     49  C   UNL A   1      41.503  30.277  35.856  1.00  0.00     0.031 C 
ATOM     50  C   UNL A   1      44.300  26.582  31.942  1.00  0.00     0.029 A 
ATOM     51  C   UNL A   1      43.405  27.470  32.515  1.00  0.00     0.049 A 
ATOM     52  H   UNL A   1      41.705  28.387  31.660  1.00  0.00     0.167 HD
ATOM     53  C   UNL A   1      42.509  28.911  34.318  1.00  0.00     0.074 A 
ATOM     54  C   UNL A   1      42.515  29.444  35.664  1.00  0.00     0.031 C 
ATOM     55  C   UNL A   1      43.395  27.997  33.853  1.00  0.00     0.037 A 
BRANCH  42  56
ATOM     56  C   UNL A   1      42.500  26.416  27.961  1.00  0.00     0.064 A 
ATOM     57  C   UNL A   1      42.016  25.125  27.712  1.00  0.00     0.173 A 
ATOM     58  C   UNL A   1      43.393  26.974  27.032  1.00  0.00     0.173 A 
ATOM     59  F   UNL A   1      41.167  24.545  28.572  1.00  0.00    -0.203 F 
ATOM     60  C   UNL A   1      42.421  24.416  26.583  1.00  0.00     0.198 A 
ATOM     61  C   UNL A   1      43.777  26.273  25.893  1.00  0.00     0.198 A 
ATOM     62  F   UNL A   1      43.877  28.212  27.220  1.00  0.00    -0.203 F 
ATOM     63  F   UNL A   1      41.967  23.171  26.375  1.00  0.00    -0.200 F 
ATOM     64  C   UNL A   1      43.292  24.993  25.670  1.00  0.00     0.200 A 
ATOM     65  F   UNL A   1      44.606  26.840  25.005  1.00  0.00    -0.200 F 
ATOM     66  F   UNL A   1      43.667  24.316  24.576  1.00  0.00    -0.200 F 
ENDBRANCH  42  56
BRANCH  43  67
ATOM     67  C   UNL A   1      39.128  31.945  35.511  1.00  0.00     0.064 A 
ATOM     68  C   UNL A   1      38.312  31.364  36.489  1.00  0.00     0.173 A 
ATOM     69  C   UNL A   1      39.458  33.301  35.654  1.00  0.00     0.173 A 
ATOM     70  F   UNL A   1      37.946  30.079  36.379  1.00  0.00    -0.203 F 
ATOM     71  C   UNL A   1      37.848  32.110  37.570  1.00  0.00     0.198 A 
ATOM     72  C   UNL A   1      39.020  34.037  36.750  1.00  0.00     0.198 A 
ATOM     73  F   UNL A   1      40.235  33.903  34.740  1.00  0.00    -0.203 F 
ATOM     74  F   UNL A   1      37.043  31.539  38.477  1.00  0.00    -0.200 F 
ATOM     75  C   UNL A   1      38.211  33.442  37.706  1.00  0.00     0.200 A 
ATOM     76  F   UNL A   1      39.387  35.318  36.886  1.00  0.00    -0.200 F 
ATOM     77  F   UNL A   1      37.778  34.152  38.756  1.00  0.00    -0.200 F 
ENDBRANCH  43  67
BRANCH  55  78
ATOM     78  C   UNL A   1      44.452  27.531  34.808  1.00  0.00     0.064 A 
ATOM     79  C   UNL A   1      44.264  26.395  35.609  1.00  0.00     0.173 A 
ATOM     80  C   UNL A   1      45.668  28.222  34.920  1.00  0.00     0.173 A 
ATOM     81  F   UNL A   1      43.108  25.713  35.550  1.00  0.00    -0.203 F 
ATOM     82  C   UNL A   1      45.243  25.984  36.507  1.00  0.00     0.198 A 
ATOM     83  C   UNL A   1      46.655  27.794  35.803  1.00  0.00     0.198 A 
ATOM     84  F   UNL A   1      45.896  29.314  34.174  1.00  0.00    -0.203 F 
ATOM     85  F   UNL A   1      45.023  24.923  37.298  1.00  0.00    -0.200 F 
ATOM     86  C   UNL A   1      46.439  26.681  36.601  1.00  0.00     0.200 A 
ATOM     87  F   UNL A   1      47.811  28.465  35.890  1.00  0.00    -0.200 F 
ATOM     88  F   UNL A   1      47.380  26.285  37.470  1.00  0.00    -0.200 F 
ENDBRANCH  55  78
ENDBRANCH  29  30
ENDBRANCH  22  24
ENDBRANCH  21  22
ENDBRANCH  20  21
ENDBRANCH   1  20
TORSDOF 14
ENDMDL
MODEL 3
REMARK VINA RESULT:     -11.8      1.497      3.054
REMARK SMILES O=C(C[C@H]1CC[C@@H](C(=O)OCCOC(=O)c2ccc(-c3c4nc(c(-c5c(F)c(F)c(F)c(F)c5F)c5ccc([nH]5)c(-c5c(F)c(F)c(F)c(F)c5F)c5nc(c(-c6c(F)c(F)c(F)c(F)c6F)c6ccc3[nH]6)C=C5)C=C4)cc2)C1)c1ccc(Cl)cc1
REMARK SMILES IDX 11 1 10 2 8 3 9 4 7 5 4 6 5 7 79 8 6 9 3 10 2 11 1 12 80 13
REMARK SMILES IDX 81 14 86 15 82 16 85 17 83 18 84 19 12 20 13 21 14 22 15 23
REMARK SMILES IDX 16 24 17 25 78 26 18 27 77 28 19 29 20 30 21 31 71 32 22 33
REMARK SMILES IDX 76 34 70 35 72 36 23 37 75 38 69 39 68 40 24 42 56 43 36 44
REMARK SMILES IDX 55 45 37 46 40 47 54 48 73 49 38 50 39 51 53 53 74 54 41 55
REMARK SMILES IDX 25 56 26 57 34 58 27 59 28 60 32 61 35 62 29 63 30 64 33 65
REMARK SMILES IDX 31 66 57 67 58 68 66 69 59 70 60 71 64 72 67 73 61 74 62 75
REMARK SMILES IDX 65 76 63 77 42 78 43 79 51 80 44 81 45 82 49 83 52 84 46 85
REMARK SMILES IDX 47 86 50 87 48 88
REMARK H PARENT 72 41 40 52
REMARK Flexibility Score: inf
ROOT
ATOM      1  C   UNL A   1      31.514  28.457  26.726  1.00  0.00     0.274 C 
ENDROOT
BRANCH   1   2
ATOM      2  O   UNL A   1      32.398  27.348  26.438  1.00  0.00    -0.462 OA
BRANCH   2   3
ATOM      3  C   UNL A   1      31.815  26.130  26.286  1.00  0.00     0.309 C 
ATOM      4  O   UNL A   1      30.633  25.893  26.511  1.00  0.00    -0.252 OA
BRANCH   3   5
ATOM      5  C   UNL A   1      32.770  25.052  25.788  1.00  0.00     0.099 C 
ATOM      6  C   UNL A   1      33.464  24.952  23.426  1.00  0.00    -0.003 C 
ATOM      7  C   UNL A   1      34.679  24.775  24.333  1.00  0.00     0.005 C 
ATOM      8  C   UNL A   1      32.351  24.525  24.398  1.00  0.00     0.019 C 
ATOM      9  C   UNL A   1      34.251  25.425  25.645  1.00  0.00     0.015 C 
BRANCH   6  10
ATOM     10  C   UNL A   1      33.237  26.382  22.893  1.00  0.00     0.084 C 
BRANCH  10  11
ATOM     11  C   UNL A   1      32.009  26.531  22.014  1.00  0.00     0.163 C 
ATOM     12  O   UNL A   1      31.864  25.936  20.953  1.00  0.00    -0.294 OA
BRANCH  11  13
ATOM     13  C   UNL A   1      30.999  27.519  22.456  1.00  0.00     0.018 A 
ATOM     14  C   UNL A   1      29.918  27.068  23.219  1.00  0.00     0.013 A 
ATOM     15  C   UNL A   1      31.055  28.841  22.012  1.00  0.00     0.013 A 
ATOM     16  C   UNL A   1      28.837  27.916  23.454  1.00  0.00     0.021 A 
ATOM     17  C   UNL A   1      29.986  29.700  22.284  1.00  0.00     0.021 A 
ATOM     18  C   UNL A   1      28.870  29.225  22.975  1.00  0.00     0.041 A 
ATOM     19  Cl  UNL A   1      27.515  30.254  23.222  1.00  0.00    -0.084 Cl
ENDBRANCH  11  13
ENDBRANCH  10  11
ENDBRANCH   6  10
ENDBRANCH   3   5
ENDBRANCH   2   3
ENDBRANCH   1   2
BRANCH   1  20
ATOM     20  C   UNL A   1      31.678  29.570  25.689  1.00  0.00     0.275 C 
BRANCH  20  21
ATOM     21  O   UNL A   1      32.996  30.121  25.812  1.00  0.00    -0.458 OA
BRANCH  21  22
ATOM     22  C   UNL A   1      33.190  31.019  26.806  1.00  0.00     0.338 C 
ATOM     23  O   UNL A   1      32.375  31.827  27.217  1.00  0.00    -0.246 OA
BRANCH  22  24
ATOM     24  C   UNL A   1      34.521  30.786  27.431  1.00  0.00     0.060 A 
ATOM     25  C   UNL A   1      35.006  29.490  27.611  1.00  0.00     0.016 A 
ATOM     26  C   UNL A   1      35.250  31.857  27.957  1.00  0.00     0.016 A 
ATOM     27  C   UNL A   1      36.131  29.255  28.399  1.00  0.00     0.010 A 
ATOM     28  C   UNL A   1      36.448  31.622  28.651  1.00  0.00     0.010 A 
ATOM     29  C   UNL A   1      36.895  30.313  28.905  1.00  0.00    -0.014 A 
BRANCH  29  30
ATOM     30  C   UNL A   1      38.143  30.044  29.685  1.00  0.00     0.031 A 
ATOM     31  C   UNL A   1      39.251  29.204  29.104  1.00  0.00     0.074 A 
ATOM     32  C   UNL A   1      38.303  30.558  30.923  1.00  0.00     0.049 A 
ATOM     33  N   UNL A   1      40.282  28.662  29.709  1.00  0.00    -0.248 NA
ATOM     34  C   UNL A   1      39.190  28.922  27.663  1.00  0.00     0.031 C 
ATOM     35  C   UNL A   1      37.354  31.433  31.613  1.00  0.00     0.029 A 
ATOM     36  N   UNL A   1      39.335  30.425  31.824  1.00  0.00    -0.354 N 
ATOM     37  C   UNL A   1      40.943  27.915  28.742  1.00  0.00     0.074 A 
ATOM     38  C   UNL A   1      40.211  28.089  27.504  1.00  0.00     0.031 C 
ATOM     39  C   UNL A   1      37.867  31.803  32.794  1.00  0.00     0.029 A 
ATOM     40  C   UNL A   1      39.126  31.099  33.002  1.00  0.00     0.049 A 
ATOM     41  H   UNL A   1      40.146  29.898  31.640  1.00  0.00     0.167 HD
ATOM     42  C   UNL A   1      42.052  27.148  28.879  1.00  0.00     0.037 A 
ATOM     43  C   UNL A   1      39.825  31.110  34.152  1.00  0.00     0.037 A 
ATOM     44  C   UNL A   1      42.832  27.041  30.087  1.00  0.00     0.049 A 
ATOM     45  C   UNL A   1      41.044  30.246  34.285  1.00  0.00     0.074 A 
ATOM     46  C   UNL A   1      43.982  26.303  30.310  1.00  0.00     0.029 A 
ATOM     47  N   UNL A   1      42.558  27.716  31.267  1.00  0.00    -0.354 N 
ATOM     48  N   UNL A   1      41.597  29.457  33.398  1.00  0.00    -0.248 NA
ATOM     49  C   UNL A   1      41.717  30.249  35.592  1.00  0.00     0.031 C 
ATOM     50  C   UNL A   1      44.391  26.510  31.633  1.00  0.00     0.029 A 
ATOM     51  C   UNL A   1      43.516  27.406  32.222  1.00  0.00     0.049 A 
ATOM     52  H   UNL A   1      41.797  28.325  31.407  1.00  0.00     0.167 HD
ATOM     53  C   UNL A   1      42.676  28.866  34.037  1.00  0.00     0.074 A 
ATOM     54  C   UNL A   1      42.720  29.409  35.379  1.00  0.00     0.031 C 
ATOM     55  C   UNL A   1      43.545  27.945  33.556  1.00  0.00     0.037 A 
BRANCH  42  56
ATOM     56  C   UNL A   1      42.483  26.322  27.703  1.00  0.00     0.064 A 
ATOM     57  C   UNL A   1      43.465  26.758  26.805  1.00  0.00     0.173 A 
ATOM     58  C   UNL A   1      41.951  25.035  27.522  1.00  0.00     0.173 A 
ATOM     59  F   UNL A   1      43.999  27.981  26.931  1.00  0.00    -0.203 F 
ATOM     60  C   UNL A   1      43.889  25.941  25.758  1.00  0.00     0.198 A 
ATOM     61  C   UNL A   1      42.394  24.212  26.490  1.00  0.00     0.198 A 
ATOM     62  F   UNL A   1      41.014  24.566  28.362  1.00  0.00    -0.203 F 
ATOM     63  F   UNL A   1      44.812  26.387  24.893  1.00  0.00    -0.200 F 
ATOM     64  C   UNL A   1      43.361  24.667  25.607  1.00  0.00     0.200 A 
ATOM     65  F   UNL A   1      41.893  22.976  26.356  1.00  0.00    -0.200 F 
ATOM     66  F   UNL A   1      43.782  23.877  24.610  1.00  0.00    -0.200 F 
ENDBRANCH  42  56
BRANCH  43  67
ATOM     67  C   UNL A   1      39.341  31.925  35.297  1.00  0.00     0.064 A 
ATOM     68  C   UNL A   1      39.683  33.279  35.411  1.00  0.00     0.173 A 
ATOM     69  C   UNL A   1      38.509  31.374  36.282  1.00  0.00     0.173 A 
ATOM     70  F   UNL A   1      40.501  33.841  34.510  1.00  0.00    -0.203 F 
ATOM     71  C   UNL A   1      39.209  34.050  36.470  1.00  0.00     0.198 A 
ATOM     72  C   UNL A   1      38.010  32.154  37.321  1.00  0.00     0.198 A 
ATOM     73  F   UNL A   1      38.157  30.081  36.217  1.00  0.00    -0.203 F 
ATOM     74  F   UNL A   1      39.575  35.335  36.575  1.00  0.00    -0.200 F 
ATOM     75  C   UNL A   1      38.363  33.491  37.417  1.00  0.00     0.200 A 
ATOM     76  F   UNL A   1      37.181  31.613  38.224  1.00  0.00    -0.200 F 
ATOM     77  F   UNL A   1      37.894  34.240  38.424  1.00  0.00    -0.200 F 
ENDBRANCH  43  67
BRANCH  55  78
ATOM     78  C   UNL A   1      44.625  27.481  34.486  1.00  0.00     0.064 A 
ATOM     79  C   UNL A   1      44.453  26.352  35.299  1.00  0.00     0.173 A 
ATOM     80  C   UNL A   1      45.846  28.168  34.560  1.00  0.00     0.173 A 
ATOM     81  F   UNL A   1      43.294  25.674  35.277  1.00  0.00    -0.203 F 
ATOM     82  C   UNL A   1      45.455  25.942  36.174  1.00  0.00     0.198 A 
ATOM     83  C   UNL A   1      46.854  27.742  35.420  1.00  0.00     0.198 A 
ATOM     84  F   UNL A   1      46.058  29.253  33.801  1.00  0.00    -0.203 F 
ATOM     85  F   UNL A   1      45.252  24.888  36.978  1.00  0.00    -0.200 F 
ATOM     86  C   UNL A   1      46.656  26.635  36.231  1.00  0.00     0.200 A 
ATOM     87  F   UNL A   1      48.015  28.408  35.471  1.00  0.00    -0.200 F 
ATOM     88  F   UNL A   1      47.617  26.242  37.078  1.00  0.00    -0.200 F 
ENDBRANCH  55  78
ENDBRANCH  29  30
ENDBRANCH  22  24
ENDBRANCH  21  22
ENDBRANCH  20  21
ENDBRANCH   1  20
TORSDOF 14
ENDMDL
