MODEL 1
REMARK VINA RESULT:     -13.3      0.000      0.000
REMARK SMILES Cc1nc(NC(=O)[C@H]2[C@@H]3CC[C@@H](C3)[C@@H]2C(=O)OCCOC(=O)c2ccc(-c3c4nc(c(-c5c(F)c(F)c(F)c(F)c5F)c5ccc([nH]5)c(-c5c(F)c(F)c(F)c(F)c5F)c5nc(c(-c6c(F)c(F)c(F)c(F)c6F)c6ccc3[nH]6)C=C5)C=C4)cc2)sc1-c1ccccc1
REMARK SMILES IDX 18 1 17 2 15 3 16 4 14 5 8 6 9 7 10 8 13 9 12 10 11 11 6 12
REMARK SMILES IDX 5 13 7 15 4 16 1 17 2 18 3 19 87 20 86 21 88 22 89 23 93 24
REMARK SMILES IDX 90 25 92 26 91 27 19 28 20 29 21 30 22 31 23 32 24 33 85 34
REMARK SMILES IDX 25 35 84 36 26 37 27 38 28 39 78 40 29 41 83 42 77 43 79 44
REMARK SMILES IDX 30 45 82 46 76 47 75 48 31 50 63 51 43 52 62 53 44 54 47 55
REMARK SMILES IDX 61 56 80 57 45 58 46 59 60 61 81 62 48 63 32 64 33 65 41 66
REMARK SMILES IDX 34 67 35 68 39 69 42 70 36 71 37 72 40 73 38 74 64 75 65 76
REMARK SMILES IDX 73 77 66 78 67 79 71 80 74 81 68 82 69 83 72 84 70 85 49 86
REMARK SMILES IDX 50 87 58 88 51 89 52 90 56 91 59 92 53 93 54 94 57 95 55 96
REMARK H PARENT 5 14 79 49 47 60
REMARK Flexibility Score: inf
ROOT
ATOM      1  C   UNL A   1      31.101  29.690  24.647  1.00  0.00     0.274 C 
ENDROOT
BRANCH   1   2
ATOM      2  O   UNL A   1      30.724  28.306  24.524  1.00  0.00    -0.462 OA
BRANCH   2   3
ATOM      3  C   UNL A   1      31.279  27.600  23.492  1.00  0.00     0.310 C 
ATOM      4  O   UNL A   1      31.464  28.018  22.361  1.00  0.00    -0.252 OA
BRANCH   3   5
ATOM      5  C   UNL A   1      31.726  26.251  24.020  1.00  0.00     0.115 C 
ATOM      6  C   UNL A   1      31.396  25.930  25.488  1.00  0.00     0.096 C 
ATOM      7  C   UNL A   1      32.802  25.694  26.097  1.00  0.00     0.003 C 
ATOM      8  C   UNL A   1      33.577  27.029  26.111  1.00  0.00     0.005 C 
ATOM      9  C   UNL A   1      33.497  24.935  24.972  1.00  0.00     0.009 C 
ATOM     10  C   UNL A   1      33.256  26.047  23.947  1.00  0.00     0.004 C 
ATOM     11  C   UNL A   1      33.976  27.217  24.640  1.00  0.00     0.005 C 
BRANCH   6  12
ATOM     12  C   UNL A   1      30.444  24.795  25.942  1.00  0.00     0.230 C 
ATOM     13  N   UNL A   1      30.328  23.532  25.468  1.00  0.00    -0.302 N 
ATOM     14  H   UNL A   1      29.487  23.082  25.710  1.00  0.00     0.172 HD
ATOM     15  O   UNL A   1      29.589  25.100  26.794  1.00  0.00    -0.274 OA
BRANCH  13  16
ATOM     16  C   UNL A   1      31.174  22.780  24.716  1.00  0.00     0.190 A 
ATOM     17  C   UNL A   1      32.053  21.455  21.548  1.00  0.00     0.068 C 
ATOM     18  C   UNL A   1      32.040  21.710  23.014  1.00  0.00     0.058 A 
ATOM     19  N   UNL A   1      31.435  22.874  23.446  1.00  0.00    -0.225 NA
ATOM     20  C   UNL A   1      32.459  20.858  24.028  1.00  0.00     0.059 A 
ATOM     21  S   UNL A   1      31.988  21.530  25.547  1.00  0.00    -0.096 S 
BRANCH  20  22
ATOM     22  C   UNL A   1      33.126  19.559  23.915  1.00  0.00    -0.006 A 
ATOM     23  C   UNL A   1      34.362  19.313  24.527  1.00  0.00     0.009 A 
ATOM     24  C   UNL A   1      32.469  18.493  23.279  1.00  0.00     0.009 A 
ATOM     25  C   UNL A   1      34.907  18.025  24.534  1.00  0.00     0.001 A 
ATOM     26  C   UNL A   1      33.009  17.206  23.296  1.00  0.00     0.001 A 
ATOM     27  C   UNL A   1      34.225  16.971  23.930  1.00  0.00     0.000 A 
ENDBRANCH  20  22
ENDBRANCH  13  16
ENDBRANCH   6  12
ENDBRANCH   3   5
ENDBRANCH   2   3
ENDBRANCH   1   2
BRANCH   1  28
ATOM     28  C   UNL A   1      31.562  29.965  26.079  1.00  0.00     0.275 C 
BRANCH  28  29
ATOM     29  O   UNL A   1      32.893  30.512  26.039  1.00  0.00    -0.458 OA
BRANCH  29  30
ATOM     30  C   UNL A   1      33.177  31.467  26.948  1.00  0.00     0.338 C 
ATOM     31  O   UNL A   1      32.504  32.444  27.241  1.00  0.00    -0.246 OA
BRANCH  30  32
ATOM     32  C   UNL A   1      34.469  31.162  27.586  1.00  0.00     0.060 A 
ATOM     33  C   UNL A   1      34.777  29.849  27.936  1.00  0.00     0.016 A 
ATOM     34  C   UNL A   1      35.345  32.193  27.921  1.00  0.00     0.016 A 
ATOM     35  C   UNL A   1      35.918  29.568  28.685  1.00  0.00     0.010 A 
ATOM     36  C   UNL A   1      36.537  31.897  28.592  1.00  0.00     0.010 A 
ATOM     37  C   UNL A   1      36.824  30.585  29.010  1.00  0.00    -0.014 A 
BRANCH  37  38
ATOM     38  C   UNL A   1      38.048  30.278  29.805  1.00  0.00     0.031 A 
ATOM     39  C   UNL A   1      39.135  29.414  29.224  1.00  0.00     0.074 A 
ATOM     40  C   UNL A   1      38.198  30.777  31.048  1.00  0.00     0.049 A 
ATOM     41  N   UNL A   1      40.187  28.896  29.809  1.00  0.00    -0.248 NA
ATOM     42  C   UNL A   1      39.015  29.070  27.799  1.00  0.00     0.031 C 
ATOM     43  C   UNL A   1      37.250  31.660  31.727  1.00  0.00     0.029 A 
ATOM     44  N   UNL A   1      39.212  30.617  31.962  1.00  0.00    -0.354 N 
ATOM     45  C   UNL A   1      40.817  28.120  28.845  1.00  0.00     0.074 A 
ATOM     46  C   UNL A   1      40.031  28.236  27.634  1.00  0.00     0.031 C 
ATOM     47  C   UNL A   1      37.742  31.994  32.929  1.00  0.00     0.029 A 
ATOM     48  C   UNL A   1      38.998  31.283  33.143  1.00  0.00     0.049 A 
ATOM     49  H   UNL A   1      40.017  30.076  31.786  1.00  0.00     0.167 HD
ATOM     50  C   UNL A   1      41.941  27.374  28.962  1.00  0.00     0.037 A 
ATOM     51  C   UNL A   1      39.706  31.294  34.288  1.00  0.00     0.037 A 
ATOM     52  C   UNL A   1      42.759  27.311  30.146  1.00  0.00     0.049 A 
ATOM     53  C   UNL A   1      40.955  30.467  34.392  1.00  0.00     0.074 A 
ATOM     54  C   UNL A   1      43.934  26.606  30.349  1.00  0.00     0.029 A 
ATOM     55  N   UNL A   1      42.496  27.992  31.326  1.00  0.00    -0.354 N 
ATOM     56  N   UNL A   1      41.510  29.692  33.493  1.00  0.00    -0.248 NA
ATOM     57  C   UNL A   1      41.665  30.498  35.679  1.00  0.00     0.031 C 
ATOM     58  C   UNL A   1      44.363  26.833  31.661  1.00  0.00     0.029 A 
ATOM     59  C   UNL A   1      43.478  27.712  32.264  1.00  0.00     0.049 A 
ATOM     60  H   UNL A   1      41.727  28.587  31.475  1.00  0.00     0.167 HD
ATOM     61  C   UNL A   1      42.632  29.146  34.100  1.00  0.00     0.074 A 
ATOM     62  C   UNL A   1      42.695  29.698  35.437  1.00  0.00     0.031 C 
ATOM     63  C   UNL A   1      43.524  28.260  33.594  1.00  0.00     0.037 A 
BRANCH  50  64
ATOM     64  C   UNL A   1      42.335  26.525  27.789  1.00  0.00     0.064 A 
ATOM     65  C   UNL A   1      43.273  26.951  26.838  1.00  0.00     0.173 A 
ATOM     66  C   UNL A   1      41.779  25.245  27.634  1.00  0.00     0.173 A 
ATOM     67  F   UNL A   1      43.822  28.171  26.932  1.00  0.00    -0.203 F 
ATOM     68  C   UNL A   1      43.622  26.137  25.763  1.00  0.00     0.198 A 
ATOM     69  C   UNL A   1      42.150  24.424  26.574  1.00  0.00     0.198 A 
ATOM     70  F   UNL A   1      40.879  24.787  28.519  1.00  0.00    -0.203 F 
ATOM     71  F   UNL A   1      44.487  26.583  24.841  1.00  0.00    -0.200 F 
ATOM     72  C   UNL A   1      43.065  24.873  25.635  1.00  0.00     0.200 A 
ATOM     73  F   UNL A   1      41.618  23.200  26.458  1.00  0.00    -0.200 F 
ATOM     74  F   UNL A   1      43.405  24.090  24.601  1.00  0.00    -0.200 F 
ENDBRANCH  50  64
BRANCH  51  75
ATOM     75  C   UNL A   1      39.218  32.095  35.440  1.00  0.00     0.064 A 
ATOM     76  C   UNL A   1      38.424  31.519  36.438  1.00  0.00     0.173 A 
ATOM     77  C   UNL A   1      39.565  33.449  35.579  1.00  0.00     0.173 A 
ATOM     78  F   UNL A   1      38.041  30.238  36.334  1.00  0.00    -0.203 F 
ATOM     79  C   UNL A   1      37.994  32.265  37.534  1.00  0.00     0.198 A 
ATOM     80  C   UNL A   1      39.160  34.185  36.689  1.00  0.00     0.198 A 
ATOM     81  F   UNL A   1      40.322  34.048  34.647  1.00  0.00    -0.203 F 
ATOM     82  F   UNL A   1      37.208  31.700  38.461  1.00  0.00    -0.200 F 
ATOM     83  C   UNL A   1      38.372  33.594  37.664  1.00  0.00     0.200 A 
ATOM     84  F   UNL A   1      39.539  35.464  36.817  1.00  0.00    -0.200 F 
ATOM     85  F   UNL A   1      37.972  34.305  38.726  1.00  0.00    -0.200 F 
ENDBRANCH  51  75
BRANCH  63  86
ATOM     86  C   UNL A   1      44.649  27.840  34.492  1.00  0.00     0.064 A 
ATOM     87  C   UNL A   1      44.522  26.747  35.362  1.00  0.00     0.173 A 
ATOM     88  C   UNL A   1      45.873  28.524  34.468  1.00  0.00     0.173 A 
ATOM     89  F   UNL A   1      43.365  26.071  35.433  1.00  0.00    -0.203 F 
ATOM     90  C   UNL A   1      45.574  26.368  36.193  1.00  0.00     0.198 A 
ATOM     91  C   UNL A   1      46.931  28.127  35.282  1.00  0.00     0.198 A 
ATOM     92  F   UNL A   1      46.045  29.573  33.650  1.00  0.00    -0.203 F 
ATOM     93  F   UNL A   1      45.416  25.348  37.047  1.00  0.00    -0.200 F 
ATOM     94  C   UNL A   1      46.778  27.055  36.149  1.00  0.00     0.200 A 
ATOM     95  F   UNL A   1      48.097  28.787  35.234  1.00  0.00    -0.200 F 
ATOM     96  F   UNL A   1      47.789  26.689  36.948  1.00  0.00    -0.200 F 
ENDBRANCH  63  86
ENDBRANCH  37  38
ENDBRANCH  30  32
ENDBRANCH  29  30
ENDBRANCH  28  29
ENDBRANCH   1  28
TORSDOF 14
ENDMDL
MODEL 2
REMARK VINA RESULT:     -13.1      1.861      4.371
REMARK SMILES Cc1nc(NC(=O)[C@H]2[C@@H]3CC[C@@H](C3)[C@@H]2C(=O)OCCOC(=O)c2ccc(-c3c4nc(c(-c5c(F)c(F)c(F)c(F)c5F)c5ccc([nH]5)c(-c5c(F)c(F)c(F)c(F)c5F)c5nc(c(-c6c(F)c(F)c(F)c(F)c6F)c6ccc3[nH]6)C=C5)C=C4)cc2)sc1-c1ccccc1
REMARK SMILES IDX 18 1 17 2 15 3 16 4 14 5 8 6 9 7 10 8 13 9 12 10 11 11 6 12
REMARK SMILES IDX 5 13 7 15 4 16 1 17 2 18 3 19 87 20 86 21 88 22 89 23 93 24
REMARK SMILES IDX 90 25 92 26 91 27 19 28 20 29 21 30 22 31 23 32 24 33 85 34
REMARK SMILES IDX 25 35 84 36 26 37 27 38 28 39 78 40 29 41 83 42 77 43 79 44
REMARK SMILES IDX 30 45 82 46 76 47 75 48 31 50 63 51 43 52 62 53 44 54 47 55
REMARK SMILES IDX 61 56 80 57 45 58 46 59 60 61 81 62 48 63 32 64 33 65 41 66
REMARK SMILES IDX 34 67 35 68 39 69 42 70 36 71 37 72 40 73 38 74 64 75 65 76
REMARK SMILES IDX 73 77 66 78 67 79 71 80 74 81 68 82 69 83 72 84 70 85 49 86
REMARK SMILES IDX 50 87 58 88 51 89 52 90 56 91 59 92 53 93 54 94 57 95 55 96
REMARK H PARENT 5 14 79 49 47 60
REMARK Flexibility Score: inf
ROOT
ATOM      1  C   UNL A   1      31.860  28.003  26.729  1.00  0.00     0.274 C 
ENDROOT
BRANCH   1   2
ATOM      2  O   UNL A   1      31.192  26.918  26.059  1.00  0.00    -0.462 OA
BRANCH   2   3
ATOM      3  C   UNL A   1      31.743  25.673  26.189  1.00  0.00     0.310 C 
ATOM      4  O   UNL A   1      31.303  24.767  26.878  1.00  0.00    -0.252 OA
BRANCH   3   5
ATOM      5  C   UNL A   1      32.928  25.572  25.249  1.00  0.00     0.115 C 
ATOM      6  C   UNL A   1      32.735  24.745  23.966  1.00  0.00     0.096 C 
ATOM      7  C   UNL A   1      33.827  23.654  24.110  1.00  0.00     0.003 C 
ATOM      8  C   UNL A   1      33.458  22.722  25.285  1.00  0.00     0.005 C 
ATOM      9  C   UNL A   1      34.983  24.458  24.695  1.00  0.00     0.009 C 
ATOM     10  C   UNL A   1      34.169  24.927  25.904  1.00  0.00     0.004 C 
ATOM     11  C   UNL A   1      33.792  23.569  26.522  1.00  0.00     0.005 C 
BRANCH   6  12
ATOM     12  C   UNL A   1      32.782  25.331  22.532  1.00  0.00     0.230 C 
ATOM     13  N   UNL A   1      31.939  26.208  21.937  1.00  0.00    -0.302 N 
ATOM     14  H   UNL A   1      31.998  26.227  20.955  1.00  0.00     0.172 HD
ATOM     15  O   UNL A   1      33.652  24.865  21.774  1.00  0.00    -0.274 OA
BRANCH  13  16
ATOM     16  C   UNL A   1      31.026  27.066  22.463  1.00  0.00     0.190 A 
ATOM     17  C   UNL A   1      27.694  27.690  23.501  1.00  0.00     0.068 C 
ATOM     18  C   UNL A   1      29.124  27.906  23.149  1.00  0.00     0.058 A 
ATOM     19  N   UNL A   1      29.943  26.794  23.129  1.00  0.00    -0.225 NA
ATOM     20  C   UNL A   1      29.724  29.081  22.714  1.00  0.00     0.059 A 
ATOM     21  S   UNL A   1      31.331  28.725  22.197  1.00  0.00    -0.096 S 
BRANCH  20  22
ATOM     22  C   UNL A   1      29.142  30.421  22.610  1.00  0.00    -0.006 A 
ATOM     23  C   UNL A   1      29.203  31.332  23.673  1.00  0.00     0.009 A 
ATOM     24  C   UNL A   1      28.612  30.856  21.385  1.00  0.00     0.009 A 
ATOM     25  C   UNL A   1      28.777  32.654  23.501  1.00  0.00     0.001 A 
ATOM     26  C   UNL A   1      28.199  32.178  21.210  1.00  0.00     0.001 A 
ATOM     27  C   UNL A   1      28.288  33.078  22.267  1.00  0.00     0.000 A 
ENDBRANCH  20  22
ENDBRANCH  13  16
ENDBRANCH   6  12
ENDBRANCH   3   5
ENDBRANCH   2   3
ENDBRANCH   1   2
BRANCH   1  28
ATOM     28  C   UNL A   1      31.728  29.275  25.891  1.00  0.00     0.275 C 
BRANCH  28  29
ATOM     29  O   UNL A   1      33.005  29.938  25.854  1.00  0.00    -0.458 OA
BRANCH  29  30
ATOM     30  C   UNL A   1      33.222  30.876  26.797  1.00  0.00     0.338 C 
ATOM     31  O   UNL A   1      32.488  31.801  27.114  1.00  0.00    -0.246 OA
BRANCH  30  32
ATOM     32  C   UNL A   1      34.524  30.629  27.441  1.00  0.00     0.060 A 
ATOM     33  C   UNL A   1      34.861  29.341  27.850  1.00  0.00     0.016 A 
ATOM     34  C   UNL A   1      35.380  31.692  27.720  1.00  0.00     0.016 A 
ATOM     35  C   UNL A   1      36.011  29.119  28.604  1.00  0.00     0.010 A 
ATOM     36  C   UNL A   1      36.582  31.453  28.396  1.00  0.00     0.010 A 
ATOM     37  C   UNL A   1      36.898  30.168  28.874  1.00  0.00    -0.014 A 
BRANCH  37  38
ATOM     38  C   UNL A   1      38.132  29.925  29.675  1.00  0.00     0.031 A 
ATOM     39  C   UNL A   1      39.245  29.078  29.118  1.00  0.00     0.074 A 
ATOM     40  C   UNL A   1      38.268  30.466  30.902  1.00  0.00     0.049 A 
ATOM     41  N   UNL A   1      40.315  28.612  29.715  1.00  0.00    -0.248 NA
ATOM     42  C   UNL A   1      39.133  28.688  27.704  1.00  0.00     0.031 C 
ATOM     43  C   UNL A   1      37.295  31.338  31.556  1.00  0.00     0.029 A 
ATOM     44  N   UNL A   1      39.289  30.365  31.817  1.00  0.00    -0.354 N 
ATOM     45  C   UNL A   1      40.966  27.828  28.773  1.00  0.00     0.074 A 
ATOM     46  C   UNL A   1      40.175  27.882  27.561  1.00  0.00     0.031 C 
ATOM     47  C   UNL A   1      37.777  31.723  32.747  1.00  0.00     0.029 A 
ATOM     48  C   UNL A   1      39.056  31.060  32.978  1.00  0.00     0.049 A 
ATOM     49  H   UNL A   1      40.110  29.845  31.656  1.00  0.00     0.167 HD
ATOM     50  C   UNL A   1      42.114  27.121  28.910  1.00  0.00     0.037 A 
ATOM     51  C   UNL A   1      39.765  31.128  34.121  1.00  0.00     0.037 A 
ATOM     52  C   UNL A   1      42.936  27.120  30.093  1.00  0.00     0.049 A 
ATOM     53  C   UNL A   1      41.040  30.344  34.247  1.00  0.00     0.074 A 
ATOM     54  C   UNL A   1      44.133  26.460  30.313  1.00  0.00     0.029 A 
ATOM     55  N   UNL A   1      42.653  27.828  31.252  1.00  0.00    -0.354 N 
ATOM     56  N   UNL A   1      41.618  29.560  33.370  1.00  0.00    -0.248 NA
ATOM     57  C   UNL A   1      41.751  30.437  35.530  1.00  0.00     0.031 C 
ATOM     58  C   UNL A   1      44.557  26.739  31.617  1.00  0.00     0.029 A 
ATOM     59  C   UNL A   1      43.646  27.608  32.195  1.00  0.00     0.049 A 
ATOM     60  H   UNL A   1      41.866  28.403  31.385  1.00  0.00     0.167 HD
ATOM     61  C   UNL A   1      42.758  29.069  33.989  1.00  0.00     0.074 A 
ATOM     62  C   UNL A   1      42.805  29.663  35.310  1.00  0.00     0.031 C 
ATOM     63  C   UNL A   1      43.676  28.197  33.508  1.00  0.00     0.037 A 
BRANCH  50  64
ATOM     64  C   UNL A   1      42.533  26.250  27.762  1.00  0.00     0.064 A 
ATOM     65  C   UNL A   1      43.470  26.670  26.806  1.00  0.00     0.173 A 
ATOM     66  C   UNL A   1      42.003  24.956  27.636  1.00  0.00     0.173 A 
ATOM     67  F   UNL A   1      43.994  27.903  26.872  1.00  0.00    -0.203 F 
ATOM     68  C   UNL A   1      43.841  25.836  25.754  1.00  0.00     0.198 A 
ATOM     69  C   UNL A   1      42.398  24.115  26.601  1.00  0.00     0.198 A 
ATOM     70  F   UNL A   1      41.107  24.503  28.527  1.00  0.00    -0.203 F 
ATOM     71  F   UNL A   1      44.704  26.274  24.827  1.00  0.00    -0.200 F 
ATOM     72  C   UNL A   1      43.310  24.558  25.656  1.00  0.00     0.200 A 
ATOM     73  F   UNL A   1      41.891  22.878  26.513  1.00  0.00    -0.200 F 
ATOM     74  F   UNL A   1      43.673  23.756  24.645  1.00  0.00    -0.200 F 
ENDBRANCH  50  64
BRANCH  51  75
ATOM     75  C   UNL A   1      39.254  31.948  35.250  1.00  0.00     0.064 A 
ATOM     76  C   UNL A   1      38.488  31.375  36.271  1.00  0.00     0.173 A 
ATOM     77  C   UNL A   1      39.551  33.317  35.342  1.00  0.00     0.173 A 
ATOM     78  F   UNL A   1      38.153  30.078  36.212  1.00  0.00    -0.203 F 
ATOM     79  C   UNL A   1      38.037  32.141  37.346  1.00  0.00     0.198 A 
ATOM     80  C   UNL A   1      39.125  34.074  36.430  1.00  0.00     0.198 A 
ATOM     81  F   UNL A   1      40.279  33.913  34.386  1.00  0.00    -0.203 F 
ATOM     82  F   UNL A   1      37.278  31.577  38.296  1.00  0.00    -0.200 F 
ATOM     83  C   UNL A   1      38.365  33.486  37.430  1.00  0.00     0.200 A 
ATOM     84  F   UNL A   1      39.456  35.369  36.513  1.00  0.00    -0.200 F 
ATOM     85  F   UNL A   1      37.945  34.216  38.471  1.00  0.00    -0.200 F 
ENDBRANCH  51  75
BRANCH  63  86
ATOM     86  C   UNL A   1      44.816  27.840  34.416  1.00  0.00     0.064 A 
ATOM     87  C   UNL A   1      44.749  26.733  35.274  1.00  0.00     0.173 A 
ATOM     88  C   UNL A   1      45.995  28.601  34.412  1.00  0.00     0.173 A 
ATOM     89  F   UNL A   1      43.636  25.985  35.325  1.00  0.00    -0.203 F 
ATOM     90  C   UNL A   1      45.813  26.413  36.113  1.00  0.00     0.198 A 
ATOM     91  C   UNL A   1      47.066  28.264  35.235  1.00  0.00     0.198 A 
ATOM     92  F   UNL A   1      46.109  29.667  33.605  1.00  0.00    -0.203 F 
ATOM     93  F   UNL A   1      45.711  25.377  36.957  1.00  0.00    -0.200 F 
ATOM     94  C   UNL A   1      46.972  27.176  36.090  1.00  0.00     0.200 A 
ATOM     95  F   UNL A   1      48.188  28.996  35.205  1.00  0.00    -0.200 F 
ATOM     96  F   UNL A   1      47.995  26.866  36.898  1.00  0.00    -0.200 F 
ENDBRANCH  63  86
ENDBRANCH  37  38
ENDBRANCH  30  32
ENDBRANCH  29  30
ENDBRANCH  28  29
ENDBRANCH   1  28
TORSDOF 14
ENDMDL
MODEL 3
REMARK VINA RESULT:     -13.1      1.898      3.123
REMARK SMILES Cc1nc(NC(=O)[C@H]2[C@@H]3CC[C@@H](C3)[C@@H]2C(=O)OCCOC(=O)c2ccc(-c3c4nc(c(-c5c(F)c(F)c(F)c(F)c5F)c5ccc([nH]5)c(-c5c(F)c(F)c(F)c(F)c5F)c5nc(c(-c6c(F)c(F)c(F)c(F)c6F)c6ccc3[nH]6)C=C5)C=C4)cc2)sc1-c1ccccc1
REMARK SMILES IDX 18 1 17 2 15 3 16 4 14 5 8 6 9 7 10 8 13 9 12 10 11 11 6 12
REMARK SMILES IDX 5 13 7 15 4 16 1 17 2 18 3 19 87 20 86 21 88 22 89 23 93 24
REMARK SMILES IDX 90 25 92 26 91 27 19 28 20 29 21 30 22 31 23 32 24 33 85 34
REMARK SMILES IDX 25 35 84 36 26 37 27 38 28 39 78 40 29 41 83 42 77 43 79 44
REMARK SMILES IDX 30 45 82 46 76 47 75 48 31 50 63 51 43 52 62 53 44 54 47 55
REMARK SMILES IDX 61 56 80 57 45 58 46 59 60 61 81 62 48 63 32 64 33 65 41 66
REMARK SMILES IDX 34 67 35 68 39 69 42 70 36 71 37 72 40 73 38 74 64 75 65 76
REMARK SMILES IDX 73 77 66 78 67 79 71 80 74 81 68 82 69 83 72 84 70 85 49 86
REMARK SMILES IDX 50 87 58 88 51 89 52 90 56 91 59 92 53 93 54 94 57 95 55 96
REMARK H PARENT 5 14 79 49 47 60
REMARK Flexibility Score: inf
ROOT
ATOM      1  C   UNL A   1      31.636  28.781  25.004  1.00  0.00     0.274 C 
ENDROOT
BRANCH   1   2
ATOM      2  O   UNL A   1      31.964  29.445  23.770  1.00  0.00    -0.462 OA
BRANCH   2   3
ATOM      3  C   UNL A   1      31.007  29.451  22.793  1.00  0.00     0.310 C 
ATOM      4  O   UNL A   1      31.207  29.297  21.598  1.00  0.00    -0.252 OA
BRANCH   3   5
ATOM      5  C   UNL A   1      29.648  29.567  23.453  1.00  0.00     0.115 C 
ATOM      6  C   UNL A   1      28.510  28.711  22.869  1.00  0.00     0.096 C 
ATOM      7  C   UNL A   1      27.470  29.784  22.457  1.00  0.00     0.003 C 
ATOM      8  C   UNL A   1      28.035  30.610  21.282  1.00  0.00     0.005 C 
ATOM      9  C   UNL A   1      27.574  30.768  23.617  1.00  0.00     0.009 C 
ATOM     10  C   UNL A   1      29.073  31.001  23.408  1.00  0.00     0.004 C 
ATOM     11  C   UNL A   1      29.069  31.521  21.960  1.00  0.00     0.005 C 
BRANCH   6  12
ATOM     12  C   UNL A   1      27.795  27.569  23.634  1.00  0.00     0.230 C 
ATOM     13  N   UNL A   1      28.265  26.352  23.993  1.00  0.00    -0.302 N 
ATOM     14  H   UNL A   1      27.567  25.695  24.220  1.00  0.00     0.172 HD
ATOM     15  O   UNL A   1      26.585  27.739  23.872  1.00  0.00    -0.274 OA
BRANCH  13  16
ATOM     16  C   UNL A   1      29.536  25.880  24.093  1.00  0.00     0.190 A 
ATOM     17  C   UNL A   1      32.255  24.150  22.616  1.00  0.00     0.068 C 
ATOM     18  C   UNL A   1      31.405  24.841  23.623  1.00  0.00     0.058 A 
ATOM     19  N   UNL A   1      30.397  25.656  23.145  1.00  0.00    -0.225 NA
ATOM     20  C   UNL A   1      31.418  24.676  25.002  1.00  0.00     0.059 A 
ATOM     21  S   UNL A   1      30.065  25.512  25.673  1.00  0.00    -0.096 S 
BRANCH  20  22
ATOM     22  C   UNL A   1      32.340  23.885  25.821  1.00  0.00    -0.006 A 
ATOM     23  C   UNL A   1      33.724  24.101  25.783  1.00  0.00     0.009 A 
ATOM     24  C   UNL A   1      31.830  22.967  26.753  1.00  0.00     0.009 A 
ATOM     25  C   UNL A   1      34.570  23.442  26.681  1.00  0.00     0.001 A 
ATOM     26  C   UNL A   1      32.673  22.319  27.656  1.00  0.00     0.001 A 
ATOM     27  C   UNL A   1      34.043  22.562  27.624  1.00  0.00     0.000 A 
ENDBRANCH  20  22
ENDBRANCH  13  16
ENDBRANCH   6  12
ENDBRANCH   3   5
ENDBRANCH   2   3
ENDBRANCH   1   2
BRANCH   1  28
ATOM     28  C   UNL A   1      31.774  29.768  26.164  1.00  0.00     0.275 C 
BRANCH  28  29
ATOM     29  O   UNL A   1      33.038  30.446  26.045  1.00  0.00    -0.458 OA
BRANCH  29  30
ATOM     30  C   UNL A   1      33.308  31.380  26.980  1.00  0.00     0.338 C 
ATOM     31  O   UNL A   1      32.631  32.351  27.285  1.00  0.00    -0.246 OA
BRANCH  30  32
ATOM     32  C   UNL A   1      34.589  31.060  27.633  1.00  0.00     0.060 A 
ATOM     33  C   UNL A   1      34.882  29.742  27.976  1.00  0.00     0.016 A 
ATOM     34  C   UNL A   1      35.468  32.081  27.988  1.00  0.00     0.016 A 
ATOM     35  C   UNL A   1      36.010  29.445  28.737  1.00  0.00     0.010 A 
ATOM     36  C   UNL A   1      36.650  31.769  28.671  1.00  0.00     0.010 A 
ATOM     37  C   UNL A   1      36.920  30.452  29.082  1.00  0.00    -0.014 A 
BRANCH  37  38
ATOM     38  C   UNL A   1      38.131  30.128  29.890  1.00  0.00     0.031 A 
ATOM     39  C   UNL A   1      39.213  29.250  29.321  1.00  0.00     0.074 A 
ATOM     40  C   UNL A   1      38.274  30.625  31.135  1.00  0.00     0.049 A 
ATOM     41  N   UNL A   1      40.252  28.719  29.917  1.00  0.00    -0.248 NA
ATOM     42  C   UNL A   1      39.104  28.910  27.894  1.00  0.00     0.031 C 
ATOM     43  C   UNL A   1      37.330  31.519  31.805  1.00  0.00     0.029 A 
ATOM     44  N   UNL A   1      39.276  30.450  32.060  1.00  0.00    -0.354 N 
ATOM     45  C   UNL A   1      40.882  27.936  28.959  1.00  0.00     0.074 A 
ATOM     46  C   UNL A   1      40.111  28.063  27.739  1.00  0.00     0.031 C 
ATOM     47  C   UNL A   1      37.812  31.845  33.013  1.00  0.00     0.029 A 
ATOM     48  C   UNL A   1      39.057  31.118  33.239  1.00  0.00     0.049 A 
ATOM     49  H   UNL A   1      40.075  29.899  31.893  1.00  0.00     0.167 HD
ATOM     50  C   UNL A   1      41.996  27.175  29.088  1.00  0.00     0.037 A 
ATOM     51  C   UNL A   1      39.752  31.119  34.392  1.00  0.00     0.037 A 
ATOM     52  C   UNL A   1      42.800  27.100  30.281  1.00  0.00     0.049 A 
ATOM     53  C   UNL A   1      40.989  30.275  34.510  1.00  0.00     0.074 A 
ATOM     54  C   UNL A   1      43.963  26.380  30.495  1.00  0.00     0.029 A 
ATOM     55  N   UNL A   1      42.532  27.784  31.458  1.00  0.00    -0.354 N 
ATOM     56  N   UNL A   1      41.544  29.494  33.616  1.00  0.00    -0.248 NA
ATOM     57  C   UNL A   1      41.686  30.297  35.804  1.00  0.00     0.031 C 
ATOM     58  C   UNL A   1      44.380  26.600  31.813  1.00  0.00     0.029 A 
ATOM     59  C   UNL A   1      43.500  27.490  32.407  1.00  0.00     0.049 A 
ATOM     60  H   UNL A   1      41.769  28.389  31.600  1.00  0.00     0.167 HD
ATOM     61  C   UNL A   1      42.652  28.933  34.234  1.00  0.00     0.074 A 
ATOM     62  C   UNL A   1      42.707  29.483  35.573  1.00  0.00     0.031 C 
ATOM     63  C   UNL A   1      43.538  28.036  33.738  1.00  0.00     0.037 A 
BRANCH  50  64
ATOM     64  C   UNL A   1      42.392  26.321  27.919  1.00  0.00     0.064 A 
ATOM     65  C   UNL A   1      41.829  25.058  27.689  1.00  0.00     0.173 A 
ATOM     66  C   UNL A   1      43.337  26.796  26.995  1.00  0.00     0.173 A 
ATOM     67  F   UNL A   1      40.934  24.552  28.550  1.00  0.00    -0.203 F 
ATOM     68  C   UNL A   1      42.214  24.292  26.591  1.00  0.00     0.198 A 
ATOM     69  C   UNL A   1      43.699  26.040  25.884  1.00  0.00     0.198 A 
ATOM     70  F   UNL A   1      43.903  28.001  27.166  1.00  0.00    -0.203 F 
ATOM     71  F   UNL A   1      41.697  23.068  26.416  1.00  0.00    -0.200 F 
ATOM     72  C   UNL A   1      43.143  24.786  25.688  1.00  0.00     0.200 A 
ATOM     73  F   UNL A   1      44.589  26.524  25.008  1.00  0.00    -0.200 F 
ATOM     74  F   UNL A   1      43.510  24.048  24.630  1.00  0.00    -0.200 F 
ENDBRANCH  50  64
BRANCH  51  75
ATOM     75  C   UNL A   1      39.262  31.926  35.540  1.00  0.00     0.064 A 
ATOM     76  C   UNL A   1      39.615  33.273  35.681  1.00  0.00     0.173 A 
ATOM     77  C   UNL A   1      38.405  31.369  36.503  1.00  0.00     0.173 A 
ATOM     78  F   UNL A   1      40.456  33.841  34.804  1.00  0.00    -0.203 F 
ATOM     79  C   UNL A   1      39.128  34.035  36.742  1.00  0.00     0.198 A 
ATOM     80  C   UNL A   1      37.897  32.139  37.544  1.00  0.00     0.198 A 
ATOM     81  F   UNL A   1      38.041  30.080  36.413  1.00  0.00    -0.203 F 
ATOM     82  F   UNL A   1      39.506  35.315  36.873  1.00  0.00    -0.200 F 
ATOM     83  C   UNL A   1      38.261  33.471  37.665  1.00  0.00     0.200 A 
ATOM     84  F   UNL A   1      37.049  31.593  38.426  1.00  0.00    -0.200 F 
ATOM     85  F   UNL A   1      37.781  34.209  38.675  1.00  0.00    -0.200 F 
ENDBRANCH  51  75
BRANCH  63  86
ATOM     86  C   UNL A   1      44.648  27.601  34.648  1.00  0.00     0.064 A 
ATOM     87  C   UNL A   1      44.521  26.470  35.468  1.00  0.00     0.173 A 
ATOM     88  C   UNL A   1      45.858  28.310  34.685  1.00  0.00     0.173 A 
ATOM     89  F   UNL A   1      43.376  25.770  35.479  1.00  0.00    -0.203 F 
ATOM     90  C   UNL A   1      45.558  26.078  36.310  1.00  0.00     0.198 A 
ATOM     91  C   UNL A   1      46.902  27.900  35.511  1.00  0.00     0.198 A 
ATOM     92  F   UNL A   1      46.030  29.395  33.917  1.00  0.00    -0.203 F 
ATOM     93  F   UNL A   1      45.399  25.020  37.117  1.00  0.00    -0.200 F 
ATOM     94  C   UNL A   1      46.748  26.789  36.328  1.00  0.00     0.200 A 
ATOM     95  F   UNL A   1      48.054  28.583  35.521  1.00  0.00    -0.200 F 
ATOM     96  F   UNL A   1      47.745  26.410  37.139  1.00  0.00    -0.200 F 
ENDBRANCH  63  86
ENDBRANCH  37  38
ENDBRANCH  30  32
ENDBRANCH  29  30
ENDBRANCH  28  29
ENDBRANCH   1  28
TORSDOF 14
ENDMDL
