MODEL 1
REMARK VINA RESULT:     -12.2      0.000      0.000
REMARK SMILES O=C(OCCOC(=O)c1c(F)cccc1NS(=O)(=O)C(F)(F)F)c1ccc(-c2c3nc(c(-c4c(F)c(F)c(F)c(F)c4F)c4ccc([nH]4)c(-c4c(F)c(F)c(F)c(F)c4F)c4nc(c(-c5c(F)c(F)c(F)c(F)c5F)c5ccc2[nH]5)C=C4)C=C3)cc1
REMARK SMILES IDX 5 1 4 2 3 3 2 4 1 5 24 6 25 7 86 8 26 9 85 10 27 11 28 12
REMARK SMILES IDX 29 13 79 14 30 15 84 16 78 17 80 18 31 19 83 20 77 21 76 22
REMARK SMILES IDX 32 24 64 25 44 26 63 27 45 28 48 29 62 30 81 31 46 32 47 33
REMARK SMILES IDX 61 35 82 36 49 37 33 38 34 39 42 40 35 41 36 42 40 43 43 44
REMARK SMILES IDX 37 45 38 46 41 47 39 48 65 49 66 50 74 51 67 52 68 53 72 54
REMARK SMILES IDX 75 55 69 56 70 57 73 58 71 59 50 60 51 61 59 62 52 63 53 64
REMARK SMILES IDX 57 65 60 66 54 67 55 68 58 69 56 70 6 71 7 72 8 73 9 74
REMARK SMILES IDX 10 75 15 76 11 77 12 78 14 79 13 80 16 81 17 83 18 84 19 85
REMARK SMILES IDX 20 86 21 87 22 88 23 89
REMARK H PARENT 80 23 48 34 16 82
REMARK Flexibility Score: inf
ROOT
ATOM      1  C   UNL A   1      31.518  31.581  26.925  1.00  0.00     0.275 C 
ENDROOT
BRANCH   1   2
ATOM      2  C   UNL A   1      32.194  32.940  26.716  1.00  0.00     0.275 C 
BRANCH   2   3
ATOM      3  O   UNL A   1      32.034  33.869  27.798  1.00  0.00    -0.458 OA
BRANCH   3   4
ATOM      4  C   UNL A   1      32.957  34.543  28.517  1.00  0.00     0.338 C 
ATOM      5  O   UNL A   1      32.743  35.732  28.751  1.00  0.00    -0.246 OA
BRANCH   4   6
ATOM      6  C   UNL A   1      34.262  33.961  28.984  1.00  0.00     0.060 A 
ATOM      7  C   UNL A   1      35.541  34.389  28.641  1.00  0.00     0.016 A 
ATOM      8  C   UNL A   1      34.171  32.891  29.891  1.00  0.00     0.016 A 
ATOM      9  C   UNL A   1      36.672  33.839  29.246  1.00  0.00     0.010 A 
ATOM     10  C   UNL A   1      35.287  32.366  30.544  1.00  0.00     0.010 A 
ATOM     11  C   UNL A   1      36.554  32.840  30.215  1.00  0.00    -0.014 A 
BRANCH  11  12
ATOM     12  C   UNL A   1      37.781  32.222  30.755  1.00  0.00     0.031 A 
ATOM     13  C   UNL A   1      38.247  32.634  32.115  1.00  0.00     0.074 A 
ATOM     14  C   UNL A   1      38.377  31.217  30.085  1.00  0.00     0.049 A 
ATOM     15  N   UNL A   1      39.186  32.106  32.853  1.00  0.00    -0.248 NA
ATOM     16  C   UNL A   1      37.537  33.755  32.755  1.00  0.00     0.031 C 
ATOM     17  C   UNL A   1      37.925  30.688  28.800  1.00  0.00     0.029 A 
ATOM     18  N   UNL A   1      39.463  30.441  30.393  1.00  0.00    -0.354 N 
ATOM     19  C   UNL A   1      39.139  32.792  34.057  1.00  0.00     0.074 A 
ATOM     20  C   UNL A   1      38.139  33.825  33.932  1.00  0.00     0.031 C 
ATOM     21  C   UNL A   1      38.739  29.694  28.412  1.00  0.00     0.029 A 
ATOM     22  C   UNL A   1      39.759  29.500  29.434  1.00  0.00     0.049 A 
ATOM     23  H   UNL A   1      39.983  30.546  31.223  1.00  0.00     0.167 HD
ATOM     24  C   UNL A   1      39.841  32.539  35.183  1.00  0.00     0.037 A 
ATOM     25  C   UNL A   1      40.732  28.570  29.399  1.00  0.00     0.037 A 
ATOM     26  C   UNL A   1      40.840  31.514  35.284  1.00  0.00     0.049 A 
ATOM     27  C   UNL A   1      41.595  28.412  30.620  1.00  0.00     0.074 A 
ATOM     28  C   UNL A   1      41.636  31.192  36.365  1.00  0.00     0.029 A 
ATOM     29  N   UNL A   1      41.184  30.649  34.253  1.00  0.00    -0.354 N 
ATOM     30  N   UNL A   1      41.520  29.045  31.767  1.00  0.00    -0.248 NA
ATOM     31  C   UNL A   1      42.650  27.392  30.563  1.00  0.00     0.031 C 
ATOM     32  C   UNL A   1      42.503  30.169  35.971  1.00  0.00     0.029 A 
ATOM     33  C   UNL A   1      42.207  29.813  34.664  1.00  0.00     0.049 A 
ATOM     34  H   UNL A   1      40.764  30.632  33.363  1.00  0.00     0.167 HD
ATOM     35  C   UNL A   1      42.490  28.479  32.580  1.00  0.00     0.074 A 
ATOM     36  C   UNL A   1      43.130  27.439  31.799  1.00  0.00     0.031 C 
ATOM     37  C   UNL A   1      42.820  28.787  33.858  1.00  0.00     0.037 A 
BRANCH  24  38
ATOM     38  C   UNL A   1      39.550  33.385  36.384  1.00  0.00     0.064 A 
ATOM     39  C   UNL A   1      38.636  32.951  37.355  1.00  0.00     0.173 A 
ATOM     40  C   UNL A   1      40.141  34.646  36.551  1.00  0.00     0.173 A 
ATOM     41  F   UNL A   1      38.053  31.748  37.244  1.00  0.00    -0.203 F 
ATOM     42  C   UNL A   1      38.309  33.759  38.438  1.00  0.00     0.198 A 
ATOM     43  C   UNL A   1      39.829  35.442  37.649  1.00  0.00     0.198 A 
ATOM     44  F   UNL A   1      41.041  35.094  35.663  1.00  0.00    -0.203 F 
ATOM     45  F   UNL A   1      37.411  33.337  39.340  1.00  0.00    -0.200 F 
ATOM     46  C   UNL A   1      38.905  35.004  38.586  1.00  0.00     0.200 A 
ATOM     47  F   UNL A   1      40.425  36.633  37.804  1.00  0.00    -0.200 F 
ATOM     48  F   UNL A   1      38.590  35.779  39.633  1.00  0.00    -0.200 F 
ENDBRANCH  24  38
BRANCH  25  49
ATOM     49  C   UNL A   1      40.909  27.708  28.199  1.00  0.00     0.064 A 
ATOM     50  C   UNL A   1      41.688  28.134  27.112  1.00  0.00     0.173 A 
ATOM     51  C   UNL A   1      40.318  26.439  28.112  1.00  0.00     0.173 A 
ATOM     52  F   UNL A   1      42.268  29.344  27.134  1.00  0.00    -0.203 F 
ATOM     53  C   UNL A   1      41.868  27.327  25.989  1.00  0.00     0.198 A 
ATOM     54  C   UNL A   1      40.521  25.621  27.000  1.00  0.00     0.198 A 
ATOM     55  F   UNL A   1      39.571  25.978  29.126  1.00  0.00    -0.203 F 
ATOM     56  F   UNL A   1      42.601  27.771  24.959  1.00  0.00    -0.200 F 
ATOM     57  C   UNL A   1      41.293  26.068  25.938  1.00  0.00     0.200 A 
ATOM     58  F   UNL A   1      39.980  24.396  26.965  1.00  0.00    -0.200 F 
ATOM     59  F   UNL A   1      41.486  25.283  24.869  1.00  0.00    -0.200 F 
ENDBRANCH  25  49
BRANCH  37  60
ATOM     60  C   UNL A   1      43.916  27.985  34.493  1.00  0.00     0.064 A 
ATOM     61  C   UNL A   1      45.251  28.405  34.395  1.00  0.00     0.173 A 
ATOM     62  C   UNL A   1      43.651  26.766  35.133  1.00  0.00     0.173 A 
ATOM     63  F   UNL A   1      45.555  29.559  33.782  1.00  0.00    -0.203 F 
ATOM     64  C   UNL A   1      46.284  27.623  34.901  1.00  0.00     0.198 A 
ATOM     65  C   UNL A   1      44.683  26.005  35.671  1.00  0.00     0.198 A 
ATOM     66  F   UNL A   1      42.388  26.332  35.262  1.00  0.00    -0.203 F 
ATOM     67  F   UNL A   1      47.555  28.022  34.759  1.00  0.00    -0.200 F 
ATOM     68  C   UNL A   1      45.998  26.428  35.544  1.00  0.00     0.200 A 
ATOM     69  F   UNL A   1      44.404  24.866  36.317  1.00  0.00    -0.200 F 
ATOM     70  F   UNL A   1      46.992  25.683  36.046  1.00  0.00    -0.200 F 
ENDBRANCH  37  60
ENDBRANCH  11  12
ENDBRANCH   4   6
ENDBRANCH   3   4
ENDBRANCH   2   3
ENDBRANCH   1   2
BRANCH   1  71
ATOM     71  O   UNL A   1      31.373  30.794  25.729  1.00  0.00    -0.458 OA
BRANCH  71  72
ATOM     72  C   UNL A   1      32.199  29.722  25.587  1.00  0.00     0.343 C 
ATOM     73  O   UNL A   1      33.406  29.704  25.765  1.00  0.00    -0.246 OA
BRANCH  72  74
ATOM     74  C   UNL A   1      31.403  28.513  25.301  1.00  0.00     0.119 A 
ATOM     75  C   UNL A   1      31.405  27.495  26.261  1.00  0.00     0.139 A 
ATOM     76  C   UNL A   1      30.657  28.364  24.106  1.00  0.00     0.066 A 
ATOM     77  F   UNL A   1      32.057  27.639  27.425  1.00  0.00    -0.206 F 
ATOM     78  C   UNL A   1      30.718  26.308  26.051  1.00  0.00     0.040 A 
ATOM     79  C   UNL A   1      30.032  27.129  23.891  1.00  0.00     0.028 A 
ATOM     80  C   UNL A   1      30.066  26.106  24.845  1.00  0.00     0.005 A 
BRANCH  76  81
ATOM     81  N   UNL A   1      30.337  29.509  23.291  1.00  0.00    -0.275 N 
ATOM     82  H   UNL A   1      31.086  30.112  23.079  1.00  0.00     0.180 HD
BRANCH  81  83
ATOM     83  S   UNL A   1      28.832  29.942  22.655  1.00  0.00     0.333 S 
ATOM     84  O   UNL A   1      29.090  30.077  21.230  1.00  0.00    -0.197 OA
ATOM     85  O   UNL A   1      27.859  28.965  23.105  1.00  0.00    -0.197 OA
BRANCH  83  86
ATOM     86  C   UNL A   1      28.338  31.606  23.333  1.00  0.00     0.516 C 
ATOM     87  F   UNL A   1      28.154  32.517  22.326  1.00  0.00    -0.155 F 
ATOM     88  F   UNL A   1      27.171  31.568  24.034  1.00  0.00    -0.155 F 
ATOM     89  F   UNL A   1      29.283  32.143  24.151  1.00  0.00    -0.155 F 
ENDBRANCH  83  86
ENDBRANCH  81  83
ENDBRANCH  76  81
ENDBRANCH  72  74
ENDBRANCH  71  72
ENDBRANCH   1  71
TORSDOF 14
ENDMDL
MODEL 2
REMARK VINA RESULT:     -12.1      0.508      1.802
REMARK SMILES O=C(OCCOC(=O)c1c(F)cccc1NS(=O)(=O)C(F)(F)F)c1ccc(-c2c3nc(c(-c4c(F)c(F)c(F)c(F)c4F)c4ccc([nH]4)c(-c4c(F)c(F)c(F)c(F)c4F)c4nc(c(-c5c(F)c(F)c(F)c(F)c5F)c5ccc2[nH]5)C=C4)C=C3)cc1
REMARK SMILES IDX 5 1 4 2 3 3 2 4 1 5 24 6 25 7 86 8 26 9 85 10 27 11 28 12
REMARK SMILES IDX 29 13 79 14 30 15 84 16 78 17 80 18 31 19 83 20 77 21 76 22
REMARK SMILES IDX 32 24 64 25 44 26 63 27 45 28 48 29 62 30 81 31 46 32 47 33
REMARK SMILES IDX 61 35 82 36 49 37 33 38 34 39 42 40 35 41 36 42 40 43 43 44
REMARK SMILES IDX 37 45 38 46 41 47 39 48 65 49 66 50 74 51 67 52 68 53 72 54
REMARK SMILES IDX 75 55 69 56 70 57 73 58 71 59 50 60 51 61 59 62 52 63 53 64
REMARK SMILES IDX 57 65 60 66 54 67 55 68 58 69 56 70 6 71 7 72 8 73 9 74
REMARK SMILES IDX 10 75 15 76 11 77 12 78 14 79 13 80 16 81 17 83 18 84 19 85
REMARK SMILES IDX 20 86 21 87 22 88 23 89
REMARK H PARENT 80 23 48 34 16 82
REMARK Flexibility Score: inf
ROOT
ATOM      1  C   UNL A   1      32.462  31.238  26.889  1.00  0.00     0.275 C 
ENDROOT
BRANCH   1   2
ATOM      2  C   UNL A   1      31.712  32.555  27.113  1.00  0.00     0.275 C 
BRANCH   2   3
ATOM      3  O   UNL A   1      32.547  33.712  27.258  1.00  0.00    -0.458 OA
BRANCH   3   4
ATOM      4  C   UNL A   1      33.167  34.213  28.348  1.00  0.00     0.338 C 
ATOM      5  O   UNL A   1      32.773  35.293  28.785  1.00  0.00    -0.246 OA
BRANCH   4   6
ATOM      6  C   UNL A   1      34.354  33.578  29.017  1.00  0.00     0.060 A 
ATOM      7  C   UNL A   1      34.343  32.490  29.886  1.00  0.00     0.016 A 
ATOM      8  C   UNL A   1      35.609  34.125  28.700  1.00  0.00     0.016 A 
ATOM      9  C   UNL A   1      35.533  31.918  30.340  1.00  0.00     0.010 A 
ATOM     10  C   UNL A   1      36.807  33.534  29.102  1.00  0.00     0.010 A 
ATOM     11  C   UNL A   1      36.771  32.421  29.937  1.00  0.00    -0.014 A 
BRANCH  11  12
ATOM     12  C   UNL A   1      37.999  31.846  30.520  1.00  0.00     0.031 A 
ATOM     13  C   UNL A   1      38.389  32.254  31.905  1.00  0.00     0.074 A 
ATOM     14  C   UNL A   1      38.666  30.879  29.861  1.00  0.00     0.049 A 
ATOM     15  N   UNL A   1      39.317  31.753  32.675  1.00  0.00    -0.248 NA
ATOM     16  C   UNL A   1      37.604  33.332  32.532  1.00  0.00     0.031 C 
ATOM     17  C   UNL A   1      38.292  30.354  28.549  1.00  0.00     0.029 A 
ATOM     18  N   UNL A   1      39.770  30.144  30.204  1.00  0.00    -0.354 N 
ATOM     19  C   UNL A   1      39.190  32.415  33.886  1.00  0.00     0.074 A 
ATOM     20  C   UNL A   1      38.153  33.407  33.734  1.00  0.00     0.031 C 
ATOM     21  C   UNL A   1      39.163  29.402  28.182  1.00  0.00     0.029 A 
ATOM     22  C   UNL A   1      40.146  29.233  29.243  1.00  0.00     0.049 A 
ATOM     23  H   UNL A   1      40.249  30.256  31.056  1.00  0.00     0.167 HD
ATOM     24  C   UNL A   1      39.854  32.173  35.037  1.00  0.00     0.037 A 
ATOM     25  C   UNL A   1      41.159  28.346  29.237  1.00  0.00     0.037 A 
ATOM     26  C   UNL A   1      40.891  31.189  35.165  1.00  0.00     0.049 A 
ATOM     27  C   UNL A   1      41.975  28.203  30.491  1.00  0.00     0.074 A 
ATOM     28  C   UNL A   1      41.653  30.882  36.275  1.00  0.00     0.029 A 
ATOM     29  N   UNL A   1      41.315  30.357  34.137  1.00  0.00    -0.354 N 
ATOM     30  N   UNL A   1      41.825  28.812  31.643  1.00  0.00    -0.248 NA
ATOM     31  C   UNL A   1      43.075  27.230  30.463  1.00  0.00     0.031 C 
ATOM     32  C   UNL A   1      42.579  29.904  35.903  1.00  0.00     0.029 A 
ATOM     33  C   UNL A   1      42.355  29.559  34.579  1.00  0.00     0.049 A 
ATOM     34  H   UNL A   1      40.934  30.339  33.230  1.00  0.00     0.167 HD
ATOM     35  C   UNL A   1      42.782  28.274  32.489  1.00  0.00     0.074 A 
ATOM     36  C   UNL A   1      43.499  27.276  31.719  1.00  0.00     0.031 C 
ATOM     37  C   UNL A   1      43.045  28.573  33.784  1.00  0.00     0.037 A 
BRANCH  24  38
ATOM     38  C   UNL A   1      39.476  32.985  36.237  1.00  0.00     0.064 A 
ATOM     39  C   UNL A   1      40.114  34.204  36.501  1.00  0.00     0.173 A 
ATOM     40  C   UNL A   1      38.513  32.532  37.152  1.00  0.00     0.173 A 
ATOM     41  F   UNL A   1      41.034  34.683  35.650  1.00  0.00    -0.203 F 
ATOM     42  C   UNL A   1      39.818  34.931  37.650  1.00  0.00     0.198 A 
ATOM     43  C   UNL A   1      38.202  33.274  38.288  1.00  0.00     0.198 A 
ATOM     44  F   UNL A   1      37.855  31.384  36.929  1.00  0.00    -0.203 F 
ATOM     45  F   UNL A   1      40.461  36.081  37.897  1.00  0.00    -0.200 F 
ATOM     46  C   UNL A   1      38.862  34.467  38.542  1.00  0.00     0.200 A 
ATOM     47  F   UNL A   1      37.259  32.837  39.135  1.00  0.00    -0.200 F 
ATOM     48  F   UNL A   1      38.576  35.171  39.645  1.00  0.00    -0.200 F 
ENDBRANCH  24  38
BRANCH  25  49
ATOM     49  C   UNL A   1      41.423  27.513  28.032  1.00  0.00     0.064 A 
ATOM     50  C   UNL A   1      42.299  27.953  27.027  1.00  0.00     0.173 A 
ATOM     51  C   UNL A   1      40.821  26.258  27.859  1.00  0.00     0.173 A 
ATOM     52  F   UNL A   1      42.895  29.150  27.132  1.00  0.00    -0.203 F 
ATOM     53  C   UNL A   1      42.562  27.173  25.901  1.00  0.00     0.198 A 
ATOM     54  C   UNL A   1      41.105  25.467  26.746  1.00  0.00     0.198 A 
ATOM     55  F   UNL A   1      39.983  25.785  28.793  1.00  0.00    -0.203 F 
ATOM     56  F   UNL A   1      43.387  27.631  24.950  1.00  0.00    -0.200 F 
ATOM     57  C   UNL A   1      41.972  25.927  25.766  1.00  0.00     0.200 A 
ATOM     58  F   UNL A   1      40.549  24.253  26.631  1.00  0.00    -0.200 F 
ATOM     59  F   UNL A   1      42.243  25.167  24.696  1.00  0.00    -0.200 F 
ENDBRANCH  25  49
BRANCH  37  60
ATOM     60  C   UNL A   1      44.147  27.807  34.453  1.00  0.00     0.064 A 
ATOM     61  C   UNL A   1      43.877  26.587  35.090  1.00  0.00     0.173 A 
ATOM     62  C   UNL A   1      45.449  28.319  34.527  1.00  0.00     0.173 A 
ATOM     63  F   UNL A   1      42.643  26.063  35.055  1.00  0.00    -0.203 F 
ATOM     64  C   UNL A   1      44.871  25.913  35.791  1.00  0.00     0.198 A 
ATOM     65  C   UNL A   1      46.450  27.625  35.198  1.00  0.00     0.198 A 
ATOM     66  F   UNL A   1      45.756  29.477  33.922  1.00  0.00    -0.203 F 
ATOM     67  F   UNL A   1      44.583  24.770  36.427  1.00  0.00    -0.200 F 
ATOM     68  C   UNL A   1      46.158  26.430  35.839  1.00  0.00     0.200 A 
ATOM     69  F   UNL A   1      47.699  28.109  35.219  1.00  0.00    -0.200 F 
ATOM     70  F   UNL A   1      47.119  25.772  36.501  1.00  0.00    -0.200 F 
ENDBRANCH  37  60
ENDBRANCH  11  12
ENDBRANCH   4   6
ENDBRANCH   3   4
ENDBRANCH   2   3
ENDBRANCH   1   2
BRANCH   1  71
ATOM     71  O   UNL A   1      31.677  30.196  26.283  1.00  0.00    -0.458 OA
BRANCH  71  72
ATOM     72  C   UNL A   1      32.327  29.325  25.464  1.00  0.00     0.343 C 
ATOM     73  O   UNL A   1      33.505  29.364  25.148  1.00  0.00    -0.246 OA
BRANCH  72  74
ATOM     74  C   UNL A   1      31.424  28.219  25.095  1.00  0.00     0.119 A 
ATOM     75  C   UNL A   1      31.323  27.142  25.984  1.00  0.00     0.139 A 
ATOM     76  C   UNL A   1      30.678  28.220  23.891  1.00  0.00     0.066 A 
ATOM     77  F   UNL A   1      31.975  27.146  27.156  1.00  0.00    -0.206 F 
ATOM     78  C   UNL A   1      30.529  26.042  25.692  1.00  0.00     0.040 A 
ATOM     79  C   UNL A   1      29.942  27.067  23.590  1.00  0.00     0.028 A 
ATOM     80  C   UNL A   1      29.872  25.984  24.474  1.00  0.00     0.005 A 
BRANCH  76  81
ATOM     81  N   UNL A   1      30.474  29.443  23.155  1.00  0.00    -0.275 N 
ATOM     82  H   UNL A   1      31.279  29.984  22.982  1.00  0.00     0.180 HD
BRANCH  81  83
ATOM     83  S   UNL A   1      29.021  30.060  22.550  1.00  0.00     0.333 S 
ATOM     84  O   UNL A   1      29.275  30.194  21.124  1.00  0.00    -0.197 OA
ATOM     85  O   UNL A   1      27.948  29.193  22.996  1.00  0.00    -0.197 OA
BRANCH  83  86
ATOM     86  C   UNL A   1      28.732  31.756  23.266  1.00  0.00     0.516 C 
ATOM     87  F   UNL A   1      27.400  31.975  23.501  1.00  0.00    -0.155 F 
ATOM     88  F   UNL A   1      29.367  31.945  24.456  1.00  0.00    -0.155 F 
ATOM     89  F   UNL A   1      29.132  32.754  22.432  1.00  0.00    -0.155 F 
ENDBRANCH  83  86
ENDBRANCH  81  83
ENDBRANCH  76  81
ENDBRANCH  72  74
ENDBRANCH  71  72
ENDBRANCH   1  71
TORSDOF 14
ENDMDL
MODEL 3
REMARK VINA RESULT:     -12.0      6.537     11.670
REMARK SMILES O=C(OCCOC(=O)c1c(F)cccc1NS(=O)(=O)C(F)(F)F)c1ccc(-c2c3nc(c(-c4c(F)c(F)c(F)c(F)c4F)c4ccc([nH]4)c(-c4c(F)c(F)c(F)c(F)c4F)c4nc(c(-c5c(F)c(F)c(F)c(F)c5F)c5ccc2[nH]5)C=C4)C=C3)cc1
REMARK SMILES IDX 5 1 4 2 3 3 2 4 1 5 24 6 25 7 86 8 26 9 85 10 27 11 28 12
REMARK SMILES IDX 29 13 79 14 30 15 84 16 78 17 80 18 31 19 83 20 77 21 76 22
REMARK SMILES IDX 32 24 64 25 44 26 63 27 45 28 48 29 62 30 81 31 46 32 47 33
REMARK SMILES IDX 61 35 82 36 49 37 33 38 34 39 42 40 35 41 36 42 40 43 43 44
REMARK SMILES IDX 37 45 38 46 41 47 39 48 65 49 66 50 74 51 67 52 68 53 72 54
REMARK SMILES IDX 75 55 69 56 70 57 73 58 71 59 50 60 51 61 59 62 52 63 53 64
REMARK SMILES IDX 57 65 60 66 54 67 55 68 58 69 56 70 6 71 7 72 8 73 9 74
REMARK SMILES IDX 10 75 15 76 11 77 12 78 14 79 13 80 16 81 17 83 18 84 19 85
REMARK SMILES IDX 20 86 21 87 22 88 23 89
REMARK H PARENT 80 23 48 34 16 82
REMARK Flexibility Score: inf
ROOT
ATOM      1  C   UNL A   1      38.154  20.154  24.823  1.00  0.00     0.275 C 
ENDROOT
BRANCH   1   2
ATOM      2  C   UNL A   1      38.917  19.231  25.779  1.00  0.00     0.275 C 
BRANCH   2   3
ATOM      3  O   UNL A   1      40.257  18.914  25.375  1.00  0.00    -0.458 OA
BRANCH   3   4
ATOM      4  C   UNL A   1      41.439  19.201  25.960  1.00  0.00     0.338 C 
ATOM      5  O   UNL A   1      42.237  18.279  26.122  1.00  0.00    -0.246 OA
BRANCH   4   6
ATOM      6  C   UNL A   1      41.816  20.555  26.494  1.00  0.00     0.060 A 
ATOM      7  C   UNL A   1      42.082  20.888  27.819  1.00  0.00     0.016 A 
ATOM      8  C   UNL A   1      41.945  21.581  25.543  1.00  0.00     0.016 A 
ATOM      9  C   UNL A   1      42.545  22.159  28.164  1.00  0.00     0.010 A 
ATOM     10  C   UNL A   1      42.456  22.839  25.862  1.00  0.00     0.010 A 
ATOM     11  C   UNL A   1      42.755  23.136  27.189  1.00  0.00    -0.014 A 
BRANCH  11  12
ATOM     12  C   UNL A   1      43.152  24.492  27.613  1.00  0.00     0.031 A 
ATOM     13  C   UNL A   1      44.565  24.926  27.381  1.00  0.00     0.074 A 
ATOM     14  C   UNL A   1      42.222  25.352  28.071  1.00  0.00     0.049 A 
ATOM     15  N   UNL A   1      45.087  26.116  27.510  1.00  0.00    -0.248 NA
ATOM     16  C   UNL A   1      45.508  23.905  26.893  1.00  0.00     0.031 C 
ATOM     17  C   UNL A   1      40.804  25.038  28.232  1.00  0.00     0.029 A 
ATOM     18  N   UNL A   1      42.311  26.664  28.457  1.00  0.00    -0.354 N 
ATOM     19  C   UNL A   1      46.396  25.996  27.069  1.00  0.00     0.074 A 
ATOM     20  C   UNL A   1      46.619  24.607  26.742  1.00  0.00     0.031 C 
ATOM     21  C   UNL A   1      40.157  26.113  28.707  1.00  0.00     0.029 A 
ATOM     22  C   UNL A   1      41.112  27.201  28.865  1.00  0.00     0.049 A 
ATOM     23  H   UNL A   1      43.153  27.174  28.443  1.00  0.00     0.167 HD
ATOM     24  C   UNL A   1      47.310  26.976  26.906  1.00  0.00     0.037 A 
ATOM     25  C   UNL A   1      40.818  28.443  29.294  1.00  0.00     0.037 A 
ATOM     26  C   UNL A   1      47.072  28.350  27.249  1.00  0.00     0.049 A 
ATOM     27  C   UNL A   1      41.904  29.481  29.237  1.00  0.00     0.074 A 
ATOM     28  C   UNL A   1      47.937  29.422  27.157  1.00  0.00     0.029 A 
ATOM     29  N   UNL A   1      45.875  28.836  27.759  1.00  0.00    -0.354 N 
ATOM     30  N   UNL A   1      43.130  29.364  28.786  1.00  0.00    -0.248 NA
ATOM     31  C   UNL A   1      41.563  30.829  29.709  1.00  0.00     0.031 C 
ATOM     32  C   UNL A   1      47.284  30.547  27.667  1.00  0.00     0.029 A 
ATOM     33  C   UNL A   1      45.992  30.189  28.020  1.00  0.00     0.049 A 
ATOM     34  H   UNL A   1      45.065  28.298  27.913  1.00  0.00     0.167 HD
ATOM     35  C   UNL A   1      43.697  30.625  28.885  1.00  0.00     0.074 A 
ATOM     36  C   UNL A   1      42.672  31.497  29.424  1.00  0.00     0.031 C 
ATOM     37  C   UNL A   1      44.948  31.028  28.557  1.00  0.00     0.037 A 
BRANCH  24  38
ATOM     38  C   UNL A   1      48.641  26.594  26.337  1.00  0.00     0.064 A 
ATOM     39  C   UNL A   1      49.626  26.022  27.154  1.00  0.00     0.173 A 
ATOM     40  C   UNL A   1      48.958  26.836  24.992  1.00  0.00     0.173 A 
ATOM     41  F   UNL A   1      49.366  25.762  28.444  1.00  0.00    -0.203 F 
ATOM     42  C   UNL A   1      50.888  25.727  26.649  1.00  0.00     0.198 A 
ATOM     43  C   UNL A   1      50.214  26.517  24.485  1.00  0.00     0.198 A 
ATOM     44  F   UNL A   1      48.039  27.357  24.164  1.00  0.00    -0.203 F 
ATOM     45  F   UNL A   1      51.825  25.207  27.455  1.00  0.00    -0.200 F 
ATOM     46  C   UNL A   1      51.182  25.974  25.316  1.00  0.00     0.200 A 
ATOM     47  F   UNL A   1      50.487  26.732  23.190  1.00  0.00    -0.200 F 
ATOM     48  F   UNL A   1      52.398  25.684  24.832  1.00  0.00    -0.200 F 
ENDBRANCH  24  38
BRANCH  25  49
ATOM     49  C   UNL A   1      39.446  28.771  29.769  1.00  0.00     0.064 A 
ATOM     50  C   UNL A   1      39.070  28.544  31.103  1.00  0.00     0.173 A 
ATOM     51  C   UNL A   1      38.485  29.327  28.913  1.00  0.00     0.173 A 
ATOM     52  F   UNL A   1      39.944  28.002  31.965  1.00  0.00    -0.203 F 
ATOM     53  C   UNL A   1      37.791  28.859  31.559  1.00  0.00     0.198 A 
ATOM     54  C   UNL A   1      37.214  29.667  29.377  1.00  0.00     0.198 A 
ATOM     55  F   UNL A   1      38.793  29.573  27.632  1.00  0.00    -0.203 F 
ATOM     56  F   UNL A   1      37.457  28.612  32.833  1.00  0.00    -0.200 F 
ATOM     57  C   UNL A   1      36.867  29.430  30.699  1.00  0.00     0.200 A 
ATOM     58  F   UNL A   1      36.331  30.239  28.546  1.00  0.00    -0.200 F 
ATOM     59  F   UNL A   1      35.646  29.756  31.143  1.00  0.00    -0.200 F 
ENDBRANCH  25  49
BRANCH  37  60
ATOM     60  C   UNL A   1      45.277  32.476  28.764  1.00  0.00     0.064 A 
ATOM     61  C   UNL A   1      45.824  32.912  29.980  1.00  0.00     0.173 A 
ATOM     62  C   UNL A   1      44.981  33.438  27.789  1.00  0.00     0.173 A 
ATOM     63  F   UNL A   1      46.114  32.030  30.948  1.00  0.00    -0.203 F 
ATOM     64  C   UNL A   1      46.049  34.264  30.217  1.00  0.00     0.198 A 
ATOM     65  C   UNL A   1      45.241  34.785  28.015  1.00  0.00     0.198 A 
ATOM     66  F   UNL A   1      44.469  33.064  26.606  1.00  0.00    -0.203 F 
ATOM     67  F   UNL A   1      46.532  34.664  31.400  1.00  0.00    -0.200 F 
ATOM     68  C   UNL A   1      45.762  35.198  29.232  1.00  0.00     0.200 A 
ATOM     69  F   UNL A   1      44.992  35.682  27.052  1.00  0.00    -0.200 F 
ATOM     70  F   UNL A   1      45.994  36.499  29.454  1.00  0.00    -0.200 F 
ENDBRANCH  37  60
ENDBRANCH  11  12
ENDBRANCH   4   6
ENDBRANCH   3   4
ENDBRANCH   2   3
ENDBRANCH   1   2
BRANCH   1  71
ATOM     71  O   UNL A   1      37.281  21.097  25.470  1.00  0.00    -0.458 OA
BRANCH  71  72
ATOM     72  C   UNL A   1      36.487  21.859  24.669  1.00  0.00     0.343 C 
ATOM     73  O   UNL A   1      36.719  22.190  23.518  1.00  0.00    -0.246 OA
BRANCH  72  74
ATOM     74  C   UNL A   1      35.210  22.139  25.353  1.00  0.00     0.119 A 
ATOM     75  C   UNL A   1      34.895  23.478  25.611  1.00  0.00     0.139 A 
ATOM     76  C   UNL A   1      34.320  21.110  25.746  1.00  0.00     0.066 A 
ATOM     77  F   UNL A   1      35.695  24.472  25.196  1.00  0.00    -0.206 F 
ATOM     78  C   UNL A   1      33.734  23.825  26.288  1.00  0.00     0.040 A 
ATOM     79  C   UNL A   1      33.194  21.485  26.489  1.00  0.00     0.028 A 
ATOM     80  C   UNL A   1      32.904  22.825  26.767  1.00  0.00     0.005 A 
BRANCH  76  81
ATOM     81  N   UNL A   1      34.429  19.788  25.180  1.00  0.00    -0.275 N 
ATOM     82  H   UNL A   1      35.338  19.412  25.131  1.00  0.00     0.180 HD
BRANCH  81  83
ATOM     83  S   UNL A   1      33.186  18.806  24.592  1.00  0.00     0.333 S 
ATOM     84  O   UNL A   1      32.441  18.445  25.788  1.00  0.00    -0.197 OA
ATOM     85  O   UNL A   1      32.509  19.529  23.532  1.00  0.00    -0.197 OA
BRANCH  83  86
ATOM     86  C   UNL A   1      33.923  17.260  23.859  1.00  0.00     0.516 C 
ATOM     87  F   UNL A   1      33.137  16.166  24.114  1.00  0.00    -0.155 F 
ATOM     88  F   UNL A   1      34.060  17.326  22.506  1.00  0.00    -0.155 F 
ATOM     89  F   UNL A   1      35.148  16.964  24.375  1.00  0.00    -0.155 F 
ENDBRANCH  83  86
ENDBRANCH  81  83
ENDBRANCH  76  81
ENDBRANCH  72  74
ENDBRANCH  71  72
ENDBRANCH   1  71
TORSDOF 14
ENDMDL
