MODEL 1
REMARK VINA RESULT:     -12.4      0.000      0.000
REMARK SMILES O=C(OCCOC(=O)c1cccc(OS(=O)(=O)c2cccc([N+](=O)[O-])c2)c1)c1ccc(-c2c3nc(c(-c4c(F)c(F)c(F)c(F)c4F)c4ccc([nH]4)c(-c4c(F)c(F)c(F)c(F)c4F)c4nc(c(-c5c(F)c(F)c(F)c(F)c5F)c5ccc2[nH]5)C=C4)C=C3)cc1
REMARK SMILES IDX 5 1 4 2 3 3 2 4 1 5 28 6 29 7 90 8 30 9 89 10 31 11 32 12
REMARK SMILES IDX 33 13 83 14 34 15 88 16 82 17 84 18 35 19 87 20 81 21 80 22
REMARK SMILES IDX 36 24 68 25 48 26 67 27 49 28 52 29 66 30 85 31 50 32 51 33
REMARK SMILES IDX 65 35 86 36 53 37 37 38 38 39 46 40 39 41 40 42 44 43 47 44
REMARK SMILES IDX 41 45 42 46 45 47 43 48 69 49 70 50 78 51 71 52 72 53 76 54
REMARK SMILES IDX 79 55 73 56 74 57 77 58 75 59 54 60 55 61 63 62 56 63 57 64
REMARK SMILES IDX 61 65 64 66 58 67 59 68 62 69 60 70 6 71 7 72 8 73 9 74
REMARK SMILES IDX 10 75 27 76 11 77 13 78 12 79 14 80 15 81 16 82 17 83 18 84
REMARK SMILES IDX 19 85 26 86 20 87 22 88 21 89 23 90 24 91 25 92
REMARK H PARENT 84 23 52 34
REMARK Flexibility Score: inf
ROOT
ATOM      1  C   UNL A   1      42.986  21.084  26.044  1.00  0.00     0.275 C 
ENDROOT
BRANCH   1   2
ATOM      2  C   UNL A   1      43.974  21.700  25.050  1.00  0.00     0.275 C 
BRANCH   2   3
ATOM      3  O   UNL A   1      43.659  23.061  24.716  1.00  0.00    -0.458 OA
BRANCH   3   4
ATOM      4  C   UNL A   1      44.117  24.236  25.197  1.00  0.00     0.338 C 
ATOM      5  O   UNL A   1      45.081  24.746  24.624  1.00  0.00    -0.246 OA
BRANCH   4   6
ATOM      6  C   UNL A   1      43.578  24.972  26.398  1.00  0.00     0.060 A 
ATOM      7  C   UNL A   1      42.706  24.487  27.375  1.00  0.00     0.016 A 
ATOM      8  C   UNL A   1      44.037  26.298  26.556  1.00  0.00     0.016 A 
ATOM      9  C   UNL A   1      42.296  25.284  28.456  1.00  0.00     0.010 A 
ATOM     10  C   UNL A   1      43.648  27.095  27.639  1.00  0.00     0.010 A 
ATOM     11  C   UNL A   1      42.758  26.594  28.593  1.00  0.00    -0.014 A 
BRANCH  11  12
ATOM     12  C   UNL A   1      42.285  27.455  29.706  1.00  0.00     0.031 A 
ATOM     13  C   UNL A   1      42.963  27.365  31.030  1.00  0.00     0.074 A 
ATOM     14  C   UNL A   1      41.213  28.254  29.544  1.00  0.00     0.049 A 
ATOM     15  N   UNL A   1      42.702  28.023  32.127  1.00  0.00    -0.248 NA
ATOM     16  C   UNL A   1      44.064  26.398  31.145  1.00  0.00     0.031 C 
ATOM     17  C   UNL A   1      40.476  28.346  28.301  1.00  0.00     0.029 A 
ATOM     18  N   UNL A   1      40.534  29.098  30.387  1.00  0.00    -0.354 N 
ATOM     19  C   UNL A   1      43.583  27.529  33.073  1.00  0.00     0.074 A 
ATOM     20  C   UNL A   1      44.387  26.514  32.426  1.00  0.00     0.031 C 
ATOM     21  C   UNL A   1      39.423  29.160  28.459  1.00  0.00     0.029 A 
ATOM     22  C   UNL A   1      39.419  29.676  29.817  1.00  0.00     0.049 A 
ATOM     23  H   UNL A   1      40.816  29.274  31.314  1.00  0.00     0.167 HD
ATOM     24  C   UNL A   1      43.690  27.893  34.369  1.00  0.00     0.037 A 
ATOM     25  C   UNL A   1      38.506  30.531  30.326  1.00  0.00     0.037 A 
ATOM     26  C   UNL A   1      42.881  28.911  34.984  1.00  0.00     0.049 A 
ATOM     27  C   UNL A   1      38.730  30.981  31.748  1.00  0.00     0.074 A 
ATOM     28  C   UNL A   1      42.940  29.396  36.277  1.00  0.00     0.029 A 
ATOM     29  N   UNL A   1      41.854  29.592  34.345  1.00  0.00    -0.354 N 
ATOM     30  N   UNL A   1      39.703  30.656  32.567  1.00  0.00    -0.248 NA
ATOM     31  C   UNL A   1      37.760  31.925  32.317  1.00  0.00     0.031 C 
ATOM     32  C   UNL A   1      41.911  30.330  36.438  1.00  0.00     0.029 A 
ATOM     33  C   UNL A   1      41.234  30.454  35.235  1.00  0.00     0.049 A 
ATOM     34  H   UNL A   1      41.602  29.479  33.401  1.00  0.00     0.167 HD
ATOM     35  C   UNL A   1      39.469  31.363  33.734  1.00  0.00     0.074 A 
ATOM     36  C   UNL A   1      38.320  32.208  33.483  1.00  0.00     0.031 C 
ATOM     37  C   UNL A   1      40.103  31.289  34.929  1.00  0.00     0.037 A 
BRANCH  24  38
ATOM     38  C   UNL A   1      44.672  27.142  35.212  1.00  0.00     0.064 A 
ATOM     39  C   UNL A   1      45.997  27.572  35.372  1.00  0.00     0.173 A 
ATOM     40  C   UNL A   1      44.272  25.973  35.875  1.00  0.00     0.173 A 
ATOM     41  F   UNL A   1      46.433  28.669  34.734  1.00  0.00    -0.203 F 
ATOM     42  C   UNL A   1      46.892  26.846  36.154  1.00  0.00     0.198 A 
ATOM     43  C   UNL A   1      45.163  25.264  36.675  1.00  0.00     0.198 A 
ATOM     44  F   UNL A   1      43.018  25.516  35.743  1.00  0.00    -0.203 F 
ATOM     45  F   UNL A   1      48.166  27.250  36.258  1.00  0.00    -0.200 F 
ATOM     46  C   UNL A   1      46.472  25.699  36.810  1.00  0.00     0.200 A 
ATOM     47  F   UNL A   1      44.755  24.156  37.310  1.00  0.00    -0.200 F 
ATOM     48  F   UNL A   1      47.335  25.005  37.566  1.00  0.00    -0.200 F 
ENDBRANCH  24  38
BRANCH  25  49
ATOM     49  C   UNL A   1      37.359  31.050  29.509  1.00  0.00     0.064 A 
ATOM     50  C   UNL A   1      36.280  30.221  29.162  1.00  0.00     0.173 A 
ATOM     51  C   UNL A   1      37.297  32.375  29.043  1.00  0.00     0.173 A 
ATOM     52  F   UNL A   1      36.243  28.953  29.597  1.00  0.00    -0.203 F 
ATOM     53  C   UNL A   1      35.225  30.671  28.365  1.00  0.00     0.198 A 
ATOM     54  C   UNL A   1      36.208  32.846  28.307  1.00  0.00     0.198 A 
ATOM     55  F   UNL A   1      38.284  33.237  29.329  1.00  0.00    -0.203 F 
ATOM     56  F   UNL A   1      34.235  29.830  28.036  1.00  0.00    -0.200 F 
ATOM     57  C   UNL A   1      35.178  31.990  27.956  1.00  0.00     0.200 A 
ATOM     58  F   UNL A   1      36.149  34.136  27.952  1.00  0.00    -0.200 F 
ATOM     59  F   UNL A   1      34.131  32.438  27.250  1.00  0.00    -0.200 F 
ENDBRANCH  25  49
BRANCH  37  60
ATOM     60  C   UNL A   1      39.521  32.117  36.034  1.00  0.00     0.064 A 
ATOM     61  C   UNL A   1      40.027  33.398  36.310  1.00  0.00     0.173 A 
ATOM     62  C   UNL A   1      38.462  31.641  36.817  1.00  0.00     0.173 A 
ATOM     63  F   UNL A   1      41.055  33.887  35.600  1.00  0.00    -0.203 F 
ATOM     64  C   UNL A   1      39.520  34.154  37.360  1.00  0.00     0.198 A 
ATOM     65  C   UNL A   1      37.933  32.416  37.844  1.00  0.00     0.198 A 
ATOM     66  F   UNL A   1      37.942  30.427  36.586  1.00  0.00    -0.203 F 
ATOM     67  F   UNL A   1      40.067  35.343  37.650  1.00  0.00    -0.200 F 
ATOM     68  C   UNL A   1      38.470  33.665  38.123  1.00  0.00     0.200 A 
ATOM     69  F   UNL A   1      36.910  31.951  38.573  1.00  0.00    -0.200 F 
ATOM     70  F   UNL A   1      37.983  34.396  39.134  1.00  0.00    -0.200 F 
ENDBRANCH  37  60
ENDBRANCH  11  12
ENDBRANCH   4   6
ENDBRANCH   3   4
ENDBRANCH   2   3
ENDBRANCH   1   2
BRANCH   1  71
ATOM     71  O   UNL A   1      41.621  21.370  25.715  1.00  0.00    -0.458 OA
BRANCH  71  72
ATOM     72  C   UNL A   1      40.707  21.099  26.686  1.00  0.00     0.338 C 
ATOM     73  O   UNL A   1      40.814  20.327  27.613  1.00  0.00    -0.246 OA
BRANCH  72  74
ATOM     74  C   UNL A   1      39.556  22.000  26.479  1.00  0.00     0.063 A 
ATOM     75  C   UNL A   1      39.632  23.328  26.902  1.00  0.00     0.016 A 
ATOM     76  C   UNL A   1      38.426  21.523  25.810  1.00  0.00     0.064 A 
ATOM     77  C   UNL A   1      38.568  24.191  26.634  1.00  0.00     0.005 A 
ATOM     78  C   UNL A   1      37.381  22.391  25.509  1.00  0.00     0.143 A 
ATOM     79  C   UNL A   1      37.438  23.719  25.955  1.00  0.00     0.048 A 
BRANCH  78  80
ATOM     80  O   UNL A   1      36.310  22.033  24.716  1.00  0.00    -0.379 OA
BRANCH  80  81
ATOM     81  S   UNL A   1      34.808  21.904  25.368  1.00  0.00     0.339 S 
ATOM     82  O   UNL A   1      34.916  21.451  26.742  1.00  0.00    -0.181 OA
ATOM     83  O   UNL A   1      34.065  23.107  25.043  1.00  0.00    -0.181 OA
BRANCH  81  84
ATOM     84  C   UNL A   1      34.015  20.589  24.457  1.00  0.00     0.112 A 
ATOM     85  C   UNL A   1      32.889  20.897  23.684  1.00  0.00     0.024 A 
ATOM     86  C   UNL A   1      34.429  19.259  24.630  1.00  0.00     0.109 A 
ATOM     87  C   UNL A   1      32.138  19.866  23.119  1.00  0.00     0.009 A 
ATOM     88  C   UNL A   1      33.669  18.234  24.053  1.00  0.00     0.270 A 
ATOM     89  C   UNL A   1      32.514  18.534  23.314  1.00  0.00     0.086 A 
BRANCH  88  90
ATOM     90  N   UNL A   1      34.076  16.829  24.221  1.00  0.00     0.062 N 
ATOM     91  O   UNL A   1      34.343  16.182  23.198  1.00  0.00    -0.258 OA
ATOM     92  O   UNL A   1      34.127  16.382  25.373  1.00  0.00    -0.258 OA
ENDBRANCH  88  90
ENDBRANCH  81  84
ENDBRANCH  80  81
ENDBRANCH  78  80
ENDBRANCH  72  74
ENDBRANCH  71  72
ENDBRANCH   1  71
TORSDOF 15
ENDMDL
MODEL 2
REMARK VINA RESULT:     -12.2      1.488      2.531
REMARK SMILES O=C(OCCOC(=O)c1cccc(OS(=O)(=O)c2cccc([N+](=O)[O-])c2)c1)c1ccc(-c2c3nc(c(-c4c(F)c(F)c(F)c(F)c4F)c4ccc([nH]4)c(-c4c(F)c(F)c(F)c(F)c4F)c4nc(c(-c5c(F)c(F)c(F)c(F)c5F)c5ccc2[nH]5)C=C4)C=C3)cc1
REMARK SMILES IDX 5 1 4 2 3 3 2 4 1 5 28 6 29 7 90 8 30 9 89 10 31 11 32 12
REMARK SMILES IDX 33 13 83 14 34 15 88 16 82 17 84 18 35 19 87 20 81 21 80 22
REMARK SMILES IDX 36 24 68 25 48 26 67 27 49 28 52 29 66 30 85 31 50 32 51 33
REMARK SMILES IDX 65 35 86 36 53 37 37 38 38 39 46 40 39 41 40 42 44 43 47 44
REMARK SMILES IDX 41 45 42 46 45 47 43 48 69 49 70 50 78 51 71 52 72 53 76 54
REMARK SMILES IDX 79 55 73 56 74 57 77 58 75 59 54 60 55 61 63 62 56 63 57 64
REMARK SMILES IDX 61 65 64 66 58 67 59 68 62 69 60 70 6 71 7 72 8 73 9 74
REMARK SMILES IDX 10 75 27 76 11 77 13 78 12 79 14 80 15 81 16 82 17 83 18 84
REMARK SMILES IDX 19 85 26 86 20 87 22 88 21 89 23 90 24 91 25 92
REMARK H PARENT 84 23 52 34
REMARK Flexibility Score: inf
ROOT
ATOM      1  C   UNL A   1      42.744  20.968  26.084  1.00  0.00     0.275 C 
ENDROOT
BRANCH   1   2
ATOM      2  C   UNL A   1      43.865  21.661  25.304  1.00  0.00     0.275 C 
BRANCH   2   3
ATOM      3  O   UNL A   1      43.483  22.952  24.802  1.00  0.00    -0.458 OA
BRANCH   3   4
ATOM      4  C   UNL A   1      43.999  24.185  25.001  1.00  0.00     0.338 C 
ATOM      5  O   UNL A   1      44.902  24.549  24.246  1.00  0.00    -0.246 OA
BRANCH   4   6
ATOM      6  C   UNL A   1      43.595  25.149  26.087  1.00  0.00     0.060 A 
ATOM      7  C   UNL A   1      44.026  26.466  26.262  1.00  0.00     0.016 A 
ATOM      8  C   UNL A   1      42.651  24.660  27.017  1.00  0.00     0.016 A 
ATOM      9  C   UNL A   1      43.552  27.262  27.318  1.00  0.00     0.010 A 
ATOM     10  C   UNL A   1      42.159  25.450  28.062  1.00  0.00     0.010 A 
ATOM     11  C   UNL A   1      42.621  26.758  28.228  1.00  0.00    -0.014 A 
BRANCH  11  12
ATOM     12  C   UNL A   1      42.158  27.580  29.375  1.00  0.00     0.031 A 
ATOM     13  C   UNL A   1      42.853  27.452  30.686  1.00  0.00     0.074 A 
ATOM     14  C   UNL A   1      41.081  28.378  29.252  1.00  0.00     0.049 A 
ATOM     15  N   UNL A   1      42.602  28.073  31.807  1.00  0.00    -0.248 NA
ATOM     16  C   UNL A   1      43.960  26.487  30.757  1.00  0.00     0.031 C 
ATOM     17  C   UNL A   1      40.327  28.507  28.021  1.00  0.00     0.029 A 
ATOM     18  N   UNL A   1      40.408  29.191  30.130  1.00  0.00    -0.354 N 
ATOM     19  C   UNL A   1      43.498  27.553  32.725  1.00  0.00     0.074 A 
ATOM     20  C   UNL A   1      44.298  26.563  32.036  1.00  0.00     0.031 C 
ATOM     21  C   UNL A   1      39.272  29.310  28.219  1.00  0.00     0.029 A 
ATOM     22  C   UNL A   1      39.283  29.781  29.593  1.00  0.00     0.049 A 
ATOM     23  H   UNL A   1      40.701  29.339  31.058  1.00  0.00     0.167 HD
ATOM     24  C   UNL A   1      43.620  27.875  34.032  1.00  0.00     0.037 A 
ATOM     25  C   UNL A   1      38.373  30.615  30.140  1.00  0.00     0.037 A 
ATOM     26  C   UNL A   1      42.813  28.869  34.689  1.00  0.00     0.049 A 
ATOM     27  C   UNL A   1      38.612  31.020  31.574  1.00  0.00     0.074 A 
ATOM     28  C   UNL A   1      42.886  29.312  35.997  1.00  0.00     0.029 A 
ATOM     29  N   UNL A   1      41.775  29.564  34.085  1.00  0.00    -0.354 N 
ATOM     30  N   UNL A   1      39.597  30.674  32.369  1.00  0.00    -0.248 NA
ATOM     31  C   UNL A   1      37.645  31.941  32.184  1.00  0.00     0.031 C 
ATOM     32  C   UNL A   1      41.854  30.235  36.200  1.00  0.00     0.029 A 
ATOM     33  C   UNL A   1      41.162  30.394  35.010  1.00  0.00     0.049 A 
ATOM     34  H   UNL A   1      41.512  29.480  33.141  1.00  0.00     0.167 HD
ATOM     35  C   UNL A   1      39.374  31.342  33.561  1.00  0.00     0.074 A 
ATOM     36  C   UNL A   1      38.218  32.188  33.352  1.00  0.00     0.031 C 
ATOM     37  C   UNL A   1      40.024  31.233  34.746  1.00  0.00     0.037 A 
BRANCH  24  38
ATOM     38  C   UNL A   1      44.615  27.102  34.837  1.00  0.00     0.064 A 
ATOM     39  C   UNL A   1      44.284  25.898  35.474  1.00  0.00     0.173 A 
ATOM     40  C   UNL A   1      45.929  27.578  34.966  1.00  0.00     0.173 A 
ATOM     41  F   UNL A   1      43.033  25.419  35.403  1.00  0.00    -0.203 F 
ATOM     42  C   UNL A   1      45.229  25.207  36.227  1.00  0.00     0.198 A 
ATOM     43  C   UNL A   1      46.877  26.871  35.698  1.00  0.00     0.198 A 
ATOM     44  F   UNL A   1      46.290  28.731  34.384  1.00  0.00    -0.203 F 
ATOM     45  F   UNL A   1      44.880  24.080  36.865  1.00  0.00    -0.200 F 
ATOM     46  C   UNL A   1      46.525  25.689  36.332  1.00  0.00     0.200 A 
ATOM     47  F   UNL A   1      48.129  27.338  35.797  1.00  0.00    -0.200 F 
ATOM     48  F   UNL A   1      47.434  25.018  37.053  1.00  0.00    -0.200 F 
ENDBRANCH  24  38
BRANCH  25  49
ATOM     49  C   UNL A   1      37.213  31.154  29.355  1.00  0.00     0.064 A 
ATOM     50  C   UNL A   1      36.139  30.329  28.985  1.00  0.00     0.173 A 
ATOM     51  C   UNL A   1      37.134  32.495  28.942  1.00  0.00     0.173 A 
ATOM     52  F   UNL A   1      36.118  29.044  29.370  1.00  0.00    -0.203 F 
ATOM     53  C   UNL A   1      35.072  30.799  28.216  1.00  0.00     0.198 A 
ATOM     54  C   UNL A   1      36.033  32.984  28.235  1.00  0.00     0.198 A 
ATOM     55  F   UNL A   1      38.114  33.356  29.253  1.00  0.00    -0.203 F 
ATOM     56  F   UNL A   1      34.087  29.962  27.863  1.00  0.00    -0.200 F 
ATOM     57  C   UNL A   1      35.008  32.132  27.860  1.00  0.00     0.200 A 
ATOM     58  F   UNL A   1      35.958  34.287  27.932  1.00  0.00    -0.200 F 
ATOM     59  F   UNL A   1      33.951  32.598  27.182  1.00  0.00    -0.200 F 
ENDBRANCH  25  49
BRANCH  37  60
ATOM     60  C   UNL A   1      39.451  32.022  35.884  1.00  0.00     0.064 A 
ATOM     61  C   UNL A   1      39.901  33.326  36.146  1.00  0.00     0.173 A 
ATOM     62  C   UNL A   1      38.458  31.484  36.712  1.00  0.00     0.173 A 
ATOM     63  F   UNL A   1      40.866  33.874  35.392  1.00  0.00    -0.203 F 
ATOM     64  C   UNL A   1      39.405  34.047  37.226  1.00  0.00     0.198 A 
ATOM     65  C   UNL A   1      37.938  32.224  37.770  1.00  0.00     0.198 A 
ATOM     66  F   UNL A   1      37.993  30.245  36.495  1.00  0.00    -0.203 F 
ATOM     67  F   UNL A   1      39.900  35.263  37.499  1.00  0.00    -0.200 F 
ATOM     68  C   UNL A   1      38.420  33.498  38.033  1.00  0.00     0.200 A 
ATOM     69  F   UNL A   1      36.977  31.700  38.542  1.00  0.00    -0.200 F 
ATOM     70  F   UNL A   1      37.943  34.195  39.072  1.00  0.00    -0.200 F 
ENDBRANCH  37  60
ENDBRANCH  11  12
ENDBRANCH   4   6
ENDBRANCH   3   4
ENDBRANCH   2   3
ENDBRANCH   1   2
BRANCH   1  71
ATOM     71  O   UNL A   1      41.457  21.542  25.828  1.00  0.00    -0.458 OA
BRANCH  71  72
ATOM     72  C   UNL A   1      40.461  21.168  26.678  1.00  0.00     0.338 C 
ATOM     73  O   UNL A   1      40.509  20.341  27.560  1.00  0.00    -0.246 OA
BRANCH  72  74
ATOM     74  C   UNL A   1      39.296  22.033  26.407  1.00  0.00     0.063 A 
ATOM     75  C   UNL A   1      39.318  23.370  26.808  1.00  0.00     0.016 A 
ATOM     76  C   UNL A   1      38.208  21.513  25.702  1.00  0.00     0.064 A 
ATOM     77  C   UNL A   1      38.243  24.198  26.480  1.00  0.00     0.005 A 
ATOM     78  C   UNL A   1      37.153  22.346  25.342  1.00  0.00     0.143 A 
ATOM     79  C   UNL A   1      37.156  23.683  25.765  1.00  0.00     0.048 A 
BRANCH  78  80
ATOM     80  O   UNL A   1      36.126  21.944  24.513  1.00  0.00    -0.379 OA
BRANCH  80  81
ATOM     81  S   UNL A   1      34.675  21.510  25.148  1.00  0.00     0.339 S 
ATOM     82  O   UNL A   1      34.273  20.229  24.598  1.00  0.00    -0.181 OA
ATOM     83  O   UNL A   1      34.725  21.715  26.583  1.00  0.00    -0.181 OA
BRANCH  81  84
ATOM     84  C   UNL A   1      33.514  22.718  24.530  1.00  0.00     0.112 A 
ATOM     85  C   UNL A   1      32.148  22.413  24.570  1.00  0.00     0.024 A 
ATOM     86  C   UNL A   1      33.974  23.879  23.891  1.00  0.00     0.109 A 
ATOM     87  C   UNL A   1      31.236  23.247  23.924  1.00  0.00     0.009 A 
ATOM     88  C   UNL A   1      33.047  24.711  23.250  1.00  0.00     0.270 A 
ATOM     89  C   UNL A   1      31.683  24.387  23.249  1.00  0.00     0.086 A 
BRANCH  88  90
ATOM     90  N   UNL A   1      33.502  25.934  22.568  1.00  0.00     0.062 N 
ATOM     91  O   UNL A   1      33.718  25.864  21.349  1.00  0.00    -0.258 OA
ATOM     92  O   UNL A   1      33.640  26.955  23.252  1.00  0.00    -0.258 OA
ENDBRANCH  88  90
ENDBRANCH  81  84
ENDBRANCH  80  81
ENDBRANCH  78  80
ENDBRANCH  72  74
ENDBRANCH  71  72
ENDBRANCH   1  71
TORSDOF 15
ENDMDL
MODEL 3
REMARK VINA RESULT:     -12.0      3.847      9.077
REMARK SMILES O=C(OCCOC(=O)c1cccc(OS(=O)(=O)c2cccc([N+](=O)[O-])c2)c1)c1ccc(-c2c3nc(c(-c4c(F)c(F)c(F)c(F)c4F)c4ccc([nH]4)c(-c4c(F)c(F)c(F)c(F)c4F)c4nc(c(-c5c(F)c(F)c(F)c(F)c5F)c5ccc2[nH]5)C=C4)C=C3)cc1
REMARK SMILES IDX 5 1 4 2 3 3 2 4 1 5 28 6 29 7 90 8 30 9 89 10 31 11 32 12
REMARK SMILES IDX 33 13 83 14 34 15 88 16 82 17 84 18 35 19 87 20 81 21 80 22
REMARK SMILES IDX 36 24 68 25 48 26 67 27 49 28 52 29 66 30 85 31 50 32 51 33
REMARK SMILES IDX 65 35 86 36 53 37 37 38 38 39 46 40 39 41 40 42 44 43 47 44
REMARK SMILES IDX 41 45 42 46 45 47 43 48 69 49 70 50 78 51 71 52 72 53 76 54
REMARK SMILES IDX 79 55 73 56 74 57 77 58 75 59 54 60 55 61 63 62 56 63 57 64
REMARK SMILES IDX 61 65 64 66 58 67 59 68 62 69 60 70 6 71 7 72 8 73 9 74
REMARK SMILES IDX 10 75 27 76 11 77 13 78 12 79 14 80 15 81 16 82 17 83 18 84
REMARK SMILES IDX 19 85 26 86 20 87 22 88 21 89 23 90 24 91 25 92
REMARK H PARENT 84 23 52 34
REMARK Flexibility Score: inf
ROOT
ATOM      1  C   UNL A   1      32.026  30.883  26.789  1.00  0.00     0.275 C 
ENDROOT
BRANCH   1   2
ATOM      2  C   UNL A   1      31.420  32.286  26.877  1.00  0.00     0.275 C 
BRANCH   2   3
ATOM      3  O   UNL A   1      32.413  33.323  26.924  1.00  0.00    -0.458 OA
BRANCH   3   4
ATOM      4  C   UNL A   1      33.031  33.933  27.959  1.00  0.00     0.338 C 
ATOM      5  O   UNL A   1      32.528  34.974  28.385  1.00  0.00    -0.246 OA
BRANCH   4   6
ATOM      6  C   UNL A   1      34.304  33.476  28.623  1.00  0.00     0.060 A 
ATOM      7  C   UNL A   1      35.591  33.993  28.449  1.00  0.00     0.016 A 
ATOM      8  C   UNL A   1      34.164  32.417  29.547  1.00  0.00     0.016 A 
ATOM      9  C   UNL A   1      36.692  33.476  29.150  1.00  0.00     0.010 A 
ATOM     10  C   UNL A   1      35.252  31.907  30.264  1.00  0.00     0.010 A 
ATOM     11  C   UNL A   1      36.533  32.426  30.057  1.00  0.00    -0.014 A 
BRANCH  11  12
ATOM     12  C   UNL A   1      37.704  31.845  30.760  1.00  0.00     0.031 A 
ATOM     13  C   UNL A   1      38.540  30.830  30.059  1.00  0.00     0.074 A 
ATOM     14  C   UNL A   1      37.967  32.177  32.038  1.00  0.00     0.049 A 
ATOM     15  N   UNL A   1      39.597  30.200  30.496  1.00  0.00    -0.248 NA
ATOM     16  C   UNL A   1      38.126  30.457  28.699  1.00  0.00     0.031 C 
ATOM     17  C   UNL A   1      37.162  33.114  32.794  1.00  0.00     0.029 A 
ATOM     18  N   UNL A   1      38.922  31.771  32.937  1.00  0.00    -0.354 N 
ATOM     19  C   UNL A   1      39.957  29.334  29.479  1.00  0.00     0.074 A 
ATOM     20  C   UNL A   1      39.007  29.512  28.402  1.00  0.00     0.031 C 
ATOM     21  C   UNL A   1      37.618  33.190  34.052  1.00  0.00     0.029 A 
ATOM     22  C   UNL A   1      38.774  32.321  34.193  1.00  0.00     0.049 A 
ATOM     23  H   UNL A   1      39.646  31.145  32.707  1.00  0.00     0.167 HD
ATOM     24  C   UNL A   1      40.988  28.460  29.467  1.00  0.00     0.037 A 
ATOM     25  C   UNL A   1      39.492  32.153  35.324  1.00  0.00     0.037 A 
ATOM     26  C   UNL A   1      41.921  28.308  30.551  1.00  0.00     0.049 A 
ATOM     27  C   UNL A   1      40.691  31.242  35.228  1.00  0.00     0.074 A 
ATOM     28  C   UNL A   1      43.033  27.490  30.625  1.00  0.00     0.029 A 
ATOM     29  N   UNL A   1      41.839  28.986  31.760  1.00  0.00    -0.354 N 
ATOM     30  N   UNL A   1      41.139  30.587  34.183  1.00  0.00    -0.248 NA
ATOM     31  C   UNL A   1      41.498  31.059  36.440  1.00  0.00     0.031 C 
ATOM     32  C   UNL A   1      43.591  27.630  31.900  1.00  0.00     0.029 A 
ATOM     33  C   UNL A   1      42.850  28.562  32.608  1.00  0.00     0.049 A 
ATOM     34  H   UNL A   1      41.163  29.665  31.983  1.00  0.00     0.167 HD
ATOM     35  C   UNL A   1      42.281  29.929  34.608  1.00  0.00     0.074 A 
ATOM     36  C   UNL A   1      42.511  30.343  35.977  1.00  0.00     0.031 C 
ATOM     37  C   UNL A   1      43.047  29.021  33.957  1.00  0.00     0.037 A 
BRANCH  24  38
ATOM     38  C   UNL A   1      41.114  27.567  28.274  1.00  0.00     0.064 A 
ATOM     39  C   UNL A   1      41.901  27.912  27.166  1.00  0.00     0.173 A 
ATOM     40  C   UNL A   1      40.436  26.339  28.245  1.00  0.00     0.173 A 
ATOM     41  F   UNL A   1      42.545  29.090  27.136  1.00  0.00    -0.203 F 
ATOM     42  C   UNL A   1      41.991  27.067  26.064  1.00  0.00     0.198 A 
ATOM     43  C   UNL A   1      40.548  25.485  27.152  1.00  0.00     0.198 A 
ATOM     44  F   UNL A   1      39.662  25.971  29.276  1.00  0.00    -0.203 F 
ATOM     45  F   UNL A   1      42.714  27.436  24.997  1.00  0.00    -0.200 F 
ATOM     46  C   UNL A   1      41.321  25.852  26.061  1.00  0.00     0.200 A 
ATOM     47  F   UNL A   1      39.902  24.312  27.153  1.00  0.00    -0.200 F 
ATOM     48  F   UNL A   1      41.414  25.038  25.001  1.00  0.00    -0.200 F 
ENDBRANCH  24  38
BRANCH  25  49
ATOM     49  C   UNL A   1      39.153  32.872  36.597  1.00  0.00     0.064 A 
ATOM     50  C   UNL A   1      38.285  32.304  37.544  1.00  0.00     0.173 A 
ATOM     51  C   UNL A   1      39.670  34.140  36.913  1.00  0.00     0.173 A 
ATOM     52  F   UNL A   1      37.777  31.081  37.337  1.00  0.00    -0.203 F 
ATOM     53  C   UNL A   1      37.921  32.975  38.713  1.00  0.00     0.198 A 
ATOM     54  C   UNL A   1      39.363  34.781  38.116  1.00  0.00     0.198 A 
ATOM     55  F   UNL A   1      40.509  34.757  36.068  1.00  0.00    -0.203 F 
ATOM     56  F   UNL A   1      37.063  32.402  39.569  1.00  0.00    -0.200 F 
ATOM     57  C   UNL A   1      38.477  34.204  39.010  1.00  0.00     0.200 A 
ATOM     58  F   UNL A   1      39.941  35.952  38.416  1.00  0.00    -0.200 F 
ATOM     59  F   UNL A   1      38.181  34.816  40.164  1.00  0.00    -0.200 F 
ENDBRANCH  25  49
BRANCH  37  60
ATOM     60  C   UNL A   1      44.159  28.408  34.753  1.00  0.00     0.064 A 
ATOM     61  C   UNL A   1      43.945  27.234  35.495  1.00  0.00     0.173 A 
ATOM     62  C   UNL A   1      45.435  28.984  34.778  1.00  0.00     0.173 A 
ATOM     63  F   UNL A   1      42.732  26.659  35.516  1.00  0.00    -0.203 F 
ATOM     64  C   UNL A   1      44.960  26.685  36.268  1.00  0.00     0.198 A 
ATOM     65  C   UNL A   1      46.459  28.409  35.526  1.00  0.00     0.198 A 
ATOM     66  F   UNL A   1      45.688  30.100  34.081  1.00  0.00    -0.203 F 
ATOM     67  F   UNL A   1      44.712  25.605  37.024  1.00  0.00    -0.200 F 
ATOM     68  C   UNL A   1      46.217  27.269  36.279  1.00  0.00     0.200 A 
ATOM     69  F   UNL A   1      47.678  28.965  35.527  1.00  0.00    -0.200 F 
ATOM     70  F   UNL A   1      47.194  26.737  37.025  1.00  0.00    -0.200 F 
ENDBRANCH  37  60
ENDBRANCH  11  12
ENDBRANCH   4   6
ENDBRANCH   3   4
ENDBRANCH   2   3
ENDBRANCH   1   2
BRANCH   1  71
ATOM     71  O   UNL A   1      31.779  30.252  25.527  1.00  0.00    -0.458 OA
BRANCH  71  72
ATOM     72  C   UNL A   1      32.433  29.077  25.313  1.00  0.00     0.338 C 
ATOM     73  O   UNL A   1      33.627  28.882  25.310  1.00  0.00    -0.246 OA
BRANCH  72  74
ATOM     74  C   UNL A   1      31.413  28.019  25.174  1.00  0.00     0.063 A 
ATOM     75  C   UNL A   1      30.621  27.967  24.025  1.00  0.00     0.016 A 
ATOM     76  C   UNL A   1      31.293  27.050  26.173  1.00  0.00     0.064 A 
ATOM     77  C   UNL A   1      29.712  26.920  23.870  1.00  0.00     0.005 A 
ATOM     78  C   UNL A   1      30.414  25.985  26.003  1.00  0.00     0.143 A 
ATOM     79  C   UNL A   1      29.596  25.941  24.865  1.00  0.00     0.048 A 
BRANCH  78  80
ATOM     80  O   UNL A   1      30.357  24.911  26.867  1.00  0.00    -0.379 OA
BRANCH  80  81
ATOM     81  S   UNL A   1      31.141  23.515  26.501  1.00  0.00     0.339 S 
ATOM     82  O   UNL A   1      31.714  22.953  27.709  1.00  0.00    -0.181 OA
ATOM     83  O   UNL A   1      30.278  22.716  25.651  1.00  0.00    -0.181 OA
BRANCH  81  84
ATOM     84  C   UNL A   1      32.512  24.007  25.467  1.00  0.00     0.112 A 
ATOM     85  C   UNL A   1      33.639  24.572  26.076  1.00  0.00     0.024 A 
ATOM     86  C   UNL A   1      32.397  23.958  24.069  1.00  0.00     0.109 A 
ATOM     87  C   UNL A   1      34.638  25.139  25.286  1.00  0.00     0.009 A 
ATOM     88  C   UNL A   1      33.411  24.526  23.287  1.00  0.00     0.270 A 
ATOM     89  C   UNL A   1      34.520  25.133  23.893  1.00  0.00     0.086 A 
BRANCH  88  90
ATOM     90  N   UNL A   1      33.315  24.493  21.818  1.00  0.00     0.062 N 
ATOM     91  O   UNL A   1      33.278  23.381  21.270  1.00  0.00    -0.258 OA
ATOM     92  O   UNL A   1      33.278  25.576  21.222  1.00  0.00    -0.258 OA
ENDBRANCH  88  90
ENDBRANCH  81  84
ENDBRANCH  80  81
ENDBRANCH  78  80
ENDBRANCH  72  74
ENDBRANCH  71  72
ENDBRANCH   1  71
TORSDOF 15
ENDMDL
