MODEL 1
REMARK VINA RESULT:     -11.3      0.000      0.000
REMARK SMILES C[C@H](C(=O)OCCOC(=O)c1ccc(-c2c3nc(c(-c4c(F)c(F)c(F)c(F)c4F)c4ccc([nH]4)c(-c4c(F)c(F)c(F)c(F)c4F)c4nc(c(-c5c(F)c(F)c(F)c(F)c5F)c5ccc2[nH]5)C=C4)C=C3)cc1)c1ccc2ncccc2c1
REMARK SMILES IDX 7 1 6 2 5 3 3 4 4 5 2 6 1 7 74 8 75 9 83 10 76 11 82 12
REMARK SMILES IDX 77 13 81 14 78 15 80 16 79 17 8 18 9 19 10 20 11 21 12 22
REMARK SMILES IDX 73 23 13 24 72 25 14 26 15 27 16 28 66 29 17 30 71 31 65 32
REMARK SMILES IDX 67 33 18 34 70 35 64 36 63 37 19 39 51 40 31 41 50 42 32 43
REMARK SMILES IDX 35 44 49 45 68 46 33 47 34 48 48 50 69 51 36 52 20 53 21 54
REMARK SMILES IDX 29 55 22 56 23 57 27 58 30 59 24 60 25 61 28 62 26 63 52 64
REMARK SMILES IDX 53 65 61 66 54 67 55 68 59 69 62 70 56 71 57 72 60 73 58 74
REMARK SMILES IDX 37 75 38 76 46 77 39 78 40 79 44 80 47 81 41 82 42 83 45 84
REMARK SMILES IDX 43 85
REMARK H PARENT 67 38 35 49
REMARK Flexibility Score: inf
ROOT
ATOM      1  C   UNL A   1      44.517  23.049  24.353  1.00  0.00     0.275 C 
ENDROOT
BRANCH   1   2
ATOM      2  C   UNL A   1      44.063  21.919  25.280  1.00  0.00     0.274 C 
BRANCH   2   3
ATOM      3  O   UNL A   1      42.628  21.891  25.395  1.00  0.00    -0.462 OA
BRANCH   3   4
ATOM      4  C   UNL A   1      42.099  20.878  26.134  1.00  0.00     0.313 C 
ATOM      5  O   UNL A   1      42.390  19.695  25.983  1.00  0.00    -0.252 OA
BRANCH   4   6
ATOM      6  C   UNL A   1      41.183  21.382  27.254  1.00  0.00     0.126 C 
ATOM      7  C   UNL A   1      41.880  22.216  28.327  1.00  0.00     0.025 C 
BRANCH   6   8
ATOM      8  C   UNL A   1      39.954  22.113  26.728  1.00  0.00    -0.033 A 
ATOM      9  C   UNL A   1      39.702  23.451  27.048  1.00  0.00     0.007 A 
ATOM     10  C   UNL A   1      39.021  21.433  25.932  1.00  0.00     0.015 A 
ATOM     11  C   UNL A   1      38.557  24.093  26.564  1.00  0.00     0.029 A 
ATOM     12  C   UNL A   1      37.864  22.082  25.458  1.00  0.00     0.000 A 
ATOM     13  C   UNL A   1      37.626  23.434  25.775  1.00  0.00     0.070 A 
ATOM     14  C   UNL A   1      36.914  21.417  24.668  1.00  0.00     0.012 A 
ATOM     15  N   UNL A   1      36.534  24.095  25.348  1.00  0.00    -0.256 NA
ATOM     16  C   UNL A   1      35.784  22.095  24.229  1.00  0.00     0.021 A 
ATOM     17  C   UNL A   1      35.641  23.420  24.592  1.00  0.00     0.112 A 
ENDBRANCH   6   8
ENDBRANCH   4   6
ENDBRANCH   3   4
ENDBRANCH   2   3
ENDBRANCH   1   2
BRANCH   1  18
ATOM     18  O   UNL A   1      43.777  24.266  24.578  1.00  0.00    -0.458 OA
BRANCH  18  19
ATOM     19  C   UNL A   1      44.502  25.299  25.064  1.00  0.00     0.338 C 
ATOM     20  O   UNL A   1      45.583  25.703  24.671  1.00  0.00    -0.246 OA
BRANCH  19  21
ATOM     21  C   UNL A   1      43.751  25.978  26.127  1.00  0.00     0.060 A 
ATOM     22  C   UNL A   1      44.046  27.316  26.404  1.00  0.00     0.016 A 
ATOM     23  C   UNL A   1      42.857  25.266  26.926  1.00  0.00     0.016 A 
ATOM     24  C   UNL A   1      43.476  27.939  27.509  1.00  0.00     0.010 A 
ATOM     25  C   UNL A   1      42.262  25.902  28.020  1.00  0.00     0.010 A 
ATOM     26  C   UNL A   1      42.585  27.235  28.329  1.00  0.00    -0.014 A 
BRANCH  26  27
ATOM     27  C   UNL A   1      42.014  27.888  29.531  1.00  0.00     0.031 A 
ATOM     28  C   UNL A   1      40.711  28.628  29.437  1.00  0.00     0.074 A 
ATOM     29  C   UNL A   1      42.662  27.804  30.707  1.00  0.00     0.049 A 
ATOM     30  N   UNL A   1      40.106  29.356  30.342  1.00  0.00    -0.248 NA
ATOM     31  C   UNL A   1      39.995  28.541  28.156  1.00  0.00     0.031 C 
ATOM     32  C   UNL A   1      43.910  27.075  30.932  1.00  0.00     0.029 A 
ATOM     33  N   UNL A   1      42.360  28.339  31.932  1.00  0.00    -0.354 N 
ATOM     34  C   UNL A   1      38.957  29.837  29.731  1.00  0.00     0.074 A 
ATOM     35  C   UNL A   1      38.948  29.324  28.378  1.00  0.00     0.031 C 
ATOM     36  C   UNL A   1      44.263  27.201  32.221  1.00  0.00     0.029 A 
ATOM     37  C   UNL A   1      43.297  28.061  32.896  1.00  0.00     0.049 A 
ATOM     38  H   UNL A   1      41.549  28.871  32.106  1.00  0.00     0.167 HD
ATOM     39  C   UNL A   1      37.998  30.638  30.256  1.00  0.00     0.037 A 
ATOM     40  C   UNL A   1      43.382  28.481  34.172  1.00  0.00     0.037 A 
ATOM     41  C   UNL A   1      37.994  31.122  31.611  1.00  0.00     0.049 A 
ATOM     42  C   UNL A   1      42.325  29.399  34.717  1.00  0.00     0.074 A 
ATOM     43  C   UNL A   1      37.057  31.923  32.241  1.00  0.00     0.029 A 
ATOM     44  N   UNL A   1      38.976  30.842  32.550  1.00  0.00    -0.354 N 
ATOM     45  N   UNL A   1      41.256  29.871  34.126  1.00  0.00    -0.248 NA
ATOM     46  C   UNL A   1      42.496  29.853  36.105  1.00  0.00     0.031 C 
ATOM     47  C   UNL A   1      37.488  32.152  33.552  1.00  0.00     0.029 A 
ATOM     48  C   UNL A   1      38.676  31.466  33.749  1.00  0.00     0.049 A 
ATOM     49  H   UNL A   1      39.770  30.282  32.388  1.00  0.00     0.167 HD
ATOM     50  C   UNL A   1      40.620  30.667  35.067  1.00  0.00     0.074 A 
ATOM     51  C   UNL A   1      41.415  30.603  36.276  1.00  0.00     0.031 C 
ATOM     52  C   UNL A   1      39.480  31.389  34.941  1.00  0.00     0.037 A 
BRANCH  39  53
ATOM     53  C   UNL A   1      36.884  31.067  29.351  1.00  0.00     0.064 A 
ATOM     54  C   UNL A   1      35.843  30.196  28.999  1.00  0.00     0.173 A 
ATOM     55  C   UNL A   1      36.839  32.380  28.859  1.00  0.00     0.173 A 
ATOM     56  F   UNL A   1      35.850  28.926  29.432  1.00  0.00    -0.203 F 
ATOM     57  C   UNL A   1      34.804  30.620  28.174  1.00  0.00     0.198 A 
ATOM     58  C   UNL A   1      35.788  32.807  28.053  1.00  0.00     0.198 A 
ATOM     59  F   UNL A   1      37.810  33.251  29.170  1.00  0.00    -0.203 F 
ATOM     60  F   UNL A   1      33.836  29.763  27.823  1.00  0.00    -0.200 F 
ATOM     61  C   UNL A   1      34.774  31.927  27.708  1.00  0.00     0.200 A 
ATOM     62  F   UNL A   1      35.758  34.071  27.608  1.00  0.00    -0.200 F 
ATOM     63  F   UNL A   1      33.771  32.336  26.918  1.00  0.00    -0.200 F 
ENDBRANCH  39  53
BRANCH  40  64
ATOM     64  C   UNL A   1      44.526  28.048  35.012  1.00  0.00     0.064 A 
ATOM     65  C   UNL A   1      44.448  26.889  35.794  1.00  0.00     0.173 A 
ATOM     66  C   UNL A   1      45.723  28.779  35.039  1.00  0.00     0.173 A 
ATOM     67  F   UNL A   1      43.313  26.174  35.817  1.00  0.00    -0.203 F 
ATOM     68  C   UNL A   1      45.524  26.478  36.578  1.00  0.00     0.198 A 
ATOM     69  C   UNL A   1      46.806  28.355  35.805  1.00  0.00     0.198 A 
ATOM     70  F   UNL A   1      45.845  29.897  34.309  1.00  0.00    -0.203 F 
ATOM     71  F   UNL A   1      45.413  25.383  37.342  1.00  0.00    -0.200 F 
ATOM     72  C   UNL A   1      46.703  27.208  36.577  1.00  0.00     0.200 A 
ATOM     73  F   UNL A   1      47.947  29.057  35.795  1.00  0.00    -0.200 F 
ATOM     74  F   UNL A   1      47.740  26.807  37.327  1.00  0.00    -0.200 F 
ENDBRANCH  40  64
BRANCH  52  75
ATOM     75  C   UNL A   1      39.018  32.150  36.146  1.00  0.00     0.064 A 
ATOM     76  C   UNL A   1      38.194  31.557  37.111  1.00  0.00     0.173 A 
ATOM     77  C   UNL A   1      39.430  33.475  36.350  1.00  0.00     0.173 A 
ATOM     78  F   UNL A   1      37.763  30.297  36.948  1.00  0.00    -0.203 F 
ATOM     79  C   UNL A   1      37.783  32.270  38.234  1.00  0.00     0.198 A 
ATOM     80  C   UNL A   1      39.034  34.179  37.483  1.00  0.00     0.198 A 
ATOM     81  F   UNL A   1      40.221  34.084  35.453  1.00  0.00    -0.203 F 
ATOM     82  F   UNL A   1      36.967  31.696  39.128  1.00  0.00    -0.200 F 
ATOM     83  C   UNL A   1      38.207  33.577  38.421  1.00  0.00     0.200 A 
ATOM     84  F   UNL A   1      39.449  35.439  37.668  1.00  0.00    -0.200 F 
ATOM     85  F   UNL A   1      37.812  34.262  39.504  1.00  0.00    -0.200 F 
ENDBRANCH  52  75
ENDBRANCH  26  27
ENDBRANCH  19  21
ENDBRANCH  18  19
ENDBRANCH   1  18
TORSDOF 12
ENDMDL
MODEL 2
REMARK VINA RESULT:     -11.2      4.622      9.276
REMARK SMILES C[C@H](C(=O)OCCOC(=O)c1ccc(-c2c3nc(c(-c4c(F)c(F)c(F)c(F)c4F)c4ccc([nH]4)c(-c4c(F)c(F)c(F)c(F)c4F)c4nc(c(-c5c(F)c(F)c(F)c(F)c5F)c5ccc2[nH]5)C=C4)C=C3)cc1)c1ccc2ncccc2c1
REMARK SMILES IDX 7 1 6 2 5 3 3 4 4 5 2 6 1 7 74 8 75 9 83 10 76 11 82 12
REMARK SMILES IDX 77 13 81 14 78 15 80 16 79 17 8 18 9 19 10 20 11 21 12 22
REMARK SMILES IDX 73 23 13 24 72 25 14 26 15 27 16 28 66 29 17 30 71 31 65 32
REMARK SMILES IDX 67 33 18 34 70 35 64 36 63 37 19 39 51 40 31 41 50 42 32 43
REMARK SMILES IDX 35 44 49 45 68 46 33 47 34 48 48 50 69 51 36 52 20 53 21 54
REMARK SMILES IDX 29 55 22 56 23 57 27 58 30 59 24 60 25 61 28 62 26 63 52 64
REMARK SMILES IDX 53 65 61 66 54 67 55 68 59 69 62 70 56 71 57 72 60 73 58 74
REMARK SMILES IDX 37 75 38 76 46 77 39 78 40 79 44 80 47 81 41 82 42 83 45 84
REMARK SMILES IDX 43 85
REMARK H PARENT 67 38 35 49
REMARK Flexibility Score: inf
ROOT
ATOM      1  C   UNL A   1      31.772  29.892  26.753  1.00  0.00     0.275 C 
ENDROOT
BRANCH   1   2
ATOM      2  C   UNL A   1      31.693  28.467  27.304  1.00  0.00     0.274 C 
BRANCH   2   3
ATOM      3  O   UNL A   1      32.616  27.598  26.623  1.00  0.00    -0.462 OA
BRANCH   3   4
ATOM      4  C   UNL A   1      32.115  26.416  26.171  1.00  0.00     0.313 C 
ATOM      5  O   UNL A   1      31.492  25.624  26.870  1.00  0.00    -0.252 OA
BRANCH   4   6
ATOM      6  C   UNL A   1      32.315  26.230  24.663  1.00  0.00     0.126 C 
ATOM      7  C   UNL A   1      32.022  24.823  24.145  1.00  0.00     0.025 C 
BRANCH   6   8
ATOM      8  C   UNL A   1      31.567  27.267  23.835  1.00  0.00    -0.033 A 
ATOM      9  C   UNL A   1      32.242  28.212  23.056  1.00  0.00     0.007 A 
ATOM     10  C   UNL A   1      30.166  27.317  23.873  1.00  0.00     0.015 A 
ATOM     11  C   UNL A   1      31.530  29.164  22.318  1.00  0.00     0.029 A 
ATOM     12  C   UNL A   1      29.455  28.285  23.138  1.00  0.00     0.000 A 
ATOM     13  C   UNL A   1      30.145  29.224  22.345  1.00  0.00     0.070 A 
ATOM     14  C   UNL A   1      28.054  28.357  23.169  1.00  0.00     0.012 A 
ATOM     15  N   UNL A   1      29.510  30.170  21.628  1.00  0.00    -0.256 NA
ATOM     16  C   UNL A   1      27.396  29.335  22.434  1.00  0.00     0.021 A 
ATOM     17  C   UNL A   1      28.161  30.209  21.685  1.00  0.00     0.112 A 
ENDBRANCH   6   8
ENDBRANCH   4   6
ENDBRANCH   3   4
ENDBRANCH   2   3
ENDBRANCH   1   2
BRANCH   1  18
ATOM     18  O   UNL A   1      33.121  30.269  26.415  1.00  0.00    -0.458 OA
BRANCH  18  19
ATOM     19  C   UNL A   1      33.609  31.334  27.091  1.00  0.00     0.338 C 
ATOM     20  O   UNL A   1      33.073  32.415  27.269  1.00  0.00    -0.246 OA
BRANCH  19  21
ATOM     21  C   UNL A   1      34.900  30.990  27.698  1.00  0.00     0.060 A 
ATOM     22  C   UNL A   1      35.128  29.665  28.080  1.00  0.00     0.016 A 
ATOM     23  C   UNL A   1      35.825  31.989  28.004  1.00  0.00     0.016 A 
ATOM     24  C   UNL A   1      36.268  29.337  28.807  1.00  0.00     0.010 A 
ATOM     25  C   UNL A   1      36.985  31.652  28.709  1.00  0.00     0.010 A 
ATOM     26  C   UNL A   1      37.201  30.329  29.132  1.00  0.00    -0.014 A 
BRANCH  26  27
ATOM     27  C   UNL A   1      38.393  29.984  29.945  1.00  0.00     0.031 A 
ATOM     28  C   UNL A   1      39.444  29.070  29.386  1.00  0.00     0.074 A 
ATOM     29  C   UNL A   1      38.531  30.502  31.179  1.00  0.00     0.049 A 
ATOM     30  N   UNL A   1      40.497  28.562  29.976  1.00  0.00    -0.248 NA
ATOM     31  C   UNL A   1      39.291  28.673  27.979  1.00  0.00     0.031 C 
ATOM     32  C   UNL A   1      37.600  31.437  31.810  1.00  0.00     0.029 A 
ATOM     33  N   UNL A   1      39.509  30.315  32.120  1.00  0.00    -0.354 N 
ATOM     34  C   UNL A   1      41.113  27.762  29.024  1.00  0.00     0.074 A 
ATOM     35  C   UNL A   1      40.317  27.848  27.818  1.00  0.00     0.031 C 
ATOM     36  C   UNL A   1      38.056  31.747  33.034  1.00  0.00     0.029 A 
ATOM     37  C   UNL A   1      39.279  30.995  33.289  1.00  0.00     0.049 A 
ATOM     38  H   UNL A   1      40.300  29.747  31.973  1.00  0.00     0.167 HD
ATOM     39  C   UNL A   1      42.241  27.023  29.150  1.00  0.00     0.037 A 
ATOM     40  C   UNL A   1      39.964  30.987  34.449  1.00  0.00     0.037 A 
ATOM     41  C   UNL A   1      43.047  26.965  30.341  1.00  0.00     0.049 A 
ATOM     42  C   UNL A   1      41.190  30.129  34.574  1.00  0.00     0.074 A 
ATOM     43  C   UNL A   1      44.218  26.259  30.559  1.00  0.00     0.029 A 
ATOM     44  N   UNL A   1      42.767  27.646  31.516  1.00  0.00    -0.354 N 
ATOM     45  N   UNL A   1      41.752  29.355  33.678  1.00  0.00    -0.248 NA
ATOM     46  C   UNL A   1      41.870  30.133  35.877  1.00  0.00     0.031 C 
ATOM     47  C   UNL A   1      44.629  26.490  31.877  1.00  0.00     0.029 A 
ATOM     48  C   UNL A   1      43.733  27.366  32.467  1.00  0.00     0.049 A 
ATOM     49  H   UNL A   1      41.994  28.241  31.653  1.00  0.00     0.167 HD
ATOM     50  C   UNL A   1      42.854  28.789  34.301  1.00  0.00     0.074 A 
ATOM     51  C   UNL A   1      42.892  29.320  35.648  1.00  0.00     0.031 C 
ATOM     52  C   UNL A   1      43.753  27.906  33.803  1.00  0.00     0.037 A 
BRANCH  39  53
ATOM     53  C   UNL A   1      42.658  26.192  27.975  1.00  0.00     0.064 A 
ATOM     54  C   UNL A   1      43.567  26.668  27.020  1.00  0.00     0.173 A 
ATOM     55  C   UNL A   1      42.167  24.886  27.825  1.00  0.00     0.173 A 
ATOM     56  F   UNL A   1      44.052  27.915  27.113  1.00  0.00    -0.203 F 
ATOM     57  C   UNL A   1      43.959  25.871  25.947  1.00  0.00     0.198 A 
ATOM     58  C   UNL A   1      42.577  24.084  26.764  1.00  0.00     0.198 A 
ATOM     59  F   UNL A   1      41.297  24.384  28.715  1.00  0.00    -0.203 F 
ATOM     60  F   UNL A   1      44.803  26.356  25.027  1.00  0.00    -0.200 F 
ATOM     61  C   UNL A   1      43.469  24.579  25.824  1.00  0.00     0.200 A 
ATOM     62  F   UNL A   1      42.108  22.835  26.649  1.00  0.00    -0.200 F 
ATOM     63  F   UNL A   1      43.850  23.811  24.793  1.00  0.00    -0.200 F 
ENDBRANCH  39  53
BRANCH  40  64
ATOM     64  C   UNL A   1      39.485  31.807  35.589  1.00  0.00     0.064 A 
ATOM     65  C   UNL A   1      39.965  33.107  35.792  1.00  0.00     0.173 A 
ATOM     66  C   UNL A   1      38.531  31.311  36.490  1.00  0.00     0.173 A 
ATOM     67  F   UNL A   1      40.897  33.612  34.970  1.00  0.00    -0.203 F 
ATOM     68  C   UNL A   1      39.512  33.881  36.859  1.00  0.00     0.198 A 
ATOM     69  C   UNL A   1      38.062  32.093  37.541  1.00  0.00     0.198 A 
ATOM     70  F   UNL A   1      38.044  30.071  36.337  1.00  0.00    -0.203 F 
ATOM     71  F   UNL A   1      40.010  35.109  37.051  1.00  0.00    -0.200 F 
ATOM     72  C   UNL A   1      38.556  33.376  37.728  1.00  0.00     0.200 A 
ATOM     73  F   UNL A   1      37.132  31.606  38.373  1.00  0.00    -0.200 F 
ATOM     74  F   UNL A   1      38.116  34.123  38.749  1.00  0.00    -0.200 F 
ENDBRANCH  40  64
BRANCH  52  75
ATOM     75  C   UNL A   1      44.863  27.475  34.713  1.00  0.00     0.064 A 
ATOM     76  C   UNL A   1      46.057  28.202  34.801  1.00  0.00     0.173 A 
ATOM     77  C   UNL A   1      44.715  26.342  35.526  1.00  0.00     0.173 A 
ATOM     78  F   UNL A   1      46.248  29.283  34.029  1.00  0.00    -0.203 F 
ATOM     79  C   UNL A   1      47.075  27.800  35.661  1.00  0.00     0.198 A 
ATOM     80  C   UNL A   1      45.726  25.954  36.400  1.00  0.00     0.198 A 
ATOM     81  F   UNL A   1      43.588  25.616  35.477  1.00  0.00    -0.203 F 
ATOM     82  F   UNL A   1      48.224  28.489  35.706  1.00  0.00    -0.200 F 
ATOM     83  C   UNL A   1      46.907  26.681  36.463  1.00  0.00     0.200 A 
ATOM     84  F   UNL A   1      45.561  24.877  37.179  1.00  0.00    -0.200 F 
ATOM     85  F   UNL A   1      47.887  26.296  37.292  1.00  0.00    -0.200 F 
ENDBRANCH  52  75
ENDBRANCH  26  27
ENDBRANCH  19  21
ENDBRANCH  18  19
ENDBRANCH   1  18
TORSDOF 12
ENDMDL
MODEL 3
REMARK VINA RESULT:     -11.2      4.074      8.786
REMARK SMILES C[C@H](C(=O)OCCOC(=O)c1ccc(-c2c3nc(c(-c4c(F)c(F)c(F)c(F)c4F)c4ccc([nH]4)c(-c4c(F)c(F)c(F)c(F)c4F)c4nc(c(-c5c(F)c(F)c(F)c(F)c5F)c5ccc2[nH]5)C=C4)C=C3)cc1)c1ccc2ncccc2c1
REMARK SMILES IDX 7 1 6 2 5 3 3 4 4 5 2 6 1 7 74 8 75 9 83 10 76 11 82 12
REMARK SMILES IDX 77 13 81 14 78 15 80 16 79 17 8 18 9 19 10 20 11 21 12 22
REMARK SMILES IDX 73 23 13 24 72 25 14 26 15 27 16 28 66 29 17 30 71 31 65 32
REMARK SMILES IDX 67 33 18 34 70 35 64 36 63 37 19 39 51 40 31 41 50 42 32 43
REMARK SMILES IDX 35 44 49 45 68 46 33 47 34 48 48 50 69 51 36 52 20 53 21 54
REMARK SMILES IDX 29 55 22 56 23 57 27 58 30 59 24 60 25 61 28 62 26 63 52 64
REMARK SMILES IDX 53 65 61 66 54 67 55 68 59 69 62 70 56 71 57 72 60 73 58 74
REMARK SMILES IDX 37 75 38 76 46 77 39 78 40 79 44 80 47 81 41 82 42 83 45 84
REMARK SMILES IDX 43 85
REMARK H PARENT 67 38 35 49
REMARK Flexibility Score: inf
ROOT
ATOM      1  C   UNL A   1      31.558  30.384  25.473  1.00  0.00     0.275 C 
ENDROOT
BRANCH   1   2
ATOM      2  C   UNL A   1      31.136  29.130  24.703  1.00  0.00     0.274 C 
BRANCH   2   3
ATOM      3  O   UNL A   1      31.522  29.219  23.319  1.00  0.00    -0.462 OA
BRANCH   3   4
ATOM      4  C   UNL A   1      31.666  28.042  22.653  1.00  0.00     0.313 C 
ATOM      5  O   UNL A   1      30.742  27.441  22.115  1.00  0.00    -0.252 OA
BRANCH   4   6
ATOM      6  C   UNL A   1      33.130  27.600  22.549  1.00  0.00     0.126 C 
ATOM      7  C   UNL A   1      34.151  28.730  22.662  1.00  0.00     0.025 C 
BRANCH   6   8
ATOM      8  C   UNL A   1      33.476  26.472  23.513  1.00  0.00    -0.033 A 
ATOM      9  C   UNL A   1      33.851  26.726  24.836  1.00  0.00     0.007 A 
ATOM     10  C   UNL A   1      33.462  25.141  23.071  1.00  0.00     0.015 A 
ATOM     11  C   UNL A   1      34.179  25.671  25.697  1.00  0.00     0.029 A 
ATOM     12  C   UNL A   1      33.806  24.086  23.937  1.00  0.00     0.000 A 
ATOM     13  C   UNL A   1      34.169  24.351  25.273  1.00  0.00     0.070 A 
ATOM     14  C   UNL A   1      33.807  22.749  23.511  1.00  0.00     0.012 A 
ATOM     15  N   UNL A   1      34.508  23.377  26.137  1.00  0.00    -0.256 NA
ATOM     16  C   UNL A   1      34.160  21.741  24.399  1.00  0.00     0.021 A 
ATOM     17  C   UNL A   1      34.499  22.102  25.689  1.00  0.00     0.112 A 
ENDBRANCH   6   8
ENDBRANCH   4   6
ENDBRANCH   3   4
ENDBRANCH   2   3
ENDBRANCH   1   2
BRANCH   1  18
ATOM     18  O   UNL A   1      32.739  30.161  26.269  1.00  0.00    -0.458 OA
BRANCH  18  19
ATOM     19  C   UNL A   1      33.170  31.231  26.974  1.00  0.00     0.338 C 
ATOM     20  O   UNL A   1      32.573  32.271  27.193  1.00  0.00    -0.246 OA
BRANCH  19  21
ATOM     21  C   UNL A   1      34.486  30.946  27.557  1.00  0.00     0.060 A 
ATOM     22  C   UNL A   1      34.807  29.622  27.869  1.00  0.00     0.016 A 
ATOM     23  C   UNL A   1      35.343  31.989  27.910  1.00  0.00     0.016 A 
ATOM     24  C   UNL A   1      35.973  29.336  28.572  1.00  0.00     0.010 A 
ATOM     25  C   UNL A   1      36.529  31.698  28.592  1.00  0.00     0.010 A 
ATOM     26  C   UNL A   1      36.839  30.372  28.945  1.00  0.00    -0.014 A 
BRANCH  26  27
ATOM     27  C   UNL A   1      38.058  30.069  29.733  1.00  0.00     0.031 A 
ATOM     28  C   UNL A   1      39.117  29.171  29.163  1.00  0.00     0.074 A 
ATOM     29  C   UNL A   1      38.214  30.611  30.954  1.00  0.00     0.049 A 
ATOM     30  N   UNL A   1      40.196  28.697  29.735  1.00  0.00    -0.248 NA
ATOM     31  C   UNL A   1      38.939  28.746  27.767  1.00  0.00     0.031 C 
ATOM     32  C   UNL A   1      37.276  31.534  31.594  1.00  0.00     0.029 A 
ATOM     33  N   UNL A   1      39.219  30.462  31.874  1.00  0.00    -0.354 N 
ATOM     34  C   UNL A   1      40.807  27.896  28.781  1.00  0.00     0.074 A 
ATOM     35  C   UNL A   1      39.980  27.943  27.594  1.00  0.00     0.031 C 
ATOM     36  C   UNL A   1      37.754  31.876  32.800  1.00  0.00     0.029 A 
ATOM     37  C   UNL A   1      39.001  31.157  33.038  1.00  0.00     0.049 A 
ATOM     38  H   UNL A   1      40.020  29.911  31.716  1.00  0.00     0.167 HD
ATOM     39  C   UNL A   1      41.955  27.186  28.891  1.00  0.00     0.037 A 
ATOM     40  C   UNL A   1      39.714  31.184  34.179  1.00  0.00     0.037 A 
ATOM     41  C   UNL A   1      42.791  27.166  30.062  1.00  0.00     0.049 A 
ATOM     42  C   UNL A   1      40.964  30.357  34.288  1.00  0.00     0.074 A 
ATOM     43  C   UNL A   1      43.983  26.492  30.263  1.00  0.00     0.029 A 
ATOM     44  N   UNL A   1      42.523  27.861  31.233  1.00  0.00    -0.354 N 
ATOM     45  N   UNL A   1      41.521  29.581  33.391  1.00  0.00    -0.248 NA
ATOM     46  C   UNL A   1      41.674  30.399  35.574  1.00  0.00     0.031 C 
ATOM     47  C   UNL A   1      44.421  26.755  31.566  1.00  0.00     0.029 A 
ATOM     48  C   UNL A   1      43.519  27.620  32.164  1.00  0.00     0.049 A 
ATOM     49  H   UNL A   1      41.740  28.440  31.380  1.00  0.00     0.167 HD
ATOM     50  C   UNL A   1      42.652  29.052  33.996  1.00  0.00     0.074 A 
ATOM     51  C   UNL A   1      42.710  29.606  35.332  1.00  0.00     0.031 C 
ATOM     52  C   UNL A   1      43.559  28.182  33.490  1.00  0.00     0.037 A 
BRANCH  39  53
ATOM     53  C   UNL A   1      42.363  26.345  27.720  1.00  0.00     0.064 A 
ATOM     54  C   UNL A   1      43.316  26.786  26.791  1.00  0.00     0.173 A 
ATOM     55  C   UNL A   1      41.817  25.064  27.547  1.00  0.00     0.173 A 
ATOM     56  F   UNL A   1      43.855  28.009  26.906  1.00  0.00    -0.203 F 
ATOM     57  C   UNL A   1      43.698  25.979  25.722  1.00  0.00     0.198 A 
ATOM     58  C   UNL A   1      42.216  24.253  26.489  1.00  0.00     0.198 A 
ATOM     59  F   UNL A   1      40.903  24.596  28.410  1.00  0.00    -0.203 F 
ATOM     60  F   UNL A   1      44.586  26.432  24.826  1.00  0.00    -0.200 F 
ATOM     61  C   UNL A   1      43.153  24.712  25.576  1.00  0.00     0.200 A 
ATOM     62  F   UNL A   1      41.694  23.026  26.352  1.00  0.00    -0.200 F 
ATOM     63  F   UNL A   1      43.524  23.935  24.549  1.00  0.00    -0.200 F 
ENDBRANCH  39  53
BRANCH  40  64
ATOM     64  C   UNL A   1      39.244  32.012  35.318  1.00  0.00     0.064 A 
ATOM     65  C   UNL A   1      39.576  33.370  35.406  1.00  0.00     0.173 A 
ATOM     66  C   UNL A   1      38.445  31.464  36.333  1.00  0.00     0.173 A 
ATOM     67  F   UNL A   1      40.359  33.929  34.471  1.00  0.00    -0.203 F 
ATOM     68  C   UNL A   1      39.130  34.150  36.470  1.00  0.00     0.198 A 
ATOM     69  C   UNL A   1      37.981  32.250  37.384  1.00  0.00     0.198 A 
ATOM     70  F   UNL A   1      38.104  30.168  36.292  1.00  0.00    -0.203 F 
ATOM     71  F   UNL A   1      39.488  35.438  36.550  1.00  0.00    -0.200 F 
ATOM     72  C   UNL A   1      38.328  33.591  37.454  1.00  0.00     0.200 A 
ATOM     73  F   UNL A   1      37.199  31.709  38.327  1.00  0.00    -0.200 F 
ATOM     74  F   UNL A   1      37.894  34.344  38.475  1.00  0.00    -0.200 F 
ENDBRANCH  40  64
BRANCH  52  75
ATOM     75  C   UNL A   1      44.700  27.793  34.379  1.00  0.00     0.064 A 
ATOM     76  C   UNL A   1      44.631  26.661  35.202  1.00  0.00     0.173 A 
ATOM     77  C   UNL A   1      45.885  28.543  34.384  1.00  0.00     0.173 A 
ATOM     78  F   UNL A   1      43.510  25.924  35.241  1.00  0.00    -0.203 F 
ATOM     79  C   UNL A   1      45.703  26.302  36.013  1.00  0.00     0.198 A 
ATOM     80  C   UNL A   1      46.963  28.170  35.181  1.00  0.00     0.198 A 
ATOM     81  F   UNL A   1      45.998  29.634  33.611  1.00  0.00    -0.203 F 
ATOM     82  F   UNL A   1      45.604  25.235  36.819  1.00  0.00    -0.200 F 
ATOM     83  C   UNL A   1      46.869  27.053  35.998  1.00  0.00     0.200 A 
ATOM     84  F   UNL A   1      48.091  28.892  35.161  1.00  0.00    -0.200 F 
ATOM     85  F   UNL A   1      47.902  26.705  36.778  1.00  0.00    -0.200 F 
ENDBRANCH  52  75
ENDBRANCH  26  27
ENDBRANCH  19  21
ENDBRANCH  18  19
ENDBRANCH   1  18
TORSDOF 12
ENDMDL
