MODEL 1
REMARK VINA RESULT:     -13.9      0.000      0.000
REMARK SMILES CCN1C(=O)C[C@H](C(=O)Nc2cccc(C(=O)OCCOC(=O)c3ccc(-c4c5nc(c(-c6c(F)c(F)c(F)c(F)c6F)c6ccc([nH]6)c(-c6c(F)c(F)c(F)c(F)c6F)c6nc(c(-c7c(F)c(F)c(F)c(F)c7F)c7ccc4[nH]7)C=C6)C=C5)cc3)c2)S/C1=[NH+]/c1cccc(C(F)(F)F)c1
REMARK SMILES IDX 19 1 18 2 16 3 17 4 15 5 11 6 12 7 87 8 13 9 14 10 10 11
REMARK SMILES IDX 8 12 9 13 7 15 3 16 4 17 89 18 5 19 6 20 88 21 90 22 2 24
REMARK SMILES IDX 1 25 91 26 92 27 100 28 93 29 95 30 94 31 96 32 97 33 98 34
REMARK SMILES IDX 99 35 20 36 21 37 22 38 23 39 24 40 25 41 86 42 26 43 85 44
REMARK SMILES IDX 27 45 28 46 29 47 79 48 30 49 84 50 78 51 80 52 31 53 83 54
REMARK SMILES IDX 77 55 76 56 32 58 64 59 44 60 63 61 45 62 48 63 62 64 81 65
REMARK SMILES IDX 46 66 47 67 61 69 82 70 49 71 33 72 34 73 42 74 35 75 36 76
REMARK SMILES IDX 40 77 43 78 37 79 38 80 41 81 39 82 65 83 66 84 74 85 67 86
REMARK SMILES IDX 68 87 72 88 75 89 69 90 70 91 73 92 71 93 50 94 51 95 59 96
REMARK SMILES IDX 52 97 53 98 57 99 60 100 54 101 55 102 58 103 56 104
REMARK H PARENT 10 14 90 23 80 57 48 68
REMARK Flexibility Score: inf
ROOT
ATOM      1  C   UNL A   1      31.563  29.193  24.712  1.00  0.00     0.275 C 
ENDROOT
BRANCH   1   2
ATOM      2  O   UNL A   1      31.674  29.538  23.317  1.00  0.00    -0.458 OA
BRANCH   2   3
ATOM      3  C   UNL A   1      30.651  29.179  22.497  1.00  0.00     0.338 C 
ATOM      4  O   UNL A   1      30.109  29.874  21.662  1.00  0.00    -0.246 OA
BRANCH   3   5
ATOM      5  C   UNL A   1      30.272  27.755  22.728  1.00  0.00     0.062 A 
ATOM      6  C   UNL A   1      31.075  25.475  22.806  1.00  0.00     0.042 A 
ATOM      7  C   UNL A   1      29.902  25.075  23.433  1.00  0.00     0.026 A 
ATOM      8  C   UNL A   1      31.137  26.760  22.310  1.00  0.00     0.041 A 
ATOM      9  C   UNL A   1      28.922  26.033  23.740  1.00  0.00     0.003 A 
ATOM     10  C   UNL A   1      29.146  27.388  23.459  1.00  0.00     0.016 A 
BRANCH   6  11
ATOM     11  N   UNL A   1      32.148  24.593  22.600  1.00  0.00    -0.325 N 
ATOM     12  C   UNL A   1      33.476  24.727  22.959  1.00  0.00     0.238 C 
ATOM     13  O   UNL A   1      34.309  24.123  22.273  1.00  0.00    -0.273 OA
ATOM     14  H   UNL A   1      31.921  23.757  22.132  1.00  0.00     0.169 HD
BRANCH  12  15
ATOM     15  C   UNL A   1      33.906  25.361  24.313  1.00  0.00     0.160 C 
ATOM     16  N   UNL A   1      33.120  23.110  26.131  1.00  0.00    -0.191 N 
ATOM     17  C   UNL A   1      32.316  24.256  26.118  1.00  0.00     0.311 C 
ATOM     18  C   UNL A   1      34.235  23.029  25.343  1.00  0.00     0.319 C 
ATOM     19  O   UNL A   1      31.325  24.361  26.850  1.00  0.00    -0.247 OA
ATOM     20  C   UNL A   1      32.710  25.477  25.263  1.00  0.00     0.153 C 
ATOM     21  S   UNL A   1      35.138  24.522  25.316  1.00  0.00    -0.024 SA
ATOM     22  N   UNL A   1      34.676  22.075  24.600  1.00  0.00    -0.235 N 
ATOM     23  H   UNL A   1      35.569  22.205  24.208  1.00  0.00     0.313 HD
BRANCH  16  24
ATOM     24  C   UNL A   1      33.057  22.310  27.360  1.00  0.00     0.243 C 
ATOM     25  C   UNL A   1      34.344  21.859  28.032  1.00  0.00     0.054 C 
ENDBRANCH  16  24
BRANCH  22  26
ATOM     26  C   UNL A   1      34.032  20.877  24.288  1.00  0.00     0.126 A 
ATOM     27  C   UNL A   1      32.797  20.971  23.635  1.00  0.00     0.052 A 
ATOM     28  C   UNL A   1      34.495  19.615  24.662  1.00  0.00     0.064 A 
ATOM     29  C   UNL A   1      32.083  19.833  23.267  1.00  0.00     0.005 A 
ATOM     30  C   UNL A   1      33.795  18.453  24.289  1.00  0.00     0.060 A 
ATOM     31  C   UNL A   1      32.593  18.576  23.574  1.00  0.00     0.013 A 
BRANCH  30  32
ATOM     32  C   UNL A   1      34.342  17.085  24.605  1.00  0.00     0.416 C 
ATOM     33  F   UNL A   1      35.638  17.116  25.019  1.00  0.00    -0.166 F 
ATOM     34  F   UNL A   1      33.644  16.479  25.608  1.00  0.00    -0.166 F 
ATOM     35  F   UNL A   1      34.305  16.224  23.552  1.00  0.00    -0.166 F 
ENDBRANCH  30  32
ENDBRANCH  22  26
ENDBRANCH  12  15
ENDBRANCH   6  11
ENDBRANCH   3   5
ENDBRANCH   2   3
ENDBRANCH   1   2
BRANCH   1  36
ATOM     36  C   UNL A   1      31.717  30.429  25.597  1.00  0.00     0.275 C 
BRANCH  36  37
ATOM     37  O   UNL A   1      32.983  30.371  26.270  1.00  0.00    -0.458 OA
BRANCH  37  38
ATOM     38  C   UNL A   1      33.272  31.433  27.054  1.00  0.00     0.338 C 
ATOM     39  O   UNL A   1      32.567  32.393  27.322  1.00  0.00    -0.246 OA
BRANCH  38  40
ATOM     40  C   UNL A   1      34.576  31.191  27.677  1.00  0.00     0.060 A 
ATOM     41  C   UNL A   1      34.869  29.889  28.071  1.00  0.00     0.016 A 
ATOM     42  C   UNL A   1      35.462  32.222  27.958  1.00  0.00     0.016 A 
ATOM     43  C   UNL A   1      36.023  29.594  28.773  1.00  0.00     0.010 A 
ATOM     44  C   UNL A   1      36.662  31.921  28.613  1.00  0.00     0.010 A 
ATOM     45  C   UNL A   1      36.943  30.607  29.039  1.00  0.00    -0.014 A 
BRANCH  45  46
ATOM     46  C   UNL A   1      38.148  30.290  29.842  1.00  0.00     0.031 A 
ATOM     47  C   UNL A   1      39.219  29.430  29.241  1.00  0.00     0.074 A 
ATOM     48  C   UNL A   1      38.307  30.816  31.072  1.00  0.00     0.049 A 
ATOM     49  N   UNL A   1      40.249  28.865  29.814  1.00  0.00    -0.248 NA
ATOM     50  C   UNL A   1      39.110  29.161  27.797  1.00  0.00     0.031 C 
ATOM     51  C   UNL A   1      37.387  31.750  31.725  1.00  0.00     0.029 A 
ATOM     52  N   UNL A   1      39.311  30.646  31.993  1.00  0.00    -0.354 N 
ATOM     53  C   UNL A   1      40.874  28.126  28.818  1.00  0.00     0.074 A 
ATOM     54  C   UNL A   1      40.110  28.312  27.605  1.00  0.00     0.031 C 
ATOM     55  C   UNL A   1      37.879  32.087  32.926  1.00  0.00     0.029 A 
ATOM     56  C   UNL A   1      39.094  31.320  33.170  1.00  0.00     0.049 A 
ATOM     57  H   UNL A   1      40.109  30.093  31.826  1.00  0.00     0.167 HD
ATOM     58  C   UNL A   1      41.985  27.361  28.919  1.00  0.00     0.037 A 
ATOM     59  C   UNL A   1      39.770  31.277  34.334  1.00  0.00     0.037 A 
ATOM     60  C   UNL A   1      42.756  27.227  30.128  1.00  0.00     0.049 A 
ATOM     61  C   UNL A   1      40.959  30.362  34.441  1.00  0.00     0.074 A 
ATOM     62  C   UNL A   1      43.889  26.465  30.350  1.00  0.00     0.029 A 
ATOM     63  N   UNL A   1      42.479  27.891  31.315  1.00  0.00    -0.354 N 
ATOM     64  N   UNL A   1      41.501  29.599  33.523  1.00  0.00    -0.248 NA
ATOM     65  C   UNL A   1      41.617  30.285  35.752  1.00  0.00     0.031 C 
ATOM     66  C   UNL A   1      44.275  26.639  31.683  1.00  0.00     0.029 A 
ATOM     67  C   UNL A   1      43.414  27.549  32.277  1.00  0.00     0.049 A 
ATOM     68  H   UNL A   1      41.728  28.514  31.452  1.00  0.00     0.167 HD
ATOM     69  C   UNL A   1      42.575  28.968  34.137  1.00  0.00     0.074 A 
ATOM     70  C   UNL A   1      42.619  29.455  35.501  1.00  0.00     0.031 C 
ATOM     71  C   UNL A   1      43.443  28.063  33.622  1.00  0.00     0.037 A 
BRANCH  58  72
ATOM     72  C   UNL A   1      42.403  26.577  27.711  1.00  0.00     0.064 A 
ATOM     73  C   UNL A   1      43.369  27.053  26.812  1.00  0.00     0.173 A 
ATOM     74  C   UNL A   1      41.842  25.314  27.462  1.00  0.00     0.173 A 
ATOM     75  F   UNL A   1      43.921  28.262  26.992  1.00  0.00    -0.203 F 
ATOM     76  C   UNL A   1      43.742  26.304  25.698  1.00  0.00     0.198 A 
ATOM     77  C   UNL A   1      42.240  24.556  26.365  1.00  0.00     0.198 A 
ATOM     78  F   UNL A   1      40.913  24.813  28.290  1.00  0.00    -0.203 F 
ATOM     79  F   UNL A   1      44.633  26.798  24.828  1.00  0.00    -0.200 F 
ATOM     80  C   UNL A   1      43.184  25.053  25.481  1.00  0.00     0.200 A 
ATOM     81  F   UNL A   1      41.707  23.342  26.163  1.00  0.00    -0.200 F 
ATOM     82  F   UNL A   1      43.551  24.330  24.414  1.00  0.00    -0.200 F 
ENDBRANCH  58  72
BRANCH  59  83
ATOM     83  C   UNL A   1      39.307  32.074  35.502  1.00  0.00     0.064 A 
ATOM     84  C   UNL A   1      38.467  31.513  36.473  1.00  0.00     0.173 A 
ATOM     85  C   UNL A   1      39.676  33.419  35.662  1.00  0.00     0.173 A 
ATOM     86  F   UNL A   1      38.062  30.239  36.354  1.00  0.00    -0.203 F 
ATOM     87  C   UNL A   1      37.999  32.269  37.546  1.00  0.00     0.198 A 
ATOM     88  C   UNL A   1      39.238  34.164  36.755  1.00  0.00     0.198 A 
ATOM     89  F   UNL A   1      40.474  34.010  34.761  1.00  0.00    -0.203 F 
ATOM     90  F   UNL A   1      37.153  31.721  38.431  1.00  0.00    -0.200 F 
ATOM     91  C   UNL A   1      38.391  33.591  37.691  1.00  0.00     0.200 A 
ATOM     92  F   UNL A   1      39.631  35.437  36.896  1.00  0.00    -0.200 F 
ATOM     93  F   UNL A   1      37.943  34.317  38.725  1.00  0.00    -0.200 F 
ENDBRANCH  59  83
BRANCH  71  94
ATOM     94  C   UNL A   1      44.541  27.584  34.524  1.00  0.00     0.064 A 
ATOM     95  C   UNL A   1      44.405  26.424  35.300  1.00  0.00     0.173 A 
ATOM     96  C   UNL A   1      45.757  28.281  34.587  1.00  0.00     0.173 A 
ATOM     97  F   UNL A   1      43.254  25.735  35.287  1.00  0.00    -0.203 F 
ATOM     98  C   UNL A   1      45.438  25.994  36.127  1.00  0.00     0.198 A 
ATOM     99  C   UNL A   1      46.799  27.830  35.391  1.00  0.00     0.198 A 
ATOM    100  F   UNL A   1      45.939  29.393  33.860  1.00  0.00    -0.203 F 
ATOM    101  F   UNL A   1      45.269  24.912  36.900  1.00  0.00    -0.200 F 
ATOM    102  C   UNL A   1      46.635  26.692  36.167  1.00  0.00     0.200 A 
ATOM    103  F   UNL A   1      47.961  28.498  35.417  1.00  0.00    -0.200 F 
ATOM    104  F   UNL A   1      47.632  26.272  36.959  1.00  0.00    -0.200 F 
ENDBRANCH  71  94
ENDBRANCH  45  46
ENDBRANCH  38  40
ENDBRANCH  37  38
ENDBRANCH  36  37
ENDBRANCH   1  36
TORSDOF 16
ENDMDL
MODEL 2
REMARK VINA RESULT:     -13.7      2.771      8.436
REMARK SMILES CCN1C(=O)C[C@H](C(=O)Nc2cccc(C(=O)OCCOC(=O)c3ccc(-c4c5nc(c(-c6c(F)c(F)c(F)c(F)c6F)c6ccc([nH]6)c(-c6c(F)c(F)c(F)c(F)c6F)c6nc(c(-c7c(F)c(F)c(F)c(F)c7F)c7ccc4[nH]7)C=C6)C=C5)cc3)c2)S/C1=[NH+]/c1cccc(C(F)(F)F)c1
REMARK SMILES IDX 19 1 18 2 16 3 17 4 15 5 11 6 12 7 87 8 13 9 14 10 10 11
REMARK SMILES IDX 8 12 9 13 7 15 3 16 4 17 89 18 5 19 6 20 88 21 90 22 2 24
REMARK SMILES IDX 1 25 91 26 92 27 100 28 93 29 95 30 94 31 96 32 97 33 98 34
REMARK SMILES IDX 99 35 20 36 21 37 22 38 23 39 24 40 25 41 86 42 26 43 85 44
REMARK SMILES IDX 27 45 28 46 29 47 79 48 30 49 84 50 78 51 80 52 31 53 83 54
REMARK SMILES IDX 77 55 76 56 32 58 64 59 44 60 63 61 45 62 48 63 62 64 81 65
REMARK SMILES IDX 46 66 47 67 61 69 82 70 49 71 33 72 34 73 42 74 35 75 36 76
REMARK SMILES IDX 40 77 43 78 37 79 38 80 41 81 39 82 65 83 66 84 74 85 67 86
REMARK SMILES IDX 68 87 72 88 75 89 69 90 70 91 73 92 71 93 50 94 51 95 59 96
REMARK SMILES IDX 52 97 53 98 57 99 60 100 54 101 55 102 58 103 56 104
REMARK H PARENT 10 14 90 23 80 57 48 68
REMARK Flexibility Score: inf
ROOT
ATOM      1  C   UNL A   1      33.795  35.252  28.570  1.00  0.00     0.275 C 
ENDROOT
BRANCH   1   2
ATOM      2  O   UNL A   1      33.715  33.862  28.941  1.00  0.00    -0.458 OA
BRANCH   2   3
ATOM      3  C   UNL A   1      33.253  32.988  28.009  1.00  0.00     0.338 C 
ATOM      4  O   UNL A   1      32.288  33.134  27.288  1.00  0.00    -0.246 OA
BRANCH   3   5
ATOM      5  C   UNL A   1      34.127  31.780  27.947  1.00  0.00     0.062 A 
ATOM      6  C   UNL A   1      34.196  29.399  27.529  1.00  0.00     0.042 A 
ATOM      7  C   UNL A   1      35.582  29.447  27.440  1.00  0.00     0.026 A 
ATOM      8  C   UNL A   1      33.537  30.529  27.963  1.00  0.00     0.041 A 
ATOM      9  C   UNL A   1      36.239  30.681  27.571  1.00  0.00     0.003 A 
ATOM     10  C   UNL A   1      35.502  31.860  27.744  1.00  0.00     0.016 A 
BRANCH   6  11
ATOM     11  N   UNL A   1      33.473  28.225  27.267  1.00  0.00    -0.325 N 
ATOM     12  C   UNL A   1      32.252  28.067  26.638  1.00  0.00     0.238 C 
ATOM     13  O   UNL A   1      31.581  27.076  26.951  1.00  0.00    -0.273 OA
ATOM     14  H   UNL A   1      33.897  27.392  27.577  1.00  0.00     0.169 HD
BRANCH  12  15
ATOM     15  C   UNL A   1      31.847  28.913  25.398  1.00  0.00     0.160 C 
ATOM     16  N   UNL A   1      32.910  27.106  23.255  1.00  0.00    -0.191 N 
ATOM     17  C   UNL A   1      33.618  28.283  23.534  1.00  0.00     0.311 C 
ATOM     18  C   UNL A   1      31.765  26.801  23.935  1.00  0.00     0.319 C 
ATOM     19  O   UNL A   1      34.635  28.592  22.903  1.00  0.00    -0.247 OA
ATOM     20  C   UNL A   1      33.079  29.289  24.570  1.00  0.00     0.153 C 
ATOM     21  S   UNL A   1      30.744  28.195  24.175  1.00  0.00    -0.024 SA
ATOM     22  N   UNL A   1      31.363  25.695  24.459  1.00  0.00    -0.235 N 
ATOM     23  H   UNL A   1      30.442  25.686  24.806  1.00  0.00     0.313 HD
BRANCH  16  24
ATOM     24  C   UNL A   1      33.106  26.558  21.907  1.00  0.00     0.243 C 
ATOM     25  C   UNL A   1      31.906  26.065  21.114  1.00  0.00     0.054 C 
ENDBRANCH  16  24
BRANCH  22  26
ATOM     26  C   UNL A   1      32.084  24.508  24.588  1.00  0.00     0.126 A 
ATOM     27  C   UNL A   1      31.756  23.467  23.713  1.00  0.00     0.052 A 
ATOM     28  C   UNL A   1      33.036  24.271  25.581  1.00  0.00     0.064 A 
ATOM     29  C   UNL A   1      32.429  22.247  23.752  1.00  0.00     0.005 A 
ATOM     30  C   UNL A   1      33.735  23.051  25.630  1.00  0.00     0.060 A 
ATOM     31  C   UNL A   1      33.432  22.048  24.695  1.00  0.00     0.013 A 
BRANCH  30  32
ATOM     32  C   UNL A   1      34.831  22.826  26.638  1.00  0.00     0.416 C 
ATOM     33  F   UNL A   1      35.880  23.680  26.478  1.00  0.00    -0.166 F 
ATOM     34  F   UNL A   1      34.392  23.010  27.916  1.00  0.00    -0.166 F 
ATOM     35  F   UNL A   1      35.359  21.573  26.603  1.00  0.00    -0.166 F 
ENDBRANCH  30  32
ENDBRANCH  22  26
ENDBRANCH  12  15
ENDBRANCH   6  11
ENDBRANCH   3   5
ENDBRANCH   2   3
ENDBRANCH   1   2
BRANCH   1  36
ATOM     36  C   UNL A   1      32.908  36.112  29.468  1.00  0.00     0.275 C 
BRANCH  36  37
ATOM     37  O   UNL A   1      32.414  35.310  30.550  1.00  0.00    -0.458 OA
BRANCH  37  38
ATOM     38  C   UNL A   1      32.659  35.793  31.788  1.00  0.00     0.338 C 
ATOM     39  O   UNL A   1      32.036  36.639  32.410  1.00  0.00    -0.246 OA
BRANCH  38  40
ATOM     40  C   UNL A   1      33.763  35.019  32.363  1.00  0.00     0.060 A 
ATOM     41  C   UNL A   1      35.042  35.560  32.275  1.00  0.00     0.016 A 
ATOM     42  C   UNL A   1      33.575  33.750  32.895  1.00  0.00     0.016 A 
ATOM     43  C   UNL A   1      36.153  34.845  32.682  1.00  0.00     0.010 A 
ATOM     44  C   UNL A   1      34.689  33.045  33.366  1.00  0.00     0.010 A 
ATOM     45  C   UNL A   1      35.988  33.582  33.249  1.00  0.00    -0.014 A 
BRANCH  45  46
ATOM     46  C   UNL A   1      37.190  32.802  33.628  1.00  0.00     0.031 A 
ATOM     47  C   UNL A   1      37.804  33.021  34.978  1.00  0.00     0.074 A 
ATOM     48  C   UNL A   1      37.688  31.867  32.796  1.00  0.00     0.049 A 
ATOM     49  N   UNL A   1      38.954  32.608  35.443  1.00  0.00    -0.248 NA
ATOM     50  C   UNL A   1      37.022  33.823  35.933  1.00  0.00     0.031 C 
ATOM     51  C   UNL A   1      37.117  31.487  31.501  1.00  0.00     0.029 A 
ATOM     52  N   UNL A   1      38.787  31.054  32.922  1.00  0.00    -0.354 N 
ATOM     53  C   UNL A   1      39.059  33.149  36.717  1.00  0.00     0.074 A 
ATOM     54  C   UNL A   1      37.859  33.920  36.954  1.00  0.00     0.031 C 
ATOM     55  C   UNL A   1      37.855  30.504  30.964  1.00  0.00     0.029 A 
ATOM     56  C   UNL A   1      39.003  30.253  31.826  1.00  0.00     0.049 A 
ATOM     57  H   UNL A   1      39.365  31.048  33.718  1.00  0.00     0.167 HD
ATOM     58  C   UNL A   1      40.074  33.010  37.601  1.00  0.00     0.037 A 
ATOM     59  C   UNL A   1      40.041  29.449  31.529  1.00  0.00     0.037 A 
ATOM     60  C   UNL A   1      41.239  32.199  37.361  1.00  0.00     0.049 A 
ATOM     61  C   UNL A   1      41.190  29.370  32.498  1.00  0.00     0.074 A 
ATOM     62  C   UNL A   1      42.337  32.000  38.178  1.00  0.00     0.029 A 
ATOM     63  N   UNL A   1      41.444  31.436  36.220  1.00  0.00    -0.354 N 
ATOM     64  N   UNL A   1      41.327  29.948  33.667  1.00  0.00    -0.248 NA
ATOM     65  C   UNL A   1      42.337  28.546  32.096  1.00  0.00     0.031 C 
ATOM     66  C   UNL A   1      43.224  31.146  37.515  1.00  0.00     0.029 A 
ATOM     67  C   UNL A   1      42.655  30.773  36.307  1.00  0.00     0.049 A 
ATOM     68  H   UNL A   1      40.819  31.376  35.461  1.00  0.00     0.167 HD
ATOM     69  C   UNL A   1      42.564  29.541  34.150  1.00  0.00     0.074 A 
ATOM     70  C   UNL A   1      43.127  28.651  33.155  1.00  0.00     0.031 C 
ATOM     71  C   UNL A   1      43.182  29.878  35.308  1.00  0.00     0.037 A 
BRANCH  58  72
ATOM     72  C   UNL A   1      39.991  33.785  38.883  1.00  0.00     0.064 A 
ATOM     73  C   UNL A   1      40.612  35.033  39.041  1.00  0.00     0.173 A 
ATOM     74  C   UNL A   1      39.254  33.279  39.965  1.00  0.00     0.173 A 
ATOM     75  F   UNL A   1      41.345  35.552  38.044  1.00  0.00    -0.203 F 
ATOM     76  C   UNL A   1      40.517  35.734  40.240  1.00  0.00     0.198 A 
ATOM     77  C   UNL A   1      39.136  33.997  41.152  1.00  0.00     0.198 A 
ATOM     78  F   UNL A   1      38.640  32.090  39.868  1.00  0.00    -0.203 F 
ATOM     79  F   UNL A   1      41.157  36.903  40.384  1.00  0.00    -0.200 F 
ATOM     80  C   UNL A   1      39.772  35.220  41.291  1.00  0.00     0.200 A 
ATOM     81  F   UNL A   1      38.406  33.503  42.162  1.00  0.00    -0.200 F 
ATOM     82  F   UNL A   1      39.675  35.901  42.441  1.00  0.00    -0.200 F 
ENDBRANCH  58  72
BRANCH  59  83
ATOM     83  C   UNL A   1      40.072  28.705  30.240  1.00  0.00     0.064 A 
ATOM     84  C   UNL A   1      40.681  29.255  29.104  1.00  0.00     0.173 A 
ATOM     85  C   UNL A   1      39.475  27.442  30.111  1.00  0.00     0.173 A 
ATOM     86  F   UNL A   1      41.242  30.471  29.166  1.00  0.00    -0.203 F 
ATOM     87  C   UNL A   1      40.675  28.579  27.885  1.00  0.00     0.198 A 
ATOM     88  C   UNL A   1      39.502  26.750  28.901  1.00  0.00     0.198 A 
ATOM     89  F   UNL A   1      38.874  26.870  31.164  1.00  0.00    -0.203 F 
ATOM     90  F   UNL A   1      41.218  29.151  26.801  1.00  0.00    -0.200 F 
ATOM     91  C   UNL A   1      40.093  27.324  27.786  1.00  0.00     0.200 A 
ATOM     92  F   UNL A   1      38.950  25.532  28.816  1.00  0.00    -0.200 F 
ATOM     93  F   UNL A   1      40.090  26.673  26.615  1.00  0.00    -0.200 F 
ENDBRANCH  59  83
BRANCH  71  94
ATOM     94  C   UNL A   1      44.511  29.239  35.580  1.00  0.00     0.064 A 
ATOM     95  C   UNL A   1      45.714  29.840  35.182  1.00  0.00     0.173 A 
ATOM     96  C   UNL A   1      44.581  28.024  36.278  1.00  0.00     0.173 A 
ATOM     97  F   UNL A   1      45.697  30.993  34.497  1.00  0.00    -0.203 F 
ATOM     98  C   UNL A   1      46.937  29.233  35.449  1.00  0.00     0.198 A 
ATOM     99  C   UNL A   1      45.807  27.436  36.571  1.00  0.00     0.198 A 
ATOM    100  F   UNL A   1      43.458  27.412  36.686  1.00  0.00    -0.203 F 
ATOM    101  F   UNL A   1      48.073  29.798  35.015  1.00  0.00    -0.200 F 
ATOM    102  C   UNL A   1      46.983  28.037  36.149  1.00  0.00     0.200 A 
ATOM    103  F   UNL A   1      45.850  26.287  37.260  1.00  0.00    -0.200 F 
ATOM    104  F   UNL A   1      48.163  27.457  36.411  1.00  0.00    -0.200 F 
ENDBRANCH  71  94
ENDBRANCH  45  46
ENDBRANCH  38  40
ENDBRANCH  37  38
ENDBRANCH  36  37
ENDBRANCH   1  36
TORSDOF 16
ENDMDL
MODEL 3
REMARK VINA RESULT:     -13.2      4.449      8.449
REMARK SMILES CCN1C(=O)C[C@H](C(=O)Nc2cccc(C(=O)OCCOC(=O)c3ccc(-c4c5nc(c(-c6c(F)c(F)c(F)c(F)c6F)c6ccc([nH]6)c(-c6c(F)c(F)c(F)c(F)c6F)c6nc(c(-c7c(F)c(F)c(F)c(F)c7F)c7ccc4[nH]7)C=C6)C=C5)cc3)c2)S/C1=[NH+]/c1cccc(C(F)(F)F)c1
REMARK SMILES IDX 19 1 18 2 16 3 17 4 15 5 11 6 12 7 87 8 13 9 14 10 10 11
REMARK SMILES IDX 8 12 9 13 7 15 3 16 4 17 89 18 5 19 6 20 88 21 90 22 2 24
REMARK SMILES IDX 1 25 91 26 92 27 100 28 93 29 95 30 94 31 96 32 97 33 98 34
REMARK SMILES IDX 99 35 20 36 21 37 22 38 23 39 24 40 25 41 86 42 26 43 85 44
REMARK SMILES IDX 27 45 28 46 29 47 79 48 30 49 84 50 78 51 80 52 31 53 83 54
REMARK SMILES IDX 77 55 76 56 32 58 64 59 44 60 63 61 45 62 48 63 62 64 81 65
REMARK SMILES IDX 46 66 47 67 61 69 82 70 49 71 33 72 34 73 42 74 35 75 36 76
REMARK SMILES IDX 40 77 43 78 37 79 38 80 41 81 39 82 65 83 66 84 74 85 67 86
REMARK SMILES IDX 68 87 72 88 75 89 69 90 70 91 73 92 71 93 50 94 51 95 59 96
REMARK SMILES IDX 52 97 53 98 57 99 60 100 54 101 55 102 58 103 56 104
REMARK H PARENT 10 14 90 23 80 57 48 68
REMARK Flexibility Score: inf
ROOT
ATOM      1  C   UNL A   1      33.294  34.205  29.145  1.00  0.00     0.275 C 
ENDROOT
BRANCH   1   2
ATOM      2  O   UNL A   1      33.725  33.426  28.012  1.00  0.00    -0.458 OA
BRANCH   2   3
ATOM      3  C   UNL A   1      32.912  32.420  27.595  1.00  0.00     0.338 C 
ATOM      4  O   UNL A   1      31.753  32.517  27.248  1.00  0.00    -0.246 OA
BRANCH   3   5
ATOM      5  C   UNL A   1      33.650  31.124  27.580  1.00  0.00     0.062 A 
ATOM      6  C   UNL A   1      33.475  28.744  27.181  1.00  0.00     0.042 A 
ATOM      7  C   UNL A   1      34.861  28.640  27.154  1.00  0.00     0.026 A 
ATOM      8  C   UNL A   1      32.926  29.945  27.578  1.00  0.00     0.041 A 
ATOM      9  C   UNL A   1      35.643  29.796  27.306  1.00  0.00     0.003 A 
ATOM     10  C   UNL A   1      35.033  31.051  27.438  1.00  0.00     0.016 A 
BRANCH   6  11
ATOM     11  N   UNL A   1      32.640  27.654  26.895  1.00  0.00    -0.325 N 
ATOM     12  C   UNL A   1      31.444  27.621  26.202  1.00  0.00     0.238 C 
ATOM     13  O   UNL A   1      30.651  26.717  26.490  1.00  0.00    -0.273 OA
ATOM     14  H   UNL A   1      32.951  26.785  27.238  1.00  0.00     0.169 HD
BRANCH  12  15
ATOM     15  C   UNL A   1      31.204  28.483  24.930  1.00  0.00     0.160 C 
ATOM     16  N   UNL A   1      32.748  26.827  22.966  1.00  0.00    -0.191 N 
ATOM     17  C   UNL A   1      33.312  28.036  23.393  1.00  0.00     0.311 C 
ATOM     18  C   UNL A   1      31.526  26.424  23.426  1.00  0.00     0.319 C 
ATOM     19  O   UNL A   1      34.399  28.433  22.960  1.00  0.00    -0.247 OA
ATOM     20  C   UNL A   1      32.532  28.968  24.342  1.00  0.00     0.153 C 
ATOM     21  S   UNL A   1      30.384  27.739  23.516  1.00  0.00    -0.024 SA
ATOM     22  N   UNL A   1      31.117  25.277  23.843  1.00  0.00    -0.235 N 
ATOM     23  H   UNL A   1      30.153  25.195  24.022  1.00  0.00     0.313 HD
BRANCH  16  24
ATOM     24  C   UNL A   1      33.214  26.342  21.661  1.00  0.00     0.243 C 
ATOM     25  C   UNL A   1      32.209  25.795  20.659  1.00  0.00     0.054 C 
ENDBRANCH  16  24
BRANCH  22  26
ATOM     26  C   UNL A   1      31.886  24.135  24.070  1.00  0.00     0.126 A 
ATOM     27  C   UNL A   1      31.675  23.047  23.215  1.00  0.00     0.052 A 
ATOM     28  C   UNL A   1      32.775  23.983  25.135  1.00  0.00     0.064 A 
ATOM     29  C   UNL A   1      32.403  21.867  23.349  1.00  0.00     0.005 A 
ATOM     30  C   UNL A   1      33.529  22.805  25.280  1.00  0.00     0.060 A 
ATOM     31  C   UNL A   1      33.345  21.755  24.366  1.00  0.00     0.013 A 
BRANCH  30  32
ATOM     32  C   UNL A   1      34.560  22.675  26.371  1.00  0.00     0.416 C 
ATOM     33  F   UNL A   1      34.921  21.383  26.605  1.00  0.00    -0.166 F 
ATOM     34  F   UNL A   1      35.713  23.334  26.062  1.00  0.00    -0.166 F 
ATOM     35  F   UNL A   1      34.155  23.175  27.570  1.00  0.00    -0.166 F 
ENDBRANCH  30  32
ENDBRANCH  22  26
ENDBRANCH  12  15
ENDBRANCH   6  11
ENDBRANCH   3   5
ENDBRANCH   2   3
ENDBRANCH   1   2
BRANCH   1  36
ATOM     36  C   UNL A   1      34.299  34.109  30.292  1.00  0.00     0.275 C 
BRANCH  36  37
ATOM     37  O   UNL A   1      34.403  32.741  30.713  1.00  0.00    -0.458 OA
BRANCH  37  38
ATOM     38  C   UNL A   1      35.314  32.501  31.682  1.00  0.00     0.338 C 
ATOM     39  O   UNL A   1      35.197  32.650  32.888  1.00  0.00    -0.246 OA
BRANCH  38  40
ATOM     40  C   UNL A   1      36.484  31.878  31.055  1.00  0.00     0.060 A 
ATOM     41  C   UNL A   1      37.180  30.927  31.796  1.00  0.00     0.016 A 
ATOM     42  C   UNL A   1      36.952  32.274  29.810  1.00  0.00     0.016 A 
ATOM     43  C   UNL A   1      38.361  30.380  31.331  1.00  0.00     0.010 A 
ATOM     44  C   UNL A   1      38.114  31.678  29.305  1.00  0.00     0.010 A 
ATOM     45  C   UNL A   1      38.835  30.737  30.069  1.00  0.00    -0.014 A 
BRANCH  45  46
ATOM     46  C   UNL A   1      40.131  30.189  29.606  1.00  0.00     0.031 A 
ATOM     47  C   UNL A   1      41.337  31.079  29.596  1.00  0.00     0.074 A 
ATOM     48  C   UNL A   1      40.239  28.893  29.254  1.00  0.00     0.049 A 
ATOM     49  N   UNL A   1      42.510  30.883  29.054  1.00  0.00    -0.248 NA
ATOM     50  C   UNL A   1      41.202  32.374  30.284  1.00  0.00     0.031 C 
ATOM     51  C   UNL A   1      39.163  27.901  29.321  1.00  0.00     0.029 A 
ATOM     52  N   UNL A   1      41.313  28.183  28.778  1.00  0.00    -0.354 N 
ATOM     53  C   UNL A   1      43.229  32.049  29.280  1.00  0.00     0.074 A 
ATOM     54  C   UNL A   1      42.364  32.950  30.008  1.00  0.00     0.031 C 
ATOM     55  C   UNL A   1      39.636  26.710  28.925  1.00  0.00     0.029 A 
ATOM     56  C   UNL A   1      41.016  26.874  28.483  1.00  0.00     0.049 A 
ATOM     57  H   UNL A   1      42.208  28.574  28.659  1.00  0.00     0.167 HD
ATOM     58  C   UNL A   1      44.498  32.333  28.906  1.00  0.00     0.037 A 
ATOM     59  C   UNL A   1      41.757  25.931  27.872  1.00  0.00     0.037 A 
ATOM     60  C   UNL A   1      45.357  31.402  28.221  1.00  0.00     0.049 A 
ATOM     61  C   UNL A   1      43.139  26.297  27.401  1.00  0.00     0.074 A 
ATOM     62  C   UNL A   1      46.654  31.588  27.778  1.00  0.00     0.029 A 
ATOM     63  N   UNL A   1      45.006  30.099  27.898  1.00  0.00    -0.354 N 
ATOM     64  N   UNL A   1      43.789  27.426  27.542  1.00  0.00    -0.248 NA
ATOM     65  C   UNL A   1      43.881  25.263  26.668  1.00  0.00     0.031 C 
ATOM     66  C   UNL A   1      47.074  30.410  27.153  1.00  0.00     0.029 A 
ATOM     67  C   UNL A   1      46.057  29.472  27.253  1.00  0.00     0.049 A 
ATOM     68  H   UNL A   1      44.136  29.682  28.099  1.00  0.00     0.167 HD
ATOM     69  C   UNL A   1      45.023  27.235  26.935  1.00  0.00     0.074 A 
ATOM     70  C   UNL A   1      45.037  25.872  26.443  1.00  0.00     0.031 C 
ATOM     71  C   UNL A   1      46.049  28.108  26.790  1.00  0.00     0.037 A 
BRANCH  58  72
ATOM     72  C   UNL A   1      45.013  33.713  29.186  1.00  0.00     0.064 A 
ATOM     73  C   UNL A   1      45.714  34.023  30.361  1.00  0.00     0.173 A 
ATOM     74  C   UNL A   1      44.823  34.740  28.247  1.00  0.00     0.173 A 
ATOM     75  F   UNL A   1      45.905  33.083  31.300  1.00  0.00    -0.203 F 
ATOM     76  C   UNL A   1      46.185  35.312  30.596  1.00  0.00     0.198 A 
ATOM     77  C   UNL A   1      45.322  36.020  28.471  1.00  0.00     0.198 A 
ATOM     78  F   UNL A   1      44.159  34.498  27.107  1.00  0.00    -0.203 F 
ATOM     79  F   UNL A   1      46.811  35.596  31.746  1.00  0.00    -0.200 F 
ATOM     80  C   UNL A   1      45.997  36.307  29.647  1.00  0.00     0.200 A 
ATOM     81  F   UNL A   1      45.148  36.976  27.548  1.00  0.00    -0.200 F 
ATOM     82  F   UNL A   1      46.459  37.544  29.871  1.00  0.00    -0.200 F 
ENDBRANCH  58  72
BRANCH  59  83
ATOM     83  C   UNL A   1      41.193  24.578  27.617  1.00  0.00     0.064 A 
ATOM     84  C   UNL A   1      41.713  23.446  28.259  1.00  0.00     0.173 A 
ATOM     85  C   UNL A   1      40.138  24.385  26.712  1.00  0.00     0.173 A 
ATOM     86  F   UNL A   1      42.739  23.571  29.113  1.00  0.00    -0.203 F 
ATOM     87  C   UNL A   1      41.213  22.172  27.991  1.00  0.00     0.198 A 
ATOM     88  C   UNL A   1      39.614  23.116  26.472  1.00  0.00     0.198 A 
ATOM     89  F   UNL A   1      39.605  25.432  26.066  1.00  0.00    -0.203 F 
ATOM     90  F   UNL A   1      41.764  21.101  28.578  1.00  0.00    -0.200 F 
ATOM     91  C   UNL A   1      40.159  22.009  27.104  1.00  0.00     0.200 A 
ATOM     92  F   UNL A   1      38.587  22.967  25.625  1.00  0.00    -0.200 F 
ATOM     93  F   UNL A   1      39.677  20.785  26.849  1.00  0.00    -0.200 F 
ENDBRANCH  59  83
BRANCH  71  94
ATOM     94  C   UNL A   1      47.288  27.595  26.119  1.00  0.00     0.064 A 
ATOM     95  C   UNL A   1      48.340  27.022  26.849  1.00  0.00     0.173 A 
ATOM     96  C   UNL A   1      47.409  27.650  24.722  1.00  0.00     0.173 A 
ATOM     97  F   UNL A   1      48.278  26.963  28.187  1.00  0.00    -0.203 F 
ATOM     98  C   UNL A   1      49.479  26.547  26.205  1.00  0.00     0.198 A 
ATOM     99  C   UNL A   1      48.535  27.146  24.080  1.00  0.00     0.198 A 
ATOM    100  F   UNL A   1      46.427  28.184  23.979  1.00  0.00    -0.203 F 
ATOM    101  F   UNL A   1      50.494  26.050  26.925  1.00  0.00    -0.200 F 
ATOM    102  C   UNL A   1      49.572  26.603  24.823  1.00  0.00     0.200 A 
ATOM    103  F   UNL A   1      48.617  27.187  22.743  1.00  0.00    -0.200 F 
ATOM    104  F   UNL A   1      50.667  26.139  24.205  1.00  0.00    -0.200 F 
ENDBRANCH  71  94
ENDBRANCH  45  46
ENDBRANCH  38  40
ENDBRANCH  37  38
ENDBRANCH  36  37
ENDBRANCH   1  36
TORSDOF 16
ENDMDL
