MODEL 1
REMARK VINA RESULT:     -12.9      0.000      0.000
REMARK SMILES CCC[N@@H+]1CC2(CC[NH+](C(=O)Cn3nnnc3C)CC2)C[C@H]1C(=O)OCCOC(=O)c1ccc(-c2c3nc(c(-c4c(F)c(F)c(F)c(F)c4F)c4ccc([nH]4)c(-c4c(F)c(F)c(F)c(F)c4F)c4nc(c(-c5c(F)c(F)c(F)c(F)c5F)c5ccc2[nH]5)C=C4)C=C3)cc1
REMARK SMILES IDX 26 1 25 2 23 3 24 4 22 5 4 6 5 7 6 9 21 10 7 11 20 12 8 13
REMARK SMILES IDX 19 14 9 15 3 17 2 18 1 19 10 20 11 21 12 22 13 23 14 24
REMARK SMILES IDX 17 25 15 26 16 27 18 28 27 29 28 30 29 31 30 32 31 33 32 34
REMARK SMILES IDX 93 35 33 36 92 37 34 38 35 39 36 40 86 41 37 42 91 43 85 44
REMARK SMILES IDX 87 45 38 46 90 47 84 48 83 49 39 51 71 52 51 53 70 54 52 55
REMARK SMILES IDX 55 56 69 57 88 58 53 59 54 60 68 62 89 63 56 64 40 65 41 66
REMARK SMILES IDX 49 67 42 68 43 69 47 70 50 71 44 72 45 73 48 74 46 75 72 76
REMARK SMILES IDX 73 77 81 78 74 79 75 80 79 81 82 82 76 83 77 84 80 85 78 86
REMARK SMILES IDX 57 87 58 88 66 89 59 90 60 91 64 92 67 93 61 94 62 95 65 96
REMARK SMILES IDX 63 97
REMARK H PARENT 4 8 9 16 87 50 55 61
REMARK Flexibility Score: inf
ROOT
ATOM      1  C   UNL A   1      37.326  20.872  25.222  1.00  0.00     0.274 C 
ENDROOT
BRANCH   1   2
ATOM      2  O   UNL A   1      36.492  21.896  25.793  1.00  0.00    -0.458 OA
BRANCH   2   3
ATOM      3  C   UNL A   1      35.211  21.566  26.118  1.00  0.00     0.365 C 
ATOM      4  O   UNL A   1      34.777  21.561  27.268  1.00  0.00    -0.245 OA
BRANCH   3   5
ATOM      5  C   UNL A   1      34.369  21.077  24.923  1.00  0.00     0.295 C 
ATOM      6  N   UNL A   1      32.979  20.637  25.247  1.00  0.00    -0.323 N 
ATOM      7  C   UNL A   1      32.202  21.878  25.331  1.00  0.00     0.270 C 
ATOM      8  H   UNL A   1      32.951  20.101  26.115  1.00  0.00     0.348 HD
ATOM      9  C   UNL A   1      32.836  22.869  24.331  1.00  0.00     0.036 C 
ATOM     10  C   UNL A   1      34.192  22.238  23.953  1.00  0.00     0.091 C 
ATOM     11  C   UNL A   1      33.033  24.259  24.969  1.00  0.00     0.075 C 
ATOM     12  C   UNL A   1      31.969  23.042  23.069  1.00  0.00     0.075 C 
ATOM     13  C   UNL A   1      31.703  24.922  25.294  1.00  0.00     0.271 C 
ATOM     14  C   UNL A   1      30.652  23.751  23.366  1.00  0.00     0.271 C 
ATOM     15  N   UNL A   1      30.845  24.996  24.109  1.00  0.00    -0.270 N 
ATOM     16  H   UNL A   1      30.383  24.148  24.296  1.00  0.00     0.356 HD
BRANCH   6  17
ATOM     17  C   UNL A   1      32.431  19.732  24.218  1.00  0.00     0.262 C 
BRANCH  17  18
ATOM     18  C   UNL A   1      32.704  18.255  24.522  1.00  0.00     0.058 C 
ATOM     19  C   UNL A   1      33.022  17.440  23.275  1.00  0.00     0.010 C 
ENDBRANCH  17  18
ENDBRANCH   6  17
BRANCH  15  20
ATOM     20  C   UNL A   1      30.056  26.087  23.765  1.00  0.00     0.333 C 
ATOM     21  O   UNL A   1      28.877  26.171  24.118  1.00  0.00    -0.229 OA
BRANCH  20  22
ATOM     22  C   UNL A   1      30.652  27.197  22.947  1.00  0.00     0.293 C 
BRANCH  22  23
ATOM     23  N   UNL A   1      31.924  26.897  22.323  1.00  0.00    -0.216 N 
ATOM     24  N   UNL A   1      31.899  26.093  21.240  1.00  0.00    -0.044 NA
ATOM     25  C   UNL A   1      33.224  27.243  22.598  1.00  0.00     0.149 A 
ATOM     26  N   UNL A   1      33.161  25.956  20.868  1.00  0.00    -0.024 NA
ATOM     27  N   UNL A   1      33.991  26.652  21.701  1.00  0.00    -0.114 NA
ATOM     28  C   UNL A   1      33.728  28.082  23.708  1.00  0.00     0.091 C 
ENDBRANCH  22  23
ENDBRANCH  20  22
ENDBRANCH  15  20
ENDBRANCH   3   5
ENDBRANCH   2   3
ENDBRANCH   1   2
BRANCH   1  29
ATOM     29  C   UNL A   1      38.798  21.161  25.473  1.00  0.00     0.275 C 
BRANCH  29  30
ATOM     30  O   UNL A   1      38.942  22.359  26.229  1.00  0.00    -0.458 OA
BRANCH  30  31
ATOM     31  C   UNL A   1      40.031  22.378  27.031  1.00  0.00     0.338 C 
ATOM     32  O   UNL A   1      40.411  21.492  27.774  1.00  0.00    -0.246 OA
BRANCH  31  33
ATOM     33  C   UNL A   1      40.622  23.714  27.034  1.00  0.00     0.060 A 
ATOM     34  C   UNL A   1      41.722  23.907  27.874  1.00  0.00     0.016 A 
ATOM     35  C   UNL A   1      39.893  24.784  26.499  1.00  0.00     0.016 A 
ATOM     36  C   UNL A   1      41.957  25.169  28.365  1.00  0.00     0.010 A 
ATOM     37  C   UNL A   1      40.117  26.041  27.002  1.00  0.00     0.010 A 
ATOM     38  C   UNL A   1      41.084  26.194  27.995  1.00  0.00    -0.014 A 
BRANCH  38  39
ATOM     39  C   UNL A   1      41.203  27.453  28.692  1.00  0.00     0.031 A 
ATOM     40  C   UNL A   1      42.378  28.261  28.309  1.00  0.00     0.074 A 
ATOM     41  C   UNL A   1      40.242  27.885  29.527  1.00  0.00     0.049 A 
ATOM     42  N   UNL A   1      43.317  28.717  29.070  1.00  0.00    -0.248 NA
ATOM     43  C   UNL A   1      42.578  28.518  26.875  1.00  0.00     0.031 C 
ATOM     44  C   UNL A   1      38.906  27.323  29.747  1.00  0.00     0.029 A 
ATOM     45  N   UNL A   1      40.225  29.022  30.268  1.00  0.00    -0.354 N 
ATOM     46  C   UNL A   1      44.151  29.451  28.234  1.00  0.00     0.074 A 
ATOM     47  C   UNL A   1      43.726  29.191  26.884  1.00  0.00     0.031 C 
ATOM     48  C   UNL A   1      38.141  28.245  30.372  1.00  0.00     0.029 A 
ATOM     49  C   UNL A   1      38.964  29.401  30.692  1.00  0.00     0.049 A 
ATOM     50  H   UNL A   1      41.039  29.532  30.486  1.00  0.00     0.167 HD
ATOM     51  C   UNL A   1      44.999  30.392  28.725  1.00  0.00     0.037 A 
ATOM     52  C   UNL A   1      38.622  30.624  31.163  1.00  0.00     0.037 A 
ATOM     53  C   UNL A   1      45.283  30.187  30.119  1.00  0.00     0.049 A 
ATOM     54  C   UNL A   1      39.874  31.314  31.578  1.00  0.00     0.074 A 
ATOM     55  C   UNL A   1      45.826  29.141  30.844  1.00  0.00     0.029 A 
ATOM     56  N   UNL A   1      44.679  30.999  31.047  1.00  0.00    -0.354 N 
ATOM     57  N   UNL A   1      40.599  30.965  32.605  1.00  0.00    -0.248 NA
ATOM     58  C   UNL A   1      40.558  32.127  30.581  1.00  0.00     0.031 C 
ATOM     59  C   UNL A   1      45.094  29.119  32.068  1.00  0.00     0.029 A 
ATOM     60  C   UNL A   1      44.182  30.173  32.025  1.00  0.00     0.049 A 
ATOM     61  H   UNL A   1      44.615  31.981  31.018  1.00  0.00     0.167 HD
ATOM     62  C   UNL A   1      41.911  31.152  32.192  1.00  0.00     0.074 A 
ATOM     63  C   UNL A   1      41.822  31.955  30.978  1.00  0.00     0.031 C 
ATOM     64  C   UNL A   1      42.931  30.401  32.705  1.00  0.00     0.037 A 
BRANCH  51  65
ATOM     65  C   UNL A   1      45.298  31.678  28.006  1.00  0.00     0.064 A 
ATOM     66  C   UNL A   1      44.243  32.539  27.658  1.00  0.00     0.173 A 
ATOM     67  C   UNL A   1      46.543  31.951  27.396  1.00  0.00     0.173 A 
ATOM     68  F   UNL A   1      43.012  32.346  28.157  1.00  0.00    -0.203 F 
ATOM     69  C   UNL A   1      44.410  33.561  26.721  1.00  0.00     0.198 A 
ATOM     70  C   UNL A   1      46.719  33.007  26.507  1.00  0.00     0.198 A 
ATOM     71  F   UNL A   1      47.601  31.144  27.546  1.00  0.00    -0.203 F 
ATOM     72  F   UNL A   1      43.350  34.280  26.328  1.00  0.00    -0.200 F 
ATOM     73  C   UNL A   1      45.646  33.793  26.145  1.00  0.00     0.200 A 
ATOM     74  F   UNL A   1      47.921  33.201  25.945  1.00  0.00    -0.200 F 
ATOM     75  F   UNL A   1      45.794  34.734  25.206  1.00  0.00    -0.200 F 
ENDBRANCH  51  65
BRANCH  52  76
ATOM     76  C   UNL A   1      37.339  31.339  30.971  1.00  0.00     0.064 A 
ATOM     77  C   UNL A   1      36.472  31.570  32.050  1.00  0.00     0.173 A 
ATOM     78  C   UNL A   1      37.047  32.030  29.777  1.00  0.00     0.173 A 
ATOM     79  F   UNL A   1      36.708  30.994  33.238  1.00  0.00    -0.203 F 
ATOM     80  C   UNL A   1      35.390  32.450  31.946  1.00  0.00     0.198 A 
ATOM     81  C   UNL A   1      35.958  32.894  29.669  1.00  0.00     0.198 A 
ATOM     82  F   UNL A   1      37.864  31.957  28.716  1.00  0.00    -0.203 F 
ATOM     83  F   UNL A   1      34.621  32.693  33.017  1.00  0.00    -0.200 F 
ATOM     84  C   UNL A   1      35.137  33.115  30.758  1.00  0.00     0.200 A 
ATOM     85  F   UNL A   1      35.748  33.558  28.522  1.00  0.00    -0.200 F 
ATOM     86  F   UNL A   1      34.131  33.997  30.673  1.00  0.00    -0.200 F 
ENDBRANCH  52  76
BRANCH  64  87
ATOM     87  C   UNL A   1      42.642  29.539  33.900  1.00  0.00     0.064 A 
ATOM     88  C   UNL A   1      41.982  28.300  33.824  1.00  0.00     0.173 A 
ATOM     89  C   UNL A   1      43.189  29.901  35.138  1.00  0.00     0.173 A 
ATOM     90  F   UNL A   1      41.533  27.828  32.655  1.00  0.00    -0.203 F 
ATOM     91  C   UNL A   1      41.832  27.490  34.948  1.00  0.00     0.198 A 
ATOM     92  C   UNL A   1      43.071  29.073  36.251  1.00  0.00     0.198 A 
ATOM     93  F   UNL A   1      43.886  31.043  35.258  1.00  0.00    -0.203 F 
ATOM     94  F   UNL A   1      41.185  26.319  34.849  1.00  0.00    -0.200 F 
ATOM     95  C   UNL A   1      42.382  27.873  36.158  1.00  0.00     0.200 A 
ATOM     96  F   UNL A   1      43.650  29.423  37.407  1.00  0.00    -0.200 F 
ATOM     97  F   UNL A   1      42.275  27.075  37.229  1.00  0.00    -0.200 F 
ENDBRANCH  64  87
ENDBRANCH  38  39
ENDBRANCH  31  33
ENDBRANCH  30  31
ENDBRANCH  29  30
ENDBRANCH   1  29
TORSDOF 16
ENDMDL
MODEL 2
REMARK VINA RESULT:     -12.7      3.205      8.733
REMARK SMILES CCC[N@@H+]1CC2(CC[NH+](C(=O)Cn3nnnc3C)CC2)C[C@H]1C(=O)OCCOC(=O)c1ccc(-c2c3nc(c(-c4c(F)c(F)c(F)c(F)c4F)c4ccc([nH]4)c(-c4c(F)c(F)c(F)c(F)c4F)c4nc(c(-c5c(F)c(F)c(F)c(F)c5F)c5ccc2[nH]5)C=C4)C=C3)cc1
REMARK SMILES IDX 26 1 25 2 23 3 24 4 22 5 4 6 5 7 6 9 21 10 7 11 20 12 8 13
REMARK SMILES IDX 19 14 9 15 3 17 2 18 1 19 10 20 11 21 12 22 13 23 14 24
REMARK SMILES IDX 17 25 15 26 16 27 18 28 27 29 28 30 29 31 30 32 31 33 32 34
REMARK SMILES IDX 93 35 33 36 92 37 34 38 35 39 36 40 86 41 37 42 91 43 85 44
REMARK SMILES IDX 87 45 38 46 90 47 84 48 83 49 39 51 71 52 51 53 70 54 52 55
REMARK SMILES IDX 55 56 69 57 88 58 53 59 54 60 68 62 89 63 56 64 40 65 41 66
REMARK SMILES IDX 49 67 42 68 43 69 47 70 50 71 44 72 45 73 48 74 46 75 72 76
REMARK SMILES IDX 73 77 81 78 74 79 75 80 79 81 82 82 76 83 77 84 80 85 78 86
REMARK SMILES IDX 57 87 58 88 66 89 59 90 60 91 64 92 67 93 61 94 62 95 65 96
REMARK SMILES IDX 63 97
REMARK H PARENT 4 8 9 16 87 50 55 61
REMARK Flexibility Score: inf
ROOT
ATOM      1  C   UNL A   1      32.377  30.332  26.518  1.00  0.00     0.274 C 
ENDROOT
BRANCH   1   2
ATOM      2  O   UNL A   1      33.181  29.411  25.758  1.00  0.00    -0.458 OA
BRANCH   2   3
ATOM      3  C   UNL A   1      32.845  29.198  24.455  1.00  0.00     0.365 C 
ATOM      4  O   UNL A   1      33.581  29.463  23.507  1.00  0.00    -0.245 OA
BRANCH   3   5
ATOM      5  C   UNL A   1      31.400  28.701  24.255  1.00  0.00     0.295 C 
ATOM      6  N   UNL A   1      31.028  28.334  22.857  1.00  0.00    -0.323 N 
ATOM      7  C   UNL A   1      31.557  26.978  22.671  1.00  0.00     0.270 C 
ATOM      8  H   UNL A   1      31.414  28.996  22.183  1.00  0.00     0.348 HD
ATOM      9  C   UNL A   1      31.485  26.280  24.047  1.00  0.00     0.036 C 
ATOM     10  C   UNL A   1      31.219  27.417  25.055  1.00  0.00     0.091 C 
ATOM     11  C   UNL A   1      32.803  25.550  24.375  1.00  0.00     0.075 C 
ATOM     12  C   UNL A   1      30.342  25.249  24.107  1.00  0.00     0.075 C 
ATOM     13  C   UNL A   1      33.052  24.387  23.426  1.00  0.00     0.271 C 
ATOM     14  C   UNL A   1      30.597  24.051  23.200  1.00  0.00     0.271 C 
ATOM     15  N   UNL A   1      31.918  23.460  23.416  1.00  0.00    -0.270 N 
ATOM     16  H   UNL A   1      31.473  23.892  22.651  1.00  0.00     0.356 HD
BRANCH   6  17
ATOM     17  C   UNL A   1      29.569  28.372  22.642  1.00  0.00     0.262 C 
BRANCH  17  18
ATOM     18  C   UNL A   1      28.976  29.770  22.847  1.00  0.00     0.058 C 
ATOM     19  C   UNL A   1      28.973  30.608  21.576  1.00  0.00     0.010 C 
ENDBRANCH  17  18
ENDBRANCH   6  17
BRANCH  15  20
ATOM     20  C   UNL A   1      32.023  22.075  23.391  1.00  0.00     0.333 C 
ATOM     21  O   UNL A   1      32.106  21.450  22.330  1.00  0.00    -0.229 OA
BRANCH  20  22
ATOM     22  C   UNL A   1      32.041  21.316  24.687  1.00  0.00     0.293 C 
BRANCH  22  23
ATOM     23  N   UNL A   1      31.722  22.090  25.868  1.00  0.00    -0.216 N 
ATOM     24  N   UNL A   1      30.414  22.250  26.160  1.00  0.00    -0.044 NA
ATOM     25  C   UNL A   1      32.476  22.753  26.804  1.00  0.00     0.149 A 
ATOM     26  N   UNL A   1      30.381  22.995  27.252  1.00  0.00    -0.024 NA
ATOM     27  N   UNL A   1      31.644  23.321  27.656  1.00  0.00    -0.114 NA
ATOM     28  C   UNL A   1      33.950  22.875  26.866  1.00  0.00     0.091 C 
ENDBRANCH  22  23
ENDBRANCH  20  22
ENDBRANCH  15  20
ENDBRANCH   3   5
ENDBRANCH   2   3
ENDBRANCH   1   2
BRANCH   1  29
ATOM     29  C   UNL A   1      33.246  31.339  27.255  1.00  0.00     0.275 C 
BRANCH  29  30
ATOM     30  O   UNL A   1      34.610  30.928  27.223  1.00  0.00    -0.458 OA
BRANCH  30  31
ATOM     31  C   UNL A   1      35.464  31.808  27.792  1.00  0.00     0.338 C 
ATOM     32  O   UNL A   1      35.585  32.990  27.530  1.00  0.00    -0.246 OA
BRANCH  31  33
ATOM     33  C   UNL A   1      36.392  31.100  28.673  1.00  0.00     0.060 A 
ATOM     34  C   UNL A   1      37.409  31.864  29.250  1.00  0.00     0.016 A 
ATOM     35  C   UNL A   1      36.440  29.701  28.630  1.00  0.00     0.016 A 
ATOM     36  C   UNL A   1      38.588  31.240  29.582  1.00  0.00     0.010 A 
ATOM     37  C   UNL A   1      37.622  29.080  28.946  1.00  0.00     0.010 A 
ATOM     38  C   UNL A   1      38.704  29.871  29.328  1.00  0.00    -0.014 A 
BRANCH  38  39
ATOM     39  C   UNL A   1      40.013  29.278  29.467  1.00  0.00     0.031 A 
ATOM     40  C   UNL A   1      40.435  29.031  30.860  1.00  0.00     0.074 A 
ATOM     41  C   UNL A   1      40.718  28.879  28.393  1.00  0.00     0.049 A 
ATOM     42  N   UNL A   1      41.494  29.459  31.463  1.00  0.00    -0.248 NA
ATOM     43  C   UNL A   1      39.505  28.281  31.720  1.00  0.00     0.031 C 
ATOM     44  C   UNL A   1      40.280  28.791  26.997  1.00  0.00     0.029 A 
ATOM     45  N   UNL A   1      41.962  28.337  28.363  1.00  0.00    -0.354 N 
ATOM     46  C   UNL A   1      41.446  28.906  32.738  1.00  0.00     0.074 A 
ATOM     47  C   UNL A   1      40.149  28.301  32.884  1.00  0.00     0.031 C 
ATOM     48  C   UNL A   1      41.150  28.014  26.314  1.00  0.00     0.029 A 
ATOM     49  C   UNL A   1      42.251  27.655  27.194  1.00  0.00     0.049 A 
ATOM     50  H   UNL A   1      42.602  28.421  29.106  1.00  0.00     0.167 HD
ATOM     51  C   UNL A   1      42.560  28.800  33.508  1.00  0.00     0.037 A 
ATOM     52  C   UNL A   1      43.267  26.774  27.022  1.00  0.00     0.037 A 
ATOM     53  C   UNL A   1      43.589  29.716  33.097  1.00  0.00     0.049 A 
ATOM     54  C   UNL A   1      44.258  27.012  28.107  1.00  0.00     0.074 A 
ATOM     55  C   UNL A   1      43.655  31.091  32.973  1.00  0.00     0.029 A 
ATOM     56  N   UNL A   1      44.665  29.233  32.393  1.00  0.00    -0.354 N 
ATOM     57  N   UNL A   1      45.008  28.076  28.196  1.00  0.00    -0.248 NA
ATOM     58  C   UNL A   1      44.099  26.258  29.344  1.00  0.00     0.031 C 
ATOM     59  C   UNL A   1      44.446  31.321  31.809  1.00  0.00     0.029 A 
ATOM     60  C   UNL A   1      44.840  30.076  31.323  1.00  0.00     0.049 A 
ATOM     61  H   UNL A   1      45.205  28.441  32.612  1.00  0.00     0.167 HD
ATOM     62  C   UNL A   1      45.069  28.354  29.554  1.00  0.00     0.074 A 
ATOM     63  C   UNL A   1      44.573  27.152  30.215  1.00  0.00     0.031 C 
ATOM     64  C   UNL A   1      45.244  29.629  30.012  1.00  0.00     0.037 A 
BRANCH  51  65
ATOM     65  C   UNL A   1      42.815  27.632  34.419  1.00  0.00     0.064 A 
ATOM     66  C   UNL A   1      43.247  26.410  33.874  1.00  0.00     0.173 A 
ATOM     67  C   UNL A   1      42.375  27.588  35.761  1.00  0.00     0.173 A 
ATOM     68  F   UNL A   1      43.653  26.338  32.598  1.00  0.00    -0.203 F 
ATOM     69  C   UNL A   1      43.185  25.220  34.604  1.00  0.00     0.198 A 
ATOM     70  C   UNL A   1      42.370  26.410  36.502  1.00  0.00     0.198 A 
ATOM     71  F   UNL A   1      41.829  28.650  36.366  1.00  0.00    -0.203 F 
ATOM     72  F   UNL A   1      43.491  24.060  34.008  1.00  0.00    -0.200 F 
ATOM     73  C   UNL A   1      42.745  25.221  35.916  1.00  0.00     0.200 A 
ATOM     74  F   UNL A   1      41.920  26.429  37.765  1.00  0.00    -0.200 F 
ATOM     75  F   UNL A   1      42.630  24.074  36.596  1.00  0.00    -0.200 F 
ENDBRANCH  51  65
BRANCH  52  76
ATOM     76  C   UNL A   1      43.267  25.549  26.190  1.00  0.00     0.064 A 
ATOM     77  C   UNL A   1      44.340  25.258  25.334  1.00  0.00     0.173 A 
ATOM     78  C   UNL A   1      42.336  24.510  26.400  1.00  0.00     0.173 A 
ATOM     79  F   UNL A   1      45.298  26.172  25.121  1.00  0.00    -0.203 F 
ATOM     80  C   UNL A   1      44.480  24.002  24.735  1.00  0.00     0.198 A 
ATOM     81  C   UNL A   1      42.469  23.263  25.790  1.00  0.00     0.198 A 
ATOM     82  F   UNL A   1      41.329  24.648  27.273  1.00  0.00    -0.203 F 
ATOM     83  F   UNL A   1      45.552  23.742  23.972  1.00  0.00    -0.200 F 
ATOM     84  C   UNL A   1      43.548  23.004  24.968  1.00  0.00     0.200 A 
ATOM     85  F   UNL A   1      41.577  22.297  26.054  1.00  0.00    -0.200 F 
ATOM     86  F   UNL A   1      43.711  21.785  24.437  1.00  0.00    -0.200 F 
ENDBRANCH  52  76
BRANCH  64  87
ATOM     87  C   UNL A   1      45.612  30.693  29.017  1.00  0.00     0.064 A 
ATOM     88  C   UNL A   1      46.935  30.976  28.637  1.00  0.00     0.173 A 
ATOM     89  C   UNL A   1      44.588  31.336  28.310  1.00  0.00     0.173 A 
ATOM     90  F   UNL A   1      47.966  30.320  29.182  1.00  0.00    -0.203 F 
ATOM     91  C   UNL A   1      47.217  31.901  27.633  1.00  0.00     0.198 A 
ATOM     92  C   UNL A   1      44.871  32.230  27.281  1.00  0.00     0.198 A 
ATOM     93  F   UNL A   1      43.303  31.058  28.586  1.00  0.00    -0.203 F 
ATOM     94  F   UNL A   1      48.490  32.162  27.299  1.00  0.00    -0.200 F 
ATOM     95  C   UNL A   1      46.185  32.521  26.951  1.00  0.00     0.200 A 
ATOM     96  F   UNL A   1      43.869  32.788  26.589  1.00  0.00    -0.200 F 
ATOM     97  F   UNL A   1      46.455  33.378  25.956  1.00  0.00    -0.200 F 
ENDBRANCH  64  87
ENDBRANCH  38  39
ENDBRANCH  31  33
ENDBRANCH  30  31
ENDBRANCH  29  30
ENDBRANCH   1  29
TORSDOF 16
ENDMDL
MODEL 3
REMARK VINA RESULT:     -12.5      1.584      2.235
REMARK SMILES CCC[N@@H+]1CC2(CC[NH+](C(=O)Cn3nnnc3C)CC2)C[C@H]1C(=O)OCCOC(=O)c1ccc(-c2c3nc(c(-c4c(F)c(F)c(F)c(F)c4F)c4ccc([nH]4)c(-c4c(F)c(F)c(F)c(F)c4F)c4nc(c(-c5c(F)c(F)c(F)c(F)c5F)c5ccc2[nH]5)C=C4)C=C3)cc1
REMARK SMILES IDX 26 1 25 2 23 3 24 4 22 5 4 6 5 7 6 9 21 10 7 11 20 12 8 13
REMARK SMILES IDX 19 14 9 15 3 17 2 18 1 19 10 20 11 21 12 22 13 23 14 24
REMARK SMILES IDX 17 25 15 26 16 27 18 28 27 29 28 30 29 31 30 32 31 33 32 34
REMARK SMILES IDX 93 35 33 36 92 37 34 38 35 39 36 40 86 41 37 42 91 43 85 44
REMARK SMILES IDX 87 45 38 46 90 47 84 48 83 49 39 51 71 52 51 53 70 54 52 55
REMARK SMILES IDX 55 56 69 57 88 58 53 59 54 60 68 62 89 63 56 64 40 65 41 66
REMARK SMILES IDX 49 67 42 68 43 69 47 70 50 71 44 72 45 73 48 74 46 75 72 76
REMARK SMILES IDX 73 77 81 78 74 79 75 80 79 81 82 82 76 83 77 84 80 85 78 86
REMARK SMILES IDX 57 87 58 88 66 89 59 90 60 91 64 92 67 93 61 94 62 95 65 96
REMARK SMILES IDX 63 97
REMARK H PARENT 4 8 9 16 87 50 55 61
REMARK Flexibility Score: inf
ROOT
ATOM      1  C   UNL A   1      37.383  22.324  24.519  1.00  0.00     0.274 C 
ENDROOT
BRANCH   1   2
ATOM      2  O   UNL A   1      35.982  22.496  24.798  1.00  0.00    -0.458 OA
BRANCH   2   3
ATOM      3  C   UNL A   1      35.163  22.828  23.761  1.00  0.00     0.365 C 
ATOM      4  O   UNL A   1      35.559  23.333  22.713  1.00  0.00    -0.245 OA
BRANCH   3   5
ATOM      5  C   UNL A   1      33.664  22.628  24.058  1.00  0.00     0.295 C 
ATOM      6  N   UNL A   1      33.228  22.964  25.446  1.00  0.00    -0.323 N 
ATOM      7  C   UNL A   1      33.069  24.422  25.447  1.00  0.00     0.270 C 
ATOM      8  H   UNL A   1      33.909  22.648  26.138  1.00  0.00     0.348 HD
ATOM      9  C   UNL A   1      32.616  24.822  24.026  1.00  0.00     0.036 C 
ATOM     10  C   UNL A   1      32.868  23.568  23.163  1.00  0.00     0.091 C 
ATOM     11  C   UNL A   1      33.424  26.025  23.498  1.00  0.00     0.075 C 
ATOM     12  C   UNL A   1      31.122  25.195  23.985  1.00  0.00     0.075 C 
ATOM     13  C   UNL A   1      33.143  27.286  24.302  1.00  0.00     0.271 C 
ATOM     14  C   UNL A   1      30.829  26.485  24.743  1.00  0.00     0.271 C 
ATOM     15  N   UNL A   1      31.708  27.582  24.339  1.00  0.00    -0.270 N 
ATOM     16  H   UNL A   1      31.552  27.099  25.182  1.00  0.00     0.356 HD
BRANCH   6  17
ATOM     17  C   UNL A   1      31.968  22.289  25.810  1.00  0.00     0.262 C 
BRANCH  17  18
ATOM     18  C   UNL A   1      31.291  22.916  27.033  1.00  0.00     0.058 C 
ATOM     19  C   UNL A   1      29.798  23.143  26.836  1.00  0.00     0.010 C 
ENDBRANCH  17  18
ENDBRANCH   6  17
BRANCH  15  20
ATOM     20  C   UNL A   1      31.154  28.850  24.221  1.00  0.00     0.333 C 
ATOM     21  O   UNL A   1      31.255  29.688  25.122  1.00  0.00    -0.229 OA
BRANCH  20  22
ATOM     22  C   UNL A   1      30.417  29.217  22.964  1.00  0.00     0.293 C 
BRANCH  22  23
ATOM     23  N   UNL A   1      29.027  29.579  23.140  1.00  0.00    -0.216 N 
ATOM     24  N   UNL A   1      28.116  28.591  23.018  1.00  0.00    -0.044 NA
ATOM     25  C   UNL A   1      28.377  30.761  23.401  1.00  0.00     0.149 A 
ATOM     26  N   UNL A   1      26.940  29.166  23.200  1.00  0.00    -0.024 NA
ATOM     27  N   UNL A   1      27.083  30.505  23.428  1.00  0.00    -0.114 NA
ATOM     28  C   UNL A   1      28.969  32.105  23.579  1.00  0.00     0.091 C 
ENDBRANCH  22  23
ENDBRANCH  20  22
ENDBRANCH  15  20
ENDBRANCH   3   5
ENDBRANCH   2   3
ENDBRANCH   1   2
BRANCH   1  29
ATOM     29  C   UNL A   1      38.119  21.774  25.732  1.00  0.00     0.275 C 
BRANCH  29  30
ATOM     30  O   UNL A   1      38.683  22.840  26.491  1.00  0.00    -0.458 OA
BRANCH  30  31
ATOM     31  C   UNL A   1      39.976  22.650  26.832  1.00  0.00     0.338 C 
ATOM     32  O   UNL A   1      40.504  21.604  27.161  1.00  0.00    -0.246 OA
BRANCH  31  33
ATOM     33  C   UNL A   1      40.656  23.940  26.938  1.00  0.00     0.060 A 
ATOM     34  C   UNL A   1      41.634  24.049  27.930  1.00  0.00     0.016 A 
ATOM     35  C   UNL A   1      40.092  25.062  26.317  1.00  0.00     0.016 A 
ATOM     36  C   UNL A   1      41.886  25.289  28.466  1.00  0.00     0.010 A 
ATOM     37  C   UNL A   1      40.330  26.297  26.864  1.00  0.00     0.010 A 
ATOM     38  C   UNL A   1      41.151  26.377  27.987  1.00  0.00    -0.014 A 
BRANCH  38  39
ATOM     39  C   UNL A   1      41.259  27.622  28.711  1.00  0.00     0.031 A 
ATOM     40  C   UNL A   1      42.420  28.454  28.337  1.00  0.00     0.074 A 
ATOM     41  C   UNL A   1      40.298  28.023  29.561  1.00  0.00     0.049 A 
ATOM     42  N   UNL A   1      43.359  28.906  29.101  1.00  0.00    -0.248 NA
ATOM     43  C   UNL A   1      42.606  28.745  26.907  1.00  0.00     0.031 C 
ATOM     44  C   UNL A   1      38.972  27.438  29.779  1.00  0.00     0.029 A 
ATOM     45  N   UNL A   1      40.272  29.143  30.328  1.00  0.00    -0.354 N 
ATOM     46  C   UNL A   1      44.176  29.670  28.275  1.00  0.00     0.074 A 
ATOM     47  C   UNL A   1      43.745  29.433  26.923  1.00  0.00     0.031 C 
ATOM     48  C   UNL A   1      38.199  28.336  30.430  1.00  0.00     0.029 A 
ATOM     49  C   UNL A   1      39.009  29.495  30.768  1.00  0.00     0.049 A 
ATOM     50  H   UNL A   1      41.080  29.659  30.550  1.00  0.00     0.167 HD
ATOM     51  C   UNL A   1      45.015  30.611  28.780  1.00  0.00     0.037 A 
ATOM     52  C   UNL A   1      38.654  30.704  31.269  1.00  0.00     0.037 A 
ATOM     53  C   UNL A   1      45.312  30.380  30.167  1.00  0.00     0.049 A 
ATOM     54  C   UNL A   1      39.899  31.401  31.688  1.00  0.00     0.074 A 
ATOM     55  C   UNL A   1      45.875  29.327  30.865  1.00  0.00     0.029 A 
ATOM     56  N   UNL A   1      44.704  31.164  31.117  1.00  0.00    -0.354 N 
ATOM     57  N   UNL A   1      40.637  31.041  32.702  1.00  0.00    -0.248 NA
ATOM     58  C   UNL A   1      40.565  32.245  30.705  1.00  0.00     0.031 C 
ATOM     59  C   UNL A   1      45.153  29.269  32.094  1.00  0.00     0.029 A 
ATOM     60  C   UNL A   1      44.226  30.310  32.080  1.00  0.00     0.049 A 
ATOM     61  H   UNL A   1      44.627  32.145  31.110  1.00  0.00     0.167 HD
ATOM     62  C   UNL A   1      41.943  31.254  32.284  1.00  0.00     0.074 A 
ATOM     63  C   UNL A   1      41.834  32.082  31.089  1.00  0.00     0.031 C 
ATOM     64  C   UNL A   1      42.977  30.507  32.774  1.00  0.00     0.037 A 
BRANCH  51  65
ATOM     65  C   UNL A   1      45.291  31.916  28.087  1.00  0.00     0.064 A 
ATOM     66  C   UNL A   1      44.223  32.775  27.776  1.00  0.00     0.173 A 
ATOM     67  C   UNL A   1      46.524  32.215  27.464  1.00  0.00     0.173 A 
ATOM     68  F   UNL A   1      43.002  32.559  28.289  1.00  0.00    -0.203 F 
ATOM     69  C   UNL A   1      44.366  33.821  26.861  1.00  0.00     0.198 A 
ATOM     70  C   UNL A   1      46.677  33.293  26.598  1.00  0.00     0.198 A 
ATOM     71  F   UNL A   1      47.591  31.414  27.579  1.00  0.00    -0.203 F 
ATOM     72  F   UNL A   1      43.294  34.539  26.501  1.00  0.00    -0.200 F 
ATOM     73  C   UNL A   1      45.591  34.078  26.271  1.00  0.00     0.200 A 
ATOM     74  F   UNL A   1      47.867  33.512  26.021  1.00  0.00    -0.200 F 
ATOM     75  F   UNL A   1      45.716  35.042  25.352  1.00  0.00    -0.200 F 
ENDBRANCH  51  65
BRANCH  52  76
ATOM     76  C   UNL A   1      37.360  31.405  31.100  1.00  0.00     0.064 A 
ATOM     77  C   UNL A   1      36.510  31.623  32.196  1.00  0.00     0.173 A 
ATOM     78  C   UNL A   1      37.039  32.096  29.914  1.00  0.00     0.173 A 
ATOM     79  F   UNL A   1      36.772  31.046  33.377  1.00  0.00    -0.203 F 
ATOM     80  C   UNL A   1      35.416  32.491  32.113  1.00  0.00     0.198 A 
ATOM     81  C   UNL A   1      35.939  32.948  29.828  1.00  0.00     0.198 A 
ATOM     82  F   UNL A   1      37.838  32.035  28.839  1.00  0.00    -0.203 F 
ATOM     83  F   UNL A   1      34.663  32.723  33.198  1.00  0.00    -0.200 F 
ATOM     84  C   UNL A   1      35.135  33.157  30.931  1.00  0.00     0.200 A 
ATOM     85  F   UNL A   1      35.701  33.613  28.687  1.00  0.00    -0.200 F 
ATOM     86  F   UNL A   1      34.118  34.028  30.867  1.00  0.00    -0.200 F 
ENDBRANCH  52  76
BRANCH  64  87
ATOM     87  C   UNL A   1      42.709  29.615  33.952  1.00  0.00     0.064 A 
ATOM     88  C   UNL A   1      42.177  28.318  33.841  1.00  0.00     0.173 A 
ATOM     89  C   UNL A   1      43.150  30.023  35.218  1.00  0.00     0.173 A 
ATOM     90  F   UNL A   1      41.840  27.811  32.650  1.00  0.00    -0.203 F 
ATOM     91  C   UNL A   1      42.045  27.492  34.956  1.00  0.00     0.198 A 
ATOM     92  C   UNL A   1      43.053  29.181  36.323  1.00  0.00     0.198 A 
ATOM     93  F   UNL A   1      43.725  31.227  35.374  1.00  0.00    -0.203 F 
ATOM     94  F   UNL A   1      41.522  26.264  34.823  1.00  0.00    -0.200 F 
ATOM     95  C   UNL A   1      42.490  27.921  36.194  1.00  0.00     0.200 A 
ATOM     96  F   UNL A   1      43.532  29.581  37.509  1.00  0.00    -0.200 F 
ATOM     97  F   UNL A   1      42.403  27.112  37.258  1.00  0.00    -0.200 F 
ENDBRANCH  64  87
ENDBRANCH  38  39
ENDBRANCH  31  33
ENDBRANCH  30  31
ENDBRANCH  29  30
ENDBRANCH   1  29
TORSDOF 16
ENDMDL
