MODEL 1
REMARK VINA RESULT:     -10.4      0.000      0.000
REMARK SMILES C[C@@H](C(=O)OCCOC(=O)c1ccc(-c2c3nc(c(-c4c(F)c(F)c(F)c(F)c4F)c4ccc([nH]4)c(-c4c(F)c(F)c(F)c(F)c4F)c4nc(c(-c5c(F)c(F)c(F)c(F)c5F)c5ccc2[nH]5)C=C4)C=C3)cc1)[C@@H](C)C(=O)c1ccc(Br)cc1
REMARK SMILES IDX 6 1 5 2 3 3 4 4 2 5 1 6 74 7 75 8 76 9 77 10 78 11 79 12
REMARK SMILES IDX 84 13 80 14 83 15 81 16 82 17 7 18 8 19 9 20 10 21 11 22
REMARK SMILES IDX 12 23 73 24 13 25 72 26 14 27 15 28 16 29 66 30 17 31 71 32
REMARK SMILES IDX 65 33 67 34 18 35 70 36 64 37 63 38 19 40 51 41 31 42 50 43
REMARK SMILES IDX 32 44 35 45 49 46 68 47 33 48 34 49 48 51 69 52 36 53 20 54
REMARK SMILES IDX 21 55 29 56 22 57 23 58 27 59 30 60 24 61 25 62 28 63 26 64
REMARK SMILES IDX 52 65 53 66 61 67 54 68 55 69 59 70 62 71 56 72 57 73 60 74
REMARK SMILES IDX 58 75 37 76 38 77 46 78 39 79 40 80 44 81 47 82 41 83 42 84
REMARK SMILES IDX 45 85 43 86
REMARK H PARENT 67 39 35 50
REMARK Flexibility Score: inf
ROOT
ATOM      1  C   UNL A   1      33.676  34.450  28.347  1.00  0.00     0.274 C 
ENDROOT
BRANCH   1   2
ATOM      2  O   UNL A   1      32.616  34.858  29.239  1.00  0.00    -0.462 OA
BRANCH   2   3
ATOM      3  C   UNL A   1      32.901  35.862  30.112  1.00  0.00     0.309 C 
ATOM      4  O   UNL A   1      33.187  37.000  29.774  1.00  0.00    -0.252 OA
BRANCH   3   5
ATOM      5  C   UNL A   1      32.930  35.369  31.564  1.00  0.00     0.106 C 
ATOM      6  C   UNL A   1      32.223  36.363  32.501  1.00  0.00     0.021 C 
BRANCH   5   7
ATOM      7  C   UNL A   1      34.362  35.068  32.085  1.00  0.00     0.072 C 
ATOM      8  C   UNL A   1      34.471  35.079  33.614  1.00  0.00     0.017 C 
BRANCH   7   9
ATOM      9  C   UNL A   1      35.122  33.842  31.553  1.00  0.00     0.166 C 
ATOM     10  O   UNL A   1      34.514  32.785  31.364  1.00  0.00    -0.294 OA
BRANCH   9  11
ATOM     11  C   UNL A   1      36.544  33.907  31.102  1.00  0.00     0.018 A 
ATOM     12  C   UNL A   1      37.481  34.437  32.006  1.00  0.00     0.013 A 
ATOM     13  C   UNL A   1      36.974  33.520  29.831  1.00  0.00     0.013 A 
ATOM     14  C   UNL A   1      38.823  34.573  31.646  1.00  0.00     0.016 A 
ATOM     15  C   UNL A   1      38.318  33.666  29.466  1.00  0.00     0.016 A 
ATOM     16  C   UNL A   1      39.235  34.189  30.374  1.00  0.00     0.018 A 
ATOM     17  Br  UNL A   1      41.043  34.397  29.868  1.00  0.00    -0.051 Br
ENDBRANCH   9  11
ENDBRANCH   7   9
ENDBRANCH   5   7
ENDBRANCH   3   5
ENDBRANCH   2   3
ENDBRANCH   1   2
BRANCH   1  18
ATOM     18  C   UNL A   1      33.402  33.040  27.835  1.00  0.00     0.275 C 
BRANCH  18  19
ATOM     19  O   UNL A   1      34.607  32.268  27.961  1.00  0.00    -0.458 OA
BRANCH  19  20
ATOM     20  C   UNL A   1      34.464  30.926  27.919  1.00  0.00     0.338 C 
ATOM     21  O   UNL A   1      33.466  30.290  27.619  1.00  0.00    -0.246 OA
BRANCH  20  22
ATOM     22  C   UNL A   1      35.744  30.302  28.294  1.00  0.00     0.060 A 
ATOM     23  C   UNL A   1      35.889  29.728  29.555  1.00  0.00     0.016 A 
ATOM     24  C   UNL A   1      36.831  30.357  27.421  1.00  0.00     0.016 A 
ATOM     25  C   UNL A   1      37.130  29.252  29.972  1.00  0.00     0.010 A 
ATOM     26  C   UNL A   1      38.059  29.813  27.814  1.00  0.00     0.010 A 
ATOM     27  C   UNL A   1      38.227  29.277  29.103  1.00  0.00    -0.014 A 
BRANCH  27  28
ATOM     28  C   UNL A   1      39.560  28.810  29.568  1.00  0.00     0.031 A 
ATOM     29  C   UNL A   1      40.306  29.611  30.599  1.00  0.00     0.074 A 
ATOM     30  C   UNL A   1      40.095  27.664  29.105  1.00  0.00     0.049 A 
ATOM     31  N   UNL A   1      41.543  29.490  31.013  1.00  0.00    -0.248 NA
ATOM     32  C   UNL A   1      39.556  30.693  31.255  1.00  0.00     0.031 C 
ATOM     33  C   UNL A   1      39.447  26.736  28.179  1.00  0.00     0.029 A 
ATOM     34  N   UNL A   1      41.314  27.083  29.362  1.00  0.00    -0.354 N 
ATOM     35  C   UNL A   1      41.733  30.508  31.936  1.00  0.00     0.074 A 
ATOM     36  C   UNL A   1      40.485  31.237  32.028  1.00  0.00     0.031 C 
ATOM     37  C   UNL A   1      40.264  25.693  27.959  1.00  0.00     0.029 A 
ATOM     38  C   UNL A   1      41.521  25.914  28.670  1.00  0.00     0.049 A 
ATOM     39  H   UNL A   1      41.975  27.466  29.981  1.00  0.00     0.167 HD
ATOM     40  C   UNL A   1      42.849  30.811  32.638  1.00  0.00     0.037 A 
ATOM     41  C   UNL A   1      42.613  25.130  28.586  1.00  0.00     0.037 A 
ATOM     42  C   UNL A   1      44.075  30.060  32.584  1.00  0.00     0.049 A 
ATOM     43  C   UNL A   1      43.863  25.524  29.324  1.00  0.00     0.074 A 
ATOM     44  C   UNL A   1      45.264  30.295  33.254  1.00  0.00     0.029 A 
ATOM     45  N   UNL A   1      44.262  28.914  31.826  1.00  0.00    -0.354 N 
ATOM     46  N   UNL A   1      44.063  26.533  30.135  1.00  0.00    -0.248 NA
ATOM     47  C   UNL A   1      45.049  24.679  29.115  1.00  0.00     0.031 C 
ATOM     48  C   UNL A   1      46.179  29.305  32.879  1.00  0.00     0.029 A 
ATOM     49  C   UNL A   1      45.550  28.436  32.001  1.00  0.00     0.049 A 
ATOM     50  H   UNL A   1      43.579  28.501  31.250  1.00  0.00     0.167 HD
ATOM     51  C   UNL A   1      45.387  26.441  30.541  1.00  0.00     0.074 A 
ATOM     52  C   UNL A   1      45.940  25.265  29.902  1.00  0.00     0.031 C 
ATOM     53  C   UNL A   1      46.083  27.261  31.364  1.00  0.00     0.037 A 
BRANCH  40  54
ATOM     54  C   UNL A   1      42.810  32.039  33.496  1.00  0.00     0.064 A 
ATOM     55  C   UNL A   1      43.198  33.295  33.011  1.00  0.00     0.173 A 
ATOM     56  C   UNL A   1      42.354  31.954  34.820  1.00  0.00     0.173 A 
ATOM     57  F   UNL A   1      43.657  33.423  31.757  1.00  0.00    -0.203 F 
ATOM     58  C   UNL A   1      43.151  34.421  33.829  1.00  0.00     0.198 A 
ATOM     59  C   UNL A   1      42.287  33.085  35.628  1.00  0.00     0.198 A 
ATOM     60  F   UNL A   1      41.970  30.774  35.329  1.00  0.00    -0.203 F 
ATOM     61  F   UNL A   1      43.564  35.607  33.360  1.00  0.00    -0.200 F 
ATOM     62  C   UNL A   1      42.691  34.316  35.135  1.00  0.00     0.200 A 
ATOM     63  F   UNL A   1      41.836  32.983  36.887  1.00  0.00    -0.200 F 
ATOM     64  F   UNL A   1      42.644  35.402  35.920  1.00  0.00    -0.200 F 
ENDBRANCH  40  54
BRANCH  41  65
ATOM     65  C   UNL A   1      42.590  23.914  27.733  1.00  0.00     0.064 A 
ATOM     66  C   UNL A   1      42.899  23.985  26.369  1.00  0.00     0.173 A 
ATOM     67  C   UNL A   1      42.241  22.661  28.260  1.00  0.00     0.173 A 
ATOM     68  F   UNL A   1      43.207  25.166  25.812  1.00  0.00    -0.203 F 
ATOM     69  C   UNL A   1      42.853  22.851  25.562  1.00  0.00     0.198 A 
ATOM     70  C   UNL A   1      42.220  21.523  27.458  1.00  0.00     0.198 A 
ATOM     71  F   UNL A   1      41.925  22.543  29.558  1.00  0.00    -0.203 F 
ATOM     72  F   UNL A   1      43.112  22.953  24.250  1.00  0.00    -0.200 F 
ATOM     73  C   UNL A   1      42.520  21.620  26.108  1.00  0.00     0.200 A 
ATOM     74  F   UNL A   1      41.904  20.336  27.991  1.00  0.00    -0.200 F 
ATOM     75  F   UNL A   1      42.476  20.529  25.330  1.00  0.00    -0.200 F 
ENDBRANCH  41  65
BRANCH  53  76
ATOM     76  C   UNL A   1      47.512  26.903  31.640  1.00  0.00     0.064 A 
ATOM     77  C   UNL A   1      48.564  27.495  30.928  1.00  0.00     0.173 A 
ATOM     78  C   UNL A   1      47.832  25.987  32.653  1.00  0.00     0.173 A 
ATOM     79  F   UNL A   1      48.305  28.364  29.940  1.00  0.00    -0.203 F 
ATOM     80  C   UNL A   1      49.888  27.171  31.210  1.00  0.00     0.198 A 
ATOM     81  C   UNL A   1      49.158  25.681  32.946  1.00  0.00     0.198 A 
ATOM     82  F   UNL A   1      46.860  25.398  33.364  1.00  0.00    -0.203 F 
ATOM     83  F   UNL A   1      50.879  27.721  30.494  1.00  0.00    -0.200 F 
ATOM     84  C   UNL A   1      50.185  26.269  32.222  1.00  0.00     0.200 A 
ATOM     85  F   UNL A   1      49.443  24.817  33.929  1.00  0.00    -0.200 F 
ATOM     86  F   UNL A   1      51.459  25.961  32.494  1.00  0.00    -0.200 F 
ENDBRANCH  53  76
ENDBRANCH  27  28
ENDBRANCH  20  22
ENDBRANCH  19  20
ENDBRANCH  18  19
ENDBRANCH   1  18
TORSDOF 14
ENDMDL
MODEL 2
REMARK VINA RESULT:     -10.4      4.111      9.569
REMARK SMILES C[C@@H](C(=O)OCCOC(=O)c1ccc(-c2c3nc(c(-c4c(F)c(F)c(F)c(F)c4F)c4ccc([nH]4)c(-c4c(F)c(F)c(F)c(F)c4F)c4nc(c(-c5c(F)c(F)c(F)c(F)c5F)c5ccc2[nH]5)C=C4)C=C3)cc1)[C@@H](C)C(=O)c1ccc(Br)cc1
REMARK SMILES IDX 6 1 5 2 3 3 4 4 2 5 1 6 74 7 75 8 76 9 77 10 78 11 79 12
REMARK SMILES IDX 84 13 80 14 83 15 81 16 82 17 7 18 8 19 9 20 10 21 11 22
REMARK SMILES IDX 12 23 73 24 13 25 72 26 14 27 15 28 16 29 66 30 17 31 71 32
REMARK SMILES IDX 65 33 67 34 18 35 70 36 64 37 63 38 19 40 51 41 31 42 50 43
REMARK SMILES IDX 32 44 35 45 49 46 68 47 33 48 34 49 48 51 69 52 36 53 20 54
REMARK SMILES IDX 21 55 29 56 22 57 23 58 27 59 30 60 24 61 25 62 28 63 26 64
REMARK SMILES IDX 52 65 53 66 61 67 54 68 55 69 59 70 62 71 56 72 57 73 60 74
REMARK SMILES IDX 58 75 37 76 38 77 46 78 39 79 40 80 44 81 47 82 41 83 42 84
REMARK SMILES IDX 45 85 43 86
REMARK H PARENT 67 39 35 50
REMARK Flexibility Score: inf
ROOT
ATOM      1  C   UNL A   1      31.730  28.656  27.225  1.00  0.00     0.274 C 
ENDROOT
BRANCH   1   2
ATOM      2  O   UNL A   1      32.490  27.477  26.883  1.00  0.00    -0.462 OA
BRANCH   2   3
ATOM      3  C   UNL A   1      31.791  26.420  26.385  1.00  0.00     0.309 C 
ATOM      4  O   UNL A   1      30.742  26.010  26.860  1.00  0.00    -0.252 OA
BRANCH   3   5
ATOM      5  C   UNL A   1      32.531  25.736  25.229  1.00  0.00     0.106 C 
ATOM      6  C   UNL A   1      34.056  25.858  25.398  1.00  0.00     0.021 C 
BRANCH   5   7
ATOM      7  C   UNL A   1      32.104  26.255  23.829  1.00  0.00     0.072 C 
ATOM      8  C   UNL A   1      32.847  25.578  22.673  1.00  0.00     0.017 C 
BRANCH   7   9
ATOM      9  C   UNL A   1      30.611  26.329  23.470  1.00  0.00     0.166 C 
ATOM     10  O   UNL A   1      29.889  25.348  23.667  1.00  0.00    -0.294 OA
BRANCH   9  11
ATOM     11  C   UNL A   1      29.948  27.594  23.031  1.00  0.00     0.018 A 
ATOM     12  C   UNL A   1      30.768  28.586  22.467  1.00  0.00     0.013 A 
ATOM     13  C   UNL A   1      28.586  27.854  23.197  1.00  0.00     0.013 A 
ATOM     14  C   UNL A   1      30.233  29.814  22.071  1.00  0.00     0.016 A 
ATOM     15  C   UNL A   1      28.051  29.089  22.810  1.00  0.00     0.016 A 
ATOM     16  C   UNL A   1      28.876  30.061  22.249  1.00  0.00     0.018 A 
ATOM     17  Br  UNL A   1      28.149  31.730  21.744  1.00  0.00    -0.051 Br
ENDBRANCH   9  11
ENDBRANCH   7   9
ENDBRANCH   5   7
ENDBRANCH   3   5
ENDBRANCH   2   3
ENDBRANCH   1   2
BRANCH   1  18
ATOM     18  C   UNL A   1      31.818  29.670  26.090  1.00  0.00     0.275 C 
BRANCH  18  19
ATOM     19  O   UNL A   1      33.149  30.211  26.066  1.00  0.00    -0.458 OA
BRANCH  19  20
ATOM     20  C   UNL A   1      33.412  31.189  26.961  1.00  0.00     0.338 C 
ATOM     21  O   UNL A   1      32.720  32.157  27.234  1.00  0.00    -0.246 OA
BRANCH  20  22
ATOM     22  C   UNL A   1      34.706  30.907  27.603  1.00  0.00     0.060 A 
ATOM     23  C   UNL A   1      35.013  29.605  27.993  1.00  0.00     0.016 A 
ATOM     24  C   UNL A   1      35.587  31.950  27.891  1.00  0.00     0.016 A 
ATOM     25  C   UNL A   1      36.175  29.345  28.718  1.00  0.00     0.010 A 
ATOM     26  C   UNL A   1      36.787  31.675  28.556  1.00  0.00     0.010 A 
ATOM     27  C   UNL A   1      37.082  30.373  28.997  1.00  0.00    -0.014 A 
BRANCH  27  28
ATOM     28  C   UNL A   1      38.297  30.099  29.811  1.00  0.00     0.031 A 
ATOM     29  C   UNL A   1      39.390  29.240  29.240  1.00  0.00     0.074 A 
ATOM     30  C   UNL A   1      38.447  30.635  31.037  1.00  0.00     0.049 A 
ATOM     31  N   UNL A   1      40.442  28.730  29.829  1.00  0.00    -0.248 NA
ATOM     32  C   UNL A   1      39.285  28.913  27.810  1.00  0.00     0.031 C 
ATOM     33  C   UNL A   1      37.517  31.563  31.679  1.00  0.00     0.029 A 
ATOM     34  N   UNL A   1      39.452  30.476  31.961  1.00  0.00    -0.354 N 
ATOM     35  C   UNL A   1      41.094  27.984  28.858  1.00  0.00     0.074 A 
ATOM     36  C   UNL A   1      40.325  28.109  27.638  1.00  0.00     0.031 C 
ATOM     37  C   UNL A   1      38.002  31.907  32.884  1.00  0.00     0.029 A 
ATOM     38  C   UNL A   1      39.238  31.168  33.128  1.00  0.00     0.049 A 
ATOM     39  H   UNL A   1      40.248  29.921  31.802  1.00  0.00     0.167 HD
ATOM     40  C   UNL A   1      42.229  27.256  28.976  1.00  0.00     0.037 A 
ATOM     41  C   UNL A   1      39.937  31.177  34.279  1.00  0.00     0.037 A 
ATOM     42  C   UNL A   1      43.021  27.169  30.174  1.00  0.00     0.049 A 
ATOM     43  C   UNL A   1      41.159  30.308  34.408  1.00  0.00     0.074 A 
ATOM     44  C   UNL A   1      44.183  26.449  30.392  1.00  0.00     0.029 A 
ATOM     45  N   UNL A   1      42.739  27.841  31.353  1.00  0.00    -0.354 N 
ATOM     46  N   UNL A   1      41.727  29.541  33.511  1.00  0.00    -0.248 NA
ATOM     47  C   UNL A   1      41.822  30.289  35.721  1.00  0.00     0.031 C 
ATOM     48  C   UNL A   1      44.589  26.664  31.714  1.00  0.00     0.029 A 
ATOM     49  C   UNL A   1      43.698  27.543  32.308  1.00  0.00     0.049 A 
ATOM     50  H   UNL A   1      41.971  28.441  31.492  1.00  0.00     0.167 HD
ATOM     51  C   UNL A   1      42.817  28.958  34.142  1.00  0.00     0.074 A 
ATOM     52  C   UNL A   1      42.843  29.474  35.496  1.00  0.00     0.031 C 
ATOM     53  C   UNL A   1      43.713  28.070  33.647  1.00  0.00     0.037 A 
BRANCH  40  54
ATOM     54  C   UNL A   1      42.659  26.455  27.785  1.00  0.00     0.064 A 
ATOM     55  C   UNL A   1      42.188  25.155  27.557  1.00  0.00     0.173 A 
ATOM     56  C   UNL A   1      43.541  27.013  26.848  1.00  0.00     0.173 A 
ATOM     57  F   UNL A   1      41.358  24.573  28.435  1.00  0.00    -0.203 F 
ATOM     58  C   UNL A   1      42.604  24.432  26.441  1.00  0.00     0.198 A 
ATOM     59  C   UNL A   1      43.936  26.296  25.722  1.00  0.00     0.198 A 
ATOM     60  F   UNL A   1      44.017  28.255  27.022  1.00  0.00    -0.203 F 
ATOM     61  F   UNL A   1      42.175  23.175  26.260  1.00  0.00    -0.200 F 
ATOM     62  C   UNL A   1      43.472  25.006  25.522  1.00  0.00     0.200 A 
ATOM     63  F   UNL A   1      44.769  26.854  24.832  1.00  0.00    -0.200 F 
ATOM     64  F   UNL A   1      43.868  24.309  24.447  1.00  0.00    -0.200 F 
ENDBRANCH  40  54
BRANCH  41  65
ATOM     65  C   UNL A   1      39.474  32.003  35.423  1.00  0.00     0.064 A 
ATOM     66  C   UNL A   1      39.986  33.289  35.638  1.00  0.00     0.173 A 
ATOM     67  C   UNL A   1      38.523  31.517  36.335  1.00  0.00     0.173 A 
ATOM     68  F   UNL A   1      40.921  33.784  34.813  1.00  0.00    -0.203 F 
ATOM     69  C   UNL A   1      39.573  34.055  36.725  1.00  0.00     0.198 A 
ATOM     70  C   UNL A   1      38.091  32.295  37.406  1.00  0.00     0.198 A 
ATOM     71  F   UNL A   1      38.011  30.288  36.180  1.00  0.00    -0.203 F 
ATOM     72  F   UNL A   1      40.110  35.266  36.933  1.00  0.00    -0.200 F 
ATOM     73  C   UNL A   1      38.621  33.560  37.604  1.00  0.00     0.200 A 
ATOM     74  F   UNL A   1      37.167  31.815  38.250  1.00  0.00    -0.200 F 
ATOM     75  F   UNL A   1      38.223  34.299  38.650  1.00  0.00    -0.200 F 
ENDBRANCH  41  65
BRANCH  53  76
ATOM     76  C   UNL A   1      44.808  27.618  34.564  1.00  0.00     0.064 A 
ATOM     77  C   UNL A   1      44.672  26.468  35.354  1.00  0.00     0.173 A 
ATOM     78  C   UNL A   1      46.020  28.321  34.624  1.00  0.00     0.173 A 
ATOM     79  F   UNL A   1      43.525  25.773  35.342  1.00  0.00    -0.203 F 
ATOM     80  C   UNL A   1      45.706  26.046  36.184  1.00  0.00     0.198 A 
ATOM     81  C   UNL A   1      47.060  27.884  35.440  1.00  0.00     0.198 A 
ATOM     82  F   UNL A   1      46.199  29.425  33.885  1.00  0.00    -0.203 F 
ATOM     83  F   UNL A   1      45.543  24.964  36.958  1.00  0.00    -0.200 F 
ATOM     84  C   UNL A   1      46.901  26.751  36.223  1.00  0.00     0.200 A 
ATOM     85  F   UNL A   1      48.217  28.561  35.470  1.00  0.00    -0.200 F 
ATOM     86  F   UNL A   1      47.896  26.340  37.020  1.00  0.00    -0.200 F 
ENDBRANCH  53  76
ENDBRANCH  27  28
ENDBRANCH  20  22
ENDBRANCH  19  20
ENDBRANCH  18  19
ENDBRANCH   1  18
TORSDOF 14
ENDMDL
MODEL 3
REMARK VINA RESULT:     -10.3      6.232     10.007
REMARK SMILES C[C@@H](C(=O)OCCOC(=O)c1ccc(-c2c3nc(c(-c4c(F)c(F)c(F)c(F)c4F)c4ccc([nH]4)c(-c4c(F)c(F)c(F)c(F)c4F)c4nc(c(-c5c(F)c(F)c(F)c(F)c5F)c5ccc2[nH]5)C=C4)C=C3)cc1)[C@@H](C)C(=O)c1ccc(Br)cc1
REMARK SMILES IDX 6 1 5 2 3 3 4 4 2 5 1 6 74 7 75 8 76 9 77 10 78 11 79 12
REMARK SMILES IDX 84 13 80 14 83 15 81 16 82 17 7 18 8 19 9 20 10 21 11 22
REMARK SMILES IDX 12 23 73 24 13 25 72 26 14 27 15 28 16 29 66 30 17 31 71 32
REMARK SMILES IDX 65 33 67 34 18 35 70 36 64 37 63 38 19 40 51 41 31 42 50 43
REMARK SMILES IDX 32 44 35 45 49 46 68 47 33 48 34 49 48 51 69 52 36 53 20 54
REMARK SMILES IDX 21 55 29 56 22 57 23 58 27 59 30 60 24 61 25 62 28 63 26 64
REMARK SMILES IDX 52 65 53 66 61 67 54 68 55 69 59 70 62 71 56 72 57 73 60 74
REMARK SMILES IDX 58 75 37 76 38 77 46 78 39 79 40 80 44 81 47 82 41 83 42 84
REMARK SMILES IDX 45 85 43 86
REMARK H PARENT 67 39 35 50
REMARK Flexibility Score: inf
ROOT
ATOM      1  C   UNL A   1      35.905  20.629  25.102  1.00  0.00     0.274 C 
ENDROOT
BRANCH   1   2
ATOM      2  O   UNL A   1      35.570  21.701  26.009  1.00  0.00    -0.462 OA
BRANCH   2   3
ATOM      3  C   UNL A   1      34.458  22.429  25.715  1.00  0.00     0.309 C 
ATOM      4  O   UNL A   1      33.713  22.909  26.556  1.00  0.00    -0.252 OA
BRANCH   3   5
ATOM      5  C   UNL A   1      34.189  22.481  24.205  1.00  0.00     0.106 C 
ATOM      6  C   UNL A   1      34.682  23.807  23.600  1.00  0.00     0.021 C 
BRANCH   5   7
ATOM      7  C   UNL A   1      32.700  22.244  23.835  1.00  0.00     0.072 C 
ATOM      8  C   UNL A   1      32.066  23.414  23.077  1.00  0.00     0.017 C 
BRANCH   7   9
ATOM      9  C   UNL A   1      32.289  20.935  23.142  1.00  0.00     0.166 C 
ATOM     10  O   UNL A   1      31.887  20.965  21.976  1.00  0.00    -0.294 OA
BRANCH   9  11
ATOM     11  C   UNL A   1      32.497  19.592  23.763  1.00  0.00     0.018 A 
ATOM     12  C   UNL A   1      32.643  18.499  22.893  1.00  0.00     0.013 A 
ATOM     13  C   UNL A   1      32.502  19.367  25.141  1.00  0.00     0.013 A 
ATOM     14  C   UNL A   1      32.797  17.204  23.392  1.00  0.00     0.016 A 
ATOM     15  C   UNL A   1      32.646  18.067  25.643  1.00  0.00     0.016 A 
ATOM     16  C   UNL A   1      32.794  16.994  24.768  1.00  0.00     0.018 A 
ATOM     17  Br  UNL A   1      32.972  15.243  25.453  1.00  0.00    -0.051 Br
ENDBRANCH   9  11
ENDBRANCH   7   9
ENDBRANCH   5   7
ENDBRANCH   3   5
ENDBRANCH   2   3
ENDBRANCH   1   2
BRANCH   1  18
ATOM     18  C   UNL A   1      37.408  20.629  24.839  1.00  0.00     0.275 C 
BRANCH  18  19
ATOM     19  O   UNL A   1      38.004  21.679  25.618  1.00  0.00    -0.458 OA
BRANCH  19  20
ATOM     20  C   UNL A   1      39.171  21.379  26.229  1.00  0.00     0.338 C 
ATOM     21  O   UNL A   1      39.669  20.277  26.388  1.00  0.00    -0.246 OA
BRANCH  20  22
ATOM     22  C   UNL A   1      39.797  22.629  26.691  1.00  0.00     0.060 A 
ATOM     23  C   UNL A   1      39.373  23.848  26.166  1.00  0.00     0.016 A 
ATOM     24  C   UNL A   1      40.863  22.587  27.591  1.00  0.00     0.016 A 
ATOM     25  C   UNL A   1      40.043  25.025  26.495  1.00  0.00     0.010 A 
ATOM     26  C   UNL A   1      41.488  23.779  27.975  1.00  0.00     0.010 A 
ATOM     27  C   UNL A   1      41.100  25.007  27.412  1.00  0.00    -0.014 A 
BRANCH  27  28
ATOM     28  C   UNL A   1      41.841  26.259  27.724  1.00  0.00     0.031 A 
ATOM     29  C   UNL A   1      41.187  27.313  28.572  1.00  0.00     0.074 A 
ATOM     30  C   UNL A   1      43.100  26.447  27.286  1.00  0.00     0.049 A 
ATOM     31  N   UNL A   1      41.571  28.540  28.819  1.00  0.00    -0.248 NA
ATOM     32  C   UNL A   1      39.930  26.933  29.235  1.00  0.00     0.031 C 
ATOM     33  C   UNL A   1      43.896  25.474  26.538  1.00  0.00     0.029 A 
ATOM     34  N   UNL A   1      43.936  27.530  27.418  1.00  0.00    -0.354 N 
ATOM     35  C   UNL A   1      40.582  29.092  29.621  1.00  0.00     0.074 A 
ATOM     36  C   UNL A   1      39.581  28.066  29.825  1.00  0.00     0.031 C 
ATOM     37  C   UNL A   1      45.109  25.995  26.292  1.00  0.00     0.029 A 
ATOM     38  C   UNL A   1      45.152  27.364  26.802  1.00  0.00     0.049 A 
ATOM     39  H   UNL A   1      43.687  28.348  27.906  1.00  0.00     0.167 HD
ATOM     40  C   UNL A   1      40.513  30.342  30.134  1.00  0.00     0.037 A 
ATOM     41  C   UNL A   1      46.171  28.227  26.632  1.00  0.00     0.037 A 
ATOM     42  C   UNL A   1      41.531  31.347  29.972  1.00  0.00     0.049 A 
ATOM     43  C   UNL A   1      46.044  29.632  27.155  1.00  0.00     0.074 A 
ATOM     44  C   UNL A   1      41.547  32.646  30.449  1.00  0.00     0.029 A 
ATOM     45  N   UNL A   1      42.723  31.155  29.292  1.00  0.00    -0.354 N 
ATOM     46  N   UNL A   1      45.071  30.173  27.844  1.00  0.00    -0.248 NA
ATOM     47  C   UNL A   1      47.150  30.553  26.853  1.00  0.00     0.031 C 
ATOM     48  C   UNL A   1      42.738  33.250  30.033  1.00  0.00     0.029 A 
ATOM     49  C   UNL A   1      43.478  32.316  29.325  1.00  0.00     0.049 A 
ATOM     50  H   UNL A   1      42.994  30.317  28.851  1.00  0.00     0.167 HD
ATOM     51  C   UNL A   1      45.448  31.490  28.069  1.00  0.00     0.074 A 
ATOM     52  C   UNL A   1      46.750  31.663  27.458  1.00  0.00     0.031 C 
ATOM     53  C   UNL A   1      44.774  32.470  28.718  1.00  0.00     0.037 A 
BRANCH  40  54
ATOM     54  C   UNL A   1      39.271  30.709  30.886  1.00  0.00     0.064 A 
ATOM     55  C   UNL A   1      38.155  31.266  30.247  1.00  0.00     0.173 A 
ATOM     56  C   UNL A   1      39.194  30.476  32.267  1.00  0.00     0.173 A 
ATOM     57  F   UNL A   1      38.189  31.524  28.931  1.00  0.00    -0.203 F 
ATOM     58  C   UNL A   1      37.011  31.598  30.969  1.00  0.00     0.198 A 
ATOM     59  C   UNL A   1      38.041  30.788  32.982  1.00  0.00     0.198 A 
ATOM     60  F   UNL A   1      40.235  29.943  32.923  1.00  0.00    -0.203 F 
ATOM     61  F   UNL A   1      35.969  32.168  30.348  1.00  0.00    -0.200 F 
ATOM     62  C   UNL A   1      36.954  31.354  32.335  1.00  0.00     0.200 A 
ATOM     63  F   UNL A   1      37.984  30.545  34.299  1.00  0.00    -0.200 F 
ATOM     64  F   UNL A   1      35.850  31.671  33.027  1.00  0.00    -0.200 F 
ENDBRANCH  40  54
BRANCH  41  65
ATOM     65  C   UNL A   1      47.388  27.804  25.892  1.00  0.00     0.064 A 
ATOM     66  C   UNL A   1      48.555  27.436  26.575  1.00  0.00     0.173 A 
ATOM     67  C   UNL A   1      47.415  27.776  24.489  1.00  0.00     0.173 A 
ATOM     68  F   UNL A   1      48.589  27.478  27.914  1.00  0.00    -0.203 F 
ATOM     69  C   UNL A   1      49.705  27.064  25.882  1.00  0.00     0.198 A 
ATOM     70  C   UNL A   1      48.557  27.378  23.799  1.00  0.00     0.198 A 
ATOM     71  F   UNL A   1      46.327  28.130  23.790  1.00  0.00    -0.203 F 
ATOM     72  F   UNL A   1      50.822  26.757  26.558  1.00  0.00    -0.200 F 
ATOM     73  C   UNL A   1      49.703  27.029  24.496  1.00  0.00     0.200 A 
ATOM     74  F   UNL A   1      48.549  27.341  22.460  1.00  0.00    -0.200 F 
ATOM     75  F   UNL A   1      50.810  26.670  23.831  1.00  0.00    -0.200 F 
ENDBRANCH  41  65
BRANCH  53  76
ATOM     76  C   UNL A   1      45.441  33.808  28.822  1.00  0.00     0.064 A 
ATOM     77  C   UNL A   1      45.219  34.810  27.868  1.00  0.00     0.173 A 
ATOM     78  C   UNL A   1      46.279  34.102  29.907  1.00  0.00     0.173 A 
ATOM     79  F   UNL A   1      44.438  34.569  26.804  1.00  0.00    -0.203 F 
ATOM     80  C   UNL A   1      45.826  36.057  27.987  1.00  0.00     0.198 A 
ATOM     81  C   UNL A   1      46.868  35.357  30.035  1.00  0.00     0.198 A 
ATOM     82  F   UNL A   1      46.518  33.177  30.847  1.00  0.00    -0.203 F 
ATOM     83  F   UNL A   1      45.629  36.990  27.045  1.00  0.00    -0.200 F 
ATOM     84  C   UNL A   1      46.645  36.332  29.073  1.00  0.00     0.200 A 
ATOM     85  F   UNL A   1      47.652  35.624  31.088  1.00  0.00    -0.200 F 
ATOM     86  F   UNL A   1      47.225  37.533  29.189  1.00  0.00    -0.200 F 
ENDBRANCH  53  76
ENDBRANCH  27  28
ENDBRANCH  20  22
ENDBRANCH  19  20
ENDBRANCH  18  19
ENDBRANCH   1  18
TORSDOF 14
ENDMDL
