MODEL 1
REMARK VINA RESULT:     -13.2      0.000      0.000
REMARK SMILES C[C@H](NC(=O)CCN1C(=O)/C(=C/c2ccc([N+](=O)[O-])cc2)SC1=S)C(=O)OCCOC(=O)c1ccc(-c2c3nc(c(-c4c(F)c(F)c(F)c(F)c4F)c4ccc([nH]4)c(-c4c(F)c(F)c(F)c(F)c4F)c4nc(c(-c5c(F)c(F)c(F)c(F)c5F)c5ccc2[nH]5)C=C4)C=C3)cc1
REMARK SMILES IDX 25 1 26 2 2 3 1 4 3 5 4 6 5 8 6 9 7 10 8 11 9 12 23 13 10 14
REMARK SMILES IDX 11 15 22 16 24 17 12 18 13 19 14 20 21 21 15 22 20 23 16 24
REMARK SMILES IDX 17 25 18 26 19 27 27 28 28 29 29 30 30 31 31 32 32 33 33 34
REMARK SMILES IDX 34 35 95 36 35 37 94 38 36 39 37 40 38 41 88 42 39 43 93 44
REMARK SMILES IDX 87 45 89 46 40 47 92 48 86 49 85 50 41 52 73 53 53 54 72 55
REMARK SMILES IDX 54 56 57 57 71 58 90 59 55 60 56 61 70 63 91 64 58 65 42 66
REMARK SMILES IDX 43 67 51 68 44 69 45 70 49 71 52 72 46 73 47 74 50 75 48 76
REMARK SMILES IDX 74 77 75 78 83 79 76 80 77 81 81 82 84 83 78 84 79 85 82 86
REMARK SMILES IDX 80 87 59 88 60 89 68 90 61 91 62 92 66 93 69 94 63 95 64 96
REMARK SMILES IDX 67 97 65 98
REMARK H PARENT 3 7 89 51 57 62
REMARK Flexibility Score: inf
ROOT
ATOM      1  C   UNL A   1      31.389  28.630  23.204  1.00  0.00     0.328 C 
ATOM      2  O   UNL A   1      32.220  29.314  22.625  1.00  0.00    -0.250 OA
ENDROOT
BRANCH   1   3
ATOM      3  C   UNL A   1      30.700  27.427  22.549  1.00  0.00     0.189 C 
ATOM      4  C   UNL A   1      29.690  26.711  23.448  1.00  0.00     0.043 C 
BRANCH   3   5
ATOM      5  N   UNL A   1      31.617  26.600  21.773  1.00  0.00    -0.343 N 
ATOM      6  C   UNL A   1      32.874  26.143  21.980  1.00  0.00     0.222 C 
ATOM      7  H   UNL A   1      31.239  26.311  20.911  1.00  0.00     0.164 HD
ATOM      8  O   UNL A   1      33.474  25.700  20.997  1.00  0.00    -0.275 OA
BRANCH   6   9
ATOM      9  C   UNL A   1      33.542  26.110  23.335  1.00  0.00     0.122 C 
BRANCH   9  10
ATOM     10  C   UNL A   1      32.868  25.196  24.360  1.00  0.00     0.137 C 
BRANCH  10  11
ATOM     11  N   UNL A   1      33.263  23.774  24.358  1.00  0.00    -0.292 N 
ATOM     12  C   UNL A   1      32.453  22.836  23.735  1.00  0.00     0.266 C 
ATOM     13  C   UNL A   1      34.502  23.309  24.763  1.00  0.00     0.148 C 
ATOM     14  O   UNL A   1      31.407  23.067  23.145  1.00  0.00    -0.268 OA
ATOM     15  C   UNL A   1      33.020  21.465  23.898  1.00  0.00     0.081 C 
ATOM     16  S   UNL A   1      34.639  21.577  24.447  1.00  0.00    -0.054 SA
ATOM     17  S   UNL A   1      35.754  24.167  25.456  1.00  0.00    -0.052 S 
ATOM     18  C   UNL A   1      32.264  20.366  23.746  1.00  0.00     0.029 C 
BRANCH  18  19
ATOM     19  C   UNL A   1      32.620  18.989  24.123  1.00  0.00    -0.024 A 
ATOM     20  C   UNL A   1      32.532  18.557  25.450  1.00  0.00     0.015 A 
ATOM     21  C   UNL A   1      33.145  18.114  23.159  1.00  0.00     0.015 A 
ATOM     22  C   UNL A   1      32.966  17.272  25.806  1.00  0.00     0.086 A 
ATOM     23  C   UNL A   1      33.578  16.831  23.498  1.00  0.00     0.086 A 
ATOM     24  C   UNL A   1      33.493  16.416  24.828  1.00  0.00     0.269 A 
BRANCH  24  25
ATOM     25  N   UNL A   1      33.985  15.083  25.199  1.00  0.00     0.062 N 
ATOM     26  O   UNL A   1      35.209  14.897  25.173  1.00  0.00    -0.258 OA
ATOM     27  O   UNL A   1      33.147  14.222  25.502  1.00  0.00    -0.258 OA
ENDBRANCH  24  25
ENDBRANCH  18  19
ENDBRANCH  10  11
ENDBRANCH   9  10
ENDBRANCH   6   9
ENDBRANCH   3   5
ENDBRANCH   1   3
BRANCH   1  28
ATOM     28  O   UNL A   1      31.130  28.732  24.536  1.00  0.00    -0.461 OA
BRANCH  28  29
ATOM     29  C   UNL A   1      31.356  30.034  25.121  1.00  0.00     0.274 C 
BRANCH  29  30
ATOM     30  C   UNL A   1      32.745  30.167  25.764  1.00  0.00     0.275 C 
BRANCH  30  31
ATOM     31  O   UNL A   1      32.686  30.629  27.130  1.00  0.00    -0.458 OA
BRANCH  31  32
ATOM     32  C   UNL A   1      33.413  31.735  27.391  1.00  0.00     0.338 C 
ATOM     33  O   UNL A   1      33.015  32.894  27.424  1.00  0.00    -0.246 OA
BRANCH  32  34
ATOM     34  C   UNL A   1      34.768  31.374  27.827  1.00  0.00     0.060 A 
ATOM     35  C   UNL A   1      34.950  30.087  28.332  1.00  0.00     0.016 A 
ATOM     36  C   UNL A   1      35.797  32.306  27.908  1.00  0.00     0.016 A 
ATOM     37  C   UNL A   1      36.135  29.712  28.944  1.00  0.00     0.010 A 
ATOM     38  C   UNL A   1      37.002  31.934  28.520  1.00  0.00     0.010 A 
ATOM     39  C   UNL A   1      37.163  30.645  29.065  1.00  0.00    -0.014 A 
BRANCH  39  40
ATOM     40  C   UNL A   1      38.353  30.298  29.872  1.00  0.00     0.031 A 
ATOM     41  C   UNL A   1      39.380  29.370  29.293  1.00  0.00     0.074 A 
ATOM     42  C   UNL A   1      38.540  30.854  31.081  1.00  0.00     0.049 A 
ATOM     43  N   UNL A   1      40.413  28.812  29.869  1.00  0.00    -0.248 NA
ATOM     44  C   UNL A   1      39.224  29.029  27.871  1.00  0.00     0.031 C 
ATOM     45  C   UNL A   1      37.668  31.854  31.697  1.00  0.00     0.029 A 
ATOM     46  N   UNL A   1      39.526  30.648  32.012  1.00  0.00    -0.354 N 
ATOM     47  C   UNL A   1      41.006  28.023  28.892  1.00  0.00     0.074 A 
ATOM     48  C   UNL A   1      40.222  28.178  27.686  1.00  0.00     0.031 C 
ATOM     49  C   UNL A   1      38.148  32.161  32.913  1.00  0.00     0.029 A 
ATOM     50  C   UNL A   1      39.323  31.337  33.181  1.00  0.00     0.049 A 
ATOM     51  H   UNL A   1      40.304  30.064  31.855  1.00  0.00     0.167 HD
ATOM     52  C   UNL A   1      42.101  27.235  29.003  1.00  0.00     0.037 A 
ATOM     53  C   UNL A   1      39.986  31.268  34.351  1.00  0.00     0.037 A 
ATOM     54  C   UNL A   1      42.882  27.107  30.204  1.00  0.00     0.049 A 
ATOM     55  C   UNL A   1      41.150  30.322  34.476  1.00  0.00     0.074 A 
ATOM     56  C   UNL A   1      44.001  26.326  30.431  1.00  0.00     0.029 A 
ATOM     57  N   UNL A   1      42.622  27.790  31.384  1.00  0.00    -0.354 N 
ATOM     58  N   UNL A   1      41.675  29.533  33.571  1.00  0.00    -0.248 NA
ATOM     59  C   UNL A   1      41.805  30.250  35.789  1.00  0.00     0.031 C 
ATOM     60  C   UNL A   1      44.396  26.509  31.762  1.00  0.00     0.029 A 
ATOM     61  C   UNL A   1      43.550  27.437  32.349  1.00  0.00     0.049 A 
ATOM     62  H   UNL A   1      41.887  28.431  31.516  1.00  0.00     0.167 HD
ATOM     63  C   UNL A   1      42.733  28.884  34.195  1.00  0.00     0.074 A 
ATOM     64  C   UNL A   1      42.782  29.383  35.554  1.00  0.00     0.031 C 
ATOM     65  C   UNL A   1      43.584  27.957  33.692  1.00  0.00     0.037 A 
BRANCH  52  66
ATOM     66  C   UNL A   1      42.483  26.412  27.808  1.00  0.00     0.064 A 
ATOM     67  C   UNL A   1      43.452  26.840  26.890  1.00  0.00     0.173 A 
ATOM     68  C   UNL A   1      41.871  25.169  27.587  1.00  0.00     0.173 A 
ATOM     69  F   UNL A   1      44.050  28.030  27.046  1.00  0.00    -0.203 F 
ATOM     70  C   UNL A   1      43.779  26.062  25.782  1.00  0.00     0.198 A 
ATOM     71  C   UNL A   1      42.217  24.383  26.492  1.00  0.00     0.198 A 
ATOM     72  F   UNL A   1      40.935  24.715  28.435  1.00  0.00    -0.203 F 
ATOM     73  F   UNL A   1      44.674  26.511  24.891  1.00  0.00    -0.200 F 
ATOM     74  C   UNL A   1      43.166  24.834  25.586  1.00  0.00     0.200 A 
ATOM     75  F   UNL A   1      41.629  23.193  26.308  1.00  0.00    -0.200 F 
ATOM     76  F   UNL A   1      43.481  24.087  24.518  1.00  0.00    -0.200 F 
ENDBRANCH  52  66
BRANCH  53  77
ATOM     77  C   UNL A   1      39.531  32.082  35.507  1.00  0.00     0.064 A 
ATOM     78  C   UNL A   1      40.010  33.383  35.709  1.00  0.00     0.173 A 
ATOM     79  C   UNL A   1      38.609  31.573  36.436  1.00  0.00     0.173 A 
ATOM     80  F   UNL A   1      40.910  33.902  34.862  1.00  0.00    -0.203 F 
ATOM     81  C   UNL A   1      39.592  34.141  36.801  1.00  0.00     0.198 A 
ATOM     82  C   UNL A   1      38.173  32.342  37.512  1.00  0.00     0.198 A 
ATOM     83  F   UNL A   1      38.125  30.332  36.289  1.00  0.00    -0.203 F 
ATOM     84  F   UNL A   1      40.094  35.369  36.991  1.00  0.00    -0.200 F 
ATOM     85  C   UNL A   1      38.668  33.623  37.697  1.00  0.00     0.200 A 
ATOM     86  F   UNL A   1      37.274  31.841  38.370  1.00  0.00    -0.200 F 
ATOM     87  F   UNL A   1      38.263  34.357  38.742  1.00  0.00    -0.200 F 
ENDBRANCH  53  77
BRANCH  65  88
ATOM     88  C   UNL A   1      44.662  27.453  34.604  1.00  0.00     0.064 A 
ATOM     89  C   UNL A   1      44.488  26.297  35.378  1.00  0.00     0.173 A 
ATOM     90  C   UNL A   1      45.899  28.111  34.668  1.00  0.00     0.173 A 
ATOM     91  F   UNL A   1      43.317  25.643  35.361  1.00  0.00    -0.203 F 
ATOM     92  C   UNL A   1      45.510  25.830  36.201  1.00  0.00     0.198 A 
ATOM     93  C   UNL A   1      46.926  27.627  35.473  1.00  0.00     0.198 A 
ATOM     94  F   UNL A   1      46.115  29.219  33.942  1.00  0.00    -0.203 F 
ATOM     95  F   UNL A   1      45.309  24.746  36.964  1.00  0.00    -0.200 F 
ATOM     96  C   UNL A   1      46.728  26.491  36.243  1.00  0.00     0.200 A 
ATOM     97  F   UNL A   1      48.107  28.260  35.503  1.00  0.00    -0.200 F 
ATOM     98  F   UNL A   1      47.712  26.035  37.030  1.00  0.00    -0.200 F 
ENDBRANCH  65  88
ENDBRANCH  39  40
ENDBRANCH  32  34
ENDBRANCH  31  32
ENDBRANCH  30  31
ENDBRANCH  29  30
ENDBRANCH  28  29
ENDBRANCH   1  28
TORSDOF 17
ENDMDL
MODEL 2
REMARK VINA RESULT:     -12.5      2.343      7.354
REMARK SMILES C[C@H](NC(=O)CCN1C(=O)/C(=C/c2ccc([N+](=O)[O-])cc2)SC1=S)C(=O)OCCOC(=O)c1ccc(-c2c3nc(c(-c4c(F)c(F)c(F)c(F)c4F)c4ccc([nH]4)c(-c4c(F)c(F)c(F)c(F)c4F)c4nc(c(-c5c(F)c(F)c(F)c(F)c5F)c5ccc2[nH]5)C=C4)C=C3)cc1
REMARK SMILES IDX 25 1 26 2 2 3 1 4 3 5 4 6 5 8 6 9 7 10 8 11 9 12 23 13 10 14
REMARK SMILES IDX 11 15 22 16 24 17 12 18 13 19 14 20 21 21 15 22 20 23 16 24
REMARK SMILES IDX 17 25 18 26 19 27 27 28 28 29 29 30 30 31 31 32 32 33 33 34
REMARK SMILES IDX 34 35 95 36 35 37 94 38 36 39 37 40 38 41 88 42 39 43 93 44
REMARK SMILES IDX 87 45 89 46 40 47 92 48 86 49 85 50 41 52 73 53 53 54 72 55
REMARK SMILES IDX 54 56 57 57 71 58 90 59 55 60 56 61 70 63 91 64 58 65 42 66
REMARK SMILES IDX 43 67 51 68 44 69 45 70 49 71 52 72 46 73 47 74 50 75 48 76
REMARK SMILES IDX 74 77 75 78 83 79 76 80 77 81 81 82 84 83 78 84 79 85 82 86
REMARK SMILES IDX 80 87 59 88 60 89 68 90 61 91 62 92 66 93 69 94 63 95 64 96
REMARK SMILES IDX 67 97 65 98
REMARK H PARENT 3 7 89 51 57 62
REMARK Flexibility Score: inf
ROOT
ATOM      1  C   UNL A   1      31.457  28.751  23.372  1.00  0.00     0.328 C 
ATOM      2  O   UNL A   1      32.274  29.438  22.777  1.00  0.00    -0.250 OA
ENDROOT
BRANCH   1   3
ATOM      3  C   UNL A   1      30.654  27.636  22.690  1.00  0.00     0.189 C 
ATOM      4  C   UNL A   1      29.624  26.957  23.594  1.00  0.00     0.043 C 
BRANCH   3   5
ATOM      5  N   UNL A   1      31.476  26.781  21.842  1.00  0.00    -0.343 N 
ATOM      6  C   UNL A   1      32.717  26.254  21.962  1.00  0.00     0.222 C 
ATOM      7  H   UNL A   1      31.031  26.533  20.999  1.00  0.00     0.164 HD
ATOM      8  O   UNL A   1      33.231  25.803  20.935  1.00  0.00    -0.275 OA
BRANCH   6   9
ATOM      9  C   UNL A   1      33.463  26.154  23.272  1.00  0.00     0.122 C 
BRANCH   9  10
ATOM     10  C   UNL A   1      32.808  25.249  24.315  1.00  0.00     0.137 C 
BRANCH  10  11
ATOM     11  N   UNL A   1      33.213  23.830  24.328  1.00  0.00    -0.292 N 
ATOM     12  C   UNL A   1      32.426  22.883  23.689  1.00  0.00     0.266 C 
ATOM     13  C   UNL A   1      34.446  23.375  24.763  1.00  0.00     0.148 C 
ATOM     14  O   UNL A   1      31.392  23.105  23.074  1.00  0.00    -0.268 OA
ATOM     15  C   UNL A   1      32.999  21.517  23.870  1.00  0.00     0.081 C 
ATOM     16  S   UNL A   1      34.604  21.644  24.457  1.00  0.00    -0.054 SA
ATOM     17  S   UNL A   1      35.675  24.245  25.483  1.00  0.00    -0.052 S 
ATOM     18  C   UNL A   1      32.256  20.412  23.704  1.00  0.00     0.029 C 
BRANCH  18  19
ATOM     19  C   UNL A   1      32.613  19.039  24.093  1.00  0.00    -0.024 A 
ATOM     20  C   UNL A   1      32.627  18.649  25.435  1.00  0.00     0.015 A 
ATOM     21  C   UNL A   1      33.037  18.124  23.117  1.00  0.00     0.015 A 
ATOM     22  C   UNL A   1      33.062  17.365  25.795  1.00  0.00     0.086 A 
ATOM     23  C   UNL A   1      33.470  16.841  23.460  1.00  0.00     0.086 A 
ATOM     24  C   UNL A   1      33.488  16.468  24.804  1.00  0.00     0.269 A 
BRANCH  24  25
ATOM     25  N   UNL A   1      33.982  15.136  25.176  1.00  0.00     0.062 N 
ATOM     26  O   UNL A   1      35.208  14.980  25.250  1.00  0.00    -0.258 OA
ATOM     27  O   UNL A   1      33.144  14.245  25.378  1.00  0.00    -0.258 OA
ENDBRANCH  24  25
ENDBRANCH  18  19
ENDBRANCH  10  11
ENDBRANCH   9  10
ENDBRANCH   6   9
ENDBRANCH   3   5
ENDBRANCH   1   3
BRANCH   1  28
ATOM     28  O   UNL A   1      31.311  28.761  24.725  1.00  0.00    -0.461 OA
BRANCH  28  29
ATOM     29  C   UNL A   1      31.884  29.898  25.409  1.00  0.00     0.274 C 
BRANCH  29  30
ATOM     30  C   UNL A   1      33.280  29.609  25.982  1.00  0.00     0.275 C 
BRANCH  30  31
ATOM     31  O   UNL A   1      33.392  29.948  27.380  1.00  0.00    -0.458 OA
BRANCH  31  32
ATOM     32  C   UNL A   1      34.358  30.842  27.675  1.00  0.00     0.338 C 
ATOM     33  O   UNL A   1      34.223  32.047  27.860  1.00  0.00    -0.246 OA
BRANCH  32  34
ATOM     34  C   UNL A   1      35.631  30.161  27.941  1.00  0.00     0.060 A 
ATOM     35  C   UNL A   1      35.835  29.680  29.234  1.00  0.00     0.016 A 
ATOM     36  C   UNL A   1      36.670  30.138  27.017  1.00  0.00     0.016 A 
ATOM     37  C   UNL A   1      37.069  29.198  29.639  1.00  0.00     0.010 A 
ATOM     38  C   UNL A   1      37.921  29.645  27.416  1.00  0.00     0.010 A 
ATOM     39  C   UNL A   1      38.131  29.200  28.735  1.00  0.00    -0.014 A 
BRANCH  39  40
ATOM     40  C   UNL A   1      39.484  28.852  29.220  1.00  0.00     0.031 A 
ATOM     41  C   UNL A   1      40.179  29.783  30.170  1.00  0.00     0.074 A 
ATOM     42  C   UNL A   1      40.056  27.690  28.862  1.00  0.00     0.049 A 
ATOM     43  N   UNL A   1      41.413  29.759  30.601  1.00  0.00    -0.248 NA
ATOM     44  C   UNL A   1      39.371  30.887  30.711  1.00  0.00     0.031 C 
ATOM     45  C   UNL A   1      39.430  26.658  28.037  1.00  0.00     0.029 A 
ATOM     46  N   UNL A   1      41.300  27.187  29.145  1.00  0.00    -0.354 N 
ATOM     47  C   UNL A   1      41.541  30.865  31.431  1.00  0.00     0.074 A 
ATOM     48  C   UNL A   1      40.260  31.537  31.448  1.00  0.00     0.031 C 
ATOM     49  C   UNL A   1      40.302  25.650  27.864  1.00  0.00     0.029 A 
ATOM     50  C   UNL A   1      41.562  25.996  28.516  1.00  0.00     0.049 A 
ATOM     51  H   UNL A   1      41.942  27.636  29.743  1.00  0.00     0.167 HD
ATOM     52  C   UNL A   1      42.638  31.283  32.107  1.00  0.00     0.037 A 
ATOM     53  C   UNL A   1      42.708  25.293  28.436  1.00  0.00     0.037 A 
ATOM     54  C   UNL A   1      43.900  30.593  32.096  1.00  0.00     0.049 A 
ATOM     55  C   UNL A   1      43.936  25.821  29.128  1.00  0.00     0.074 A 
ATOM     56  C   UNL A   1      45.080  30.936  32.732  1.00  0.00     0.029 A 
ATOM     57  N   UNL A   1      44.141  29.409  31.412  1.00  0.00    -0.354 N 
ATOM     58  N   UNL A   1      44.074  26.897  29.864  1.00  0.00    -0.248 NA
ATOM     59  C   UNL A   1      45.171  25.042  28.967  1.00  0.00     0.031 C 
ATOM     60  C   UNL A   1      46.046  29.977  32.402  1.00  0.00     0.029 A 
ATOM     61  C   UNL A   1      45.455  29.015  31.597  1.00  0.00     0.049 A 
ATOM     62  H   UNL A   1      43.476  28.922  30.874  1.00  0.00     0.167 HD
ATOM     63  C   UNL A   1      45.402  26.916  30.270  1.00  0.00     0.074 A 
ATOM     64  C   UNL A   1      46.025  25.735  29.708  1.00  0.00     0.031 C 
ATOM     65  C   UNL A   1      46.048  27.829  31.035  1.00  0.00     0.037 A 
BRANCH  52  66
ATOM     66  C   UNL A   1      42.530  32.571  32.868  1.00  0.00     0.064 A 
ATOM     67  C   UNL A   1      42.157  32.606  34.219  1.00  0.00     0.173 A 
ATOM     68  C   UNL A   1      42.816  33.789  32.233  1.00  0.00     0.173 A 
ATOM     69  F   UNL A   1      41.853  31.471  34.865  1.00  0.00    -0.203 F 
ATOM     70  C   UNL A   1      42.052  33.816  34.900  1.00  0.00     0.198 A 
ATOM     71  C   UNL A   1      42.734  34.995  32.923  1.00  0.00     0.198 A 
ATOM     72  F   UNL A   1      43.176  33.809  30.940  1.00  0.00    -0.203 F 
ATOM     73  F   UNL A   1      41.647  33.832  36.178  1.00  0.00    -0.200 F 
ATOM     74  C   UNL A   1      42.344  35.008  34.254  1.00  0.00     0.200 A 
ATOM     75  F   UNL A   1      43.024  36.145  32.299  1.00  0.00    -0.200 F 
ATOM     76  F   UNL A   1      42.242  36.172  34.911  1.00  0.00    -0.200 F 
ENDBRANCH  52  66
BRANCH  53  77
ATOM     77  C   UNL A   1      42.756  24.046  27.632  1.00  0.00     0.064 A 
ATOM     78  C   UNL A   1      43.079  24.075  26.270  1.00  0.00     0.173 A 
ATOM     79  C   UNL A   1      42.477  22.798  28.211  1.00  0.00     0.173 A 
ATOM     80  F   UNL A   1      43.329  25.247  25.667  1.00  0.00    -0.203 F 
ATOM     81  C   UNL A   1      43.112  22.905  25.513  1.00  0.00     0.198 A 
ATOM     82  C   UNL A   1      42.536  21.627  27.460  1.00  0.00     0.198 A 
ATOM     83  F   UNL A   1      42.159  22.717  29.511  1.00  0.00    -0.203 F 
ATOM     84  F   UNL A   1      43.387  22.966  24.204  1.00  0.00    -0.200 F 
ATOM     85  C   UNL A   1      42.848  21.681  26.110  1.00  0.00     0.200 A 
ATOM     86  F   UNL A   1      42.289  20.446  28.043  1.00  0.00    -0.200 F 
ATOM     87  F   UNL A   1      42.887  20.557  25.383  1.00  0.00    -0.200 F 
ENDBRANCH  53  77
BRANCH  65  88
ATOM     88  C   UNL A   1      47.492  27.565  31.340  1.00  0.00     0.064 A 
ATOM     89  C   UNL A   1      47.879  26.755  32.419  1.00  0.00     0.173 A 
ATOM     90  C   UNL A   1      48.497  28.094  30.518  1.00  0.00     0.173 A 
ATOM     91  F   UNL A   1      46.954  26.240  33.242  1.00  0.00    -0.203 F 
ATOM     92  C   UNL A   1      49.224  26.502  32.673  1.00  0.00     0.198 A 
ATOM     93  C   UNL A   1      49.840  27.818  30.761  1.00  0.00     0.198 A 
ATOM     94  F   UNL A   1      48.177  28.870  29.472  1.00  0.00    -0.203 F 
ATOM     95  F   UNL A   1      49.575  25.759  33.732  1.00  0.00    -0.200 F 
ATOM     96  C   UNL A   1      50.202  27.028  31.841  1.00  0.00     0.200 A 
ATOM     97  F   UNL A   1      50.782  28.317  29.949  1.00  0.00    -0.200 F 
ATOM     98  F   UNL A   1      51.496  26.776  32.084  1.00  0.00    -0.200 F 
ENDBRANCH  65  88
ENDBRANCH  39  40
ENDBRANCH  32  34
ENDBRANCH  31  32
ENDBRANCH  30  31
ENDBRANCH  29  30
ENDBRANCH  28  29
ENDBRANCH   1  28
TORSDOF 17
ENDMDL
MODEL 3
REMARK VINA RESULT:     -12.5      4.406     10.563
REMARK SMILES C[C@H](NC(=O)CCN1C(=O)/C(=C/c2ccc([N+](=O)[O-])cc2)SC1=S)C(=O)OCCOC(=O)c1ccc(-c2c3nc(c(-c4c(F)c(F)c(F)c(F)c4F)c4ccc([nH]4)c(-c4c(F)c(F)c(F)c(F)c4F)c4nc(c(-c5c(F)c(F)c(F)c(F)c5F)c5ccc2[nH]5)C=C4)C=C3)cc1
REMARK SMILES IDX 25 1 26 2 2 3 1 4 3 5 4 6 5 8 6 9 7 10 8 11 9 12 23 13 10 14
REMARK SMILES IDX 11 15 22 16 24 17 12 18 13 19 14 20 21 21 15 22 20 23 16 24
REMARK SMILES IDX 17 25 18 26 19 27 27 28 28 29 29 30 30 31 31 32 32 33 33 34
REMARK SMILES IDX 34 35 95 36 35 37 94 38 36 39 37 40 38 41 88 42 39 43 93 44
REMARK SMILES IDX 87 45 89 46 40 47 92 48 86 49 85 50 41 52 73 53 53 54 72 55
REMARK SMILES IDX 54 56 57 57 71 58 90 59 55 60 56 61 70 63 91 64 58 65 42 66
REMARK SMILES IDX 43 67 51 68 44 69 45 70 49 71 52 72 46 73 47 74 50 75 48 76
REMARK SMILES IDX 74 77 75 78 83 79 76 80 77 81 81 82 84 83 78 84 79 85 82 86
REMARK SMILES IDX 80 87 59 88 60 89 68 90 61 91 62 92 66 93 69 94 63 95 64 96
REMARK SMILES IDX 67 97 65 98
REMARK H PARENT 3 7 89 51 57 62
REMARK Flexibility Score: inf
ROOT
ATOM      1  C   UNL A   1      35.929  22.945  23.657  1.00  0.00     0.328 C 
ATOM      2  O   UNL A   1      35.846  22.989  22.439  1.00  0.00    -0.250 OA
ENDROOT
BRANCH   1   3
ATOM      3  C   UNL A   1      34.781  23.360  24.585  1.00  0.00     0.189 C 
ATOM      4  C   UNL A   1      35.220  24.156  25.815  1.00  0.00     0.043 C 
BRANCH   3   5
ATOM      5  N   UNL A   1      33.799  22.300  24.783  1.00  0.00    -0.343 N 
ATOM      6  C   UNL A   1      32.535  22.097  24.345  1.00  0.00     0.222 C 
ATOM      7  H   UNL A   1      34.128  21.574  25.361  1.00  0.00     0.164 HD
ATOM      8  O   UNL A   1      31.876  21.231  24.927  1.00  0.00    -0.275 OA
BRANCH   6   9
ATOM      9  C   UNL A   1      31.925  22.831  23.174  1.00  0.00     0.122 C 
BRANCH   9  10
ATOM     10  C   UNL A   1      31.089  24.055  23.549  1.00  0.00     0.137 C 
BRANCH  10  11
ATOM     11  N   UNL A   1      31.814  25.241  24.045  1.00  0.00    -0.292 N 
ATOM     12  C   UNL A   1      31.904  25.472  25.410  1.00  0.00     0.266 C 
ATOM     13  C   UNL A   1      32.603  26.059  23.256  1.00  0.00     0.148 C 
ATOM     14  O   UNL A   1      31.440  24.760  26.292  1.00  0.00    -0.268 OA
ATOM     15  C   UNL A   1      32.635  26.744  25.679  1.00  0.00     0.081 C 
ATOM     16  S   UNL A   1      33.431  27.259  24.252  1.00  0.00    -0.054 SA
ATOM     17  S   UNL A   1      32.815  26.010  21.601  1.00  0.00    -0.052 S 
ATOM     18  C   UNL A   1      32.522  27.389  26.851  1.00  0.00     0.029 C 
BRANCH  18  19
ATOM     19  C   UNL A   1      32.971  28.757  27.154  1.00  0.00    -0.024 A 
ATOM     20  C   UNL A   1      32.102  29.846  27.037  1.00  0.00     0.015 A 
ATOM     21  C   UNL A   1      34.316  28.996  27.478  1.00  0.00     0.015 A 
ATOM     22  C   UNL A   1      32.572  31.152  27.238  1.00  0.00     0.086 A 
ATOM     23  C   UNL A   1      34.798  30.290  27.683  1.00  0.00     0.086 A 
ATOM     24  C   UNL A   1      33.921  31.368  27.554  1.00  0.00     0.269 A 
BRANCH  24  25
ATOM     25  N   UNL A   1      34.430  32.735  27.727  1.00  0.00     0.062 N 
ATOM     26  O   UNL A   1      35.640  32.923  27.545  1.00  0.00    -0.258 OA
ATOM     27  O   UNL A   1      33.622  33.614  28.059  1.00  0.00    -0.258 OA
ENDBRANCH  24  25
ENDBRANCH  18  19
ENDBRANCH  10  11
ENDBRANCH   9  10
ENDBRANCH   6   9
ENDBRANCH   3   5
ENDBRANCH   1   3
BRANCH   1  28
ATOM     28  O   UNL A   1      36.958  22.345  24.317  1.00  0.00    -0.461 OA
BRANCH  28  29
ATOM     29  C   UNL A   1      36.989  20.902  24.250  1.00  0.00     0.274 C 
BRANCH  29  30
ATOM     30  C   UNL A   1      38.114  20.289  25.098  1.00  0.00     0.275 C 
BRANCH  30  31
ATOM     31  O   UNL A   1      38.514  21.137  26.194  1.00  0.00    -0.458 OA
BRANCH  31  32
ATOM     32  C   UNL A   1      39.819  21.063  26.529  1.00  0.00     0.338 C 
ATOM     33  O   UNL A   1      40.596  20.146  26.284  1.00  0.00    -0.246 OA
BRANCH  32  34
ATOM     34  C   UNL A   1      40.283  22.336  27.094  1.00  0.00     0.060 A 
ATOM     35  C   UNL A   1      39.821  23.504  26.488  1.00  0.00     0.016 A 
ATOM     36  C   UNL A   1      41.271  22.401  28.070  1.00  0.00     0.016 A 
ATOM     37  C   UNL A   1      40.345  24.744  26.817  1.00  0.00     0.010 A 
ATOM     38  C   UNL A   1      41.803  23.652  28.413  1.00  0.00     0.010 A 
ATOM     39  C   UNL A   1      41.361  24.823  27.768  1.00  0.00    -0.014 A 
BRANCH  39  40
ATOM     40  C   UNL A   1      42.037  26.120  27.986  1.00  0.00     0.031 A 
ATOM     41  C   UNL A   1      41.336  27.182  28.782  1.00  0.00     0.074 A 
ATOM     42  C   UNL A   1      43.285  26.321  27.531  1.00  0.00     0.049 A 
ATOM     43  N   UNL A   1      41.666  28.433  28.968  1.00  0.00    -0.248 NA
ATOM     44  C   UNL A   1      40.096  26.776  29.462  1.00  0.00     0.031 C 
ATOM     45  C   UNL A   1      44.106  25.324  26.845  1.00  0.00     0.029 A 
ATOM     46  N   UNL A   1      44.078  27.440  27.573  1.00  0.00    -0.354 N 
ATOM     47  C   UNL A   1      40.656  28.974  29.753  1.00  0.00     0.074 A 
ATOM     48  C   UNL A   1      39.704  27.916  30.012  1.00  0.00     0.031 C 
ATOM     49  C   UNL A   1      45.282  25.882  26.513  1.00  0.00     0.029 A 
ATOM     50  C   UNL A   1      45.269  27.288  26.910  1.00  0.00     0.049 A 
ATOM     51  H   UNL A   1      43.817  28.270  28.035  1.00  0.00     0.167 HD
ATOM     52  C   UNL A   1      40.536  30.245  30.204  1.00  0.00     0.037 A 
ATOM     53  C   UNL A   1      46.217  28.197  26.616  1.00  0.00     0.037 A 
ATOM     54  C   UNL A   1      41.501  31.282  29.956  1.00  0.00     0.049 A 
ATOM     55  C   UNL A   1      46.022  29.623  27.057  1.00  0.00     0.074 A 
ATOM     56  C   UNL A   1      41.472  32.606  30.352  1.00  0.00     0.029 A 
ATOM     57  N   UNL A   1      42.680  31.101  29.243  1.00  0.00    -0.354 N 
ATOM     58  N   UNL A   1      45.040  30.149  27.748  1.00  0.00    -0.248 NA
ATOM     59  C   UNL A   1      47.062  30.584  26.666  1.00  0.00     0.031 C 
ATOM     60  C   UNL A   1      42.616  33.237  29.848  1.00  0.00     0.029 A 
ATOM     61  C   UNL A   1      43.379  32.294  29.175  1.00  0.00     0.049 A 
ATOM     62  H   UNL A   1      42.975  30.250  28.845  1.00  0.00     0.167 HD
ATOM     63  C   UNL A   1      45.350  31.494  27.893  1.00  0.00     0.074 A 
ATOM     64  C   UNL A   1      46.620  31.702  27.227  1.00  0.00     0.031 C 
ATOM     65  C   UNL A   1      44.647  32.471  28.516  1.00  0.00     0.037 A 
BRANCH  52  66
ATOM     66  C   UNL A   1      39.291  30.592  30.967  1.00  0.00     0.064 A 
ATOM     67  C   UNL A   1      38.129  31.044  30.326  1.00  0.00     0.173 A 
ATOM     68  C   UNL A   1      39.262  30.457  32.363  1.00  0.00     0.173 A 
ATOM     69  F   UNL A   1      38.113  31.209  28.995  1.00  0.00    -0.203 F 
ATOM     70  C   UNL A   1      36.991  31.372  31.058  1.00  0.00     0.198 A 
ATOM     71  C   UNL A   1      38.115  30.762  33.090  1.00  0.00     0.198 A 
ATOM     72  F   UNL A   1      40.349  30.030  33.024  1.00  0.00    -0.203 F 
ATOM     73  F   UNL A   1      35.906  31.848  30.431  1.00  0.00    -0.200 F 
ATOM     74  C   UNL A   1      36.983  31.226  32.438  1.00  0.00     0.200 A 
ATOM     75  F   UNL A   1      38.107  30.615  34.422  1.00  0.00    -0.200 F 
ATOM     76  F   UNL A   1      35.886  31.543  33.141  1.00  0.00    -0.200 F 
ENDBRANCH  52  66
BRANCH  53  77
ATOM     77  C   UNL A   1      47.407  27.796  25.823  1.00  0.00     0.064 A 
ATOM     78  C   UNL A   1      48.605  27.432  26.451  1.00  0.00     0.173 A 
ATOM     79  C   UNL A   1      47.370  27.769  24.420  1.00  0.00     0.173 A 
ATOM     80  F   UNL A   1      48.695  27.466  27.789  1.00  0.00    -0.203 F 
ATOM     81  C   UNL A   1      49.725  27.067  25.707  1.00  0.00     0.198 A 
ATOM     82  C   UNL A   1      48.482  27.378  23.678  1.00  0.00     0.198 A 
ATOM     83  F   UNL A   1      46.248  28.112  23.772  1.00  0.00    -0.203 F 
ATOM     84  F   UNL A   1      50.870  26.760  26.331  1.00  0.00    -0.200 F 
ATOM     85  C   UNL A   1      49.661  27.033  24.321  1.00  0.00     0.200 A 
ATOM     86  F   UNL A   1      48.412  27.338  22.341  1.00  0.00    -0.200 F 
ATOM     87  F   UNL A   1      50.736  26.675  23.608  1.00  0.00    -0.200 F 
ENDBRANCH  53  77
BRANCH  65  88
ATOM     88  C   UNL A   1      45.255  33.842  28.540  1.00  0.00     0.064 A 
ATOM     89  C   UNL A   1      44.943  34.801  27.565  1.00  0.00     0.173 A 
ATOM     90  C   UNL A   1      46.125  34.212  29.575  1.00  0.00     0.173 A 
ATOM     91  F   UNL A   1      44.127  34.487  26.547  1.00  0.00    -0.203 F 
ATOM     92  C   UNL A   1      45.498  36.076  27.617  1.00  0.00     0.198 A 
ATOM     93  C   UNL A   1      46.658  35.496  29.637  1.00  0.00     0.198 A 
ATOM     94  F   UNL A   1      46.449  33.331  30.534  1.00  0.00    -0.203 F 
ATOM     95  F   UNL A   1      45.219  36.965  26.653  1.00  0.00    -0.200 F 
ATOM     96  C   UNL A   1      46.349  36.425  28.655  1.00  0.00     0.200 A 
ATOM     97  F   UNL A   1      47.471  35.834  30.648  1.00  0.00    -0.200 F 
ATOM     98  F   UNL A   1      46.877  37.656  28.706  1.00  0.00    -0.200 F 
ENDBRANCH  65  88
ENDBRANCH  39  40
ENDBRANCH  32  34
ENDBRANCH  31  32
ENDBRANCH  30  31
ENDBRANCH  29  30
ENDBRANCH  28  29
ENDBRANCH   1  28
TORSDOF 17
ENDMDL
