MODEL 1
REMARK VINA RESULT:     -11.5      0.000      0.000
REMARK SMILES C=C(c1ccccc1)[C@@H](C(=O)OCCOC(=O)c1ccc(-c2c3nc(c(-c4c(F)c(F)c(F)c(F)c4F)c4ccc([nH]4)c(-c4c(F)c(F)c(F)c(F)c4F)c4nc(c(-c5c(F)c(F)c(F)c(F)c5F)c5ccc2[nH]5)C=C4)C=C3)cc1)S(C)(=O)=O
REMARK SMILES IDX 13 1 12 2 10 3 11 4 9 5 2 6 1 7 3 8 4 9 8 10 5 11 7 12 6 13
REMARK SMILES IDX 81 14 82 15 83 16 84 17 14 18 15 19 16 20 17 21 18 22 19 23
REMARK SMILES IDX 80 24 20 25 79 26 21 27 22 28 23 29 73 30 24 31 78 32 72 33
REMARK SMILES IDX 74 34 25 35 77 36 71 37 70 38 26 40 58 41 38 42 57 43 39 44
REMARK SMILES IDX 42 45 56 46 75 47 40 48 41 49 55 51 76 52 43 53 27 54 28 55
REMARK SMILES IDX 36 56 29 57 30 58 34 59 37 60 31 61 32 62 35 63 33 64 59 65
REMARK SMILES IDX 60 66 68 67 61 68 62 69 66 70 69 71 63 72 64 73 67 74 65 75
REMARK SMILES IDX 44 76 45 77 53 78 46 79 47 80 51 81 54 82 48 83 49 84 52 85
REMARK SMILES IDX 50 86
REMARK H PARENT 74 39 42 50
REMARK Flexibility Score: inf
ROOT
ATOM      1  C   UNL A   1      31.068  29.049  24.884  1.00  0.00     0.274 C 
ENDROOT
BRANCH   1   2
ATOM      2  O   UNL A   1      31.633  28.849  23.567  1.00  0.00    -0.461 OA
BRANCH   2   3
ATOM      3  C   UNL A   1      31.252  27.721  22.896  1.00  0.00     0.329 C 
ATOM      4  O   UNL A   1      30.469  27.742  21.953  1.00  0.00    -0.250 OA
BRANCH   3   5
ATOM      5  C   UNL A   1      31.784  26.443  23.530  1.00  0.00     0.247 C 
BRANCH   5   6
ATOM      6  C   UNL A   1      32.792  25.661  22.691  1.00  0.00    -0.019 C 
ATOM      7  C   UNL A   1      32.879  25.739  21.347  1.00  0.00     0.015 C 
BRANCH   6   8
ATOM      8  C   UNL A   1      33.757  24.793  23.415  1.00  0.00    -0.021 A 
ATOM      9  C   UNL A   1      34.071  23.502  22.966  1.00  0.00     0.008 A 
ATOM     10  C   UNL A   1      34.363  25.240  24.600  1.00  0.00     0.008 A 
ATOM     11  C   UNL A   1      34.970  22.692  23.665  1.00  0.00     0.001 A 
ATOM     12  C   UNL A   1      35.267  24.434  25.297  1.00  0.00     0.001 A 
ATOM     13  C   UNL A   1      35.570  23.160  24.829  1.00  0.00     0.000 A 
ENDBRANCH   6   8
ENDBRANCH   5   6
BRANCH   5  14
ATOM     14  S   UNL A   1      30.398  25.392  24.022  1.00  0.00     0.165 S 
ATOM     15  C   UNL A   1      30.860  24.741  25.605  1.00  0.00     0.159 C 
ATOM     16  O   UNL A   1      29.226  26.209  24.282  1.00  0.00    -0.228 OA
ATOM     17  O   UNL A   1      30.290  24.246  23.139  1.00  0.00    -0.228 OA
ENDBRANCH   5  14
ENDBRANCH   3   5
ENDBRANCH   2   3
ENDBRANCH   1   2
BRANCH   1  18
ATOM     18  C   UNL A   1      31.472  30.415  25.434  1.00  0.00     0.275 C 
BRANCH  18  19
ATOM     19  O   UNL A   1      32.700  30.267  26.160  1.00  0.00    -0.458 OA
BRANCH  19  20
ATOM     20  C   UNL A   1      33.085  31.315  26.925  1.00  0.00     0.338 C 
ATOM     21  O   UNL A   1      32.453  32.337  27.130  1.00  0.00    -0.246 OA
BRANCH  20  22
ATOM     22  C   UNL A   1      34.405  31.021  27.534  1.00  0.00     0.060 A 
ATOM     23  C   UNL A   1      34.779  29.708  27.810  1.00  0.00     0.016 A 
ATOM     24  C   UNL A   1      35.247  32.064  27.925  1.00  0.00     0.016 A 
ATOM     25  C   UNL A   1      35.926  29.441  28.556  1.00  0.00     0.010 A 
ATOM     26  C   UNL A   1      36.455  31.784  28.580  1.00  0.00     0.010 A 
ATOM     27  C   UNL A   1      36.797  30.467  28.936  1.00  0.00    -0.014 A 
BRANCH  27  28
ATOM     28  C   UNL A   1      38.023  30.155  29.733  1.00  0.00     0.031 A 
ATOM     29  C   UNL A   1      39.139  29.339  29.134  1.00  0.00     0.074 A 
ATOM     30  C   UNL A   1      38.169  30.628  30.989  1.00  0.00     0.049 A 
ATOM     31  N   UNL A   1      40.177  28.793  29.723  1.00  0.00    -0.248 NA
ATOM     32  C   UNL A   1      39.075  29.084  27.687  1.00  0.00     0.031 C 
ATOM     33  C   UNL A   1      37.209  31.476  31.697  1.00  0.00     0.029 A 
ATOM     34  N   UNL A   1      39.199  30.481  31.889  1.00  0.00    -0.354 N 
ATOM     35  C   UNL A   1      40.834  28.064  28.740  1.00  0.00     0.074 A 
ATOM     36  C   UNL A   1      40.092  28.250  27.511  1.00  0.00     0.031 C 
ATOM     37  C   UNL A   1      37.723  31.833  32.882  1.00  0.00     0.029 A 
ATOM     38  C   UNL A   1      38.999  31.155  33.069  1.00  0.00     0.049 A 
ATOM     39  H   UNL A   1      40.002  29.943  31.704  1.00  0.00     0.167 HD
ATOM     40  C   UNL A   1      41.949  27.302  28.857  1.00  0.00     0.037 A 
ATOM     41  C   UNL A   1      39.735  31.195  34.196  1.00  0.00     0.037 A 
ATOM     42  C   UNL A   1      42.746  27.197  30.052  1.00  0.00     0.049 A 
ATOM     43  C   UNL A   1      40.980  30.364  34.294  1.00  0.00     0.074 A 
ATOM     44  C   UNL A   1      43.905  26.467  30.256  1.00  0.00     0.029 A 
ATOM     45  N   UNL A   1      42.485  27.868  31.236  1.00  0.00    -0.354 N 
ATOM     46  N   UNL A   1      41.530  29.589  33.394  1.00  0.00    -0.248 NA
ATOM     47  C   UNL A   1      41.689  30.386  35.582  1.00  0.00     0.031 C 
ATOM     48  C   UNL A   1      44.335  26.681  31.571  1.00  0.00     0.029 A 
ATOM     49  C   UNL A   1      43.461  27.570  32.175  1.00  0.00     0.049 A 
ATOM     50  H   UNL A   1      41.721  28.470  31.388  1.00  0.00     0.167 HD
ATOM     51  C   UNL A   1      42.637  29.021  34.006  1.00  0.00     0.074 A 
ATOM     52  C   UNL A   1      42.706  29.570  35.343  1.00  0.00     0.031 C 
ATOM     53  C   UNL A   1      43.509  28.111  33.507  1.00  0.00     0.037 A 
BRANCH  40  54
ATOM     54  C   UNL A   1      42.362  26.485  27.668  1.00  0.00     0.064 A 
ATOM     55  C   UNL A   1      43.351  26.912  26.774  1.00  0.00     0.173 A 
ATOM     56  C   UNL A   1      41.786  25.220  27.459  1.00  0.00     0.173 A 
ATOM     57  F   UNL A   1      43.924  28.115  26.925  1.00  0.00    -0.203 F 
ATOM     58  C   UNL A   1      43.738  26.112  25.700  1.00  0.00     0.198 A 
ATOM     59  C   UNL A   1      42.192  24.414  26.400  1.00  0.00     0.198 A 
ATOM     60  F   UNL A   1      40.839  24.761  28.291  1.00  0.00    -0.203 F 
ATOM     61  F   UNL A   1      44.662  26.554  24.836  1.00  0.00    -0.200 F 
ATOM     62  C   UNL A   1      43.164  24.861  25.518  1.00  0.00     0.200 A 
ATOM     63  F   UNL A   1      41.646  23.200  26.234  1.00  0.00    -0.200 F 
ATOM     64  F   UNL A   1      43.546  24.090  24.492  1.00  0.00    -0.200 F 
ENDBRANCH  40  54
BRANCH  41  65
ATOM     65  C   UNL A   1      39.278  32.022  35.343  1.00  0.00     0.064 A 
ATOM     66  C   UNL A   1      39.631  33.374  35.440  1.00  0.00     0.173 A 
ATOM     67  C   UNL A   1      38.470  31.482  36.355  1.00  0.00     0.173 A 
ATOM     68  F   UNL A   1      40.430  33.926  34.515  1.00  0.00    -0.203 F 
ATOM     69  C   UNL A   1      39.192  34.156  36.506  1.00  0.00     0.198 A 
ATOM     70  C   UNL A   1      38.007  32.272  37.404  1.00  0.00     0.198 A 
ATOM     71  F   UNL A   1      38.112  30.191  36.311  1.00  0.00    -0.203 F 
ATOM     72  F   UNL A   1      39.572  35.438  36.596  1.00  0.00    -0.200 F 
ATOM     73  C   UNL A   1      38.372  33.607  37.481  1.00  0.00     0.200 A 
ATOM     74  F   UNL A   1      37.207  31.740  38.337  1.00  0.00    -0.200 F 
ATOM     75  F   UNL A   1      37.941  34.363  38.501  1.00  0.00    -0.200 F 
ENDBRANCH  41  65
BRANCH  53  76
ATOM     76  C   UNL A   1      44.605  27.655  34.421  1.00  0.00     0.064 A 
ATOM     77  C   UNL A   1      45.826  28.343  34.492  1.00  0.00     0.173 A 
ATOM     78  C   UNL A   1      44.434  26.528  35.236  1.00  0.00     0.173 A 
ATOM     79  F   UNL A   1      46.041  29.416  33.718  1.00  0.00    -0.203 F 
ATOM     80  C   UNL A   1      46.847  27.900  35.327  1.00  0.00     0.198 A 
ATOM     81  C   UNL A   1      45.450  26.101  36.086  1.00  0.00     0.198 A 
ATOM     82  F   UNL A   1      43.283  25.839  35.206  1.00  0.00    -0.203 F 
ATOM     83  F   UNL A   1      48.023  28.544  35.344  1.00  0.00    -0.200 F 
ATOM     84  C   UNL A   1      46.658  26.782  36.126  1.00  0.00     0.200 A 
ATOM     85  F   UNL A   1      45.264  25.023  36.862  1.00  0.00    -0.200 F 
ATOM     86  F   UNL A   1      47.644  26.354  36.925  1.00  0.00    -0.200 F 
ENDBRANCH  53  76
ENDBRANCH  27  28
ENDBRANCH  20  22
ENDBRANCH  19  20
ENDBRANCH  18  19
ENDBRANCH   1  18
TORSDOF 14
ENDMDL
MODEL 2
REMARK VINA RESULT:     -11.5      1.360      2.540
REMARK SMILES C=C(c1ccccc1)[C@@H](C(=O)OCCOC(=O)c1ccc(-c2c3nc(c(-c4c(F)c(F)c(F)c(F)c4F)c4ccc([nH]4)c(-c4c(F)c(F)c(F)c(F)c4F)c4nc(c(-c5c(F)c(F)c(F)c(F)c5F)c5ccc2[nH]5)C=C4)C=C3)cc1)S(C)(=O)=O
REMARK SMILES IDX 13 1 12 2 10 3 11 4 9 5 2 6 1 7 3 8 4 9 8 10 5 11 7 12 6 13
REMARK SMILES IDX 81 14 82 15 83 16 84 17 14 18 15 19 16 20 17 21 18 22 19 23
REMARK SMILES IDX 80 24 20 25 79 26 21 27 22 28 23 29 73 30 24 31 78 32 72 33
REMARK SMILES IDX 74 34 25 35 77 36 71 37 70 38 26 40 58 41 38 42 57 43 39 44
REMARK SMILES IDX 42 45 56 46 75 47 40 48 41 49 55 51 76 52 43 53 27 54 28 55
REMARK SMILES IDX 36 56 29 57 30 58 34 59 37 60 31 61 32 62 35 63 33 64 59 65
REMARK SMILES IDX 60 66 68 67 61 68 62 69 66 70 69 71 63 72 64 73 67 74 65 75
REMARK SMILES IDX 44 76 45 77 53 78 46 79 47 80 51 81 54 82 48 83 49 84 52 85
REMARK SMILES IDX 50 86
REMARK H PARENT 74 39 42 50
REMARK Flexibility Score: inf
ROOT
ATOM      1  C   UNL A   1      32.925  29.327  24.526  1.00  0.00     0.274 C 
ENDROOT
BRANCH   1   2
ATOM      2  O   UNL A   1      33.395  28.071  25.068  1.00  0.00    -0.461 OA
BRANCH   2   3
ATOM      3  C   UNL A   1      32.625  26.967  24.826  1.00  0.00     0.329 C 
ATOM      4  O   UNL A   1      32.601  25.998  25.575  1.00  0.00    -0.250 OA
BRANCH   3   5
ATOM      5  C   UNL A   1      31.928  27.015  23.473  1.00  0.00     0.247 C 
BRANCH   5   6
ATOM      6  C   UNL A   1      30.408  26.870  23.510  1.00  0.00    -0.019 C 
ATOM      7  C   UNL A   1      29.763  25.790  23.995  1.00  0.00     0.015 C 
BRANCH   6   8
ATOM      8  C   UNL A   1      29.601  28.016  23.015  1.00  0.00    -0.021 A 
ATOM      9  C   UNL A   1      28.218  28.096  23.238  1.00  0.00     0.008 A 
ATOM     10  C   UNL A   1      30.206  29.045  22.274  1.00  0.00     0.008 A 
ATOM     11  C   UNL A   1      27.470  29.173  22.754  1.00  0.00     0.001 A 
ATOM     12  C   UNL A   1      29.460  30.124  21.795  1.00  0.00     0.001 A 
ATOM     13  C   UNL A   1      28.091  30.188  22.036  1.00  0.00     0.000 A 
ENDBRANCH   6   8
ENDBRANCH   5   6
BRANCH   5  14
ATOM     14  S   UNL A   1      32.668  25.787  22.371  1.00  0.00     0.165 S 
ATOM     15  C   UNL A   1      31.778  25.952  20.846  1.00  0.00     0.159 C 
ATOM     16  O   UNL A   1      34.031  26.168  22.050  1.00  0.00    -0.228 OA
ATOM     17  O   UNL A   1      32.392  24.444  22.847  1.00  0.00    -0.228 OA
ENDBRANCH   5  14
ENDBRANCH   3   5
ENDBRANCH   2   3
ENDBRANCH   1   2
BRANCH   1  18
ATOM     18  C   UNL A   1      31.853  29.931  25.433  1.00  0.00     0.275 C 
BRANCH  18  19
ATOM     19  O   UNL A   1      32.393  30.045  26.758  1.00  0.00    -0.458 OA
BRANCH  19  20
ATOM     20  C   UNL A   1      32.989  31.219  27.072  1.00  0.00     0.338 C 
ATOM     21  O   UNL A   1      32.523  32.335  26.918  1.00  0.00    -0.246 OA
BRANCH  20  22
ATOM     22  C   UNL A   1      34.310  30.950  27.690  1.00  0.00     0.060 A 
ATOM     23  C   UNL A   1      34.760  29.642  27.854  1.00  0.00     0.016 A 
ATOM     24  C   UNL A   1      35.075  32.001  28.198  1.00  0.00     0.016 A 
ATOM     25  C   UNL A   1      35.903  29.376  28.606  1.00  0.00     0.010 A 
ATOM     26  C   UNL A   1      36.284  31.735  28.859  1.00  0.00     0.010 A 
ATOM     27  C   UNL A   1      36.699  30.414  29.104  1.00  0.00    -0.014 A 
BRANCH  27  28
ATOM     28  C   UNL A   1      37.924  30.104  29.904  1.00  0.00     0.031 A 
ATOM     29  C   UNL A   1      39.049  29.303  29.302  1.00  0.00     0.074 A 
ATOM     30  C   UNL A   1      38.059  30.566  31.164  1.00  0.00     0.049 A 
ATOM     31  N   UNL A   1      40.088  28.760  29.891  1.00  0.00    -0.248 NA
ATOM     32  C   UNL A   1      38.994  29.061  27.852  1.00  0.00     0.031 C 
ATOM     33  C   UNL A   1      37.090  31.399  31.875  1.00  0.00     0.029 A 
ATOM     34  N   UNL A   1      39.086  30.419  32.068  1.00  0.00    -0.354 N 
ATOM     35  C   UNL A   1      40.756  28.045  28.904  1.00  0.00     0.074 A 
ATOM     36  C   UNL A   1      40.019  28.237  27.673  1.00  0.00     0.031 C 
ATOM     37  C   UNL A   1      37.595  31.749  33.067  1.00  0.00     0.029 A 
ATOM     38  C   UNL A   1      38.875  31.079  33.254  1.00  0.00     0.049 A 
ATOM     39  H   UNL A   1      39.895  29.888  31.882  1.00  0.00     0.167 HD
ATOM     40  C   UNL A   1      41.877  27.291  29.019  1.00  0.00     0.037 A 
ATOM     41  C   UNL A   1      39.605  31.114  34.384  1.00  0.00     0.037 A 
ATOM     42  C   UNL A   1      42.668  27.180  30.217  1.00  0.00     0.049 A 
ATOM     43  C   UNL A   1      40.856  30.293  34.481  1.00  0.00     0.074 A 
ATOM     44  C   UNL A   1      43.833  26.458  30.420  1.00  0.00     0.029 A 
ATOM     45  N   UNL A   1      42.397  27.838  31.407  1.00  0.00    -0.354 N 
ATOM     46  N   UNL A   1      41.418  29.531  33.576  1.00  0.00    -0.248 NA
ATOM     47  C   UNL A   1      41.559  30.307  35.773  1.00  0.00     0.031 C 
ATOM     48  C   UNL A   1      44.254  26.662  31.739  1.00  0.00     0.029 A 
ATOM     49  C   UNL A   1      43.371  27.538  32.348  1.00  0.00     0.049 A 
ATOM     50  H   UNL A   1      41.627  28.432  31.560  1.00  0.00     0.167 HD
ATOM     51  C   UNL A   1      42.526  28.966  34.188  1.00  0.00     0.074 A 
ATOM     52  C   UNL A   1      42.583  29.502  35.531  1.00  0.00     0.031 C 
ATOM     53  C   UNL A   1      43.407  28.068  33.685  1.00  0.00     0.037 A 
BRANCH  40  54
ATOM     54  C   UNL A   1      42.302  26.488  27.825  1.00  0.00     0.064 A 
ATOM     55  C   UNL A   1      43.294  26.931  26.941  1.00  0.00     0.173 A 
ATOM     56  C   UNL A   1      41.736  25.222  27.599  1.00  0.00     0.173 A 
ATOM     57  F   UNL A   1      43.857  28.137  27.107  1.00  0.00    -0.203 F 
ATOM     58  C   UNL A   1      43.692  26.145  25.861  1.00  0.00     0.198 A 
ATOM     59  C   UNL A   1      42.154  24.430  26.535  1.00  0.00     0.198 A 
ATOM     60  F   UNL A   1      40.788  24.748  28.421  1.00  0.00    -0.203 F 
ATOM     61  F   UNL A   1      44.617  26.602  25.007  1.00  0.00    -0.200 F 
ATOM     62  C   UNL A   1      43.127  24.892  25.663  1.00  0.00     0.200 A 
ATOM     63  F   UNL A   1      41.617  23.214  26.354  1.00  0.00    -0.200 F 
ATOM     64  F   UNL A   1      43.521  24.134  24.631  1.00  0.00    -0.200 F 
ENDBRANCH  40  54
BRANCH  41  65
ATOM     65  C   UNL A   1      39.136  31.926  35.537  1.00  0.00     0.064 A 
ATOM     66  C   UNL A   1      39.482  33.279  35.651  1.00  0.00     0.173 A 
ATOM     67  C   UNL A   1      38.324  31.372  36.538  1.00  0.00     0.173 A 
ATOM     68  F   UNL A   1      40.285  33.845  34.738  1.00  0.00    -0.203 F 
ATOM     69  C   UNL A   1      39.032  34.047  36.722  1.00  0.00     0.198 A 
ATOM     70  C   UNL A   1      37.849  32.148  37.591  1.00  0.00     0.198 A 
ATOM     71  F   UNL A   1      37.972  30.079  36.477  1.00  0.00    -0.203 F 
ATOM     72  F   UNL A   1      39.405  35.330  36.830  1.00  0.00    -0.200 F 
ATOM     73  C   UNL A   1      38.207  33.484  37.686  1.00  0.00     0.200 A 
ATOM     74  F   UNL A   1      37.045  31.602  38.513  1.00  0.00    -0.200 F 
ATOM     75  F   UNL A   1      37.765  34.226  38.710  1.00  0.00    -0.200 F 
ENDBRANCH  41  65
BRANCH  53  76
ATOM     76  C   UNL A   1      44.503  27.612  34.600  1.00  0.00     0.064 A 
ATOM     77  C   UNL A   1      45.717  28.308  34.683  1.00  0.00     0.173 A 
ATOM     78  C   UNL A   1      44.337  26.475  35.403  1.00  0.00     0.173 A 
ATOM     79  F   UNL A   1      45.928  29.391  33.920  1.00  0.00    -0.203 F 
ATOM     80  C   UNL A   1      46.738  27.866  35.520  1.00  0.00     0.198 A 
ATOM     81  C   UNL A   1      45.352  26.048  36.254  1.00  0.00     0.198 A 
ATOM     82  F   UNL A   1      43.191  25.777  35.360  1.00  0.00    -0.203 F 
ATOM     83  F   UNL A   1      47.909  28.518  35.548  1.00  0.00    -0.200 F 
ATOM     84  C   UNL A   1      46.554  26.738  36.306  1.00  0.00     0.200 A 
ATOM     85  F   UNL A   1      45.171  24.962  37.019  1.00  0.00    -0.200 F 
ATOM     86  F   UNL A   1      47.539  26.310  37.107  1.00  0.00    -0.200 F 
ENDBRANCH  53  76
ENDBRANCH  27  28
ENDBRANCH  20  22
ENDBRANCH  19  20
ENDBRANCH  18  19
ENDBRANCH   1  18
TORSDOF 14
ENDMDL
MODEL 3
REMARK VINA RESULT:     -11.4      1.054      1.804
REMARK SMILES C=C(c1ccccc1)[C@@H](C(=O)OCCOC(=O)c1ccc(-c2c3nc(c(-c4c(F)c(F)c(F)c(F)c4F)c4ccc([nH]4)c(-c4c(F)c(F)c(F)c(F)c4F)c4nc(c(-c5c(F)c(F)c(F)c(F)c5F)c5ccc2[nH]5)C=C4)C=C3)cc1)S(C)(=O)=O
REMARK SMILES IDX 13 1 12 2 10 3 11 4 9 5 2 6 1 7 3 8 4 9 8 10 5 11 7 12 6 13
REMARK SMILES IDX 81 14 82 15 83 16 84 17 14 18 15 19 16 20 17 21 18 22 19 23
REMARK SMILES IDX 80 24 20 25 79 26 21 27 22 28 23 29 73 30 24 31 78 32 72 33
REMARK SMILES IDX 74 34 25 35 77 36 71 37 70 38 26 40 58 41 38 42 57 43 39 44
REMARK SMILES IDX 42 45 56 46 75 47 40 48 41 49 55 51 76 52 43 53 27 54 28 55
REMARK SMILES IDX 36 56 29 57 30 58 34 59 37 60 31 61 32 62 35 63 33 64 59 65
REMARK SMILES IDX 60 66 68 67 61 68 62 69 66 70 69 71 63 72 64 73 67 74 65 75
REMARK SMILES IDX 44 76 45 77 53 78 46 79 47 80 51 81 54 82 48 83 49 84 52 85
REMARK SMILES IDX 50 86
REMARK H PARENT 74 39 42 50
REMARK Flexibility Score: inf
ROOT
ATOM      1  C   UNL A   1      31.511  28.018  26.112  1.00  0.00     0.274 C 
ENDROOT
BRANCH   1   2
ATOM      2  O   UNL A   1      32.517  27.155  25.532  1.00  0.00    -0.461 OA
BRANCH   2   3
ATOM      3  C   UNL A   1      32.097  25.936  25.076  1.00  0.00     0.329 C 
ATOM      4  O   UNL A   1      31.026  25.775  24.504  1.00  0.00    -0.250 OA
BRANCH   3   5
ATOM      5  C   UNL A   1      33.025  24.799  25.482  1.00  0.00     0.247 C 
BRANCH   5   6
ATOM      6  C   UNL A   1      33.829  24.169  24.346  1.00  0.00    -0.019 C 
ATOM      7  C   UNL A   1      33.489  24.248  23.044  1.00  0.00     0.015 C 
BRANCH   6   8
ATOM      8  C   UNL A   1      35.085  23.462  24.710  1.00  0.00    -0.021 A 
ATOM      9  C   UNL A   1      36.105  24.094  25.436  1.00  0.00     0.008 A 
ATOM     10  C   UNL A   1      35.297  22.135  24.301  1.00  0.00     0.008 A 
ATOM     11  C   UNL A   1      37.287  23.421  25.758  1.00  0.00     0.001 A 
ATOM     12  C   UNL A   1      36.476  21.459  24.627  1.00  0.00     0.001 A 
ATOM     13  C   UNL A   1      37.470  22.102  25.356  1.00  0.00     0.000 A 
ENDBRANCH   6   8
ENDBRANCH   5   6
BRANCH   5  14
ATOM     14  S   UNL A   1      32.083  23.545  26.380  1.00  0.00     0.165 S 
ATOM     15  C   UNL A   1      33.256  22.799  27.482  1.00  0.00     0.159 C 
ATOM     16  O   UNL A   1      31.111  24.184  27.249  1.00  0.00    -0.228 OA
ATOM     17  O   UNL A   1      31.656  22.488  25.482  1.00  0.00    -0.228 OA
ENDBRANCH   5  14
ENDBRANCH   3   5
ENDBRANCH   2   3
ENDBRANCH   1   2
BRANCH   1  18
ATOM     18  C   UNL A   1      31.533  29.389  25.438  1.00  0.00     0.275 C 
BRANCH  18  19
ATOM     19  O   UNL A   1      32.842  29.953  25.601  1.00  0.00    -0.458 OA
BRANCH  19  20
ATOM     20  C   UNL A   1      33.005  30.823  26.625  1.00  0.00     0.338 C 
ATOM     21  O   UNL A   1      32.198  31.651  27.012  1.00  0.00    -0.246 OA
BRANCH  20  22
ATOM     22  C   UNL A   1      34.327  30.595  27.260  1.00  0.00     0.060 A 
ATOM     23  C   UNL A   1      34.781  29.300  27.498  1.00  0.00     0.016 A 
ATOM     24  C   UNL A   1      35.087  31.676  27.710  1.00  0.00     0.016 A 
ATOM     25  C   UNL A   1      35.924  29.081  28.265  1.00  0.00     0.010 A 
ATOM     26  C   UNL A   1      36.295  31.452  28.387  1.00  0.00     0.010 A 
ATOM     27  C   UNL A   1      36.715  30.148  28.705  1.00  0.00    -0.014 A 
BRANCH  27  28
ATOM     28  C   UNL A   1      37.939  29.888  29.524  1.00  0.00     0.031 A 
ATOM     29  C   UNL A   1      39.079  29.080  28.961  1.00  0.00     0.074 A 
ATOM     30  C   UNL A   1      38.061  30.403  30.765  1.00  0.00     0.049 A 
ATOM     31  N   UNL A   1      40.123  28.576  29.577  1.00  0.00    -0.248 NA
ATOM     32  C   UNL A   1      39.036  28.779  27.522  1.00  0.00     0.031 C 
ATOM     33  C   UNL A   1      37.075  31.250  31.437  1.00  0.00     0.029 A 
ATOM     34  N   UNL A   1      39.085  30.307  31.680  1.00  0.00    -0.354 N 
ATOM     35  C   UNL A   1      40.806  27.832  28.623  1.00  0.00     0.074 A 
ATOM     36  C   UNL A   1      40.073  27.963  27.382  1.00  0.00     0.031 C 
ATOM     37  C   UNL A   1      37.568  31.655  32.616  1.00  0.00     0.029 A 
ATOM     38  C   UNL A   1      38.857  31.012  32.836  1.00  0.00     0.049 A 
ATOM     39  H   UNL A   1      39.902  29.782  31.519  1.00  0.00     0.167 HD
ATOM     40  C   UNL A   1      41.937  27.100  28.774  1.00  0.00     0.037 A 
ATOM     41  C   UNL A   1      39.580  31.103  33.968  1.00  0.00     0.037 A 
ATOM     42  C   UNL A   1      42.723  27.049  29.980  1.00  0.00     0.049 A 
ATOM     43  C   UNL A   1      40.842  30.304  34.105  1.00  0.00     0.074 A 
ATOM     44  C   UNL A   1      43.896  26.352  30.218  1.00  0.00     0.029 A 
ATOM     45  N   UNL A   1      42.435  27.751  31.140  1.00  0.00    -0.354 N 
ATOM     46  N   UNL A   1      41.419  29.515  33.234  1.00  0.00    -0.248 NA
ATOM     47  C   UNL A   1      41.537  30.381  35.399  1.00  0.00     0.031 C 
ATOM     48  C   UNL A   1      44.307  26.616  31.530  1.00  0.00     0.029 A 
ATOM     49  C   UNL A   1      43.408  27.503  32.098  1.00  0.00     0.049 A 
ATOM     50  H   UNL A   1      41.656  28.339  31.266  1.00  0.00     0.167 HD
ATOM     51  C   UNL A   1      42.532  28.991  33.874  1.00  0.00     0.074 A 
ATOM     52  C   UNL A   1      42.574  29.582  35.195  1.00  0.00     0.031 C 
ATOM     53  C   UNL A   1      43.429  28.086  33.413  1.00  0.00     0.037 A 
BRANCH  40  54
ATOM     54  C   UNL A   1      42.380  26.256  27.616  1.00  0.00     0.064 A 
ATOM     55  C   UNL A   1      43.362  26.682  26.712  1.00  0.00     0.173 A 
ATOM     56  C   UNL A   1      41.843  24.969  27.446  1.00  0.00     0.173 A 
ATOM     57  F   UNL A   1      43.898  27.907  26.826  1.00  0.00    -0.203 F 
ATOM     58  C   UNL A   1      43.778  25.859  25.668  1.00  0.00     0.198 A 
ATOM     59  C   UNL A   1      42.279  24.140  26.416  1.00  0.00     0.198 A 
ATOM     60  F   UNL A   1      40.906  24.510  28.288  1.00  0.00    -0.203 F 
ATOM     61  F   UNL A   1      44.693  26.299  24.793  1.00  0.00    -0.200 F 
ATOM     62  C   UNL A   1      43.242  24.587  25.525  1.00  0.00     0.200 A 
ATOM     63  F   UNL A   1      41.770  22.906  26.289  1.00  0.00    -0.200 F 
ATOM     64  F   UNL A   1      43.653  23.793  24.526  1.00  0.00    -0.200 F 
ENDBRANCH  40  54
BRANCH  41  65
ATOM     65  C   UNL A   1      39.092  31.954  35.085  1.00  0.00     0.064 A 
ATOM     66  C   UNL A   1      38.389  31.394  36.160  1.00  0.00     0.173 A 
ATOM     67  C   UNL A   1      39.331  33.336  35.108  1.00  0.00     0.173 A 
ATOM     68  F   UNL A   1      38.105  30.083  36.166  1.00  0.00    -0.203 F 
ATOM     69  C   UNL A   1      37.944  32.186  37.216  1.00  0.00     0.198 A 
ATOM     70  C   UNL A   1      38.913  34.121  36.179  1.00  0.00     0.198 A 
ATOM     71  F   UNL A   1      39.994  33.919  34.099  1.00  0.00    -0.203 F 
ATOM     72  F   UNL A   1      37.241  31.634  38.215  1.00  0.00    -0.200 F 
ATOM     73  C   UNL A   1      38.215  33.546  37.230  1.00  0.00     0.200 A 
ATOM     74  F   UNL A   1      39.187  35.432  36.193  1.00  0.00    -0.200 F 
ATOM     75  F   UNL A   1      37.797  34.305  38.252  1.00  0.00    -0.200 F 
ENDBRANCH  41  65
BRANCH  53  76
ATOM     76  C   UNL A   1      44.525  27.683  34.351  1.00  0.00     0.064 A 
ATOM     77  C   UNL A   1      45.732  28.396  34.407  1.00  0.00     0.173 A 
ATOM     78  C   UNL A   1      44.368  26.582  35.204  1.00  0.00     0.173 A 
ATOM     79  F   UNL A   1      45.935  29.445  33.598  1.00  0.00    -0.203 F 
ATOM     80  C   UNL A   1      46.754  28.002  35.266  1.00  0.00     0.198 A 
ATOM     81  C   UNL A   1      45.384  26.204  36.077  1.00  0.00     0.198 A 
ATOM     82  F   UNL A   1      43.231  25.871  35.188  1.00  0.00    -0.203 F 
ATOM     83  F   UNL A   1      47.918  28.668  35.270  1.00  0.00    -0.200 F 
ATOM     84  C   UNL A   1      46.579  26.909  36.102  1.00  0.00     0.200 A 
ATOM     85  F   UNL A   1      45.212  25.151  36.888  1.00  0.00    -0.200 F 
ATOM     86  F   UNL A   1      47.565  26.528  36.924  1.00  0.00    -0.200 F 
ENDBRANCH  53  76
ENDBRANCH  27  28
ENDBRANCH  20  22
ENDBRANCH  19  20
ENDBRANCH  18  19
ENDBRANCH   1  18
TORSDOF 14
ENDMDL
