MODEL 1
REMARK VINA RESULT:     -12.7      0.000      0.000
REMARK SMILES CC(=O)N(c1ccccc1)c1nc(/C=C(/C#N)C(=O)OCCOC(=O)c2ccc(-c3c4nc(c(-c5c(F)c(F)c(F)c(F)c5F)c5ccc([nH]5)c(-c5c(F)c(F)c(F)c(F)c5F)c5nc(c(-c6c(F)c(F)c(F)c(F)c6F)c6ccc3[nH]6)C=C5)C=C4)cc2)cs1
REMARK SMILES IDX 21 1 20 2 18 3 19 4 15 5 14 6 13 7 11 8 12 9 90 10 89 11
REMARK SMILES IDX 4 12 2 13 1 14 3 15 5 16 6 17 10 18 7 19 9 20 8 21 16 22
REMARK SMILES IDX 17 23 22 24 23 25 24 26 25 27 26 28 27 29 88 30 28 31 87 32
REMARK SMILES IDX 29 33 30 34 31 35 81 36 32 37 86 38 80 39 82 40 33 41 85 42
REMARK SMILES IDX 79 43 78 44 34 46 66 47 46 48 65 49 47 50 50 51 64 52 83 53
REMARK SMILES IDX 48 54 49 55 63 57 84 58 51 59 35 60 36 61 44 62 37 63 38 64
REMARK SMILES IDX 42 65 45 66 39 67 40 68 43 69 41 70 67 71 68 72 76 73 69 74
REMARK SMILES IDX 70 75 74 76 77 77 71 78 72 79 75 80 73 81 52 82 53 83 61 84
REMARK SMILES IDX 54 85 55 86 59 87 62 88 56 89 57 90 60 91 58 92
REMARK H PARENT 82 45 50 56
REMARK Flexibility Score: inf
ROOT
ATOM      1  C   UNL A   1      31.853  29.734  25.363  1.00  0.00     0.275 C 
ENDROOT
BRANCH   1   2
ATOM      2  O   UNL A   1      30.622  29.669  24.648  1.00  0.00    -0.458 OA
BRANCH   2   3
ATOM      3  C   UNL A   1      30.699  29.048  23.453  1.00  0.00     0.349 C 
ATOM      4  O   UNL A   1      31.706  28.785  22.815  1.00  0.00    -0.245 OA
BRANCH   3   5
ATOM      5  C   UNL A   1      29.396  28.452  23.197  1.00  0.00     0.139 C 
ATOM      6  C   UNL A   1      29.249  27.155  23.495  1.00  0.00     0.056 C 
BRANCH   6   7
ATOM      7  C   UNL A   1      30.130  26.262  24.171  1.00  0.00     0.078 A 
ATOM      8  C   UNL A   1      31.585  24.653  23.826  1.00  0.00     0.197 A 
ATOM      9  N   UNL A   1      30.687  25.426  23.280  1.00  0.00    -0.220 NA
ATOM     10  S   UNL A   1      31.612  24.642  25.512  1.00  0.00    -0.104 S 
ATOM     11  C   UNL A   1      30.474  25.977  25.474  1.00  0.00     0.097 A 
BRANCH   8  12
ATOM     12  N   UNL A   1      32.586  24.193  22.999  1.00  0.00    -0.256 N 
BRANCH  12  13
ATOM     13  C   UNL A   1      33.396  25.484  22.805  1.00  0.00     0.230 C 
ATOM     14  C   UNL A   1      34.005  26.440  23.952  1.00  0.00     0.115 C 
ATOM     15  O   UNL A   1      33.614  25.921  21.655  1.00  0.00    -0.274 OA
ENDBRANCH  12  13
BRANCH  12  16
ATOM     16  C   UNL A   1      32.924  22.635  23.087  1.00  0.00     0.051 A 
ATOM     17  C   UNL A   1      33.940  22.169  23.959  1.00  0.00     0.027 A 
ATOM     18  C   UNL A   1      32.158  21.547  22.621  1.00  0.00     0.027 A 
ATOM     19  C   UNL A   1      33.976  20.906  24.620  1.00  0.00     0.002 A 
ATOM     20  C   UNL A   1      32.230  20.228  23.202  1.00  0.00     0.002 A 
ATOM     21  C   UNL A   1      33.087  19.927  24.254  1.00  0.00     0.000 A 
ENDBRANCH  12  16
ENDBRANCH   8  12
ENDBRANCH   6   7
BRANCH   5  22
ATOM     22  C   UNL A   1      28.271  29.276  22.939  1.00  0.00     0.107 C 
ATOM     23  N   UNL A   1      27.313  29.900  22.759  1.00  0.00    -0.192 NA
ENDBRANCH   5  22
ENDBRANCH   3   5
ENDBRANCH   2   3
ENDBRANCH   1   2
BRANCH   1  24
ATOM     24  C   UNL A   1      31.855  30.994  26.246  1.00  0.00     0.275 C 
BRANCH  24  25
ATOM     25  O   UNL A   1      32.625  30.921  27.495  1.00  0.00    -0.458 OA
BRANCH  25  26
ATOM     26  C   UNL A   1      33.570  31.887  27.748  1.00  0.00     0.338 C 
ATOM     27  O   UNL A   1      33.319  33.061  27.965  1.00  0.00    -0.246 OA
BRANCH  26  28
ATOM     28  C   UNL A   1      34.986  31.330  27.785  1.00  0.00     0.060 A 
ATOM     29  C   UNL A   1      36.111  32.133  28.004  1.00  0.00     0.016 A 
ATOM     30  C   UNL A   1      35.274  29.994  27.578  1.00  0.00     0.016 A 
ATOM     31  C   UNL A   1      37.409  31.564  28.342  1.00  0.00     0.010 A 
ATOM     32  C   UNL A   1      36.606  29.480  27.803  1.00  0.00     0.010 A 
ATOM     33  C   UNL A   1      37.656  30.172  28.478  1.00  0.00    -0.014 A 
BRANCH  33  34
ATOM     34  C   UNL A   1      39.044  29.371  29.161  1.00  0.00     0.031 A 
ATOM     35  C   UNL A   1      39.280  29.847  30.570  1.00  0.00     0.074 A 
ATOM     36  C   UNL A   1      40.045  28.414  28.760  1.00  0.00     0.049 A 
ATOM     37  N   UNL A   1      40.199  29.475  31.422  1.00  0.00    -0.248 NA
ATOM     38  C   UNL A   1      38.398  30.912  31.067  1.00  0.00     0.031 C 
ATOM     39  C   UNL A   1      40.293  27.753  27.481  1.00  0.00     0.029 A 
ATOM     40  N   UNL A   1      41.129  27.741  29.407  1.00  0.00    -0.354 N 
ATOM     41  C   UNL A   1      40.003  30.264  32.535  1.00  0.00     0.074 A 
ATOM     42  C   UNL A   1      38.971  31.220  32.213  1.00  0.00     0.031 C 
ATOM     43  C   UNL A   1      41.199  26.807  27.387  1.00  0.00     0.029 A 
ATOM     44  C   UNL A   1      41.857  26.807  28.616  1.00  0.00     0.049 A 
ATOM     45  H   UNL A   1      41.360  27.915  30.348  1.00  0.00     0.167 HD
ATOM     46  C   UNL A   1      40.581  30.163  33.748  1.00  0.00     0.037 A 
ATOM     47  C   UNL A   1      42.925  25.980  28.659  1.00  0.00     0.037 A 
ATOM     48  C   UNL A   1      41.605  29.213  34.086  1.00  0.00     0.049 A 
ATOM     49  C   UNL A   1      43.515  25.871  29.984  1.00  0.00     0.074 A 
ATOM     50  C   UNL A   1      42.206  29.020  35.314  1.00  0.00     0.029 A 
ATOM     51  N   UNL A   1      42.195  28.310  33.207  1.00  0.00    -0.354 N 
ATOM     52  N   UNL A   1      43.196  26.590  31.019  1.00  0.00    -0.248 NA
ATOM     53  C   UNL A   1      44.513  24.828  30.193  1.00  0.00     0.031 C 
ATOM     54  C   UNL A   1      43.198  28.049  35.171  1.00  0.00     0.029 A 
ATOM     55  C   UNL A   1      43.175  27.580  33.869  1.00  0.00     0.049 A 
ATOM     56  H   UNL A   1      41.956  28.205  32.258  1.00  0.00     0.167 HD
ATOM     57  C   UNL A   1      43.939  26.079  32.040  1.00  0.00     0.074 A 
ATOM     58  C   UNL A   1      44.697  24.959  31.499  1.00  0.00     0.031 C 
ATOM     59  C   UNL A   1      43.973  26.521  33.310  1.00  0.00     0.037 A 
BRANCH  46  60
ATOM     60  C   UNL A   1      40.094  31.136  34.780  1.00  0.00     0.064 A 
ATOM     61  C   UNL A   1      40.808  32.308  35.091  1.00  0.00     0.173 A 
ATOM     62  C   UNL A   1      38.943  30.851  35.522  1.00  0.00     0.173 A 
ATOM     63  F   UNL A   1      41.947  32.600  34.443  1.00  0.00    -0.203 F 
ATOM     64  C   UNL A   1      40.408  33.132  36.139  1.00  0.00     0.198 A 
ATOM     65  C   UNL A   1      38.521  31.702  36.538  1.00  0.00     0.198 A 
ATOM     66  F   UNL A   1      38.242  29.733  35.281  1.00  0.00    -0.203 F 
ATOM     67  F   UNL A   1      41.158  34.188  36.482  1.00  0.00    -0.200 F 
ATOM     68  C   UNL A   1      39.261  32.832  36.855  1.00  0.00     0.200 A 
ATOM     69  F   UNL A   1      37.410  31.413  37.230  1.00  0.00    -0.200 F 
ATOM     70  F   UNL A   1      38.877  33.622  37.868  1.00  0.00    -0.200 F 
ENDBRANCH  46  60
BRANCH  47  71
ATOM     71  C   UNL A   1      43.380  25.129  27.477  1.00  0.00     0.064 A 
ATOM     72  C   UNL A   1      42.677  23.972  27.093  1.00  0.00     0.173 A 
ATOM     73  C   UNL A   1      44.431  25.524  26.622  1.00  0.00     0.173 A 
ATOM     74  F   UNL A   1      41.659  23.533  27.848  1.00  0.00    -0.203 F 
ATOM     75  C   UNL A   1      42.997  23.258  25.930  1.00  0.00     0.198 A 
ATOM     76  C   UNL A   1      44.733  24.824  25.442  1.00  0.00     0.198 A 
ATOM     77  F   UNL A   1      45.126  26.640  26.886  1.00  0.00    -0.203 F 
ATOM     78  F   UNL A   1      42.304  22.156  25.609  1.00  0.00    -0.200 F 
ATOM     79  C   UNL A   1      44.017  23.690  25.098  1.00  0.00     0.200 A 
ATOM     80  F   UNL A   1      45.698  25.269  24.623  1.00  0.00    -0.200 F 
ATOM     81  F   UNL A   1      44.299  23.025  23.968  1.00  0.00    -0.200 F 
ENDBRANCH  47  71
BRANCH  59  82
ATOM     82  C   UNL A   1      44.919  25.780  34.176  1.00  0.00     0.064 A 
ATOM     83  C   UNL A   1      44.501  24.649  34.892  1.00  0.00     0.173 A 
ATOM     84  C   UNL A   1      46.214  26.269  34.367  1.00  0.00     0.173 A 
ATOM     85  F   UNL A   1      43.242  24.198  34.773  1.00  0.00    -0.203 F 
ATOM     86  C   UNL A   1      45.348  24.053  35.812  1.00  0.00     0.198 A 
ATOM     87  C   UNL A   1      47.071  25.642  35.256  1.00  0.00     0.198 A 
ATOM     88  F   UNL A   1      46.627  27.368  33.718  1.00  0.00    -0.203 F 
ATOM     89  F   UNL A   1      44.905  23.035  36.562  1.00  0.00    -0.200 F 
ATOM     90  C   UNL A   1      46.634  24.545  35.987  1.00  0.00     0.200 A 
ATOM     91  F   UNL A   1      48.312  26.117  35.429  1.00  0.00    -0.200 F 
ATOM     92  F   UNL A   1      47.448  23.974  36.883  1.00  0.00    -0.200 F 
ENDBRANCH  59  82
ENDBRANCH  33  34
ENDBRANCH  26  28
ENDBRANCH  25  26
ENDBRANCH  24  25
ENDBRANCH   1  24
TORSDOF 16
ENDMDL
MODEL 2
REMARK VINA RESULT:     -12.5      4.322     10.057
REMARK SMILES CC(=O)N(c1ccccc1)c1nc(/C=C(/C#N)C(=O)OCCOC(=O)c2ccc(-c3c4nc(c(-c5c(F)c(F)c(F)c(F)c5F)c5ccc([nH]5)c(-c5c(F)c(F)c(F)c(F)c5F)c5nc(c(-c6c(F)c(F)c(F)c(F)c6F)c6ccc3[nH]6)C=C5)C=C4)cc2)cs1
REMARK SMILES IDX 21 1 20 2 18 3 19 4 15 5 14 6 13 7 11 8 12 9 90 10 89 11
REMARK SMILES IDX 4 12 2 13 1 14 3 15 5 16 6 17 10 18 7 19 9 20 8 21 16 22
REMARK SMILES IDX 17 23 22 24 23 25 24 26 25 27 26 28 27 29 88 30 28 31 87 32
REMARK SMILES IDX 29 33 30 34 31 35 81 36 32 37 86 38 80 39 82 40 33 41 85 42
REMARK SMILES IDX 79 43 78 44 34 46 66 47 46 48 65 49 47 50 50 51 64 52 83 53
REMARK SMILES IDX 48 54 49 55 63 57 84 58 51 59 35 60 36 61 44 62 37 63 38 64
REMARK SMILES IDX 42 65 45 66 39 67 40 68 43 69 41 70 67 71 68 72 76 73 69 74
REMARK SMILES IDX 70 75 74 76 77 77 71 78 72 79 75 80 73 81 52 82 53 83 61 84
REMARK SMILES IDX 54 85 55 86 59 87 62 88 56 89 57 90 60 91 58 92
REMARK H PARENT 82 45 50 56
REMARK Flexibility Score: inf
ROOT
ATOM      1  C   UNL A   1      35.610  20.970  25.016  1.00  0.00     0.275 C 
ENDROOT
BRANCH   1   2
ATOM      2  O   UNL A   1      34.681  19.963  24.625  1.00  0.00    -0.458 OA
BRANCH   2   3
ATOM      3  C   UNL A   1      33.397  20.233  24.938  1.00  0.00     0.349 C 
ATOM      4  O   UNL A   1      32.981  20.841  25.912  1.00  0.00    -0.245 OA
BRANCH   3   5
ATOM      5  C   UNL A   1      32.601  19.958  23.751  1.00  0.00     0.139 C 
ATOM      6  C   UNL A   1      32.157  21.012  23.057  1.00  0.00     0.056 C 
BRANCH   6   7
ATOM      7  C   UNL A   1      32.453  22.398  23.200  1.00  0.00     0.078 A 
ATOM      8  C   UNL A   1      31.614  24.294  23.927  1.00  0.00     0.197 A 
ATOM      9  N   UNL A   1      31.371  23.038  23.673  1.00  0.00    -0.220 NA
ATOM     10  S   UNL A   1      33.070  24.893  23.322  1.00  0.00    -0.104 S 
ATOM     11  C   UNL A   1      33.497  23.245  22.898  1.00  0.00     0.097 A 
BRANCH   8  12
ATOM     12  N   UNL A   1      30.837  24.888  24.897  1.00  0.00    -0.256 N 
BRANCH  12  13
ATOM     13  C   UNL A   1      31.208  24.025  26.112  1.00  0.00     0.230 C 
ATOM     14  C   UNL A   1      30.276  22.953  26.873  1.00  0.00     0.115 C 
ATOM     15  O   UNL A   1      32.331  24.144  26.646  1.00  0.00    -0.274 OA
ENDBRANCH  12  13
BRANCH  12  16
ATOM     16  C   UNL A   1      30.445  26.418  24.660  1.00  0.00     0.051 A 
ATOM     17  C   UNL A   1      31.166  27.453  25.308  1.00  0.00     0.027 A 
ATOM     18  C   UNL A   1      29.633  26.965  23.646  1.00  0.00     0.027 A 
ATOM     19  C   UNL A   1      31.399  28.766  24.806  1.00  0.00     0.002 A 
ATOM     20  C   UNL A   1      29.774  28.320  23.170  1.00  0.00     0.002 A 
ATOM     21  C   UNL A   1      30.711  29.199  23.700  1.00  0.00     0.000 A 
ENDBRANCH  12  16
ENDBRANCH   8  12
ENDBRANCH   6   7
BRANCH   5  22
ATOM     22  C   UNL A   1      32.566  18.651  23.201  1.00  0.00     0.107 C 
ATOM     23  N   UNL A   1      32.602  17.595  22.728  1.00  0.00    -0.192 NA
ENDBRANCH   5  22
ENDBRANCH   3   5
ENDBRANCH   2   3
ENDBRANCH   1   2
BRANCH   1  24
ATOM     24  C   UNL A   1      37.010  20.342  25.136  1.00  0.00     0.275 C 
BRANCH  24  25
ATOM     25  O   UNL A   1      38.154  21.235  24.912  1.00  0.00    -0.458 OA
BRANCH  25  26
ATOM     26  C   UNL A   1      39.245  21.136  25.743  1.00  0.00     0.338 C 
ATOM     27  O   UNL A   1      40.026  20.198  25.751  1.00  0.00    -0.246 OA
BRANCH  26  28
ATOM     28  C   UNL A   1      39.420  22.357  26.634  1.00  0.00     0.060 A 
ATOM     29  C   UNL A   1      40.390  22.429  27.641  1.00  0.00     0.016 A 
ATOM     30  C   UNL A   1      38.618  23.479  26.538  1.00  0.00     0.016 A 
ATOM     31  C   UNL A   1      40.753  23.691  28.272  1.00  0.00     0.010 A 
ATOM     32  C   UNL A   1      38.936  24.681  27.275  1.00  0.00     0.010 A 
ATOM     33  C   UNL A   1      40.173  24.943  27.937  1.00  0.00    -0.014 A 
BRANCH  33  34
ATOM     34  C   UNL A   1      40.703  26.544  28.374  1.00  0.00     0.031 A 
ATOM     35  C   UNL A   1      42.129  26.757  27.940  1.00  0.00     0.074 A 
ATOM     36  C   UNL A   1      40.187  27.706  29.053  1.00  0.00     0.049 A 
ATOM     37  N   UNL A   1      42.877  27.822  28.062  1.00  0.00    -0.248 NA
ATOM     38  C   UNL A   1      42.817  25.607  27.335  1.00  0.00     0.031 C 
ATOM     39  C   UNL A   1      38.913  27.944  29.729  1.00  0.00     0.029 A 
ATOM     40  N   UNL A   1      40.663  29.028  29.317  1.00  0.00    -0.354 N 
ATOM     41  C   UNL A   1      44.108  27.460  27.558  1.00  0.00     0.074 A 
ATOM     42  C   UNL A   1      44.055  26.052  27.250  1.00  0.00     0.031 C 
ATOM     43  C   UNL A   1      38.610  29.142  30.172  1.00  0.00     0.029 A 
ATOM     44  C   UNL A   1      39.770  29.898  30.007  1.00  0.00     0.049 A 
ATOM     45  H   UNL A   1      41.560  29.322  29.036  1.00  0.00     0.167 HD
ATOM     46  C   UNL A   1      45.175  28.245  27.308  1.00  0.00     0.037 A 
ATOM     47  C   UNL A   1      39.690  31.138  30.537  1.00  0.00     0.037 A 
ATOM     48  C   UNL A   1      45.242  29.649  27.604  1.00  0.00     0.049 A 
ATOM     49  C   UNL A   1      40.843  31.970  30.232  1.00  0.00     0.074 A 
ATOM     50  C   UNL A   1      46.278  30.521  27.333  1.00  0.00     0.029 A 
ATOM     51  N   UNL A   1      44.255  30.391  28.246  1.00  0.00    -0.354 N 
ATOM     52  N   UNL A   1      41.938  31.570  29.654  1.00  0.00    -0.248 NA
ATOM     53  C   UNL A   1      40.752  33.391  30.548  1.00  0.00     0.031 C 
ATOM     54  C   UNL A   1      45.950  31.771  27.860  1.00  0.00     0.029 A 
ATOM     55  C   UNL A   1      44.679  31.704  28.401  1.00  0.00     0.049 A 
ATOM     56  H   UNL A   1      43.387  30.036  28.546  1.00  0.00     0.167 HD
ATOM     57  C   UNL A   1      42.683  32.700  29.502  1.00  0.00     0.074 A 
ATOM     58  C   UNL A   1      41.892  33.808  30.018  1.00  0.00     0.031 C 
ATOM     59  C   UNL A   1      43.920  32.783  28.978  1.00  0.00     0.037 A 
BRANCH  46  60
ATOM     60  C   UNL A   1      46.352  27.555  26.685  1.00  0.00     0.064 A 
ATOM     61  C   UNL A   1      47.356  26.949  27.463  1.00  0.00     0.173 A 
ATOM     62  C   UNL A   1      46.519  27.572  25.296  1.00  0.00     0.173 A 
ATOM     63  F   UNL A   1      47.269  26.953  28.803  1.00  0.00    -0.203 F 
ATOM     64  C   UNL A   1      48.503  26.428  26.872  1.00  0.00     0.198 A 
ATOM     65  C   UNL A   1      47.644  27.008  24.706  1.00  0.00     0.198 A 
ATOM     66  F   UNL A   1      45.603  28.161  24.512  1.00  0.00    -0.203 F 
ATOM     67  F   UNL A   1      49.490  25.946  27.639  1.00  0.00    -0.200 F 
ATOM     68  C   UNL A   1      48.641  26.451  25.494  1.00  0.00     0.200 A 
ATOM     69  F   UNL A   1      47.778  27.029  23.372  1.00  0.00    -0.200 F 
ATOM     70  F   UNL A   1      49.747  25.953  24.922  1.00  0.00    -0.200 F 
ENDBRANCH  46  60
BRANCH  47  71
ATOM     71  C   UNL A   1      38.454  31.668  31.258  1.00  0.00     0.064 A 
ATOM     72  C   UNL A   1      37.311  32.078  30.547  1.00  0.00     0.173 A 
ATOM     73  C   UNL A   1      38.329  31.641  32.664  1.00  0.00     0.173 A 
ATOM     74  F   UNL A   1      37.345  32.125  29.207  1.00  0.00    -0.203 F 
ATOM     75  C   UNL A   1      36.120  32.436  31.194  1.00  0.00     0.198 A 
ATOM     76  C   UNL A   1      37.127  31.972  33.310  1.00  0.00     0.198 A 
ATOM     77  F   UNL A   1      39.354  31.219  33.419  1.00  0.00    -0.203 F 
ATOM     78  F   UNL A   1      35.059  32.830  30.475  1.00  0.00    -0.200 F 
ATOM     79  C   UNL A   1      36.023  32.372  32.574  1.00  0.00     0.200 A 
ATOM     80  F   UNL A   1      37.030  31.872  34.644  1.00  0.00    -0.200 F 
ATOM     81  F   UNL A   1      34.872  32.680  33.190  1.00  0.00    -0.200 F 
ENDBRANCH  47  71
BRANCH  59  82
ATOM     82  C   UNL A   1      44.484  34.151  28.993  1.00  0.00     0.064 A 
ATOM     83  C   UNL A   1      44.289  35.020  27.909  1.00  0.00     0.173 A 
ATOM     84  C   UNL A   1      45.308  34.552  30.048  1.00  0.00     0.173 A 
ATOM     85  F   UNL A   1      43.553  34.634  26.855  1.00  0.00    -0.203 F 
ATOM     86  C   UNL A   1      44.944  36.240  27.865  1.00  0.00     0.198 A 
ATOM     87  C   UNL A   1      45.925  35.791  30.019  1.00  0.00     0.198 A 
ATOM     88  F   UNL A   1      45.536  33.726  31.081  1.00  0.00    -0.203 F 
ATOM     89  F   UNL A   1      44.829  37.018  26.780  1.00  0.00    -0.200 F 
ATOM     90  C   UNL A   1      45.754  36.627  28.923  1.00  0.00     0.200 A 
ATOM     91  F   UNL A   1      46.711  36.165  31.037  1.00  0.00    -0.200 F 
ATOM     92  F   UNL A   1      46.394  37.802  28.875  1.00  0.00    -0.200 F 
ENDBRANCH  59  82
ENDBRANCH  33  34
ENDBRANCH  26  28
ENDBRANCH  25  26
ENDBRANCH  24  25
ENDBRANCH   1  24
TORSDOF 16
ENDMDL
MODEL 3
REMARK VINA RESULT:     -12.4      4.365     10.133
REMARK SMILES CC(=O)N(c1ccccc1)c1nc(/C=C(/C#N)C(=O)OCCOC(=O)c2ccc(-c3c4nc(c(-c5c(F)c(F)c(F)c(F)c5F)c5ccc([nH]5)c(-c5c(F)c(F)c(F)c(F)c5F)c5nc(c(-c6c(F)c(F)c(F)c(F)c6F)c6ccc3[nH]6)C=C5)C=C4)cc2)cs1
REMARK SMILES IDX 21 1 20 2 18 3 19 4 15 5 14 6 13 7 11 8 12 9 90 10 89 11
REMARK SMILES IDX 4 12 2 13 1 14 3 15 5 16 6 17 10 18 7 19 9 20 8 21 16 22
REMARK SMILES IDX 17 23 22 24 23 25 24 26 25 27 26 28 27 29 88 30 28 31 87 32
REMARK SMILES IDX 29 33 30 34 31 35 81 36 32 37 86 38 80 39 82 40 33 41 85 42
REMARK SMILES IDX 79 43 78 44 34 46 66 47 46 48 65 49 47 50 50 51 64 52 83 53
REMARK SMILES IDX 48 54 49 55 63 57 84 58 51 59 35 60 36 61 44 62 37 63 38 64
REMARK SMILES IDX 42 65 45 66 39 67 40 68 43 69 41 70 67 71 68 72 76 73 69 74
REMARK SMILES IDX 70 75 74 76 77 77 71 78 72 79 75 80 73 81 52 82 53 83 61 84
REMARK SMILES IDX 54 85 55 86 59 87 62 88 56 89 57 90 60 91 58 92
REMARK H PARENT 82 45 50 56
REMARK Flexibility Score: inf
ROOT
ATOM      1  C   UNL A   1      35.963  21.144  25.228  1.00  0.00     0.275 C 
ENDROOT
BRANCH   1   2
ATOM      2  O   UNL A   1      34.978  20.285  24.658  1.00  0.00    -0.458 OA
BRANCH   2   3
ATOM      3  C   UNL A   1      33.760  20.370  25.232  1.00  0.00     0.349 C 
ATOM      4  O   UNL A   1      33.462  20.955  26.261  1.00  0.00    -0.245 OA
BRANCH   3   5
ATOM      5  C   UNL A   1      32.791  19.917  24.245  1.00  0.00     0.139 C 
ATOM      6  C   UNL A   1      32.184  20.857  23.510  1.00  0.00     0.056 C 
BRANCH   6   7
ATOM      7  C   UNL A   1      32.431  22.258  23.423  1.00  0.00     0.078 A 
ATOM      8  C   UNL A   1      31.658  24.208  24.075  1.00  0.00     0.197 A 
ATOM      9  N   UNL A   1      31.434  22.923  24.028  1.00  0.00    -0.220 NA
ATOM     10  S   UNL A   1      32.929  24.763  23.115  1.00  0.00    -0.104 S 
ATOM     11  C   UNL A   1      33.347  23.086  22.813  1.00  0.00     0.097 A 
BRANCH   8  12
ATOM     12  N   UNL A   1      31.062  24.900  25.106  1.00  0.00    -0.256 N 
BRANCH  12  13
ATOM     13  C   UNL A   1      31.833  24.325  26.304  1.00  0.00     0.230 C 
ATOM     14  C   UNL A   1      33.432  24.266  26.501  1.00  0.00     0.115 C 
ATOM     15  O   UNL A   1      31.216  23.794  27.251  1.00  0.00    -0.274 OA
ENDBRANCH  12  13
BRANCH  12  16
ATOM     16  C   UNL A   1      30.413  26.311  24.737  1.00  0.00     0.051 A 
ATOM     17  C   UNL A   1      31.101  27.516  25.027  1.00  0.00     0.027 A 
ATOM     18  C   UNL A   1      29.329  26.576  23.875  1.00  0.00     0.027 A 
ATOM     19  C   UNL A   1      31.029  28.733  24.288  1.00  0.00     0.002 A 
ATOM     20  C   UNL A   1      29.168  27.828  23.176  1.00  0.00     0.002 A 
ATOM     21  C   UNL A   1      30.062  28.882  23.325  1.00  0.00     0.000 A 
ENDBRANCH  12  16
ENDBRANCH   8  12
ENDBRANCH   6   7
BRANCH   5  22
ATOM     22  C   UNL A   1      32.729  18.548  23.880  1.00  0.00     0.107 C 
ATOM     23  N   UNL A   1      32.684  17.415  23.649  1.00  0.00    -0.192 NA
ENDBRANCH   5  22
ENDBRANCH   3   5
ENDBRANCH   2   3
ENDBRANCH   1   2
BRANCH   1  24
ATOM     24  C   UNL A   1      37.355  20.522  25.016  1.00  0.00     0.275 C 
BRANCH  24  25
ATOM     25  O   UNL A   1      38.496  21.447  25.015  1.00  0.00    -0.458 OA
BRANCH  25  26
ATOM     26  C   UNL A   1      39.488  21.275  25.951  1.00  0.00     0.338 C 
ATOM     27  O   UNL A   1      40.182  20.276  26.048  1.00  0.00    -0.246 OA
BRANCH  26  28
ATOM     28  C   UNL A   1      39.678  22.496  26.839  1.00  0.00     0.060 A 
ATOM     29  C   UNL A   1      40.745  22.623  27.735  1.00  0.00     0.016 A 
ATOM     30  C   UNL A   1      38.797  23.562  26.851  1.00  0.00     0.016 A 
ATOM     31  C   UNL A   1      41.090  23.901  28.346  1.00  0.00     0.010 A 
ATOM     32  C   UNL A   1      39.113  24.775  27.569  1.00  0.00     0.010 A 
ATOM     33  C   UNL A   1      40.395  25.114  28.098  1.00  0.00    -0.014 A 
BRANCH  33  34
ATOM     34  C   UNL A   1      40.862  26.742  28.502  1.00  0.00     0.031 A 
ATOM     35  C   UNL A   1      42.272  27.009  28.046  1.00  0.00     0.074 A 
ATOM     36  C   UNL A   1      40.305  27.892  29.171  1.00  0.00     0.049 A 
ATOM     37  N   UNL A   1      42.974  28.107  28.141  1.00  0.00    -0.248 NA
ATOM     38  C   UNL A   1      43.000  25.881  27.449  1.00  0.00     0.031 C 
ATOM     39  C   UNL A   1      39.031  28.087  29.860  1.00  0.00     0.029 A 
ATOM     40  N   UNL A   1      40.728  29.238  29.407  1.00  0.00    -0.354 N 
ATOM     41  C   UNL A   1      44.213  27.790  27.626  1.00  0.00     0.074 A 
ATOM     42  C   UNL A   1      44.216  26.377  27.340  1.00  0.00     0.031 C 
ATOM     43  C   UNL A   1      38.684  29.278  30.289  1.00  0.00     0.029 A 
ATOM     44  C   UNL A   1      39.808  30.080  30.096  1.00  0.00     0.049 A 
ATOM     45  H   UNL A   1      41.608  29.565  29.110  1.00  0.00     0.167 HD
ATOM     46  C   UNL A   1      45.242  28.615  27.348  1.00  0.00     0.037 A 
ATOM     47  C   UNL A   1      39.681  31.323  30.609  1.00  0.00     0.037 A 
ATOM     48  C   UNL A   1      45.253  30.026  27.621  1.00  0.00     0.049 A 
ATOM     49  C   UNL A   1      40.794  32.199  30.275  1.00  0.00     0.074 A 
ATOM     50  C   UNL A   1      46.247  30.937  27.323  1.00  0.00     0.029 A 
ATOM     51  N   UNL A   1      44.243  30.735  28.265  1.00  0.00    -0.354 N 
ATOM     52  N   UNL A   1      41.896  31.836  29.688  1.00  0.00    -0.248 NA
ATOM     53  C   UNL A   1      40.646  33.619  30.570  1.00  0.00     0.031 C 
ATOM     54  C   UNL A   1      45.872  32.180  27.835  1.00  0.00     0.029 A 
ATOM     55  C   UNL A   1      44.612  32.068  28.395  1.00  0.00     0.049 A 
ATOM     56  H   UNL A   1      43.395  30.349  28.583  1.00  0.00     0.167 HD
ATOM     57  C   UNL A   1      42.591  32.994  29.508  1.00  0.00     0.074 A 
ATOM     58  C   UNL A   1      41.760  34.076  30.018  1.00  0.00     0.031 C 
ATOM     59  C   UNL A   1      43.816  33.122  28.966  1.00  0.00     0.037 A 
BRANCH  46  60
ATOM     60  C   UNL A   1      46.439  27.967  26.720  1.00  0.00     0.064 A 
ATOM     61  C   UNL A   1      46.537  27.777  25.329  1.00  0.00     0.173 A 
ATOM     62  C   UNL A   1      47.462  27.456  27.526  1.00  0.00     0.173 A 
ATOM     63  F   UNL A   1      45.556  28.202  24.516  1.00  0.00    -0.203 F 
ATOM     64  C   UNL A   1      47.594  27.059  24.777  1.00  0.00     0.198 A 
ATOM     65  C   UNL A   1      48.541  26.780  26.966  1.00  0.00     0.198 A 
ATOM     66  F   UNL A   1      47.402  27.587  28.859  1.00  0.00    -0.203 F 
ATOM     67  F   UNL A   1      47.615  26.805  23.462  1.00  0.00    -0.200 F 
ATOM     68  C   UNL A   1      48.598  26.569  25.595  1.00  0.00     0.200 A 
ATOM     69  F   UNL A   1      49.514  26.307  27.757  1.00  0.00    -0.200 F 
ATOM     70  F   UNL A   1      49.615  25.874  25.067  1.00  0.00    -0.200 F 
ENDBRANCH  46  60
BRANCH  47  71
ATOM     71  C   UNL A   1      38.433  31.812  31.338  1.00  0.00     0.064 A 
ATOM     72  C   UNL A   1      37.273  32.183  30.636  1.00  0.00     0.173 A 
ATOM     73  C   UNL A   1      38.320  31.781  32.745  1.00  0.00     0.173 A 
ATOM     74  F   UNL A   1      37.295  32.231  29.296  1.00  0.00    -0.203 F 
ATOM     75  C   UNL A   1      36.075  32.501  31.291  1.00  0.00     0.198 A 
ATOM     76  C   UNL A   1      37.111  32.071  33.400  1.00  0.00     0.198 A 
ATOM     77  F   UNL A   1      39.363  31.393  33.493  1.00  0.00    -0.203 F 
ATOM     78  F   UNL A   1      34.996  32.859  30.580  1.00  0.00    -0.200 F 
ATOM     79  C   UNL A   1      35.990  32.433  32.672  1.00  0.00     0.200 A 
ATOM     80  F   UNL A   1      37.028  31.968  34.735  1.00  0.00    -0.200 F 
ATOM     81  F   UNL A   1      34.834  32.703  33.296  1.00  0.00    -0.200 F 
ENDBRANCH  47  71
BRANCH  59  82
ATOM     82  C   UNL A   1      44.321  34.513  28.951  1.00  0.00     0.064 A 
ATOM     83  C   UNL A   1      45.025  35.033  30.047  1.00  0.00     0.173 A 
ATOM     84  C   UNL A   1      44.005  35.355  27.881  1.00  0.00     0.173 A 
ATOM     85  F   UNL A   1      45.287  34.261  31.113  1.00  0.00    -0.203 F 
ATOM     86  C   UNL A   1      45.362  36.377  30.087  1.00  0.00     0.198 A 
ATOM     87  C   UNL A   1      44.382  36.688  27.908  1.00  0.00     0.198 A 
ATOM     88  F   UNL A   1      43.303  34.890  26.837  1.00  0.00    -0.203 F 
ATOM     89  F   UNL A   1      45.947  36.883  31.181  1.00  0.00    -0.200 F 
ATOM     90  C   UNL A   1      45.047  37.200  29.014  1.00  0.00     0.200 A 
ATOM     91  F   UNL A   1      44.076  37.485  26.876  1.00  0.00    -0.200 F 
ATOM     92  F   UNL A   1      45.364  38.500  29.059  1.00  0.00    -0.200 F 
ENDBRANCH  59  82
ENDBRANCH  33  34
ENDBRANCH  26  28
ENDBRANCH  25  26
ENDBRANCH  24  25
ENDBRANCH   1  24
TORSDOF 16
ENDMDL
