MODEL 1
REMARK VINA RESULT:     -11.4      0.000      0.000
REMARK SMILES CCCCOc1ccc(-c2nc(C)c(C(=O)OCCOC(=O)c3ccc(-c4c5nc(c(-c6c(F)c(F)c(F)c(F)c6F)c6ccc([nH]6)c(-c6c(F)c(F)c(F)c(F)c6F)c6nc(c(-c7c(F)c(F)c(F)c(F)c7F)c7ccc4[nH]7)C=C6)C=C5)cc3)s2)cc1
REMARK SMILES IDX 17 1 15 2 16 3 14 4 10 5 11 6 86 7 12 8 13 9 9 10 6 11 7 12
REMARK SMILES IDX 88 13 8 14 87 15 5 16 4 17 3 18 2 19 1 20 18 21 19 22 20 23
REMARK SMILES IDX 21 24 22 25 23 26 24 27 85 28 25 29 84 30 26 31 27 32 28 33
REMARK SMILES IDX 78 34 29 35 83 36 77 37 79 38 30 39 82 40 76 41 75 42 31 44
REMARK SMILES IDX 63 45 43 46 62 47 44 48 47 49 61 50 80 51 45 52 46 53 60 55
REMARK SMILES IDX 81 56 48 57 32 58 33 59 41 60 34 61 35 62 39 63 42 64 36 65
REMARK SMILES IDX 37 66 40 67 38 68 64 69 65 70 73 71 66 72 67 73 71 74 74 75
REMARK SMILES IDX 68 76 69 77 72 78 70 79 49 80 50 81 58 82 51 83 52 84 56 85
REMARK SMILES IDX 59 86 53 87 54 88 57 89 55 90
REMARK H PARENT 79 43 47 54
REMARK Flexibility Score: inf
ROOT
ATOM      1  O   UNL A   1      30.371  29.649  23.905  1.00  0.00    -0.458 OA
ENDROOT
BRANCH   1   2
ATOM      2  C   UNL A   1      30.328  28.934  22.743  1.00  0.00     0.350 C 
ATOM      3  O   UNL A   1      30.258  29.452  21.637  1.00  0.00    -0.245 OA
BRANCH   2   4
ATOM      4  C   UNL A   1      30.462  27.509  22.995  1.00  0.00     0.135 A 
ATOM      5  C   UNL A   1      31.463  25.311  23.340  1.00  0.00     0.124 A 
ATOM      6  N   UNL A   1      30.206  25.290  23.718  1.00  0.00    -0.240 NA
ATOM      7  S   UNL A   1      31.950  26.754  22.556  1.00  0.00    -0.106 S 
ATOM      8  C   UNL A   1      29.618  26.544  23.529  1.00  0.00     0.064 A 
ATOM      9  C   UNL A   1      28.186  26.660  23.912  1.00  0.00     0.068 C 
BRANCH   5  10
ATOM     10  C   UNL A   1      32.457  24.256  23.539  1.00  0.00     0.011 A 
ATOM     11  C   UNL A   1      34.420  22.333  24.116  1.00  0.00     0.119 A 
ATOM     12  C   UNL A   1      34.636  23.260  23.097  1.00  0.00     0.047 A 
ATOM     13  C   UNL A   1      33.240  22.372  24.849  1.00  0.00     0.047 A 
ATOM     14  C   UNL A   1      33.652  24.220  22.806  1.00  0.00     0.015 A 
ATOM     15  C   UNL A   1      32.249  23.300  24.544  1.00  0.00     0.015 A 
BRANCH  11  16
ATOM     16  O   UNL A   1      35.409  21.481  24.521  1.00  0.00    -0.494 OA
BRANCH  16  17
ATOM     17  C   UNL A   1      36.722  21.918  24.151  1.00  0.00     0.229 C 
BRANCH  17  18
ATOM     18  C   UNL A   1      37.566  22.278  25.384  1.00  0.00     0.041 C 
BRANCH  18  19
ATOM     19  C   UNL A   1      37.349  23.663  26.000  1.00  0.00     0.000 C 
ATOM     20  C   UNL A   1      38.608  24.359  26.496  1.00  0.00     0.004 C 
ENDBRANCH  18  19
ENDBRANCH  17  18
ENDBRANCH  16  17
ENDBRANCH  11  16
ENDBRANCH   5  10
ENDBRANCH   2   4
ENDBRANCH   1   2
BRANCH   1  21
ATOM     21  C   UNL A   1      31.413  29.305  24.842  1.00  0.00     0.275 C 
BRANCH  21  22
ATOM     22  C   UNL A   1      31.706  30.449  25.818  1.00  0.00     0.275 C 
BRANCH  22  23
ATOM     23  O   UNL A   1      33.064  30.418  26.294  1.00  0.00    -0.458 OA
BRANCH  23  24
ATOM     24  C   UNL A   1      33.419  31.465  27.073  1.00  0.00     0.338 C 
ATOM     25  O   UNL A   1      32.751  32.449  27.340  1.00  0.00    -0.246 OA
BRANCH  24  26
ATOM     26  C   UNL A   1      34.719  31.195  27.702  1.00  0.00     0.060 A 
ATOM     27  C   UNL A   1      34.960  29.895  28.143  1.00  0.00     0.016 A 
ATOM     28  C   UNL A   1      35.645  32.207  27.946  1.00  0.00     0.016 A 
ATOM     29  C   UNL A   1      36.112  29.593  28.858  1.00  0.00     0.010 A 
ATOM     30  C   UNL A   1      36.822  31.898  28.638  1.00  0.00     0.010 A 
ATOM     31  C   UNL A   1      37.058  30.592  29.110  1.00  0.00    -0.014 A 
BRANCH  31  32
ATOM     32  C   UNL A   1      38.279  30.276  29.894  1.00  0.00     0.031 A 
ATOM     33  C   UNL A   1      39.322  29.362  29.317  1.00  0.00     0.074 A 
ATOM     34  C   UNL A   1      38.450  30.809  31.118  1.00  0.00     0.049 A 
ATOM     35  N   UNL A   1      40.374  28.837  29.890  1.00  0.00    -0.248 NA
ATOM     36  C   UNL A   1      39.152  28.983  27.906  1.00  0.00     0.031 C 
ATOM     37  C   UNL A   1      37.540  31.760  31.760  1.00  0.00     0.029 A 
ATOM     38  N   UNL A   1      39.443  30.621  32.047  1.00  0.00    -0.354 N 
ATOM     39  C   UNL A   1      40.972  28.039  28.924  1.00  0.00     0.074 A 
ATOM     40  C   UNL A   1      40.157  28.136  27.732  1.00  0.00     0.031 C 
ATOM     41  C   UNL A   1      38.016  32.070  32.975  1.00  0.00     0.029 A 
ATOM     42  C   UNL A   1      39.220  31.287  33.228  1.00  0.00     0.049 A 
ATOM     43  H   UNL A   1      40.238  30.062  31.883  1.00  0.00     0.167 HD
ATOM     44  C   UNL A   1      42.100  27.294  29.028  1.00  0.00     0.037 A 
ATOM     45  C   UNL A   1      39.884  31.232  34.399  1.00  0.00     0.037 A 
ATOM     46  C   UNL A   1      42.911  27.226  30.216  1.00  0.00     0.049 A 
ATOM     47  C   UNL A   1      41.084  30.333  34.516  1.00  0.00     0.074 A 
ATOM     48  C   UNL A   1      44.080  26.515  30.421  1.00  0.00     0.029 A 
ATOM     49  N   UNL A   1      42.633  27.891  31.403  1.00  0.00    -0.354 N 
ATOM     50  N   UNL A   1      41.639  29.570  33.605  1.00  0.00    -0.248 NA
ATOM     51  C   UNL A   1      41.749  30.281  35.825  1.00  0.00     0.031 C 
ATOM     52  C   UNL A   1      44.476  26.698  31.749  1.00  0.00     0.029 A 
ATOM     53  C   UNL A   1      43.594  27.581  32.353  1.00  0.00     0.049 A 
ATOM     54  H   UNL A   1      41.868  28.493  31.548  1.00  0.00     0.167 HD
ATOM     55  C   UNL A   1      42.732  28.974  34.217  1.00  0.00     0.074 A 
ATOM     56  C   UNL A   1      42.768  29.469  35.578  1.00  0.00     0.031 C 
ATOM     57  C   UNL A   1      43.627  28.099  33.698  1.00  0.00     0.037 A 
BRANCH  44  58
ATOM     58  C   UNL A   1      42.499  26.460  27.844  1.00  0.00     0.064 A 
ATOM     59  C   UNL A   1      43.391  26.928  26.869  1.00  0.00     0.173 A 
ATOM     60  C   UNL A   1      42.006  25.154  27.705  1.00  0.00     0.173 A 
ATOM     61  F   UNL A   1      43.886  28.173  26.947  1.00  0.00    -0.203 F 
ATOM     62  C   UNL A   1      43.749  26.132  25.782  1.00  0.00     0.198 A 
ATOM     63  C   UNL A   1      42.392  24.348  26.637  1.00  0.00     0.198 A 
ATOM     64  F   UNL A   1      41.155  24.650  28.613  1.00  0.00    -0.203 F 
ATOM     65  F   UNL A   1      44.561  26.621  24.835  1.00  0.00    -0.200 F 
ATOM     66  C   UNL A   1      43.255  24.841  25.671  1.00  0.00     0.200 A 
ATOM     67  F   UNL A   1      41.926  23.095  26.541  1.00  0.00    -0.200 F 
ATOM     68  F   UNL A   1      43.606  24.074  24.629  1.00  0.00    -0.200 F 
ENDBRANCH  44  58
BRANCH  45  69
ATOM     69  C   UNL A   1      39.400  32.023  35.563  1.00  0.00     0.064 A 
ATOM     70  C   UNL A   1      38.519  31.466  36.500  1.00  0.00     0.173 A 
ATOM     71  C   UNL A   1      39.805  33.352  35.760  1.00  0.00     0.173 A 
ATOM     72  F   UNL A   1      38.084  30.208  36.344  1.00  0.00    -0.203 F 
ATOM     73  C   UNL A   1      38.049  32.213  37.578  1.00  0.00     0.198 A 
ATOM     74  C   UNL A   1      39.362  34.087  36.857  1.00  0.00     0.198 A 
ATOM     75  F   UNL A   1      40.646  33.935  34.893  1.00  0.00    -0.203 F 
ATOM     76  F   UNL A   1      37.168  31.672  38.431  1.00  0.00    -0.200 F 
ATOM     77  C   UNL A   1      38.477  33.520  37.761  1.00  0.00     0.200 A 
ATOM     78  F   UNL A   1      39.790  35.343  37.037  1.00  0.00    -0.200 F 
ATOM     79  F   UNL A   1      38.028  34.235  38.801  1.00  0.00    -0.200 F 
ENDBRANCH  45  69
BRANCH  57  80
ATOM     80  C   UNL A   1      44.761  27.658  34.578  1.00  0.00     0.064 A 
ATOM     81  C   UNL A   1      45.954  28.388  34.672  1.00  0.00     0.173 A 
ATOM     82  C   UNL A   1      44.617  26.526  35.395  1.00  0.00     0.173 A 
ATOM     83  F   UNL A   1      46.147  29.469  33.901  1.00  0.00    -0.203 F 
ATOM     84  C   UNL A   1      46.966  27.994  35.543  1.00  0.00     0.198 A 
ATOM     85  C   UNL A   1      45.617  26.153  36.288  1.00  0.00     0.198 A 
ATOM     86  F   UNL A   1      43.493  25.796  35.347  1.00  0.00    -0.203 F 
ATOM     87  F   UNL A   1      48.113  28.685  35.590  1.00  0.00    -0.200 F 
ATOM     88  C   UNL A   1      46.792  26.884  36.358  1.00  0.00     0.200 A 
ATOM     89  F   UNL A   1      45.439  25.092  37.086  1.00  0.00    -0.200 F 
ATOM     90  F   UNL A   1      47.760  26.520  37.210  1.00  0.00    -0.200 F 
ENDBRANCH  57  80
ENDBRANCH  31  32
ENDBRANCH  24  26
ENDBRANCH  23  24
ENDBRANCH  22  23
ENDBRANCH  21  22
ENDBRANCH   1  21
TORSDOF 16
ENDMDL
MODEL 2
REMARK VINA RESULT:     -11.3      1.360      2.529
REMARK SMILES CCCCOc1ccc(-c2nc(C)c(C(=O)OCCOC(=O)c3ccc(-c4c5nc(c(-c6c(F)c(F)c(F)c(F)c6F)c6ccc([nH]6)c(-c6c(F)c(F)c(F)c(F)c6F)c6nc(c(-c7c(F)c(F)c(F)c(F)c7F)c7ccc4[nH]7)C=C6)C=C5)cc3)s2)cc1
REMARK SMILES IDX 17 1 15 2 16 3 14 4 10 5 11 6 86 7 12 8 13 9 9 10 6 11 7 12
REMARK SMILES IDX 88 13 8 14 87 15 5 16 4 17 3 18 2 19 1 20 18 21 19 22 20 23
REMARK SMILES IDX 21 24 22 25 23 26 24 27 85 28 25 29 84 30 26 31 27 32 28 33
REMARK SMILES IDX 78 34 29 35 83 36 77 37 79 38 30 39 82 40 76 41 75 42 31 44
REMARK SMILES IDX 63 45 43 46 62 47 44 48 47 49 61 50 80 51 45 52 46 53 60 55
REMARK SMILES IDX 81 56 48 57 32 58 33 59 41 60 34 61 35 62 39 63 42 64 36 65
REMARK SMILES IDX 37 66 40 67 38 68 64 69 65 70 73 71 66 72 67 73 71 74 74 75
REMARK SMILES IDX 68 76 69 77 72 78 70 79 49 80 50 81 58 82 51 83 52 84 56 85
REMARK SMILES IDX 59 86 53 87 54 88 57 89 55 90
REMARK H PARENT 79 43 47 54
REMARK Flexibility Score: inf
ROOT
ATOM      1  O   UNL A   1      31.934  27.808  25.213  1.00  0.00    -0.458 OA
ENDROOT
BRANCH   1   2
ATOM      2  C   UNL A   1      31.540  26.736  24.466  1.00  0.00     0.350 C 
ATOM      3  O   UNL A   1      30.376  26.525  24.155  1.00  0.00    -0.245 OA
BRANCH   2   4
ATOM      4  C   UNL A   1      32.681  25.949  24.030  1.00  0.00     0.135 A 
ATOM      5  C   UNL A   1      34.617  24.466  24.088  1.00  0.00     0.124 A 
ATOM      6  N   UNL A   1      34.214  24.621  22.848  1.00  0.00    -0.240 NA
ATOM      7  S   UNL A   1      33.828  25.471  25.228  1.00  0.00    -0.106 S 
ATOM      8  C   UNL A   1      33.103  25.467  22.798  1.00  0.00     0.064 A 
ATOM      9  C   UNL A   1      32.545  25.736  21.446  1.00  0.00     0.068 C 
BRANCH   5  10
ATOM     10  C   UNL A   1      35.632  23.529  24.570  1.00  0.00     0.011 A 
ATOM     11  C   UNL A   1      37.728  21.833  25.354  1.00  0.00     0.119 A 
ATOM     12  C   UNL A   1      36.695  21.336  24.560  1.00  0.00     0.047 A 
ATOM     13  C   UNL A   1      37.722  23.166  25.745  1.00  0.00     0.047 A 
ATOM     14  C   UNL A   1      35.644  22.185  24.170  1.00  0.00     0.015 A 
ATOM     15  C   UNL A   1      36.667  24.002  25.389  1.00  0.00     0.015 A 
BRANCH  11  16
ATOM     16  O   UNL A   1      38.833  21.079  25.631  1.00  0.00    -0.494 OA
BRANCH  16  17
ATOM     17  C   UNL A   1      39.758  21.726  26.513  1.00  0.00     0.229 C 
BRANCH  17  18
ATOM     18  C   UNL A   1      40.799  20.738  27.064  1.00  0.00     0.041 C 
BRANCH  18  19
ATOM     19  C   UNL A   1      41.254  19.610  26.133  1.00  0.00     0.000 C 
ATOM     20  C   UNL A   1      42.760  19.420  26.029  1.00  0.00     0.004 C 
ENDBRANCH  18  19
ENDBRANCH  17  18
ENDBRANCH  16  17
ENDBRANCH  11  16
ENDBRANCH   5  10
ENDBRANCH   2   4
ENDBRANCH   1   2
BRANCH   1  21
ATOM     21  C   UNL A   1      31.718  29.115  24.641  1.00  0.00     0.275 C 
BRANCH  21  22
ATOM     22  C   UNL A   1      31.779  30.222  25.699  1.00  0.00     0.275 C 
BRANCH  22  23
ATOM     23  O   UNL A   1      32.947  30.108  26.532  1.00  0.00    -0.458 OA
BRANCH  23  24
ATOM     24  C   UNL A   1      33.361  31.266  27.094  1.00  0.00     0.338 C 
ATOM     25  O   UNL A   1      32.731  32.305  27.199  1.00  0.00    -0.246 OA
BRANCH  24  26
ATOM     26  C   UNL A   1      34.676  31.071  27.719  1.00  0.00     0.060 A 
ATOM     27  C   UNL A   1      34.982  29.793  28.182  1.00  0.00     0.016 A 
ATOM     28  C   UNL A   1      35.553  32.132  27.938  1.00  0.00     0.016 A 
ATOM     29  C   UNL A   1      36.152  29.561  28.894  1.00  0.00     0.010 A 
ATOM     30  C   UNL A   1      36.748  31.893  28.627  1.00  0.00     0.010 A 
ATOM     31  C   UNL A   1      37.051  30.608  29.121  1.00  0.00    -0.014 A 
BRANCH  31  32
ATOM     32  C   UNL A   1      38.290  30.367  29.902  1.00  0.00     0.031 A 
ATOM     33  C   UNL A   1      39.397  29.542  29.310  1.00  0.00     0.074 A 
ATOM     34  C   UNL A   1      38.420  30.886  31.137  1.00  0.00     0.049 A 
ATOM     35  N   UNL A   1      40.484  29.084  29.875  1.00  0.00    -0.248 NA
ATOM     36  C   UNL A   1      39.258  29.180  27.892  1.00  0.00     0.031 C 
ATOM     37  C   UNL A   1      37.443  31.755  31.795  1.00  0.00     0.029 A 
ATOM     38  N   UNL A   1      39.423  30.752  32.064  1.00  0.00    -0.354 N 
ATOM     39  C   UNL A   1      41.140  28.350  28.896  1.00  0.00     0.074 A 
ATOM     40  C   UNL A   1      40.321  28.411  27.704  1.00  0.00     0.031 C 
ATOM     41  C   UNL A   1      37.893  32.075  33.017  1.00  0.00     0.029 A 
ATOM     42  C   UNL A   1      39.151  31.377  33.258  1.00  0.00     0.049 A 
ATOM     43  H   UNL A   1      40.257  30.256  31.892  1.00  0.00     0.167 HD
ATOM     44  C   UNL A   1      42.318  27.687  28.988  1.00  0.00     0.037 A 
ATOM     45  C   UNL A   1      39.815  31.347  34.429  1.00  0.00     0.037 A 
ATOM     46  C   UNL A   1      43.131  27.655  30.176  1.00  0.00     0.049 A 
ATOM     47  C   UNL A   1      41.078  30.535  34.532  1.00  0.00     0.074 A 
ATOM     48  C   UNL A   1      44.348  27.026  30.371  1.00  0.00     0.029 A 
ATOM     49  N   UNL A   1      42.804  28.274  31.375  1.00  0.00    -0.354 N 
ATOM     50  N   UNL A   1      41.687  29.833  33.608  1.00  0.00    -0.248 NA
ATOM     51  C   UNL A   1      41.743  30.506  35.841  1.00  0.00     0.031 C 
ATOM     52  C   UNL A   1      44.728  27.212  31.704  1.00  0.00     0.029 A 
ATOM     53  C   UNL A   1      43.784  28.016  32.322  1.00  0.00     0.049 A 
ATOM     54  H   UNL A   1      41.997  28.816  31.530  1.00  0.00     0.167 HD
ATOM     55  C   UNL A   1      42.820  29.306  34.211  1.00  0.00     0.074 A 
ATOM     56  C   UNL A   1      42.819  29.775  35.581  1.00  0.00     0.031 C 
ATOM     57  C   UNL A   1      43.777  28.509  33.677  1.00  0.00     0.037 A 
BRANCH  44  58
ATOM     58  C   UNL A   1      42.779  26.908  27.789  1.00  0.00     0.064 A 
ATOM     59  C   UNL A   1      43.583  27.479  26.792  1.00  0.00     0.173 A 
ATOM     60  C   UNL A   1      42.436  25.553  27.656  1.00  0.00     0.173 A 
ATOM     61  F   UNL A   1      43.933  28.772  26.864  1.00  0.00    -0.203 F 
ATOM     62  C   UNL A   1      44.001  26.732  25.691  1.00  0.00     0.198 A 
ATOM     63  C   UNL A   1      42.884  24.800  26.573  1.00  0.00     0.198 A 
ATOM     64  F   UNL A   1      41.675  24.953  28.584  1.00  0.00    -0.203 F 
ATOM     65  F   UNL A   1      44.724  27.314  24.725  1.00  0.00    -0.200 F 
ATOM     66  C   UNL A   1      43.657  25.393  25.587  1.00  0.00     0.200 A 
ATOM     67  F   UNL A   1      42.563  23.502  26.484  1.00  0.00    -0.200 F 
ATOM     68  F   UNL A   1      44.065  24.674  24.532  1.00  0.00    -0.200 F 
ENDBRANCH  44  58
BRANCH  45  69
ATOM     69  C   UNL A   1      39.274  32.078  35.607  1.00  0.00     0.064 A 
ATOM     70  C   UNL A   1      39.611  33.417  35.845  1.00  0.00     0.173 A 
ATOM     71  C   UNL A   1      38.413  31.451  36.522  1.00  0.00     0.173 A 
ATOM     72  F   UNL A   1      40.449  34.054  35.014  1.00  0.00    -0.203 F 
ATOM     73  C   UNL A   1      39.122  34.095  36.960  1.00  0.00     0.198 A 
ATOM     74  C   UNL A   1      37.897  32.139  37.616  1.00  0.00     0.198 A 
ATOM     75  F   UNL A   1      38.060  30.169  36.343  1.00  0.00    -0.203 F 
ATOM     76  F   UNL A   1      39.500  35.360  37.190  1.00  0.00    -0.200 F 
ATOM     77  C   UNL A   1      38.259  33.459  37.840  1.00  0.00     0.200 A 
ATOM     78  F   UNL A   1      37.053  31.525  38.455  1.00  0.00    -0.200 F 
ATOM     79  F   UNL A   1      37.786  34.114  38.908  1.00  0.00    -0.200 F 
ENDBRANCH  45  69
BRANCH  57  80
ATOM     80  C   UNL A   1      44.939  28.134  34.551  1.00  0.00     0.064 A 
ATOM     81  C   UNL A   1      44.951  26.950  35.303  1.00  0.00     0.173 A 
ATOM     82  C   UNL A   1      46.088  28.939  34.576  1.00  0.00     0.173 A 
ATOM     83  F   UNL A   1      43.871  26.155  35.326  1.00  0.00    -0.203 F 
ATOM     84  C   UNL A   1      46.065  26.594  36.056  1.00  0.00     0.198 A 
ATOM     85  C   UNL A   1      47.213  28.564  35.303  1.00  0.00     0.198 A 
ATOM     86  F   UNL A   1      46.131  30.079  33.869  1.00  0.00    -0.203 F 
ATOM     87  F   UNL A   1      46.042  25.477  36.797  1.00  0.00    -0.200 F 
ATOM     88  C   UNL A   1      47.199  27.394  36.047  1.00  0.00     0.200 A 
ATOM     89  F   UNL A   1      48.313  29.329  35.279  1.00  0.00    -0.200 F 
ATOM     90  F   UNL A   1      48.279  27.036  36.757  1.00  0.00    -0.200 F 
ENDBRANCH  57  80
ENDBRANCH  31  32
ENDBRANCH  24  26
ENDBRANCH  23  24
ENDBRANCH  22  23
ENDBRANCH  21  22
ENDBRANCH   1  21
TORSDOF 16
ENDMDL
MODEL 3
REMARK VINA RESULT:     -11.3      7.673     15.221
REMARK SMILES CCCCOc1ccc(-c2nc(C)c(C(=O)OCCOC(=O)c3ccc(-c4c5nc(c(-c6c(F)c(F)c(F)c(F)c6F)c6ccc([nH]6)c(-c6c(F)c(F)c(F)c(F)c6F)c6nc(c(-c7c(F)c(F)c(F)c(F)c7F)c7ccc4[nH]7)C=C6)C=C5)cc3)s2)cc1
REMARK SMILES IDX 17 1 15 2 16 3 14 4 10 5 11 6 86 7 12 8 13 9 9 10 6 11 7 12
REMARK SMILES IDX 88 13 8 14 87 15 5 16 4 17 3 18 2 19 1 20 18 21 19 22 20 23
REMARK SMILES IDX 21 24 22 25 23 26 24 27 85 28 25 29 84 30 26 31 27 32 28 33
REMARK SMILES IDX 78 34 29 35 83 36 77 37 79 38 30 39 82 40 76 41 75 42 31 44
REMARK SMILES IDX 63 45 43 46 62 47 44 48 47 49 61 50 80 51 45 52 46 53 60 55
REMARK SMILES IDX 81 56 48 57 32 58 33 59 41 60 34 61 35 62 39 63 42 64 36 65
REMARK SMILES IDX 37 66 40 67 38 68 64 69 65 70 73 71 66 72 67 73 71 74 74 75
REMARK SMILES IDX 68 76 69 77 72 78 70 79 49 80 50 81 58 82 51 83 52 84 56 85
REMARK SMILES IDX 59 86 53 87 54 88 57 89 55 90
REMARK H PARENT 79 43 47 54
REMARK Flexibility Score: inf
ROOT
ATOM      1  O   UNL A   1      47.108  20.966  38.951  1.00  0.00    -0.458 OA
ENDROOT
BRANCH   1   2
ATOM      2  C   UNL A   1      47.526  19.780  38.420  1.00  0.00     0.350 C 
ATOM      3  O   UNL A   1      48.685  19.559  38.097  1.00  0.00    -0.245 OA
BRANCH   2   4
ATOM      4  C   UNL A   1      46.443  18.812  38.373  1.00  0.00     0.135 A 
ATOM      5  C   UNL A   1      44.715  17.248  39.092  1.00  0.00     0.124 A 
ATOM      6  N   UNL A   1      44.551  17.535  37.821  1.00  0.00    -0.240 NA
ATOM      7  S   UNL A   1      46.153  17.865  39.787  1.00  0.00    -0.106 S 
ATOM      8  C   UNL A   1      45.533  18.434  37.395  1.00  0.00     0.064 A 
ATOM      9  C   UNL A   1      45.470  18.843  35.966  1.00  0.00     0.068 C 
BRANCH   5  10
ATOM     10  C   UNL A   1      43.800  16.488  39.944  1.00  0.00     0.011 A 
ATOM     11  C   UNL A   1      42.226  14.917  41.659  1.00  0.00     0.119 A 
ATOM     12  C   UNL A   1      42.185  14.694  40.283  1.00  0.00     0.047 A 
ATOM     13  C   UNL A   1      43.053  15.906  42.177  1.00  0.00     0.047 A 
ATOM     14  C   UNL A   1      42.970  15.483  39.425  1.00  0.00     0.015 A 
ATOM     15  C   UNL A   1      43.808  16.711  41.329  1.00  0.00     0.015 A 
BRANCH  11  16
ATOM     16  O   UNL A   1      41.589  14.079  42.531  1.00  0.00    -0.494 OA
BRANCH  16  17
ATOM     17  C   UNL A   1      42.330  13.837  43.732  1.00  0.00     0.229 C 
BRANCH  17  18
ATOM     18  C   UNL A   1      42.834  12.387  43.803  1.00  0.00     0.041 C 
BRANCH  18  19
ATOM     19  C   UNL A   1      41.823  11.279  43.493  1.00  0.00     0.000 C 
ATOM     20  C   UNL A   1      42.387   9.866  43.494  1.00  0.00     0.004 C 
ENDBRANCH  18  19
ENDBRANCH  17  18
ENDBRANCH  16  17
ENDBRANCH  11  16
ENDBRANCH   5  10
ENDBRANCH   2   4
ENDBRANCH   1   2
BRANCH   1  21
ATOM     21  C   UNL A   1      46.424  21.872  38.061  1.00  0.00     0.275 C 
BRANCH  21  22
ATOM     22  C   UNL A   1      46.743  23.337  38.378  1.00  0.00     0.275 C 
BRANCH  22  23
ATOM     23  O   UNL A   1      45.819  24.240  37.744  1.00  0.00    -0.458 OA
BRANCH  23  24
ATOM     24  C   UNL A   1      46.387  25.316  37.155  1.00  0.00     0.338 C 
ATOM     25  O   UNL A   1      47.545  25.686  37.249  1.00  0.00    -0.246 OA
BRANCH  24  26
ATOM     26  C   UNL A   1      45.429  25.939  36.232  1.00  0.00     0.060 A 
ATOM     27  C   UNL A   1      45.811  27.130  35.618  1.00  0.00     0.016 A 
ATOM     28  C   UNL A   1      44.147  25.426  36.043  1.00  0.00     0.016 A 
ATOM     29  C   UNL A   1      44.913  27.840  34.832  1.00  0.00     0.010 A 
ATOM     30  C   UNL A   1      43.251  26.123  35.225  1.00  0.00     0.010 A 
ATOM     31  C   UNL A   1      43.622  27.342  34.623  1.00  0.00    -0.014 A 
BRANCH  31  32
ATOM     32  C   UNL A   1      42.654  28.112  33.803  1.00  0.00     0.031 A 
ATOM     33  C   UNL A   1      41.750  29.116  34.459  1.00  0.00     0.074 A 
ATOM     34  C   UNL A   1      42.587  27.910  32.473  1.00  0.00     0.049 A 
ATOM     35  N   UNL A   1      40.737  29.773  33.958  1.00  0.00    -0.248 NA
ATOM     36  C   UNL A   1      42.021  29.415  35.874  1.00  0.00     0.031 C 
ATOM     37  C   UNL A   1      43.454  27.009  31.712  1.00  0.00     0.029 A 
ATOM     38  N   UNL A   1      41.746  28.441  31.528  1.00  0.00    -0.354 N 
ATOM     39  C   UNL A   1      40.227  30.535  35.001  1.00  0.00     0.074 A 
ATOM     40  C   UNL A   1      41.033  30.247  36.168  1.00  0.00     0.031 C 
ATOM     41  C   UNL A   1      43.101  27.050  30.419  1.00  0.00     0.029 A 
ATOM     42  C   UNL A   1      41.938  27.919  30.271  1.00  0.00     0.049 A 
ATOM     43  H   UNL A   1      41.071  29.129  31.730  1.00  0.00     0.167 HD
ATOM     44  C   UNL A   1      39.179  31.395  34.980  1.00  0.00     0.037 A 
ATOM     45  C   UNL A   1      41.225  28.083  29.140  1.00  0.00     0.037 A 
ATOM     46  C   UNL A   1      38.401  31.686  33.805  1.00  0.00     0.049 A 
ATOM     47  C   UNL A   1      40.016  28.979  29.163  1.00  0.00     0.074 A 
ATOM     48  C   UNL A   1      37.330  32.553  33.672  1.00  0.00     0.029 A 
ATOM     49  N   UNL A   1      38.607  31.112  32.558  1.00  0.00    -0.354 N 
ATOM     50  N   UNL A   1      39.529  29.687  30.154  1.00  0.00    -0.248 NA
ATOM     51  C   UNL A   1      39.252  29.094  27.914  1.00  0.00     0.031 C 
ATOM     52  C   UNL A   1      36.849  32.456  32.363  1.00  0.00     0.029 A 
ATOM     53  C   UNL A   1      37.664  31.585  31.659  1.00  0.00     0.049 A 
ATOM     54  H   UNL A   1      39.318  30.465  32.344  1.00  0.00     0.167 HD
ATOM     55  C   UNL A   1      38.426  30.354  29.642  1.00  0.00     0.074 A 
ATOM     56  C   UNL A   1      38.317  29.972  28.249  1.00  0.00     0.031 C 
ATOM     57  C   UNL A   1      37.582  31.209  30.269  1.00  0.00     0.037 A 
BRANCH  44  58
ATOM     58  C   UNL A   1      38.786  32.050  36.274  1.00  0.00     0.064 A 
ATOM     59  C   UNL A   1      39.157  33.366  36.587  1.00  0.00     0.173 A 
ATOM     60  C   UNL A   1      37.993  31.357  37.202  1.00  0.00     0.173 A 
ATOM     61  F   UNL A   1      39.923  34.072  35.741  1.00  0.00    -0.203 F 
ATOM     62  C   UNL A   1      38.775  33.952  37.793  1.00  0.00     0.198 A 
ATOM     63  C   UNL A   1      37.584  31.956  38.390  1.00  0.00     0.198 A 
ATOM     64  F   UNL A   1      37.603  30.098  36.951  1.00  0.00    -0.203 F 
ATOM     65  F   UNL A   1      39.186  35.191  38.093  1.00  0.00    -0.200 F 
ATOM     66  C   UNL A   1      37.984  33.249  38.689  1.00  0.00     0.200 A 
ATOM     67  F   UNL A   1      36.806  31.281  39.247  1.00  0.00    -0.200 F 
ATOM     68  F   UNL A   1      37.612  33.816  39.845  1.00  0.00    -0.200 F 
ENDBRANCH  44  58
BRANCH  45  69
ATOM     69  C   UNL A   1      41.615  27.352  27.905  1.00  0.00     0.064 A 
ATOM     70  C   UNL A   1      41.073  26.094  27.607  1.00  0.00     0.173 A 
ATOM     71  C   UNL A   1      42.541  27.893  26.998  1.00  0.00     0.173 A 
ATOM     72  F   UNL A   1      40.203  25.524  28.452  1.00  0.00    -0.203 F 
ATOM     73  C   UNL A   1      41.455  25.399  26.461  1.00  0.00     0.198 A 
ATOM     74  C   UNL A   1      42.896  27.213  25.836  1.00  0.00     0.198 A 
ATOM     75  F   UNL A   1      43.092  29.093  27.235  1.00  0.00    -0.203 F 
ATOM     76  F   UNL A   1      40.959  24.176  26.227  1.00  0.00    -0.200 F 
ATOM     77  C   UNL A   1      42.359  25.962  25.573  1.00  0.00     0.200 A 
ATOM     78  F   UNL A   1      43.757  27.767  24.974  1.00  0.00    -0.200 F 
ATOM     79  F   UNL A   1      42.721  25.295  24.469  1.00  0.00    -0.200 F 
ENDBRANCH  45  69
BRANCH  57  80
ATOM     80  C   UNL A   1      36.496  31.843  29.448  1.00  0.00     0.064 A 
ATOM     81  C   UNL A   1      35.389  31.113  28.991  1.00  0.00     0.173 A 
ATOM     82  C   UNL A   1      36.531  33.220  29.179  1.00  0.00     0.173 A 
ATOM     83  F   UNL A   1      35.317  29.791  29.208  1.00  0.00    -0.203 F 
ATOM     84  C   UNL A   1      34.364  31.736  28.285  1.00  0.00     0.198 A 
ATOM     85  C   UNL A   1      35.489  33.846  28.502  1.00  0.00     0.198 A 
ATOM     86  F   UNL A   1      37.564  33.965  29.599  1.00  0.00    -0.203 F 
ATOM     87  F   UNL A   1      33.334  31.013  27.826  1.00  0.00    -0.200 F 
ATOM     88  C   UNL A   1      34.409  33.103  28.052  1.00  0.00     0.200 A 
ATOM     89  F   UNL A   1      35.526  35.169  28.293  1.00  0.00    -0.200 F 
ATOM     90  F   UNL A   1      33.410  33.704  27.390  1.00  0.00    -0.200 F 
ENDBRANCH  57  80
ENDBRANCH  31  32
ENDBRANCH  24  26
ENDBRANCH  23  24
ENDBRANCH  22  23
ENDBRANCH  21  22
ENDBRANCH   1  21
TORSDOF 16
ENDMDL
