MODEL 1
REMARK VINA RESULT:     -13.0      0.000      0.000
REMARK SMILES C[C@H]1C[NH+](CC[C@@H]2CCC[C@]2([NH3+])C(=O)OCCOC(=O)c2ccc(-c3c4nc(c(-c5c(F)c(F)c(F)c(F)c5F)c5ccc([nH]5)c(-c5c(F)c(F)c(F)c(F)c5F)c5nc(c(-c6c(F)c(F)c(F)c(F)c6F)c6ccc3[nH]6)C=C5)C=C4)cc2)C[C@H](C)O1
REMARK SMILES IDX 16 1 15 2 13 3 14 4 11 5 7 6 8 7 9 8 10 9 6 10 5 11 4 12
REMARK SMILES IDX 1 13 2 14 3 15 87 16 85 17 84 18 86 20 12 21 17 25 18 26
REMARK SMILES IDX 19 27 20 28 21 29 22 30 83 31 23 32 82 33 24 34 25 35 26 36
REMARK SMILES IDX 76 37 27 38 81 39 75 40 77 41 28 42 80 43 74 44 73 45 29 47
REMARK SMILES IDX 61 48 41 49 60 50 42 51 45 52 59 53 78 54 43 55 44 56 58 58
REMARK SMILES IDX 79 59 46 60 30 61 31 62 39 63 32 64 33 65 37 66 40 67 34 68
REMARK SMILES IDX 35 69 38 70 36 71 62 72 63 73 71 74 64 75 65 76 69 77 72 78
REMARK SMILES IDX 66 79 67 80 70 81 68 82 47 83 48 84 56 85 49 86 50 87 54 88
REMARK SMILES IDX 57 89 51 90 52 91 55 92 53 93
REMARK H PARENT 4 19 12 22 12 23 12 24 77 46 45 57
REMARK Flexibility Score: inf
ROOT
ATOM      1  C   UNL A   1      30.969  29.968  24.556  1.00  0.00     0.274 C 
ENDROOT
BRANCH   1   2
ATOM      2  O   UNL A   1      30.258  28.868  23.903  1.00  0.00    -0.457 OA
BRANCH   2   3
ATOM      3  C   UNL A   1      30.888  27.866  23.042  1.00  0.00     0.368 C 
ATOM      4  O   UNL A   1      30.131  27.894  22.044  1.00  0.00    -0.245 OA
BRANCH   3   5
ATOM      5  C   UNL A   1      32.712  26.787  23.460  1.00  0.00     0.195 C 
ATOM      6  C   UNL A   1      32.998  25.083  24.034  1.00  0.00     0.068 C 
ATOM      7  C   UNL A   1      33.319  25.071  25.550  1.00  0.00     0.011 C 
ATOM      8  C   UNL A   1      33.897  26.432  25.892  1.00  0.00     0.008 C 
ATOM      9  C   UNL A   1      34.041  27.155  24.550  1.00  0.00     0.081 C 
BRANCH   6  10
ATOM     10  C   UNL A   1      32.041  23.944  23.675  1.00  0.00     0.072 C 
BRANCH  10  11
ATOM     11  C   UNL A   1      32.766  23.035  22.749  1.00  0.00     0.262 C 
BRANCH  11  12
ATOM     12  N   UNL A   1      33.230  22.047  23.663  1.00  0.00    -0.331 N 
ATOM     13  C   UNL A   1      37.386  20.450  24.934  1.00  0.00     0.045 C 
ATOM     14  C   UNL A   1      35.847  20.584  24.976  1.00  0.00     0.170 C 
ATOM     15  C   UNL A   1      34.989  22.141  24.205  1.00  0.00     0.294 C 
ATOM     16  O   UNL A   1      35.030  18.985  24.593  1.00  0.00    -0.364 OA
ATOM     17  C   UNL A   1      33.216  18.829  24.381  1.00  0.00     0.170 C 
ATOM     18  C   UNL A   1      32.304  20.458  23.760  1.00  0.00     0.294 C 
ATOM     19  H   UNL A   1      32.854  22.401  24.543  1.00  0.00     0.348 HD
ATOM     20  C   UNL A   1      32.701  17.966  25.587  1.00  0.00     0.045 C 
ENDBRANCH  11  12
ENDBRANCH  10  11
ENDBRANCH   6  10
BRANCH   5  21
ATOM     21  N   UNL A   1      33.781  26.682  22.262  1.00  0.00    -0.343 N 
ATOM     22  H   UNL A   1      33.646  25.803  21.762  1.00  0.00     0.345 HD
ATOM     23  H   UNL A   1      34.725  26.714  22.645  1.00  0.00     0.345 HD
ATOM     24  H   UNL A   1      33.649  27.462  21.618  1.00  0.00     0.345 HD
ENDBRANCH   5  21
ENDBRANCH   3   5
ENDBRANCH   2   3
ENDBRANCH   1   2
BRANCH   1  25
ATOM     25  C   UNL A   1      31.646  29.480  25.864  1.00  0.00     0.275 C 
BRANCH  25  26
ATOM     26  O   UNL A   1      33.022  29.950  25.973  1.00  0.00    -0.458 OA
BRANCH  26  27
ATOM     27  C   UNL A   1      33.236  30.985  26.839  1.00  0.00     0.338 C 
ATOM     28  O   UNL A   1      32.452  31.885  27.088  1.00  0.00    -0.246 OA
BRANCH  27  29
ATOM     29  C   UNL A   1      34.555  30.854  27.535  1.00  0.00     0.060 A 
ATOM     30  C   UNL A   1      34.987  29.612  27.994  1.00  0.00     0.016 A 
ATOM     31  C   UNL A   1      35.335  31.959  27.859  1.00  0.00     0.016 A 
ATOM     32  C   UNL A   1      36.159  29.422  28.715  1.00  0.00     0.010 A 
ATOM     33  C   UNL A   1      36.551  31.782  28.553  1.00  0.00     0.010 A 
ATOM     34  C   UNL A   1      36.980  30.506  28.975  1.00  0.00    -0.014 A 
BRANCH  34  35
ATOM     35  C   UNL A   1      38.227  30.307  29.757  1.00  0.00     0.031 A 
ATOM     36  C   UNL A   1      39.316  29.463  29.175  1.00  0.00     0.074 A 
ATOM     37  C   UNL A   1      38.426  30.911  30.946  1.00  0.00     0.049 A 
ATOM     38  N   UNL A   1      40.325  28.882  29.766  1.00  0.00    -0.248 NA
ATOM     39  C   UNL A   1      39.259  29.250  27.720  1.00  0.00     0.031 C 
ATOM     40  C   UNL A   1      37.547  31.908  31.560  1.00  0.00     0.029 A 
ATOM     41  N   UNL A   1      39.442  30.761  31.861  1.00  0.00    -0.354 N 
ATOM     42  C   UNL A   1      40.977  28.166  28.773  1.00  0.00     0.074 A 
ATOM     43  C   UNL A   1      40.273  28.418  27.533  1.00  0.00     0.031 C 
ATOM     44  C   UNL A   1      38.054  32.268  32.751  1.00  0.00     0.029 A 
ATOM     45  C   UNL A   1      39.226  31.448  33.032  1.00  0.00     0.049 A 
ATOM     46  H   UNL A   1      40.244  30.215  31.694  1.00  0.00     0.167 HD
ATOM     47  C   UNL A   1      42.051  27.353  28.904  1.00  0.00     0.037 A 
ATOM     48  C   UNL A   1      39.850  31.360  34.225  1.00  0.00     0.037 A 
ATOM     49  C   UNL A   1      42.759  27.155  30.141  1.00  0.00     0.049 A 
ATOM     50  C   UNL A   1      40.965  30.361  34.387  1.00  0.00     0.074 A 
ATOM     51  C   UNL A   1      43.833  26.324  30.403  1.00  0.00     0.029 A 
ATOM     52  N   UNL A   1      42.465  27.814  31.327  1.00  0.00    -0.354 N 
ATOM     53  N   UNL A   1      41.505  29.567  33.492  1.00  0.00    -0.248 NA
ATOM     54  C   UNL A   1      41.538  30.218  35.734  1.00  0.00     0.031 C 
ATOM     55  C   UNL A   1      44.162  26.448  31.758  1.00  0.00     0.029 A 
ATOM     56  C   UNL A   1      43.327  27.397  32.328  1.00  0.00     0.049 A 
ATOM     57  H   UNL A   1      41.749  28.480  31.440  1.00  0.00     0.167 HD
ATOM     58  C   UNL A   1      42.485  28.846  34.160  1.00  0.00     0.074 A 
ATOM     59  C   UNL A   1      42.482  29.311  35.532  1.00  0.00     0.031 C 
ATOM     60  C   UNL A   1      43.310  27.880  33.685  1.00  0.00     0.037 A 
BRANCH  47  61
ATOM     61  C   UNL A   1      42.461  26.553  27.703  1.00  0.00     0.064 A 
ATOM     62  C   UNL A   1      43.453  26.986  26.814  1.00  0.00     0.173 A 
ATOM     63  C   UNL A   1      41.836  25.323  27.442  1.00  0.00     0.173 A 
ATOM     64  F   UNL A   1      44.062  28.166  27.003  1.00  0.00    -0.203 F 
ATOM     65  C   UNL A   1      43.786  26.229  25.691  1.00  0.00     0.198 A 
ATOM     66  C   UNL A   1      42.193  24.555  26.338  1.00  0.00     0.198 A 
ATOM     67  F   UNL A   1      40.877  24.864  28.261  1.00  0.00    -0.203 F 
ATOM     68  F   UNL A   1      44.699  26.689  24.823  1.00  0.00    -0.200 F 
ATOM     69  C   UNL A   1      43.160  25.013  25.458  1.00  0.00     0.200 A 
ATOM     70  F   UNL A   1      41.593  23.377  26.121  1.00  0.00    -0.200 F 
ATOM     71  F   UNL A   1      43.483  24.287  24.379  1.00  0.00    -0.200 F 
ENDBRANCH  47  61
BRANCH  48  72
ATOM     72  C   UNL A   1      39.368  32.157  35.388  1.00  0.00     0.064 A 
ATOM     73  C   UNL A   1      39.823  33.464  35.610  1.00  0.00     0.173 A 
ATOM     74  C   UNL A   1      38.469  31.617  36.322  1.00  0.00     0.173 A 
ATOM     75  F   UNL A   1      40.712  34.014  34.770  1.00  0.00    -0.203 F 
ATOM     76  C   UNL A   1      39.407  34.193  36.723  1.00  0.00     0.198 A 
ATOM     77  C   UNL A   1      38.026  32.360  37.415  1.00  0.00     0.198 A 
ATOM     78  F   UNL A   1      38.011  30.366  36.169  1.00  0.00    -0.203 F 
ATOM     79  F   UNL A   1      39.900  35.421  36.938  1.00  0.00    -0.200 F 
ATOM     80  C   UNL A   1      38.503  33.644  37.620  1.00  0.00     0.200 A 
ATOM     81  F   UNL A   1      37.144  31.827  38.271  1.00  0.00    -0.200 F 
ATOM     82  F   UNL A   1      38.102  34.348  38.687  1.00  0.00    -0.200 F 
ENDBRANCH  48  72
BRANCH  60  83
ATOM     83  C   UNL A   1      44.304  27.294  34.644  1.00  0.00     0.064 A 
ATOM     84  C   UNL A   1      44.029  26.125  35.368  1.00  0.00     0.173 A 
ATOM     85  C   UNL A   1      45.564  27.889  34.809  1.00  0.00     0.173 A 
ATOM     86  F   UNL A   1      42.832  25.529  35.257  1.00  0.00    -0.203 F 
ATOM     87  C   UNL A   1      44.970  25.585  36.239  1.00  0.00     0.198 A 
ATOM     88  C   UNL A   1      46.514  27.329  35.658  1.00  0.00     0.198 A 
ATOM     89  F   UNL A   1      45.878  29.005  34.135  1.00  0.00    -0.203 F 
ATOM     90  F   UNL A   1      44.669  24.494  36.957  1.00  0.00    -0.200 F 
ATOM     91  C   UNL A   1      46.215  26.183  36.378  1.00  0.00     0.200 A 
ATOM     92  F   UNL A   1      47.720  27.901  35.780  1.00  0.00    -0.200 F 
ATOM     93  F   UNL A   1      47.123  25.657  37.211  1.00  0.00    -0.200 F 
ENDBRANCH  60  83
ENDBRANCH  34  35
ENDBRANCH  27  29
ENDBRANCH  26  27
ENDBRANCH  25  26
ENDBRANCH   1  25
TORSDOF 15
ENDMDL
MODEL 2
REMARK VINA RESULT:     -13.0      1.183      1.772
REMARK SMILES C[C@H]1C[NH+](CC[C@@H]2CCC[C@]2([NH3+])C(=O)OCCOC(=O)c2ccc(-c3c4nc(c(-c5c(F)c(F)c(F)c(F)c5F)c5ccc([nH]5)c(-c5c(F)c(F)c(F)c(F)c5F)c5nc(c(-c6c(F)c(F)c(F)c(F)c6F)c6ccc3[nH]6)C=C5)C=C4)cc2)C[C@H](C)O1
REMARK SMILES IDX 16 1 15 2 13 3 14 4 11 5 7 6 8 7 9 8 10 9 6 10 5 11 4 12
REMARK SMILES IDX 1 13 2 14 3 15 87 16 85 17 84 18 86 20 12 21 17 25 18 26
REMARK SMILES IDX 19 27 20 28 21 29 22 30 83 31 23 32 82 33 24 34 25 35 26 36
REMARK SMILES IDX 76 37 27 38 81 39 75 40 77 41 28 42 80 43 74 44 73 45 29 47
REMARK SMILES IDX 61 48 41 49 60 50 42 51 45 52 59 53 78 54 43 55 44 56 58 58
REMARK SMILES IDX 79 59 46 60 30 61 31 62 39 63 32 64 33 65 37 66 40 67 34 68
REMARK SMILES IDX 35 69 38 70 36 71 62 72 63 73 71 74 64 75 65 76 69 77 72 78
REMARK SMILES IDX 66 79 67 80 70 81 68 82 47 83 48 84 56 85 49 86 50 87 54 88
REMARK SMILES IDX 57 89 51 90 52 91 55 92 53 93
REMARK H PARENT 4 19 12 22 12 23 12 24 77 46 45 57
REMARK Flexibility Score: inf
ROOT
ATOM      1  C   UNL A   1      31.873  28.191  27.411  1.00  0.00     0.274 C 
ENDROOT
BRANCH   1   2
ATOM      2  O   UNL A   1      30.900  27.104  27.299  1.00  0.00    -0.457 OA
BRANCH   2   3
ATOM      3  C   UNL A   1      30.937  26.057  26.277  1.00  0.00     0.368 C 
ATOM      4  O   UNL A   1      31.380  25.089  26.937  1.00  0.00    -0.245 OA
BRANCH   3   5
ATOM      5  C   UNL A   1      30.261  26.243  24.234  1.00  0.00     0.195 C 
ATOM      6  C   UNL A   1      31.115  26.809  22.729  1.00  0.00     0.068 C 
ATOM      7  C   UNL A   1      30.708  28.266  22.393  1.00  0.00     0.011 C 
ATOM      8  C   UNL A   1      29.336  28.494  23.001  1.00  0.00     0.008 C 
ATOM      9  C   UNL A   1      28.907  27.129  23.546  1.00  0.00     0.081 C 
BRANCH   6  10
ATOM     10  C   UNL A   1      32.622  26.612  22.539  1.00  0.00     0.072 C 
BRANCH  10  11
ATOM     11  C   UNL A   1      32.810  25.317  21.833  1.00  0.00     0.262 C 
BRANCH  11  12
ATOM     12  N   UNL A   1      33.071  24.455  22.935  1.00  0.00    -0.331 N 
ATOM     13  C   UNL A   1      36.769  23.512  25.557  1.00  0.00     0.045 C 
ATOM     14  C   UNL A   1      35.290  23.437  25.116  1.00  0.00     0.170 C 
ATOM     15  C   UNL A   1      34.549  24.817  23.975  1.00  0.00     0.294 C 
ATOM     16  O   UNL A   1      34.819  21.723  24.657  1.00  0.00    -0.364 OA
ATOM     17  C   UNL A   1      33.194  21.310  23.919  1.00  0.00     0.170 C 
ATOM     18  C   UNL A   1      32.346  22.762  22.897  1.00  0.00     0.294 C 
ATOM     19  H   UNL A   1      32.401  24.802  23.621  1.00  0.00     0.348 HD
ATOM     20  C   UNL A   1      32.426  20.453  24.987  1.00  0.00     0.045 C 
ENDBRANCH  11  12
ENDBRANCH  10  11
ENDBRANCH   6  10
BRANCH   5  21
ATOM     21  N   UNL A   1      29.684  24.910  23.538  1.00  0.00    -0.343 N 
ATOM     22  H   UNL A   1      30.450  24.257  23.370  1.00  0.00     0.345 HD
ATOM     23  H   UNL A   1      29.243  25.153  22.653  1.00  0.00     0.345 HD
ATOM     24  H   UNL A   1      28.996  24.476  24.154  1.00  0.00     0.345 HD
ENDBRANCH   5  21
ENDBRANCH   3   5
ENDBRANCH   2   3
ENDBRANCH   1   2
BRANCH   1  25
ATOM     25  C   UNL A   1      31.839  29.088  26.146  1.00  0.00     0.275 C 
BRANCH  25  26
ATOM     26  O   UNL A   1      33.084  29.824  25.967  1.00  0.00    -0.458 OA
BRANCH  26  27
ATOM     27  C   UNL A   1      33.292  30.868  26.823  1.00  0.00     0.338 C 
ATOM     28  O   UNL A   1      32.503  31.767  27.063  1.00  0.00    -0.246 OA
BRANCH  27  29
ATOM     29  C   UNL A   1      34.611  30.751  27.521  1.00  0.00     0.060 A 
ATOM     30  C   UNL A   1      35.059  29.513  27.974  1.00  0.00     0.016 A 
ATOM     31  C   UNL A   1      35.376  31.865  27.853  1.00  0.00     0.016 A 
ATOM     32  C   UNL A   1      36.232  29.334  28.696  1.00  0.00     0.010 A 
ATOM     33  C   UNL A   1      36.593  31.700  28.549  1.00  0.00     0.010 A 
ATOM     34  C   UNL A   1      37.037  30.427  28.964  1.00  0.00    -0.014 A 
BRANCH  34  35
ATOM     35  C   UNL A   1      38.286  30.240  29.748  1.00  0.00     0.031 A 
ATOM     36  C   UNL A   1      39.382  29.403  29.169  1.00  0.00     0.074 A 
ATOM     37  C   UNL A   1      38.479  30.849  30.935  1.00  0.00     0.049 A 
ATOM     38  N   UNL A   1      40.395  28.831  29.762  1.00  0.00    -0.248 NA
ATOM     39  C   UNL A   1      39.328  29.186  27.715  1.00  0.00     0.031 C 
ATOM     40  C   UNL A   1      37.591  31.841  31.546  1.00  0.00     0.029 A 
ATOM     41  N   UNL A   1      39.496  30.709  31.851  1.00  0.00    -0.354 N 
ATOM     42  C   UNL A   1      41.053  28.118  28.772  1.00  0.00     0.074 A 
ATOM     43  C   UNL A   1      40.348  28.361  27.530  1.00  0.00     0.031 C 
ATOM     44  C   UNL A   1      38.095  32.208  32.737  1.00  0.00     0.029 A 
ATOM     45  C   UNL A   1      39.274  31.398  33.021  1.00  0.00     0.049 A 
ATOM     46  H   UNL A   1      40.302  30.170  31.686  1.00  0.00     0.167 HD
ATOM     47  C   UNL A   1      42.134  27.314  28.905  1.00  0.00     0.037 A 
ATOM     48  C   UNL A   1      39.897  31.318  34.214  1.00  0.00     0.037 A 
ATOM     49  C   UNL A   1      42.842  27.125  30.144  1.00  0.00     0.049 A 
ATOM     50  C   UNL A   1      41.020  30.328  34.380  1.00  0.00     0.074 A 
ATOM     51  C   UNL A   1      43.923  26.304  30.408  1.00  0.00     0.029 A 
ATOM     52  N   UNL A   1      42.543  27.785  31.328  1.00  0.00    -0.354 N 
ATOM     53  N   UNL A   1      41.566  29.536  33.487  1.00  0.00    -0.248 NA
ATOM     54  C   UNL A   1      41.593  30.194  35.727  1.00  0.00     0.031 C 
ATOM     55  C   UNL A   1      44.250  26.434  31.763  1.00  0.00     0.029 A 
ATOM     56  C   UNL A   1      43.407  27.377  32.330  1.00  0.00     0.049 A 
ATOM     57  H   UNL A   1      41.821  28.446  31.438  1.00  0.00     0.167 HD
ATOM     58  C   UNL A   1      42.552  28.825  34.158  1.00  0.00     0.074 A 
ATOM     59  C   UNL A   1      42.544  29.293  35.528  1.00  0.00     0.031 C 
ATOM     60  C   UNL A   1      43.385  27.865  33.686  1.00  0.00     0.037 A 
BRANCH  47  61
ATOM     61  C   UNL A   1      42.550  26.514  27.706  1.00  0.00     0.064 A 
ATOM     62  C   UNL A   1      43.555  26.942  26.829  1.00  0.00     0.173 A 
ATOM     63  C   UNL A   1      41.920  25.289  27.436  1.00  0.00     0.173 A 
ATOM     64  F   UNL A   1      44.171  28.116  27.028  1.00  0.00    -0.203 F 
ATOM     65  C   UNL A   1      43.895  26.186  25.709  1.00  0.00     0.198 A 
ATOM     66  C   UNL A   1      42.283  24.522  26.334  1.00  0.00     0.198 A 
ATOM     67  F   UNL A   1      40.949  24.836  28.243  1.00  0.00    -0.203 F 
ATOM     68  F   UNL A   1      44.820  26.640  24.852  1.00  0.00    -0.200 F 
ATOM     69  C   UNL A   1      43.263  24.974  25.465  1.00  0.00     0.200 A 
ATOM     70  F   UNL A   1      41.677  23.348  26.107  1.00  0.00    -0.200 F 
ATOM     71  F   UNL A   1      43.592  24.249  24.388  1.00  0.00    -0.200 F 
ENDBRANCH  47  61
BRANCH  48  72
ATOM     72  C   UNL A   1      39.408  32.114  35.374  1.00  0.00     0.064 A 
ATOM     73  C   UNL A   1      39.849  33.427  35.590  1.00  0.00     0.173 A 
ATOM     74  C   UNL A   1      38.516  31.568  36.312  1.00  0.00     0.173 A 
ATOM     75  F   UNL A   1      40.731  33.983  34.747  1.00  0.00    -0.203 F 
ATOM     76  C   UNL A   1      39.427  34.156  36.701  1.00  0.00     0.198 A 
ATOM     77  C   UNL A   1      38.067  32.310  37.402  1.00  0.00     0.198 A 
ATOM     78  F   UNL A   1      38.071  30.311  36.164  1.00  0.00    -0.203 F 
ATOM     79  F   UNL A   1      39.907  35.390  36.911  1.00  0.00    -0.200 F 
ATOM     80  C   UNL A   1      38.530  33.601  37.602  1.00  0.00     0.200 A 
ATOM     81  F   UNL A   1      37.192  31.772  38.261  1.00  0.00    -0.200 F 
ATOM     82  F   UNL A   1      38.123  34.304  38.666  1.00  0.00    -0.200 F 
ENDBRANCH  48  72
BRANCH  60  83
ATOM     83  C   UNL A   1      44.383  27.289  34.647  1.00  0.00     0.064 A 
ATOM     84  C   UNL A   1      44.117  26.118  35.372  1.00  0.00     0.173 A 
ATOM     85  C   UNL A   1      45.637  27.895  34.814  1.00  0.00     0.173 A 
ATOM     86  F   UNL A   1      42.926  25.511  35.261  1.00  0.00    -0.203 F 
ATOM     87  C   UNL A   1      45.062  25.588  36.246  1.00  0.00     0.198 A 
ATOM     88  C   UNL A   1      46.591  27.346  35.665  1.00  0.00     0.198 A 
ATOM     89  F   UNL A   1      45.942  29.014  34.138  1.00  0.00    -0.203 F 
ATOM     90  F   UNL A   1      44.770  24.495  36.964  1.00  0.00    -0.200 F 
ATOM     91  C   UNL A   1      46.301  26.198  36.385  1.00  0.00     0.200 A 
ATOM     92  F   UNL A   1      47.792  27.928  35.787  1.00  0.00    -0.200 F 
ATOM     93  F   UNL A   1      47.213  25.682  37.221  1.00  0.00    -0.200 F 
ENDBRANCH  60  83
ENDBRANCH  34  35
ENDBRANCH  27  29
ENDBRANCH  26  27
ENDBRANCH  25  26
ENDBRANCH   1  25
TORSDOF 15
ENDMDL
MODEL 3
REMARK VINA RESULT:     -12.9      1.184      2.383
REMARK SMILES C[C@H]1C[NH+](CC[C@@H]2CCC[C@]2([NH3+])C(=O)OCCOC(=O)c2ccc(-c3c4nc(c(-c5c(F)c(F)c(F)c(F)c5F)c5ccc([nH]5)c(-c5c(F)c(F)c(F)c(F)c5F)c5nc(c(-c6c(F)c(F)c(F)c(F)c6F)c6ccc3[nH]6)C=C5)C=C4)cc2)C[C@H](C)O1
REMARK SMILES IDX 16 1 15 2 13 3 14 4 11 5 7 6 8 7 9 8 10 9 6 10 5 11 4 12
REMARK SMILES IDX 1 13 2 14 3 15 87 16 85 17 84 18 86 20 12 21 17 25 18 26
REMARK SMILES IDX 19 27 20 28 21 29 22 30 83 31 23 32 82 33 24 34 25 35 26 36
REMARK SMILES IDX 76 37 27 38 81 39 75 40 77 41 28 42 80 43 74 44 73 45 29 47
REMARK SMILES IDX 61 48 41 49 60 50 42 51 45 52 59 53 78 54 43 55 44 56 58 58
REMARK SMILES IDX 79 59 46 60 30 61 31 62 39 63 32 64 33 65 37 66 40 67 34 68
REMARK SMILES IDX 35 69 38 70 36 71 62 72 63 73 71 74 64 75 65 76 69 77 72 78
REMARK SMILES IDX 66 79 67 80 70 81 68 82 47 83 48 84 56 85 49 86 50 87 54 88
REMARK SMILES IDX 57 89 51 90 52 91 55 92 53 93
REMARK H PARENT 4 19 12 22 12 23 12 24 77 46 45 57
REMARK Flexibility Score: inf
ROOT
ATOM      1  C   UNL A   1      31.676  28.222  27.224  1.00  0.00     0.274 C 
ENDROOT
BRANCH   1   2
ATOM      2  O   UNL A   1      32.158  26.874  26.918  1.00  0.00    -0.457 OA
BRANCH   2   3
ATOM      3  C   UNL A   1      31.381  25.854  26.213  1.00  0.00     0.368 C 
ATOM      4  O   UNL A   1      31.336  24.946  27.075  1.00  0.00    -0.245 OA
BRANCH   3   5
ATOM      5  C   UNL A   1      30.501  26.047  24.250  1.00  0.00     0.195 C 
ATOM      6  C   UNL A   1      31.198  26.623  22.670  1.00  0.00     0.068 C 
ATOM      7  C   UNL A   1      30.754  28.081  22.384  1.00  0.00     0.011 C 
ATOM      8  C   UNL A   1      29.450  28.300  23.129  1.00  0.00     0.008 C 
ATOM      9  C   UNL A   1      29.082  26.932  23.707  1.00  0.00     0.081 C 
BRANCH   6  10
ATOM     10  C   UNL A   1      32.678  26.432  22.328  1.00  0.00     0.072 C 
BRANCH  10  11
ATOM     11  C   UNL A   1      32.817  25.085  21.714  1.00  0.00     0.262 C 
BRANCH  11  12
ATOM     12  N   UNL A   1      33.068  24.296  22.872  1.00  0.00    -0.331 N 
ATOM     13  C   UNL A   1      36.645  23.766  25.765  1.00  0.00     0.045 C 
ATOM     14  C   UNL A   1      35.208  23.555  25.236  1.00  0.00     0.170 C 
ATOM     15  C   UNL A   1      34.443  24.820  23.984  1.00  0.00     0.294 C 
ATOM     16  O   UNL A   1      34.900  21.790  24.835  1.00  0.00    -0.364 OA
ATOM     17  C   UNL A   1      33.363  21.218  24.017  1.00  0.00     0.170 C 
ATOM     18  C   UNL A   1      32.478  22.551  22.873  1.00  0.00     0.294 C 
ATOM     19  H   UNL A   1      32.330  24.621  23.497  1.00  0.00     0.348 HD
ATOM     20  C   UNL A   1      32.593  20.352  25.077  1.00  0.00     0.045 C 
ENDBRANCH  11  12
ENDBRANCH  10  11
ENDBRANCH   6  10
BRANCH   5  21
ATOM     21  N   UNL A   1      29.861  24.715  23.610  1.00  0.00    -0.343 N 
ATOM     22  H   UNL A   1      29.604  24.896  22.639  1.00  0.00     0.345 HD
ATOM     23  H   UNL A   1      29.032  24.449  24.139  1.00  0.00     0.345 HD
ATOM     24  H   UNL A   1      30.545  23.959  23.645  1.00  0.00     0.345 HD
ENDBRANCH   5  21
ENDBRANCH   3   5
ENDBRANCH   2   3
ENDBRANCH   1   2
BRANCH   1  25
ATOM     25  C   UNL A   1      31.776  29.135  25.974  1.00  0.00     0.275 C 
BRANCH  25  26
ATOM     26  O   UNL A   1      33.062  29.817  25.900  1.00  0.00    -0.458 OA
BRANCH  26  27
ATOM     27  C   UNL A   1      33.251  30.840  26.786  1.00  0.00     0.338 C 
ATOM     28  O   UNL A   1      32.444  31.714  27.054  1.00  0.00    -0.246 OA
BRANCH  27  29
ATOM     29  C   UNL A   1      34.574  30.729  27.478  1.00  0.00     0.060 A 
ATOM     30  C   UNL A   1      35.021  29.496  27.946  1.00  0.00     0.016 A 
ATOM     31  C   UNL A   1      35.344  31.845  27.788  1.00  0.00     0.016 A 
ATOM     32  C   UNL A   1      36.197  29.325  28.664  1.00  0.00     0.010 A 
ATOM     33  C   UNL A   1      36.564  31.687  28.479  1.00  0.00     0.010 A 
ATOM     34  C   UNL A   1      37.008  30.419  28.911  1.00  0.00    -0.014 A 
BRANCH  34  35
ATOM     35  C   UNL A   1      38.260  30.241  29.690  1.00  0.00     0.031 A 
ATOM     36  C   UNL A   1      39.353  29.397  29.114  1.00  0.00     0.074 A 
ATOM     37  C   UNL A   1      38.460  30.862  30.870  1.00  0.00     0.049 A 
ATOM     38  N   UNL A   1      40.369  28.831  29.708  1.00  0.00    -0.248 NA
ATOM     39  C   UNL A   1      39.291  29.164  27.663  1.00  0.00     0.031 C 
ATOM     40  C   UNL A   1      37.576  31.860  31.474  1.00  0.00     0.029 A 
ATOM     41  N   UNL A   1      39.482  30.732  31.781  1.00  0.00    -0.354 N 
ATOM     42  C   UNL A   1      41.022  28.108  28.721  1.00  0.00     0.074 A 
ATOM     43  C   UNL A   1      40.310  28.337  27.482  1.00  0.00     0.031 C 
ATOM     44  C   UNL A   1      38.086  32.240  32.658  1.00  0.00     0.029 A 
ATOM     45  C   UNL A   1      39.266  31.433  32.945  1.00  0.00     0.049 A 
ATOM     46  H   UNL A   1      40.287  30.190  31.618  1.00  0.00     0.167 HD
ATOM     47  C   UNL A   1      42.103  27.304  28.858  1.00  0.00     0.037 A 
ATOM     48  C   UNL A   1      39.895  31.365  34.135  1.00  0.00     0.037 A 
ATOM     49  C   UNL A   1      42.818  27.129  30.095  1.00  0.00     0.049 A 
ATOM     50  C   UNL A   1      41.019  30.377  34.306  1.00  0.00     0.074 A 
ATOM     51  C   UNL A   1      43.900  26.310  30.362  1.00  0.00     0.029 A 
ATOM     52  N   UNL A   1      42.525  27.801  31.273  1.00  0.00    -0.354 N 
ATOM     53  N   UNL A   1      41.561  29.576  33.419  1.00  0.00    -0.248 NA
ATOM     54  C   UNL A   1      41.599  30.257  35.651  1.00  0.00     0.031 C 
ATOM     55  C   UNL A   1      44.234  26.454  31.713  1.00  0.00     0.029 A 
ATOM     56  C   UNL A   1      43.394  27.404  32.275  1.00  0.00     0.049 A 
ATOM     57  H   UNL A   1      41.804  28.463  31.381  1.00  0.00     0.167 HD
ATOM     58  C   UNL A   1      42.550  28.871  34.091  1.00  0.00     0.074 A 
ATOM     59  C   UNL A   1      42.549  29.354  35.457  1.00  0.00     0.031 C 
ATOM     60  C   UNL A   1      43.380  27.906  33.626  1.00  0.00     0.037 A 
BRANCH  47  61
ATOM     61  C   UNL A   1      42.513  26.492  27.666  1.00  0.00     0.064 A 
ATOM     62  C   UNL A   1      41.929  25.255  27.361  1.00  0.00     0.173 A 
ATOM     63  C   UNL A   1      43.519  26.972  26.812  1.00  0.00     0.173 A 
ATOM     64  F   UNL A   1      40.982  24.740  28.158  1.00  0.00    -0.203 F 
ATOM     65  C   UNL A   1      42.357  24.515  26.260  1.00  0.00     0.198 A 
ATOM     66  C   UNL A   1      43.923  26.244  25.696  1.00  0.00     0.198 A 
ATOM     67  F   UNL A   1      44.112  28.149  27.061  1.00  0.00    -0.203 F 
ATOM     68  F   UNL A   1      41.824  23.308  26.019  1.00  0.00    -0.200 F 
ATOM     69  C   UNL A   1      43.349  25.012  25.426  1.00  0.00     0.200 A 
ATOM     70  F   UNL A   1      44.874  26.732  24.888  1.00  0.00    -0.200 F 
ATOM     71  F   UNL A   1      43.758  24.299  24.369  1.00  0.00    -0.200 F 
ENDBRANCH  47  61
BRANCH  48  72
ATOM     72  C   UNL A   1      39.413  32.175  35.290  1.00  0.00     0.064 A 
ATOM     73  C   UNL A   1      39.853  33.490  35.488  1.00  0.00     0.173 A 
ATOM     74  C   UNL A   1      38.528  31.638  36.239  1.00  0.00     0.173 A 
ATOM     75  F   UNL A   1      40.728  34.039  34.632  1.00  0.00    -0.203 F 
ATOM     76  C   UNL A   1      39.437  34.232  36.593  1.00  0.00     0.198 A 
ATOM     77  C   UNL A   1      38.085  32.392  37.324  1.00  0.00     0.198 A 
ATOM     78  F   UNL A   1      38.085  30.379  36.110  1.00  0.00    -0.203 F 
ATOM     79  F   UNL A   1      39.916  35.468  36.785  1.00  0.00    -0.200 F 
ATOM     80  C   UNL A   1      38.547  33.685  37.506  1.00  0.00     0.200 A 
ATOM     81  F   UNL A   1      37.217  31.861  38.196  1.00  0.00    -0.200 F 
ATOM     82  F   UNL A   1      38.146  34.400  38.565  1.00  0.00    -0.200 F 
ENDBRANCH  48  72
BRANCH  60  83
ATOM     83  C   UNL A   1      44.383  27.340  34.588  1.00  0.00     0.064 A 
ATOM     84  C   UNL A   1      45.629  27.948  34.796  1.00  0.00     0.173 A 
ATOM     85  C   UNL A   1      44.074  26.197  35.342  1.00  0.00     0.173 A 
ATOM     86  F   UNL A   1      45.977  29.033  34.087  1.00  0.00    -0.203 F 
ATOM     87  C   UNL A   1      46.540  27.419  35.706  1.00  0.00     0.198 A 
ATOM     88  C   UNL A   1      44.975  25.689  36.273  1.00  0.00     0.198 A 
ATOM     89  F   UNL A   1      42.892  25.582  35.183  1.00  0.00    -0.203 F 
ATOM     90  F   UNL A   1      47.744  27.988  35.855  1.00  0.00    -0.200 F 
ATOM     91  C   UNL A   1      46.208  26.295  36.449  1.00  0.00     0.200 A 
ATOM     92  F   UNL A   1      44.647  24.611  36.999  1.00  0.00    -0.200 F 
ATOM     93  F   UNL A   1      47.083  25.792  37.332  1.00  0.00    -0.200 F 
ENDBRANCH  60  83
ENDBRANCH  34  35
ENDBRANCH  27  29
ENDBRANCH  26  27
ENDBRANCH  25  26
ENDBRANCH   1  25
TORSDOF 15
ENDMDL
