MODEL 1
REMARK VINA RESULT:      -9.5      0.000      0.000
REMARK SMILES O=C(OCCOC(=O)[C@H]1CCCCN1C(=O)CSCc1ccccc1)c1ccc(-c2c3nc(c(-c4c(F)c(F)c(F)c(F)c4F)c4ccc([nH]4)c(-c4c(F)c(F)c(F)c(F)c4F)c4nc(c(-c5c(F)c(F)c(F)c(F)c5F)c5ccc2[nH]5)C=C4)C=C3)cc1
REMARK SMILES IDX 6 1 5 2 4 3 3 4 2 5 1 6 26 7 27 8 88 9 28 10 87 11 29 12
REMARK SMILES IDX 30 13 31 14 81 15 32 16 86 17 80 18 82 19 33 20 85 21 79 22
REMARK SMILES IDX 78 23 34 25 66 26 46 27 65 28 47 29 50 30 64 31 83 32 48 33
REMARK SMILES IDX 49 34 63 36 84 37 51 38 35 39 36 40 44 41 37 42 38 43 42 44
REMARK SMILES IDX 45 45 39 46 40 47 43 48 41 49 67 50 68 51 76 52 69 53 70 54
REMARK SMILES IDX 74 55 77 56 71 57 72 58 75 59 73 60 52 61 53 62 61 63 54 64
REMARK SMILES IDX 55 65 59 66 62 67 56 68 57 69 60 70 58 71 7 72 8 73 9 74
REMARK SMILES IDX 10 75 14 76 11 77 13 78 12 79 15 80 16 81 17 82 18 83 19 84
REMARK SMILES IDX 20 85 21 86 25 87 22 88 24 89 23 90
REMARK H PARENT 82 24 50 35
REMARK Flexibility Score: inf
ROOT
ATOM      1  O   UNL A   1      34.071  33.395  30.580  1.00  0.00    -0.461 OA
ENDROOT
BRANCH   1   2
ATOM      2  C   UNL A   1      34.046  33.981  29.275  1.00  0.00     0.274 C 
BRANCH   2   3
ATOM      3  C   UNL A   1      34.622  33.025  28.233  1.00  0.00     0.275 C 
BRANCH   3   4
ATOM      4  O   UNL A   1      34.041  31.706  28.271  1.00  0.00    -0.458 OA
BRANCH   4   5
ATOM      5  C   UNL A   1      34.546  30.490  27.955  1.00  0.00     0.338 C 
ATOM      6  O   UNL A   1      33.779  29.653  27.478  1.00  0.00    -0.246 OA
BRANCH   5   7
ATOM      7  C   UNL A   1      35.950  30.037  28.238  1.00  0.00     0.060 A 
ATOM      8  C   UNL A   1      36.407  29.463  29.424  1.00  0.00     0.016 A 
ATOM      9  C   UNL A   1      36.894  30.234  27.206  1.00  0.00     0.016 A 
ATOM     10  C   UNL A   1      37.740  29.046  29.559  1.00  0.00     0.010 A 
ATOM     11  C   UNL A   1      38.232  29.829  27.338  1.00  0.00     0.010 A 
ATOM     12  C   UNL A   1      38.663  29.224  28.521  1.00  0.00    -0.014 A 
BRANCH  12  13
ATOM     13  C   UNL A   1      40.088  28.896  28.775  1.00  0.00     0.031 A 
ATOM     14  C   UNL A   1      40.889  29.853  29.592  1.00  0.00     0.074 A 
ATOM     15  C   UNL A   1      40.627  27.727  28.380  1.00  0.00     0.049 A 
ATOM     16  N   UNL A   1      42.087  29.706  30.087  1.00  0.00    -0.248 NA
ATOM     17  C   UNL A   1      40.250  31.140  29.904  1.00  0.00     0.031 C 
ATOM     18  C   UNL A   1      39.936  26.752  27.563  1.00  0.00     0.029 A 
ATOM     19  N   UNL A   1      41.846  27.141  28.607  1.00  0.00    -0.354 N 
ATOM     20  C   UNL A   1      42.333  30.866  30.800  1.00  0.00     0.074 A 
ATOM     21  C   UNL A   1      41.184  31.729  30.633  1.00  0.00     0.031 C 
ATOM     22  C   UNL A   1      40.703  25.672  27.367  1.00  0.00     0.029 A 
ATOM     23  C   UNL A   1      41.973  25.891  28.036  1.00  0.00     0.049 A 
ATOM     24  H   UNL A   1      42.563  27.571  29.127  1.00  0.00     0.167 HD
ATOM     25  C   UNL A   1      43.422  31.169  31.539  1.00  0.00     0.037 A 
ATOM     26  C   UNL A   1      43.001  25.022  28.049  1.00  0.00     0.037 A 
ATOM     27  C   UNL A   1      44.586  30.329  31.623  1.00  0.00     0.049 A 
ATOM     28  C   UNL A   1      44.227  25.419  28.819  1.00  0.00     0.074 A 
ATOM     29  C   UNL A   1      45.780  30.564  32.276  1.00  0.00     0.029 A 
ATOM     30  N   UNL A   1      44.703  29.088  31.004  1.00  0.00    -0.354 N 
ATOM     31  N   UNL A   1      44.438  26.508  29.520  1.00  0.00    -0.248 NA
ATOM     32  C   UNL A   1      45.355  24.482  28.804  1.00  0.00     0.031 C 
ATOM     33  C   UNL A   1      46.636  29.486  32.018  1.00  0.00     0.029 A 
ATOM     34  C   UNL A   1      45.956  28.551  31.252  1.00  0.00     0.049 A 
ATOM     35  H   UNL A   1      44.000  28.656  30.469  1.00  0.00     0.167 HD
ATOM     36  C   UNL A   1      45.718  26.387  30.036  1.00  0.00     0.074 A 
ATOM     37  C   UNL A   1      46.219  25.099  29.596  1.00  0.00     0.031 C 
ATOM     38  C   UNL A   1      46.421  27.266  30.793  1.00  0.00     0.037 A 
BRANCH  25  39
ATOM     39  C   UNL A   1      43.390  32.478  32.266  1.00  0.00     0.064 A 
ATOM     40  C   UNL A   1      43.023  32.549  33.620  1.00  0.00     0.173 A 
ATOM     41  C   UNL A   1      43.668  33.677  31.596  1.00  0.00     0.173 A 
ATOM     42  F   UNL A   1      42.716  31.432  34.297  1.00  0.00    -0.203 F 
ATOM     43  C   UNL A   1      42.905  33.776  34.267  1.00  0.00     0.198 A 
ATOM     44  C   UNL A   1      43.575  34.900  32.253  1.00  0.00     0.198 A 
ATOM     45  F   UNL A   1      44.008  33.663  30.299  1.00  0.00    -0.203 F 
ATOM     46  F   UNL A   1      42.490  33.824  35.540  1.00  0.00    -0.200 F 
ATOM     47  C   UNL A   1      43.184  34.950  33.583  1.00  0.00     0.200 A 
ATOM     48  F   UNL A   1      43.844  36.035  31.593  1.00  0.00    -0.200 F 
ATOM     49  F   UNL A   1      43.059  36.132  34.203  1.00  0.00    -0.200 F 
ENDBRANCH  25  39
BRANCH  26  50
ATOM     50  C   UNL A   1      42.926  23.728  27.309  1.00  0.00     0.064 A 
ATOM     51  C   UNL A   1      42.367  22.579  27.888  1.00  0.00     0.173 A 
ATOM     52  C   UNL A   1      43.446  23.603  26.011  1.00  0.00     0.173 A 
ATOM     53  F   UNL A   1      41.866  22.631  29.132  1.00  0.00    -0.203 F 
ATOM     54  C   UNL A   1      42.359  21.356  27.215  1.00  0.00     0.198 A 
ATOM     55  C   UNL A   1      43.405  22.390  25.323  1.00  0.00     0.198 A 
ATOM     56  F   UNL A   1      43.989  24.666  25.399  1.00  0.00    -0.203 F 
ATOM     57  F   UNL A   1      41.872  20.263  27.818  1.00  0.00    -0.200 F 
ATOM     58  C   UNL A   1      42.875  21.263  25.931  1.00  0.00     0.200 A 
ATOM     59  F   UNL A   1      43.886  22.314  24.075  1.00  0.00    -0.200 F 
ATOM     60  F   UNL A   1      42.868  20.090  25.285  1.00  0.00    -0.200 F 
ENDBRANCH  26  50
BRANCH  38  61
ATOM     61  C   UNL A   1      47.794  26.834  31.207  1.00  0.00     0.064 A 
ATOM     62  C   UNL A   1      48.929  27.169  30.455  1.00  0.00     0.173 A 
ATOM     63  C   UNL A   1      47.973  26.087  32.380  1.00  0.00     0.173 A 
ATOM     64  F   UNL A   1      48.803  27.863  29.313  1.00  0.00    -0.203 F 
ATOM     65  C   UNL A   1      50.194  26.742  30.847  1.00  0.00     0.198 A 
ATOM     66  C   UNL A   1      49.242  25.693  32.788  1.00  0.00     0.198 A 
ATOM     67  F   UNL A   1      46.916  25.746  33.133  1.00  0.00    -0.203 F 
ATOM     68  F   UNL A   1      51.259  27.018  30.082  1.00  0.00    -0.200 F 
ATOM     69  C   UNL A   1      50.349  26.012  32.016  1.00  0.00     0.200 A 
ATOM     70  F   UNL A   1      49.393  24.999  33.924  1.00  0.00    -0.200 F 
ATOM     71  F   UNL A   1      51.569  25.604  32.394  1.00  0.00    -0.200 F 
ENDBRANCH  38  61
ENDBRANCH  12  13
ENDBRANCH   5   7
ENDBRANCH   4   5
ENDBRANCH   3   4
ENDBRANCH   2   3
ENDBRANCH   1   2
BRANCH   1  72
ATOM     72  C   UNL A   1      34.425  34.205  31.621  1.00  0.00     0.328 C 
ATOM     73  O   UNL A   1      34.073  35.375  31.745  1.00  0.00    -0.250 OA
BRANCH  72  74
ATOM     74  C   UNL A   1      35.239  33.417  32.664  1.00  0.00     0.195 C 
ATOM     75  C   UNL A   1      35.903  32.180  32.067  1.00  0.00     0.037 C 
ATOM     76  N   UNL A   1      36.320  34.151  33.340  1.00  0.00    -0.328 N 
ATOM     77  C   UNL A   1      37.032  32.531  31.096  1.00  0.00     0.005 C 
ATOM     78  C   UNL A   1      37.368  34.643  32.442  1.00  0.00     0.120 C 
ATOM     79  C   UNL A   1      38.053  33.451  31.759  1.00  0.00     0.022 C 
BRANCH  76  80
ATOM     80  C   UNL A   1      36.502  33.898  34.700  1.00  0.00     0.233 C 
ATOM     81  O   UNL A   1      35.547  33.851  35.482  1.00  0.00    -0.274 OA
BRANCH  80  82
ATOM     82  C   UNL A   1      37.910  33.676  35.224  1.00  0.00     0.170 C 
BRANCH  82  83
ATOM     83  S   UNL A   1      38.211  31.940  35.704  1.00  0.00    -0.147 SA
BRANCH  83  84
ATOM     84  C   UNL A   1      39.488  31.468  34.496  1.00  0.00     0.105 C 
BRANCH  84  85
ATOM     85  C   UNL A   1      39.273  30.173  33.747  1.00  0.00    -0.038 A 
ATOM     86  C   UNL A   1      38.009  29.682  33.384  1.00  0.00     0.004 A 
ATOM     87  C   UNL A   1      40.397  29.380  33.457  1.00  0.00     0.004 A 
ATOM     88  C   UNL A   1      37.878  28.473  32.699  1.00  0.00     0.000 A 
ATOM     89  C   UNL A   1      40.263  28.161  32.788  1.00  0.00     0.000 A 
ATOM     90  C   UNL A   1      39.004  27.714  32.399  1.00  0.00     0.000 A 
ENDBRANCH  84  85
ENDBRANCH  83  84
ENDBRANCH  82  83
ENDBRANCH  80  82
ENDBRANCH  76  80
ENDBRANCH  72  74
ENDBRANCH   1  72
TORSDOF 16
ENDMDL
MODEL 2
REMARK VINA RESULT:      -9.2      5.185     10.711
REMARK SMILES O=C(OCCOC(=O)[C@H]1CCCCN1C(=O)CSCc1ccccc1)c1ccc(-c2c3nc(c(-c4c(F)c(F)c(F)c(F)c4F)c4ccc([nH]4)c(-c4c(F)c(F)c(F)c(F)c4F)c4nc(c(-c5c(F)c(F)c(F)c(F)c5F)c5ccc2[nH]5)C=C4)C=C3)cc1
REMARK SMILES IDX 6 1 5 2 4 3 3 4 2 5 1 6 26 7 27 8 88 9 28 10 87 11 29 12
REMARK SMILES IDX 30 13 31 14 81 15 32 16 86 17 80 18 82 19 33 20 85 21 79 22
REMARK SMILES IDX 78 23 34 25 66 26 46 27 65 28 47 29 50 30 64 31 83 32 48 33
REMARK SMILES IDX 49 34 63 36 84 37 51 38 35 39 36 40 44 41 37 42 38 43 42 44
REMARK SMILES IDX 45 45 39 46 40 47 43 48 41 49 67 50 68 51 76 52 69 53 70 54
REMARK SMILES IDX 74 55 77 56 71 57 72 58 75 59 73 60 52 61 53 62 61 63 54 64
REMARK SMILES IDX 55 65 59 66 62 67 56 68 57 69 60 70 58 71 7 72 8 73 9 74
REMARK SMILES IDX 10 75 14 76 11 77 13 78 12 79 15 80 16 81 17 82 18 83 19 84
REMARK SMILES IDX 20 85 21 86 25 87 22 88 24 89 23 90
REMARK H PARENT 82 24 50 35
REMARK Flexibility Score: inf
ROOT
ATOM      1  O   UNL A   1      35.223  21.055  25.840  1.00  0.00    -0.461 OA
ENDROOT
BRANCH   1   2
ATOM      2  C   UNL A   1      35.769  20.044  24.988  1.00  0.00     0.274 C 
BRANCH   2   3
ATOM      3  C   UNL A   1      37.283  20.192  24.863  1.00  0.00     0.275 C 
BRANCH   3   4
ATOM      4  O   UNL A   1      37.833  21.246  25.678  1.00  0.00    -0.458 OA
BRANCH   4   5
ATOM      5  C   UNL A   1      39.090  21.476  26.127  1.00  0.00     0.338 C 
ATOM      6  O   UNL A   1      39.852  20.514  26.227  1.00  0.00    -0.246 OA
BRANCH   5   7
ATOM      7  C   UNL A   1      39.602  22.799  26.619  1.00  0.00     0.060 A 
ATOM      8  C   UNL A   1      39.197  24.058  26.173  1.00  0.00     0.016 A 
ATOM      9  C   UNL A   1      40.604  22.755  27.615  1.00  0.00     0.016 A 
ATOM     10  C   UNL A   1      39.725  25.230  26.736  1.00  0.00     0.010 A 
ATOM     11  C   UNL A   1      41.144  23.923  28.176  1.00  0.00     0.010 A 
ATOM     12  C   UNL A   1      40.701  25.174  27.740  1.00  0.00    -0.014 A 
BRANCH  12  13
ATOM     13  C   UNL A   1      41.325  26.443  28.193  1.00  0.00     0.031 A 
ATOM     14  C   UNL A   1      42.750  26.688  27.828  1.00  0.00     0.074 A 
ATOM     15  C   UNL A   1      40.612  27.398  28.819  1.00  0.00     0.049 A 
ATOM     16  N   UNL A   1      43.454  27.779  27.958  1.00  0.00    -0.248 NA
ATOM     17  C   UNL A   1      43.474  25.559  27.226  1.00  0.00     0.031 C 
ATOM     18  C   UNL A   1      39.234  27.240  29.235  1.00  0.00     0.029 A 
ATOM     19  N   UNL A   1      40.911  28.680  29.204  1.00  0.00    -0.354 N 
ATOM     20  C   UNL A   1      44.693  27.480  27.421  1.00  0.00     0.074 A 
ATOM     21  C   UNL A   1      44.665  26.094  27.009  1.00  0.00     0.031 C 
ATOM     22  C   UNL A   1      38.775  28.367  29.791  1.00  0.00     0.029 A 
ATOM     23  C   UNL A   1      39.853  29.342  29.793  1.00  0.00     0.049 A 
ATOM     24  H   UNL A   1      41.797  29.090  29.073  1.00  0.00     0.167 HD
ATOM     25  C   UNL A   1      45.753  28.306  27.274  1.00  0.00     0.037 A 
ATOM     26  C   UNL A   1      39.764  30.593  30.283  1.00  0.00     0.037 A 
ATOM     27  C   UNL A   1      45.784  29.657  27.765  1.00  0.00     0.049 A 
ATOM     28  C   UNL A   1      40.983  31.462  30.172  1.00  0.00     0.074 A 
ATOM     29  C   UNL A   1      46.826  30.563  27.745  1.00  0.00     0.029 A 
ATOM     30  N   UNL A   1      44.713  30.288  28.392  1.00  0.00    -0.354 N 
ATOM     31  N   UNL A   1      42.144  31.181  29.631  1.00  0.00    -0.248 NA
ATOM     32  C   UNL A   1      40.891  32.813  30.735  1.00  0.00     0.031 C 
ATOM     33  C   UNL A   1      46.402  31.727  28.398  1.00  0.00     0.029 A 
ATOM     34  C   UNL A   1      45.076  31.569  28.773  1.00  0.00     0.049 A 
ATOM     35  H   UNL A   1      43.829  29.883  28.543  1.00  0.00     0.167 HD
ATOM     36  C   UNL A   1      42.921  32.317  29.780  1.00  0.00     0.074 A 
ATOM     37  C   UNL A   1      42.082  33.306  30.430  1.00  0.00     0.031 C 
ATOM     38  C   UNL A   1      44.213  32.523  29.424  1.00  0.00     0.037 A 
BRANCH  25  39
ATOM     39  C   UNL A   1      46.955  27.729  26.590  1.00  0.00     0.064 A 
ATOM     40  C   UNL A   1      47.074  27.750  25.191  1.00  0.00     0.173 A 
ATOM     41  C   UNL A   1      47.966  27.101  27.328  1.00  0.00     0.173 A 
ATOM     42  F   UNL A   1      46.115  28.312  24.439  1.00  0.00    -0.203 F 
ATOM     43  C   UNL A   1      48.147  27.133  24.555  1.00  0.00     0.198 A 
ATOM     44  C   UNL A   1      49.051  26.507  26.690  1.00  0.00     0.198 A 
ATOM     45  F   UNL A   1      47.890  27.042  28.665  1.00  0.00    -0.203 F 
ATOM     46  F   UNL A   1      48.207  27.107  23.216  1.00  0.00    -0.200 F 
ATOM     47  C   UNL A   1      49.136  26.514  25.305  1.00  0.00     0.200 A 
ATOM     48  F   UNL A   1      50.007  25.910  27.414  1.00  0.00    -0.200 F 
ATOM     49  F   UNL A   1      50.163  25.910  24.692  1.00  0.00    -0.200 F 
ENDBRANCH  25  39
BRANCH  26  50
ATOM     50  C   UNL A   1      38.510  31.082  30.928  1.00  0.00     0.064 A 
ATOM     51  C   UNL A   1      38.346  31.072  32.321  1.00  0.00     0.173 A 
ATOM     52  C   UNL A   1      37.430  31.543  30.158  1.00  0.00     0.173 A 
ATOM     53  F   UNL A   1      39.338  30.630  33.110  1.00  0.00    -0.203 F 
ATOM     54  C   UNL A   1      37.147  31.470  32.914  1.00  0.00     0.198 A 
ATOM     55  C   UNL A   1      36.245  31.976  30.752  1.00  0.00     0.198 A 
ATOM     56  F   UNL A   1      37.526  31.583  28.822  1.00  0.00    -0.203 F 
ATOM     57  F   UNL A   1      37.000  31.392  34.243  1.00  0.00    -0.200 F 
ATOM     58  C   UNL A   1      36.098  31.926  32.129  1.00  0.00     0.200 A 
ATOM     59  F   UNL A   1      35.244  32.434  29.989  1.00  0.00    -0.200 F 
ATOM     60  F   UNL A   1      34.947  32.308  32.698  1.00  0.00    -0.200 F 
ENDBRANCH  26  50
BRANCH  38  61
ATOM     61  C   UNL A   1      44.772  33.883  29.713  1.00  0.00     0.064 A 
ATOM     62  C   UNL A   1      45.431  34.167  30.918  1.00  0.00     0.173 A 
ATOM     63  C   UNL A   1      44.657  34.908  28.763  1.00  0.00     0.173 A 
ATOM     64  F   UNL A   1      45.545  33.223  31.865  1.00  0.00    -0.203 F 
ATOM     65  C   UNL A   1      45.927  35.442  31.175  1.00  0.00     0.198 A 
ATOM     66  C   UNL A   1      45.185  36.170  29.009  1.00  0.00     0.198 A 
ATOM     67  F   UNL A   1      44.037  34.681  27.595  1.00  0.00    -0.203 F 
ATOM     68  F   UNL A   1      46.498  35.709  32.357  1.00  0.00    -0.200 F 
ATOM     69  C   UNL A   1      45.810  36.438  30.217  1.00  0.00     0.200 A 
ATOM     70  F   UNL A   1      45.084  37.129  28.079  1.00  0.00    -0.200 F 
ATOM     71  F   UNL A   1      46.291  37.664  30.465  1.00  0.00    -0.200 F 
ENDBRANCH  38  61
ENDBRANCH  12  13
ENDBRANCH   5   7
ENDBRANCH   4   5
ENDBRANCH   3   4
ENDBRANCH   2   3
ENDBRANCH   1   2
BRANCH   1  72
ATOM     72  C   UNL A   1      33.945  21.463  25.583  1.00  0.00     0.328 C 
ATOM     73  O   UNL A   1      33.083  20.765  25.055  1.00  0.00    -0.250 OA
BRANCH  72  74
ATOM     74  C   UNL A   1      33.710  22.879  26.141  1.00  0.00     0.195 C 
ATOM     75  C   UNL A   1      34.979  23.725  26.128  1.00  0.00     0.037 C 
ATOM     76  N   UNL A   1      32.694  23.691  25.454  1.00  0.00    -0.328 N 
ATOM     77  C   UNL A   1      35.424  24.095  24.711  1.00  0.00     0.005 C 
ATOM     78  C   UNL A   1      32.989  23.963  24.045  1.00  0.00     0.120 C 
ATOM     79  C   UNL A   1      34.290  24.772  23.945  1.00  0.00     0.022 C 
BRANCH  76  80
ATOM     80  C   UNL A   1      31.874  24.488  26.255  1.00  0.00     0.233 C 
ATOM     81  O   UNL A   1      31.415  24.072  27.323  1.00  0.00    -0.274 OA
BRANCH  80  82
ATOM     82  C   UNL A   1      31.542  25.896  25.795  1.00  0.00     0.170 C 
BRANCH  82  83
ATOM     83  S   UNL A   1      29.944  25.986  24.916  1.00  0.00    -0.147 SA
BRANCH  83  84
ATOM     84  C   UNL A   1      30.415  26.961  23.452  1.00  0.00     0.105 C 
BRANCH  84  85
ATOM     85  C   UNL A   1      29.492  28.092  23.061  1.00  0.00    -0.038 A 
ATOM     86  C   UNL A   1      28.104  28.073  23.266  1.00  0.00     0.004 A 
ATOM     87  C   UNL A   1      30.045  29.197  22.391  1.00  0.00     0.004 A 
ATOM     88  C   UNL A   1      27.305  29.149  22.874  1.00  0.00     0.000 A 
ATOM     89  C   UNL A   1      29.243  30.265  21.981  1.00  0.00     0.000 A 
ATOM     90  C   UNL A   1      27.874  30.245  22.233  1.00  0.00     0.000 A 
ENDBRANCH  84  85
ENDBRANCH  83  84
ENDBRANCH  82  83
ENDBRANCH  80  82
ENDBRANCH  76  80
ENDBRANCH  72  74
ENDBRANCH   1  72
TORSDOF 16
ENDMDL
MODEL 3
REMARK VINA RESULT:      -9.1      4.803      7.706
REMARK SMILES O=C(OCCOC(=O)[C@H]1CCCCN1C(=O)CSCc1ccccc1)c1ccc(-c2c3nc(c(-c4c(F)c(F)c(F)c(F)c4F)c4ccc([nH]4)c(-c4c(F)c(F)c(F)c(F)c4F)c4nc(c(-c5c(F)c(F)c(F)c(F)c5F)c5ccc2[nH]5)C=C4)C=C3)cc1
REMARK SMILES IDX 6 1 5 2 4 3 3 4 2 5 1 6 26 7 27 8 88 9 28 10 87 11 29 12
REMARK SMILES IDX 30 13 31 14 81 15 32 16 86 17 80 18 82 19 33 20 85 21 79 22
REMARK SMILES IDX 78 23 34 25 66 26 46 27 65 28 47 29 50 30 64 31 83 32 48 33
REMARK SMILES IDX 49 34 63 36 84 37 51 38 35 39 36 40 44 41 37 42 38 43 42 44
REMARK SMILES IDX 45 45 39 46 40 47 43 48 41 49 67 50 68 51 76 52 69 53 70 54
REMARK SMILES IDX 74 55 77 56 71 57 72 58 75 59 73 60 52 61 53 62 61 63 54 64
REMARK SMILES IDX 55 65 59 66 62 67 56 68 57 69 60 70 58 71 7 72 8 73 9 74
REMARK SMILES IDX 10 75 14 76 11 77 13 78 12 79 15 80 16 81 17 82 18 83 19 84
REMARK SMILES IDX 20 85 21 86 25 87 22 88 24 89 23 90
REMARK H PARENT 82 24 50 35
REMARK Flexibility Score: inf
ROOT
ATOM      1  O   UNL A   1      32.566  29.286  25.028  1.00  0.00    -0.461 OA
ENDROOT
BRANCH   1   2
ATOM      2  C   UNL A   1      31.733  30.325  25.549  1.00  0.00     0.274 C 
BRANCH   2   3
ATOM      3  C   UNL A   1      32.239  30.806  26.906  1.00  0.00     0.275 C 
BRANCH   3   4
ATOM      4  O   UNL A   1      32.669  32.182  26.912  1.00  0.00    -0.458 OA
BRANCH   4   5
ATOM      5  C   UNL A   1      33.585  32.837  27.664  1.00  0.00     0.338 C 
ATOM      6  O   UNL A   1      33.467  34.057  27.785  1.00  0.00    -0.246 OA
BRANCH   5   7
ATOM      7  C   UNL A   1      34.802  32.211  28.282  1.00  0.00     0.060 A 
ATOM      8  C   UNL A   1      34.862  30.965  28.907  1.00  0.00     0.016 A 
ATOM      9  C   UNL A   1      35.992  32.973  28.238  1.00  0.00     0.016 A 
ATOM     10  C   UNL A   1      36.071  30.469  29.418  1.00  0.00     0.010 A 
ATOM     11  C   UNL A   1      37.203  32.487  28.756  1.00  0.00     0.010 A 
ATOM     12  C   UNL A   1      37.250  31.222  29.347  1.00  0.00    -0.014 A 
BRANCH  12  13
ATOM     13  C   UNL A   1      38.462  30.708  30.032  1.00  0.00     0.031 A 
ATOM     14  C   UNL A   1      38.696  31.127  31.444  1.00  0.00     0.074 A 
ATOM     15  C   UNL A   1      39.275  29.806  29.450  1.00  0.00     0.049 A 
ATOM     16  N   UNL A   1      39.578  30.682  32.296  1.00  0.00    -0.248 NA
ATOM     17  C   UNL A   1      37.812  32.178  31.969  1.00  0.00     0.031 C 
ATOM     18  C   UNL A   1      39.142  29.361  28.078  1.00  0.00     0.029 A 
ATOM     19  N   UNL A   1      40.351  29.090  29.909  1.00  0.00    -0.354 N 
ATOM     20  C   UNL A   1      39.332  31.371  33.470  1.00  0.00     0.074 A 
ATOM     21  C   UNL A   1      38.255  32.301  33.210  1.00  0.00     0.031 C 
ATOM     22  C   UNL A   1      40.062  28.433  27.791  1.00  0.00     0.029 A 
ATOM     23  C   UNL A   1      40.882  28.227  28.972  1.00  0.00     0.049 A 
ATOM     24  H   UNL A   1      40.711  29.182  30.821  1.00  0.00     0.167 HD
ATOM     25  C   UNL A   1      39.950  31.223  34.663  1.00  0.00     0.037 A 
ATOM     26  C   UNL A   1      41.917  27.371  29.056  1.00  0.00     0.037 A 
ATOM     27  C   UNL A   1      41.072  30.349  34.875  1.00  0.00     0.049 A 
ATOM     28  C   UNL A   1      42.630  27.282  30.374  1.00  0.00     0.074 A 
ATOM     29  C   UNL A   1      41.829  30.172  36.017  1.00  0.00     0.029 A 
ATOM     30  N   UNL A   1      41.614  29.518  33.899  1.00  0.00    -0.354 N 
ATOM     31  N   UNL A   1      42.369  27.917  31.492  1.00  0.00    -0.248 NA
ATOM     32  C   UNL A   1      43.777  26.371  30.451  1.00  0.00     0.031 C 
ATOM     33  C   UNL A   1      42.855  29.266  35.721  1.00  0.00     0.029 A 
ATOM     34  C   UNL A   1      42.703  28.833  34.412  1.00  0.00     0.049 A 
ATOM     35  H   UNL A   1      41.273  29.429  32.981  1.00  0.00     0.167 HD
ATOM     36  C   UNL A   1      43.311  27.479  32.408  1.00  0.00     0.074 A 
ATOM     37  C   UNL A   1      44.126  26.495  31.723  1.00  0.00     0.031 C 
ATOM     38  C   UNL A   1      43.494  27.864  33.695  1.00  0.00     0.037 A 
BRANCH  25  39
ATOM     39  C   UNL A   1      39.428  32.060  35.790  1.00  0.00     0.064 A 
ATOM     40  C   UNL A   1      39.967  33.328  36.064  1.00  0.00     0.173 A 
ATOM     41  C   UNL A   1      38.425  31.574  36.639  1.00  0.00     0.173 A 
ATOM     42  F   UNL A   1      40.952  33.823  35.299  1.00  0.00    -0.203 F 
ATOM     43  C   UNL A   1      39.543  34.063  37.167  1.00  0.00     0.198 A 
ATOM     44  C   UNL A   1      37.985  32.323  37.726  1.00  0.00     0.198 A 
ATOM     45  F   UNL A   1      37.889  30.363  36.429  1.00  0.00    -0.203 F 
ATOM     46  F   UNL A   1      40.118  35.240  37.447  1.00  0.00    -0.200 F 
ATOM     47  C   UNL A   1      38.550  33.561  37.996  1.00  0.00     0.200 A 
ATOM     48  F   UNL A   1      37.026  31.839  38.527  1.00  0.00    -0.200 F 
ATOM     49  F   UNL A   1      38.151  34.264  39.064  1.00  0.00    -0.200 F 
ENDBRANCH  25  39
BRANCH  26  50
ATOM     50  C   UNL A   1      42.346  26.561  27.878  1.00  0.00     0.064 A 
ATOM     51  C   UNL A   1      43.337  27.014  26.994  1.00  0.00     0.173 A 
ATOM     52  C   UNL A   1      41.749  25.323  27.591  1.00  0.00     0.173 A 
ATOM     53  F   UNL A   1      43.936  28.196  27.207  1.00  0.00    -0.203 F 
ATOM     54  C   UNL A   1      43.688  26.282  25.859  1.00  0.00     0.198 A 
ATOM     55  C   UNL A   1      42.125  24.574  26.476  1.00  0.00     0.198 A 
ATOM     56  F   UNL A   1      40.800  24.832  28.400  1.00  0.00    -0.203 F 
ATOM     57  F   UNL A   1      44.595  26.771  25.001  1.00  0.00    -0.200 F 
ATOM     58  C   UNL A   1      43.084  25.060  25.603  1.00  0.00     0.200 A 
ATOM     59  F   UNL A   1      41.552  23.385  26.247  1.00  0.00    -0.200 F 
ATOM     60  F   UNL A   1      43.421  24.358  24.513  1.00  0.00    -0.200 F 
ENDBRANCH  26  50
BRANCH  38  61
ATOM     61  C   UNL A   1      44.606  27.188  34.438  1.00  0.00     0.064 A 
ATOM     62  C   UNL A   1      45.905  27.718  34.461  1.00  0.00     0.173 A 
ATOM     63  C   UNL A   1      44.362  26.002  35.144  1.00  0.00     0.173 A 
ATOM     64  F   UNL A   1      46.189  28.839  33.781  1.00  0.00    -0.203 F 
ATOM     65  C   UNL A   1      46.928  27.065  35.142  1.00  0.00     0.198 A 
ATOM     66  C   UNL A   1      45.379  25.370  35.852  1.00  0.00     0.198 A 
ATOM     67  F   UNL A   1      43.135  25.459  35.152  1.00  0.00    -0.203 F 
ATOM     68  F   UNL A   1      48.174  27.554  35.100  1.00  0.00    -0.200 F 
ATOM     69  C   UNL A   1      46.662  25.897  35.841  1.00  0.00     0.200 A 
ATOM     70  F   UNL A   1      45.119  24.250  36.539  1.00  0.00    -0.200 F 
ATOM     71  F   UNL A   1      47.648  25.271  36.498  1.00  0.00    -0.200 F 
ENDBRANCH  38  61
ENDBRANCH  12  13
ENDBRANCH   5   7
ENDBRANCH   4   5
ENDBRANCH   3   4
ENDBRANCH   2   3
ENDBRANCH   1   2
BRANCH   1  72
ATOM     72  C   UNL A   1      31.977  28.367  24.207  1.00  0.00     0.328 C 
ATOM     73  O   UNL A   1      31.011  28.596  23.484  1.00  0.00    -0.250 OA
BRANCH  72  74
ATOM     74  C   UNL A   1      32.757  27.040  24.237  1.00  0.00     0.195 C 
ATOM     75  C   UNL A   1      33.078  26.588  25.658  1.00  0.00     0.037 C 
ATOM     76  N   UNL A   1      32.107  25.885  23.599  1.00  0.00    -0.328 N 
ATOM     77  C   UNL A   1      31.831  26.152  26.431  1.00  0.00     0.005 C 
ATOM     78  C   UNL A   1      30.828  25.503  24.204  1.00  0.00     0.120 C 
ATOM     79  C   UNL A   1      31.061  25.082  25.662  1.00  0.00     0.022 C 
BRANCH  76  80
ATOM     80  C   UNL A   1      32.925  25.019  22.874  1.00  0.00     0.233 C 
ATOM     81  O   UNL A   1      33.944  25.420  22.303  1.00  0.00    -0.274 OA
BRANCH  80  82
ATOM     82  C   UNL A   1      32.548  23.551  22.787  1.00  0.00     0.170 C 
BRANCH  82  83
ATOM     83  S   UNL A   1      33.505  22.514  23.947  1.00  0.00    -0.147 SA
BRANCH  83  84
ATOM     84  C   UNL A   1      32.365  21.113  24.172  1.00  0.00     0.105 C 
BRANCH  84  85
ATOM     85  C   UNL A   1      32.914  19.734  23.885  1.00  0.00    -0.038 A 
ATOM     86  C   UNL A   1      32.338  18.839  22.970  1.00  0.00     0.004 A 
ATOM     87  C   UNL A   1      34.026  19.296  24.626  1.00  0.00     0.004 A 
ATOM     88  C   UNL A   1      32.891  17.576  22.756  1.00  0.00     0.000 A 
ATOM     89  C   UNL A   1      34.567  18.024  24.425  1.00  0.00     0.000 A 
ATOM     90  C   UNL A   1      34.006  17.169  23.482  1.00  0.00     0.000 A 
ENDBRANCH  84  85
ENDBRANCH  83  84
ENDBRANCH  82  83
ENDBRANCH  80  82
ENDBRANCH  76  80
ENDBRANCH  72  74
ENDBRANCH   1  72
TORSDOF 16
ENDMDL
