MODEL 1
REMARK VINA RESULT:     -11.9      0.000      0.000
REMARK SMILES COc1cc([C@@H]2[NH2+][C@@H](C(=O)OCCOC(=O)c3ccc(-c4c5nc(c(-c6c(F)c(F)c(F)c(F)c6F)c6ccc([nH]6)c(-c6c(F)c(F)c(F)c(F)c6F)c6nc(c(-c7c(F)c(F)c(F)c(F)c7F)c7ccc4[nH]7)C=C6)C=C5)cc3)CS2)cc(Cl)c1O
REMARK SMILES IDX 12 1 11 2 9 3 10 4 8 5 6 6 7 7 81 8 80 11 5 12 3 13 4 14
REMARK SMILES IDX 85 15 83 16 82 17 84 18 2 19 1 20 86 21 13 23 14 24 15 25
REMARK SMILES IDX 16 26 17 27 18 28 79 29 19 30 78 31 20 32 21 33 22 34 72 35
REMARK SMILES IDX 23 36 77 37 71 38 73 39 24 40 76 41 70 42 69 43 25 45 57 46
REMARK SMILES IDX 37 47 56 48 38 49 41 50 55 51 74 52 39 53 40 54 54 56 75 57
REMARK SMILES IDX 42 58 26 59 27 60 35 61 28 62 29 63 33 64 36 65 30 66 31 67
REMARK SMILES IDX 34 68 32 69 58 70 59 71 67 72 60 73 61 74 65 75 68 76 62 77
REMARK SMILES IDX 63 78 66 79 64 80 43 81 44 82 52 83 45 84 46 85 50 86 53 87
REMARK SMILES IDX 47 88 48 89 51 90 49 91
REMARK H PARENT 7 9 7 10 86 22 73 44 41 55
REMARK Flexibility Score: inf
ROOT
ATOM      1  C   UNL A   1      31.423  29.054  25.067  1.00  0.00     0.274 C 
ENDROOT
BRANCH   1   2
ATOM      2  O   UNL A   1      32.405  28.134  25.595  1.00  0.00    -0.458 OA
BRANCH   2   3
ATOM      3  C   UNL A   1      31.923  27.110  26.355  1.00  0.00     0.365 C 
ATOM      4  O   UNL A   1      31.086  27.239  27.243  1.00  0.00    -0.245 OA
BRANCH   3   5
ATOM      5  C   UNL A   1      32.546  25.746  26.010  1.00  0.00     0.304 C 
ATOM      6  C   UNL A   1      34.358  25.009  24.573  1.00  0.00     0.274 C 
ATOM      7  N   UNL A   1      34.013  25.808  25.749  1.00  0.00    -0.319 N 
ATOM      8  S   UNL A   1      32.922  24.974  23.487  1.00  0.00    -0.087 SA
ATOM      9  H   UNL A   1      34.285  26.778  25.588  1.00  0.00     0.348 HD
ATOM     10  H   UNL A   1      34.508  25.435  26.559  1.00  0.00     0.348 HD
ATOM     11  C   UNL A   1      31.761  25.110  24.857  1.00  0.00     0.153 C 
BRANCH   6  12
ATOM     12  C   UNL A   1      34.839  23.599  24.879  1.00  0.00     0.025 A 
ATOM     13  C   UNL A   1      34.586  21.176  24.783  1.00  0.00     0.162 A 
ATOM     14  C   UNL A   1      34.044  22.457  24.668  1.00  0.00     0.061 A 
ATOM     15  C   UNL A   1      35.930  21.010  25.113  1.00  0.00     0.176 A 
ATOM     16  C   UNL A   1      36.720  22.121  25.392  1.00  0.00     0.087 A 
ATOM     17  C   UNL A   1      36.179  23.405  25.273  1.00  0.00     0.035 A 
ATOM     18  Cl  UNL A   1      38.377  21.956  25.840  1.00  0.00    -0.080 Cl
BRANCH  13  19
ATOM     19  O   UNL A   1      33.878  20.044  24.475  1.00  0.00    -0.493 OA
ATOM     20  C   UNL A   1      32.537  20.056  24.961  1.00  0.00     0.278 C 
ENDBRANCH  13  19
BRANCH  15  21
ATOM     21  O   UNL A   1      36.451  19.743  25.142  1.00  0.00    -0.503 OA
ATOM     22  H   UNL A   1      37.370  19.611  25.017  1.00  0.00     0.293 HD
ENDBRANCH  15  21
ENDBRANCH   6  12
ENDBRANCH   3   5
ENDBRANCH   2   3
ENDBRANCH   1   2
BRANCH   1  23
ATOM     23  C   UNL A   1      31.625  30.453  25.645  1.00  0.00     0.275 C 
BRANCH  23  24
ATOM     24  O   UNL A   1      32.510  30.367  26.775  1.00  0.00    -0.458 OA
BRANCH  24  25
ATOM     25  C   UNL A   1      33.089  31.529  27.155  1.00  0.00     0.338 C 
ATOM     26  O   UNL A   1      32.588  32.638  27.201  1.00  0.00    -0.246 OA
BRANCH  25  27
ATOM     27  C   UNL A   1      34.444  31.241  27.641  1.00  0.00     0.060 A 
ATOM     28  C   UNL A   1      34.757  29.919  27.942  1.00  0.00     0.016 A 
ATOM     29  C   UNL A   1      35.342  32.261  27.938  1.00  0.00     0.016 A 
ATOM     30  C   UNL A   1      35.932  29.611  28.621  1.00  0.00     0.010 A 
ATOM     31  C   UNL A   1      36.562  31.943  28.550  1.00  0.00     0.010 A 
ATOM     32  C   UNL A   1      36.852  30.619  28.935  1.00  0.00    -0.014 A 
BRANCH  32  33
ATOM     33  C   UNL A   1      38.070  30.301  29.734  1.00  0.00     0.031 A 
ATOM     34  C   UNL A   1      39.152  29.438  29.140  1.00  0.00     0.074 A 
ATOM     35  C   UNL A   1      38.237  30.802  30.973  1.00  0.00     0.049 A 
ATOM     36  N   UNL A   1      40.186  28.885  29.722  1.00  0.00    -0.248 NA
ATOM     37  C   UNL A   1      39.051  29.148  27.701  1.00  0.00     0.031 C 
ATOM     38  C   UNL A   1      37.312  31.706  31.657  1.00  0.00     0.029 A 
ATOM     39  N   UNL A   1      39.256  30.626  31.880  1.00  0.00    -0.354 N 
ATOM     40  C   UNL A   1      40.813  28.127  28.742  1.00  0.00     0.074 A 
ATOM     41  C   UNL A   1      40.058  28.306  27.520  1.00  0.00     0.031 C 
ATOM     42  C   UNL A   1      37.817  32.028  32.858  1.00  0.00     0.029 A 
ATOM     43  C   UNL A   1      39.061  31.293  33.064  1.00  0.00     0.049 A 
ATOM     44  H   UNL A   1      40.050  30.072  31.697  1.00  0.00     0.167 HD
ATOM     45  C   UNL A   1      41.913  27.347  28.856  1.00  0.00     0.037 A 
ATOM     46  C   UNL A   1      39.779  31.282  34.204  1.00  0.00     0.037 A 
ATOM     47  C   UNL A   1      42.719  27.235  30.043  1.00  0.00     0.049 A 
ATOM     48  C   UNL A   1      41.001  30.411  34.303  1.00  0.00     0.074 A 
ATOM     49  C   UNL A   1      43.865  26.486  30.242  1.00  0.00     0.029 A 
ATOM     50  N   UNL A   1      42.475  27.916  31.225  1.00  0.00    -0.354 N 
ATOM     51  N   UNL A   1      41.540  29.636  33.394  1.00  0.00    -0.248 NA
ATOM     52  C   UNL A   1      41.699  30.393  35.598  1.00  0.00     0.031 C 
ATOM     53  C   UNL A   1      44.305  26.697  31.553  1.00  0.00     0.029 A 
ATOM     54  C   UNL A   1      43.446  27.598  32.160  1.00  0.00     0.049 A 
ATOM     55  H   UNL A   1      41.723  28.534  31.378  1.00  0.00     0.167 HD
ATOM     56  C   UNL A   1      42.636  29.041  34.004  1.00  0.00     0.074 A 
ATOM     57  C   UNL A   1      42.704  29.563  35.352  1.00  0.00     0.031 C 
ATOM     58  C   UNL A   1      43.501  28.131  33.495  1.00  0.00     0.037 A 
BRANCH  45  59
ATOM     59  C   UNL A   1      42.300  26.510  27.675  1.00  0.00     0.064 A 
ATOM     60  C   UNL A   1      43.299  26.908  26.776  1.00  0.00     0.173 A 
ATOM     61  C   UNL A   1      41.696  25.258  27.482  1.00  0.00     0.173 A 
ATOM     62  F   UNL A   1      43.893  28.102  26.914  1.00  0.00    -0.203 F 
ATOM     63  C   UNL A   1      43.675  26.082  25.719  1.00  0.00     0.198 A 
ATOM     64  C   UNL A   1      42.087  24.428  26.436  1.00  0.00     0.198 A 
ATOM     65  F   UNL A   1      40.737  24.834  28.318  1.00  0.00    -0.203 F 
ATOM     66  F   UNL A   1      44.614  26.489  24.855  1.00  0.00    -0.200 F 
ATOM     67  C   UNL A   1      43.074  24.842  25.554  1.00  0.00     0.200 A 
ATOM     68  F   UNL A   1      41.514  23.227  26.284  1.00  0.00    -0.200 F 
ATOM     69  F   UNL A   1      43.447  24.044  24.543  1.00  0.00    -0.200 F 
ENDBRANCH  45  59
BRANCH  46  70
ATOM     70  C   UNL A   1      39.329  32.082  35.372  1.00  0.00     0.064 A 
ATOM     71  C   UNL A   1      39.731  33.415  35.532  1.00  0.00     0.173 A 
ATOM     72  C   UNL A   1      38.503  31.526  36.360  1.00  0.00     0.173 A 
ATOM     73  F   UNL A   1      40.547  33.981  34.629  1.00  0.00    -0.203 F 
ATOM     74  C   UNL A   1      39.335  34.157  36.642  1.00  0.00     0.198 A 
ATOM     75  C   UNL A   1      38.084  32.277  37.454  1.00  0.00     0.198 A 
ATOM     76  F   UNL A   1      38.096  30.252  36.255  1.00  0.00    -0.203 F 
ATOM     77  F   UNL A   1      39.769  35.416  36.794  1.00  0.00    -0.200 F 
ATOM     78  C   UNL A   1      38.506  33.590  37.599  1.00  0.00     0.200 A 
ATOM     79  F   UNL A   1      37.276  31.728  38.371  1.00  0.00    -0.200 F 
ATOM     80  F   UNL A   1      38.122  34.305  38.665  1.00  0.00    -0.200 F 
ENDBRANCH  46  70
BRANCH  58  81
ATOM     81  C   UNL A   1      44.599  27.654  34.395  1.00  0.00     0.064 A 
ATOM     82  C   UNL A   1      45.818  28.342  34.479  1.00  0.00     0.173 A 
ATOM     83  C   UNL A   1      44.419  26.523  35.204  1.00  0.00     0.173 A 
ATOM     84  F   UNL A   1      46.040  29.419  33.711  1.00  0.00    -0.203 F 
ATOM     85  C   UNL A   1      46.826  27.903  35.333  1.00  0.00     0.198 A 
ATOM     86  C   UNL A   1      45.422  26.099  36.071  1.00  0.00     0.198 A 
ATOM     87  F   UNL A   1      43.268  25.836  35.159  1.00  0.00    -0.203 F 
ATOM     88  F   UNL A   1      47.997  28.553  35.373  1.00  0.00    -0.200 F 
ATOM     89  C   UNL A   1      46.626  26.786  36.130  1.00  0.00     0.200 A 
ATOM     90  F   UNL A   1      45.226  25.023  36.845  1.00  0.00    -0.200 F 
ATOM     91  F   UNL A   1      47.597  26.367  36.953  1.00  0.00    -0.200 F 
ENDBRANCH  58  81
ENDBRANCH  32  33
ENDBRANCH  25  27
ENDBRANCH  24  25
ENDBRANCH  23  24
ENDBRANCH   1  23
TORSDOF 14
ENDMDL
MODEL 2
REMARK VINA RESULT:     -11.8      0.636      2.095
REMARK SMILES COc1cc([C@@H]2[NH2+][C@@H](C(=O)OCCOC(=O)c3ccc(-c4c5nc(c(-c6c(F)c(F)c(F)c(F)c6F)c6ccc([nH]6)c(-c6c(F)c(F)c(F)c(F)c6F)c6nc(c(-c7c(F)c(F)c(F)c(F)c7F)c7ccc4[nH]7)C=C6)C=C5)cc3)CS2)cc(Cl)c1O
REMARK SMILES IDX 12 1 11 2 9 3 10 4 8 5 6 6 7 7 81 8 80 11 5 12 3 13 4 14
REMARK SMILES IDX 85 15 83 16 82 17 84 18 2 19 1 20 86 21 13 23 14 24 15 25
REMARK SMILES IDX 16 26 17 27 18 28 79 29 19 30 78 31 20 32 21 33 22 34 72 35
REMARK SMILES IDX 23 36 77 37 71 38 73 39 24 40 76 41 70 42 69 43 25 45 57 46
REMARK SMILES IDX 37 47 56 48 38 49 41 50 55 51 74 52 39 53 40 54 54 56 75 57
REMARK SMILES IDX 42 58 26 59 27 60 35 61 28 62 29 63 33 64 36 65 30 66 31 67
REMARK SMILES IDX 34 68 32 69 58 70 59 71 67 72 60 73 61 74 65 75 68 76 62 77
REMARK SMILES IDX 63 78 66 79 64 80 43 81 44 82 52 83 45 84 46 85 50 86 53 87
REMARK SMILES IDX 47 88 48 89 51 90 49 91
REMARK H PARENT 7 9 7 10 86 22 73 44 41 55
REMARK Flexibility Score: inf
ROOT
ATOM      1  C   UNL A   1      31.406  28.613  24.837  1.00  0.00     0.274 C 
ENDROOT
BRANCH   1   2
ATOM      2  O   UNL A   1      32.315  27.644  25.407  1.00  0.00    -0.458 OA
BRANCH   2   3
ATOM      3  C   UNL A   1      31.780  26.778  26.315  1.00  0.00     0.365 C 
ATOM      4  O   UNL A   1      31.029  27.106  27.228  1.00  0.00    -0.245 OA
BRANCH   3   5
ATOM      5  C   UNL A   1      32.224  25.321  26.104  1.00  0.00     0.304 C 
ATOM      6  C   UNL A   1      32.952  24.013  24.193  1.00  0.00     0.274 C 
ATOM      7  N   UNL A   1      33.264  25.159  25.048  1.00  0.00    -0.319 N 
ATOM      8  S   UNL A   1      31.165  23.793  24.195  1.00  0.00    -0.087 SA
ATOM      9  H   UNL A   1      33.298  26.004  24.478  1.00  0.00     0.348 HD
ATOM     10  H   UNL A   1      34.167  25.001  25.495  1.00  0.00     0.348 HD
ATOM     11  C   UNL A   1      30.989  24.446  25.865  1.00  0.00     0.153 C 
BRANCH   6  12
ATOM     12  C   UNL A   1      33.658  22.722  24.575  1.00  0.00     0.025 A 
ATOM     13  C   UNL A   1      33.697  20.301  24.859  1.00  0.00     0.162 A 
ATOM     14  C   UNL A   1      32.986  21.490  24.691  1.00  0.00     0.061 A 
ATOM     15  C   UNL A   1      35.091  20.318  24.914  1.00  0.00     0.176 A 
ATOM     16  C   UNL A   1      35.774  21.529  24.868  1.00  0.00     0.087 A 
ATOM     17  C   UNL A   1      35.063  22.721  24.697  1.00  0.00     0.035 A 
ATOM     18  Cl  UNL A   1      37.493  21.595  24.972  1.00  0.00    -0.080 Cl
BRANCH  13  19
ATOM     19  O   UNL A   1      33.091  19.071  24.861  1.00  0.00    -0.493 OA
ATOM     20  C   UNL A   1      32.524  18.710  23.603  1.00  0.00     0.278 C 
ENDBRANCH  13  19
BRANCH  15  21
ATOM     21  O   UNL A   1      35.762  19.126  25.001  1.00  0.00    -0.503 OA
ATOM     22  H   UNL A   1      35.430  18.440  25.545  1.00  0.00     0.293 HD
ENDBRANCH  15  21
ENDBRANCH   6  12
ENDBRANCH   3   5
ENDBRANCH   2   3
ENDBRANCH   1   2
BRANCH   1  23
ATOM     23  C   UNL A   1      31.649  29.999  25.429  1.00  0.00     0.275 C 
BRANCH  23  24
ATOM     24  O   UNL A   1      33.010  30.078  25.886  1.00  0.00    -0.458 OA
BRANCH  24  25
ATOM     25  C   UNL A   1      33.256  31.013  26.832  1.00  0.00     0.338 C 
ATOM     26  O   UNL A   1      32.496  31.857  27.270  1.00  0.00    -0.246 OA
BRANCH  25  27
ATOM     27  C   UNL A   1      34.603  30.790  27.372  1.00  0.00     0.060 A 
ATOM     28  C   UNL A   1      34.983  29.480  27.645  1.00  0.00     0.016 A 
ATOM     29  C   UNL A   1      35.423  31.851  27.743  1.00  0.00     0.016 A 
ATOM     30  C   UNL A   1      36.144  29.219  28.368  1.00  0.00     0.010 A 
ATOM     31  C   UNL A   1      36.631  31.586  28.401  1.00  0.00     0.010 A 
ATOM     32  C   UNL A   1      36.985  30.269  28.757  1.00  0.00    -0.014 A 
BRANCH  32  33
ATOM     33  C   UNL A   1      38.182  29.997  29.602  1.00  0.00     0.031 A 
ATOM     34  C   UNL A   1      39.298  29.139  29.066  1.00  0.00     0.074 A 
ATOM     35  C   UNL A   1      38.301  30.537  30.831  1.00  0.00     0.049 A 
ATOM     36  N   UNL A   1      40.324  28.622  29.696  1.00  0.00    -0.248 NA
ATOM     37  C   UNL A   1      39.247  28.807  27.634  1.00  0.00     0.031 C 
ATOM     38  C   UNL A   1      37.339  31.441  31.459  1.00  0.00     0.029 A 
ATOM     39  N   UNL A   1      39.295  30.406  31.772  1.00  0.00    -0.354 N 
ATOM     40  C   UNL A   1      40.995  27.850  28.757  1.00  0.00     0.074 A 
ATOM     41  C   UNL A   1      40.275  27.979  27.508  1.00  0.00     0.031 C 
ATOM     42  C   UNL A   1      37.801  31.807  32.666  1.00  0.00     0.029 A 
ATOM     43  C   UNL A   1      39.051  31.102  32.930  1.00  0.00     0.049 A 
ATOM     44  H   UNL A   1      40.104  29.862  31.630  1.00  0.00     0.167 HD
ATOM     45  C   UNL A   1      42.105  27.094  28.928  1.00  0.00     0.037 A 
ATOM     46  C   UNL A   1      39.733  31.137  34.092  1.00  0.00     0.037 A 
ATOM     47  C   UNL A   1      42.875  27.031  30.142  1.00  0.00     0.049 A 
ATOM     48  C   UNL A   1      40.968  30.293  34.253  1.00  0.00     0.074 A 
ATOM     49  C   UNL A   1      44.028  26.310  30.397  1.00  0.00     0.029 A 
ATOM     50  N   UNL A   1      42.582  27.741  31.295  1.00  0.00    -0.354 N 
ATOM     51  N   UNL A   1      41.549  29.503  33.384  1.00  0.00    -0.248 NA
ATOM     52  C   UNL A   1      41.625  30.325  35.569  1.00  0.00     0.031 C 
ATOM     53  C   UNL A   1      44.423  26.567  31.714  1.00  0.00     0.029 A 
ATOM     54  C   UNL A   1      43.529  27.468  32.268  1.00  0.00     0.049 A 
ATOM     55  H   UNL A   1      41.815  28.349  31.407  1.00  0.00     0.167 HD
ATOM     56  C   UNL A   1      42.636  28.947  34.044  1.00  0.00     0.074 A 
ATOM     57  C   UNL A   1      42.652  29.508  35.378  1.00  0.00     0.031 C 
ATOM     58  C   UNL A   1      43.533  28.040  33.589  1.00  0.00     0.037 A 
BRANCH  45  59
ATOM     59  C   UNL A   1      42.543  26.232  27.783  1.00  0.00     0.064 A 
ATOM     60  C   UNL A   1      41.972  24.978  27.534  1.00  0.00     0.173 A 
ATOM     61  C   UNL A   1      43.512  26.708  26.886  1.00  0.00     0.173 A 
ATOM     62  F   UNL A   1      41.053  24.477  28.373  1.00  0.00    -0.203 F 
ATOM     63  C   UNL A   1      42.362  24.224  26.429  1.00  0.00     0.198 A 
ATOM     64  C   UNL A   1      43.885  25.961  25.773  1.00  0.00     0.198 A 
ATOM     65  F   UNL A   1      44.085  27.905  27.081  1.00  0.00    -0.203 F 
ATOM     66  F   UNL A   1      41.823  23.015  26.220  1.00  0.00    -0.200 F 
ATOM     67  C   UNL A   1      43.312  24.719  25.547  1.00  0.00     0.200 A 
ATOM     68  F   UNL A   1      44.795  26.445  24.916  1.00  0.00    -0.200 F 
ATOM     69  F   UNL A   1      43.676  23.997  24.477  1.00  0.00    -0.200 F 
ENDBRANCH  45  59
BRANCH  46  70
ATOM     70  C   UNL A   1      39.232  31.961  35.222  1.00  0.00     0.064 A 
ATOM     71  C   UNL A   1      38.468  31.391  36.248  1.00  0.00     0.173 A 
ATOM     72  C   UNL A   1      39.493  33.337  35.289  1.00  0.00     0.173 A 
ATOM     73  F   UNL A   1      38.166  30.084  36.212  1.00  0.00    -0.203 F 
ATOM     74  C   UNL A   1      37.972  32.169  37.293  1.00  0.00     0.198 A 
ATOM     75  C   UNL A   1      39.022  34.108  36.347  1.00  0.00     0.198 A 
ATOM     76  F   UNL A   1      40.216  33.931  34.327  1.00  0.00    -0.203 F 
ATOM     77  F   UNL A   1      37.207  31.608  38.239  1.00  0.00    -0.200 F 
ATOM     78  C   UNL A   1      38.256  33.526  37.346  1.00  0.00     0.200 A 
ATOM     79  F   UNL A   1      39.307  35.417  36.399  1.00  0.00    -0.200 F 
ATOM     80  F   UNL A   1      37.782  34.273  38.351  1.00  0.00    -0.200 F 
ENDBRANCH  46  70
BRANCH  58  81
ATOM     81  C   UNL A   1      44.610  27.609  34.535  1.00  0.00     0.064 A 
ATOM     82  C   UNL A   1      44.452  26.479  35.349  1.00  0.00     0.173 A 
ATOM     83  C   UNL A   1      45.824  28.309  34.602  1.00  0.00     0.173 A 
ATOM     84  F   UNL A   1      43.302  25.788  35.330  1.00  0.00    -0.203 F 
ATOM     85  C   UNL A   1      45.467  26.074  36.211  1.00  0.00     0.198 A 
ATOM     86  C   UNL A   1      46.843  27.890  35.451  1.00  0.00     0.198 A 
ATOM     87  F   UNL A   1      46.020  29.394  33.838  1.00  0.00    -0.203 F 
ATOM     88  F   UNL A   1      45.284  25.011  37.007  1.00  0.00    -0.200 F 
ATOM     89  C   UNL A   1      46.663  26.776  36.258  1.00  0.00     0.200 A 
ATOM     90  F   UNL A   1      48.000  28.565  35.491  1.00  0.00    -0.200 F 
ATOM     91  F   UNL A   1      47.639  26.383  37.087  1.00  0.00    -0.200 F 
ENDBRANCH  58  81
ENDBRANCH  32  33
ENDBRANCH  25  27
ENDBRANCH  24  25
ENDBRANCH  23  24
ENDBRANCH   1  23
TORSDOF 14
ENDMDL
MODEL 3
REMARK VINA RESULT:     -11.7      0.917      1.719
REMARK SMILES COc1cc([C@@H]2[NH2+][C@@H](C(=O)OCCOC(=O)c3ccc(-c4c5nc(c(-c6c(F)c(F)c(F)c(F)c6F)c6ccc([nH]6)c(-c6c(F)c(F)c(F)c(F)c6F)c6nc(c(-c7c(F)c(F)c(F)c(F)c7F)c7ccc4[nH]7)C=C6)C=C5)cc3)CS2)cc(Cl)c1O
REMARK SMILES IDX 12 1 11 2 9 3 10 4 8 5 6 6 7 7 81 8 80 11 5 12 3 13 4 14
REMARK SMILES IDX 85 15 83 16 82 17 84 18 2 19 1 20 86 21 13 23 14 24 15 25
REMARK SMILES IDX 16 26 17 27 18 28 79 29 19 30 78 31 20 32 21 33 22 34 72 35
REMARK SMILES IDX 23 36 77 37 71 38 73 39 24 40 76 41 70 42 69 43 25 45 57 46
REMARK SMILES IDX 37 47 56 48 38 49 41 50 55 51 74 52 39 53 40 54 54 56 75 57
REMARK SMILES IDX 42 58 26 59 27 60 35 61 28 62 29 63 33 64 36 65 30 66 31 67
REMARK SMILES IDX 34 68 32 69 58 70 59 71 67 72 60 73 61 74 65 75 68 76 62 77
REMARK SMILES IDX 63 78 66 79 64 80 43 81 44 82 52 83 45 84 46 85 50 86 53 87
REMARK SMILES IDX 47 88 48 89 51 90 49 91
REMARK H PARENT 7 9 7 10 86 22 73 44 41 55
REMARK Flexibility Score: inf
ROOT
ATOM      1  C   UNL A   1      32.356  29.037  25.139  1.00  0.00     0.274 C 
ENDROOT
BRANCH   1   2
ATOM      2  O   UNL A   1      31.370  27.979  25.163  1.00  0.00    -0.458 OA
BRANCH   2   3
ATOM      3  C   UNL A   1      31.439  27.116  26.216  1.00  0.00     0.365 C 
ATOM      4  O   UNL A   1      31.137  27.402  27.370  1.00  0.00    -0.245 OA
BRANCH   3   5
ATOM      5  C   UNL A   1      31.958  25.721  25.828  1.00  0.00     0.304 C 
ATOM      6  C   UNL A   1      32.688  24.681  23.760  1.00  0.00     0.274 C 
ATOM      7  N   UNL A   1      32.965  25.742  24.728  1.00  0.00    -0.319 N 
ATOM      8  S   UNL A   1      30.917  24.351  23.792  1.00  0.00    -0.087 SA
ATOM      9  H   UNL A   1      32.929  26.645  24.257  1.00  0.00     0.348 HD
ATOM     10  H   UNL A   1      33.892  25.591  25.127  1.00  0.00     0.348 HD
ATOM     11  C   UNL A   1      30.767  24.803  25.530  1.00  0.00     0.153 C 
BRANCH   6  12
ATOM     12  C   UNL A   1      33.481  23.401  23.971  1.00  0.00     0.025 A 
ATOM     13  C   UNL A   1      35.497  22.213  24.656  1.00  0.00     0.162 A 
ATOM     14  C   UNL A   1      34.852  23.395  24.287  1.00  0.00     0.061 A 
ATOM     15  C   UNL A   1      34.786  21.015  24.715  1.00  0.00     0.176 A 
ATOM     16  C   UNL A   1      33.445  20.983  24.344  1.00  0.00     0.087 A 
ATOM     17  C   UNL A   1      32.797  22.167  23.977  1.00  0.00     0.035 A 
ATOM     18  Cl  UNL A   1      32.541  19.515  24.368  1.00  0.00    -0.080 Cl
BRANCH  13  19
ATOM     19  O   UNL A   1      36.800  22.183  25.081  1.00  0.00    -0.493 OA
ATOM     20  C   UNL A   1      37.219  23.385  25.725  1.00  0.00     0.278 C 
ENDBRANCH  13  19
BRANCH  15  21
ATOM     21  O   UNL A   1      35.428  19.887  25.156  1.00  0.00    -0.503 OA
ATOM     22  H   UNL A   1      34.967  19.258  25.674  1.00  0.00     0.293 HD
ENDBRANCH  15  21
ENDBRANCH   6  12
ENDBRANCH   3   5
ENDBRANCH   2   3
ENDBRANCH   1   2
BRANCH   1  23
ATOM     23  C   UNL A   1      31.792  30.317  25.752  1.00  0.00     0.275 C 
BRANCH  23  24
ATOM     24  O   UNL A   1      32.373  30.504  27.055  1.00  0.00    -0.458 OA
BRANCH  24  25
ATOM     25  C   UNL A   1      33.046  31.664  27.234  1.00  0.00     0.338 C 
ATOM     26  O   UNL A   1      32.625  32.801  27.126  1.00  0.00    -0.246 OA
BRANCH  25  27
ATOM     27  C   UNL A   1      34.398  31.352  27.713  1.00  0.00     0.060 A 
ATOM     28  C   UNL A   1      34.681  30.029  28.038  1.00  0.00     0.016 A 
ATOM     29  C   UNL A   1      35.324  32.355  27.980  1.00  0.00     0.016 A 
ATOM     30  C   UNL A   1      35.855  29.705  28.712  1.00  0.00     0.010 A 
ATOM     31  C   UNL A   1      36.541  32.018  28.588  1.00  0.00     0.010 A 
ATOM     32  C   UNL A   1      36.802  30.696  28.997  1.00  0.00    -0.014 A 
BRANCH  32  33
ATOM     33  C   UNL A   1      38.019  30.363  29.791  1.00  0.00     0.031 A 
ATOM     34  C   UNL A   1      39.091  29.490  29.191  1.00  0.00     0.074 A 
ATOM     35  C   UNL A   1      38.196  30.860  31.031  1.00  0.00     0.049 A 
ATOM     36  N   UNL A   1      40.121  28.925  29.769  1.00  0.00    -0.248 NA
ATOM     37  C   UNL A   1      38.981  29.205  27.752  1.00  0.00     0.031 C 
ATOM     38  C   UNL A   1      37.282  31.772  31.720  1.00  0.00     0.029 A 
ATOM     39  N   UNL A   1      39.217  30.671  31.933  1.00  0.00    -0.354 N 
ATOM     40  C   UNL A   1      40.737  28.163  28.785  1.00  0.00     0.074 A 
ATOM     41  C   UNL A   1      39.980  28.353  27.566  1.00  0.00     0.031 C 
ATOM     42  C   UNL A   1      37.796  32.086  32.920  1.00  0.00     0.029 A 
ATOM     43  C   UNL A   1      39.033  31.338  33.120  1.00  0.00     0.049 A 
ATOM     44  H   UNL A   1      40.004  30.110  31.747  1.00  0.00     0.167 HD
ATOM     45  C   UNL A   1      41.829  27.371  28.894  1.00  0.00     0.037 A 
ATOM     46  C   UNL A   1      39.754  31.317  34.258  1.00  0.00     0.037 A 
ATOM     47  C   UNL A   1      42.637  27.249  30.078  1.00  0.00     0.049 A 
ATOM     48  C   UNL A   1      40.967  30.433  34.350  1.00  0.00     0.074 A 
ATOM     49  C   UNL A   1      43.777  26.487  30.272  1.00  0.00     0.029 A 
ATOM     50  N   UNL A   1      42.405  27.930  31.262  1.00  0.00    -0.354 N 
ATOM     51  N   UNL A   1      41.495  29.655  33.438  1.00  0.00    -0.248 NA
ATOM     52  C   UNL A   1      41.670  30.405  35.643  1.00  0.00     0.031 C 
ATOM     53  C   UNL A   1      44.223  26.691  31.582  1.00  0.00     0.029 A 
ATOM     54  C   UNL A   1      43.375  27.600  32.193  1.00  0.00     0.049 A 
ATOM     55  H   UNL A   1      41.660  28.555  31.419  1.00  0.00     0.167 HD
ATOM     56  C   UNL A   1      42.587  29.047  34.043  1.00  0.00     0.074 A 
ATOM     57  C   UNL A   1      42.665  29.565  35.392  1.00  0.00     0.031 C 
ATOM     58  C   UNL A   1      43.441  28.129  33.530  1.00  0.00     0.037 A 
BRANCH  45  59
ATOM     59  C   UNL A   1      42.203  26.533  27.709  1.00  0.00     0.064 A 
ATOM     60  C   UNL A   1      43.176  26.940  26.788  1.00  0.00     0.173 A 
ATOM     61  C   UNL A   1      41.613  25.271  27.537  1.00  0.00     0.173 A 
ATOM     62  F   UNL A   1      43.756  28.144  26.905  1.00  0.00    -0.203 F 
ATOM     63  C   UNL A   1      43.542  26.113  25.728  1.00  0.00     0.198 A 
ATOM     64  C   UNL A   1      41.995  24.441  26.487  1.00  0.00     0.198 A 
ATOM     65  F   UNL A   1      40.679  24.838  28.396  1.00  0.00    -0.203 F 
ATOM     66  F   UNL A   1      44.457  26.528  24.841  1.00  0.00    -0.200 F 
ATOM     67  C   UNL A   1      42.957  24.863  25.583  1.00  0.00     0.200 A 
ATOM     68  F   UNL A   1      41.436  23.230  26.355  1.00  0.00    -0.200 F 
ATOM     69  F   UNL A   1      43.320  24.065  24.568  1.00  0.00    -0.200 F 
ENDBRANCH  45  59
BRANCH  46  70
ATOM     70  C   UNL A   1      39.316  32.119  35.429  1.00  0.00     0.064 A 
ATOM     71  C   UNL A   1      39.720  33.452  35.582  1.00  0.00     0.173 A 
ATOM     72  C   UNL A   1      38.501  31.565  36.426  1.00  0.00     0.173 A 
ATOM     73  F   UNL A   1      40.525  34.017  34.669  1.00  0.00    -0.203 F 
ATOM     74  C   UNL A   1      39.336  34.197  36.695  1.00  0.00     0.198 A 
ATOM     75  C   UNL A   1      38.094  32.318  37.523  1.00  0.00     0.198 A 
ATOM     76  F   UNL A   1      38.093  30.291  36.328  1.00  0.00    -0.203 F 
ATOM     77  F   UNL A   1      39.771  35.456  36.840  1.00  0.00    -0.200 F 
ATOM     78  C   UNL A   1      38.516  33.631  37.662  1.00  0.00     0.200 A 
ATOM     79  F   UNL A   1      37.295  31.770  38.450  1.00  0.00    -0.200 F 
ATOM     80  F   UNL A   1      38.144  34.348  38.730  1.00  0.00    -0.200 F 
ENDBRANCH  46  70
BRANCH  58  81
ATOM     81  C   UNL A   1      44.536  27.639  34.424  1.00  0.00     0.064 A 
ATOM     82  C   UNL A   1      44.366  26.498  35.221  1.00  0.00     0.173 A 
ATOM     83  C   UNL A   1      45.777  28.291  34.457  1.00  0.00     0.173 A 
ATOM     84  F   UNL A   1      43.191  25.852  35.234  1.00  0.00    -0.203 F 
ATOM     85  C   UNL A   1      45.397  26.038  36.035  1.00  0.00     0.198 A 
ATOM     86  C   UNL A   1      46.812  27.816  35.258  1.00  0.00     0.198 A 
ATOM     87  F   UNL A   1      45.986  29.384  33.708  1.00  0.00    -0.203 F 
ATOM     88  F   UNL A   1      45.203  24.966  36.817  1.00  0.00    -0.200 F 
ATOM     89  C   UNL A   1      46.620  26.693  36.049  1.00  0.00     0.200 A 
ATOM     90  F   UNL A   1      47.994  28.446  35.266  1.00  0.00    -0.200 F 
ATOM     91  F   UNL A   1      47.611  26.246  36.831  1.00  0.00    -0.200 F 
ENDBRANCH  58  81
ENDBRANCH  32  33
ENDBRANCH  25  27
ENDBRANCH  24  25
ENDBRANCH  23  24
ENDBRANCH   1  23
TORSDOF 14
ENDMDL
