MODEL 1
REMARK VINA RESULT:     -11.6      0.000      0.000
REMARK SMILES COC(=O)[C@H]1CCN(C(=O)Nc2sccc2C(=O)OCCOC(=O)c2ccc(-c3c4nc(c(-c5c(F)c(F)c(F)c(F)c5F)c5ccc([nH]5)c(-c5c(F)c(F)c(F)c(F)c5F)c5nc(c(-c6c(F)c(F)c(F)c(F)c6F)c6ccc3[nH]6)C=C5)C=C4)cc2)C1
REMARK SMILES IDX 20 1 19 2 17 3 18 4 16 5 12 6 13 7 14 8 15 9 11 10 9 11
REMARK SMILES IDX 10 12 8 14 5 15 6 16 88 17 7 18 3 19 4 20 2 21 1 22 21 23
REMARK SMILES IDX 22 24 23 25 24 26 25 27 26 28 87 29 27 30 86 31 28 32 29 33
REMARK SMILES IDX 30 34 80 35 31 36 85 37 79 38 81 39 32 40 84 41 78 42 77 43
REMARK SMILES IDX 33 45 65 46 45 47 64 48 46 49 49 50 63 51 82 52 47 53 48 54
REMARK SMILES IDX 62 56 83 57 50 58 34 59 35 60 43 61 36 62 37 63 41 64 44 65
REMARK SMILES IDX 38 66 39 67 42 68 40 69 66 70 67 71 75 72 68 73 69 74 73 75
REMARK SMILES IDX 76 76 70 77 71 78 74 79 72 80 51 81 52 82 60 83 53 84 54 85
REMARK SMILES IDX 58 86 61 87 55 88 56 89 59 90 57 91
REMARK H PARENT 11 13 81 44 49 55
REMARK Flexibility Score: inf
ROOT
ATOM      1  C   UNL A   1      36.824  22.592  23.592  1.00  0.00     0.275 C 
ENDROOT
BRANCH   1   2
ATOM      2  O   UNL A   1      35.899  23.431  24.313  1.00  0.00    -0.458 OA
BRANCH   2   3
ATOM      3  C   UNL A   1      34.805  23.827  23.607  1.00  0.00     0.341 C 
ATOM      4  O   UNL A   1      34.491  23.390  22.507  1.00  0.00    -0.246 OA
BRANCH   3   5
ATOM      5  C   UNL A   1      33.988  24.818  24.292  1.00  0.00     0.094 A 
ATOM      6  C   UNL A   1      33.591  24.762  25.613  1.00  0.00     0.111 A 
ATOM      7  S   UNL A   1      32.597  26.075  26.067  1.00  0.00    -0.126 S 
ATOM      8  C   UNL A   1      32.802  26.834  24.557  1.00  0.00     0.068 A 
ATOM      9  C   UNL A   1      33.534  26.050  23.696  1.00  0.00     0.029 A 
BRANCH   6  10
ATOM     10  N   UNL A   1      33.774  23.892  26.661  1.00  0.00    -0.298 N 
ATOM     11  C   UNL A   1      33.102  22.748  26.929  1.00  0.00     0.322 C 
ATOM     12  O   UNL A   1      32.761  22.530  28.094  1.00  0.00    -0.248 OA
ATOM     13  H   UNL A   1      34.485  24.132  27.298  1.00  0.00     0.172 HD
BRANCH  11  14
ATOM     14  N   UNL A   1      32.921  21.810  25.947  1.00  0.00    -0.324 N 
ATOM     15  C   UNL A   1      33.591  20.116  24.405  1.00  0.00     0.120 C 
ATOM     16  C   UNL A   1      32.110  20.441  24.219  1.00  0.00     0.039 C 
ATOM     17  C   UNL A   1      34.002  20.883  25.658  1.00  0.00     0.136 C 
ATOM     18  C   UNL A   1      31.956  21.813  24.857  1.00  0.00     0.122 C 
BRANCH  15  19
ATOM     19  C   UNL A   1      33.834  18.634  24.565  1.00  0.00     0.310 C 
ATOM     20  O   UNL A   1      34.922  18.080  24.482  1.00  0.00    -0.252 OA
BRANCH  19  21
ATOM     21  O   UNL A   1      32.656  17.994  24.810  1.00  0.00    -0.469 OA
ATOM     22  C   UNL A   1      32.798  16.802  25.584  1.00  0.00     0.282 C 
ENDBRANCH  19  21
ENDBRANCH  15  19
ENDBRANCH  11  14
ENDBRANCH   6  10
ENDBRANCH   3   5
ENDBRANCH   2   3
ENDBRANCH   1   2
BRANCH   1  23
ATOM     23  C   UNL A   1      37.322  21.394  24.408  1.00  0.00     0.275 C 
BRANCH  23  24
ATOM     24  O   UNL A   1      37.677  21.767  25.755  1.00  0.00    -0.458 OA
BRANCH  24  25
ATOM     25  C   UNL A   1      38.958  21.525  26.104  1.00  0.00     0.338 C 
ATOM     26  O   UNL A   1      39.617  20.524  25.875  1.00  0.00    -0.246 OA
BRANCH  25  27
ATOM     27  C   UNL A   1      39.550  22.720  26.722  1.00  0.00     0.060 A 
ATOM     28  C   UNL A   1      39.118  23.964  26.264  1.00  0.00     0.016 A 
ATOM     29  C   UNL A   1      40.620  22.632  27.611  1.00  0.00     0.016 A 
ATOM     30  C   UNL A   1      39.772  25.125  26.636  1.00  0.00     0.010 A 
ATOM     31  C   UNL A   1      41.262  23.808  28.020  1.00  0.00     0.010 A 
ATOM     32  C   UNL A   1      40.858  25.057  27.510  1.00  0.00    -0.014 A 
BRANCH  32  33
ATOM     33  C   UNL A   1      41.610  26.297  27.801  1.00  0.00     0.031 A 
ATOM     34  C   UNL A   1      40.975  27.364  28.640  1.00  0.00     0.074 A 
ATOM     35  C   UNL A   1      42.881  26.428  27.381  1.00  0.00     0.049 A 
ATOM     36  N   UNL A   1      41.408  28.567  28.919  1.00  0.00    -0.248 NA
ATOM     37  C   UNL A   1      39.678  27.032  29.247  1.00  0.00     0.031 C 
ATOM     38  C   UNL A   1      43.629  25.414  26.635  1.00  0.00     0.029 A 
ATOM     39  N   UNL A   1      43.768  27.462  27.528  1.00  0.00    -0.354 N 
ATOM     40  C   UNL A   1      40.413  29.153  29.690  1.00  0.00     0.074 A 
ATOM     41  C   UNL A   1      39.360  28.172  29.845  1.00  0.00     0.031 C 
ATOM     42  C   UNL A   1      44.865  25.878  26.391  1.00  0.00     0.029 A 
ATOM     43  C   UNL A   1      44.970  27.240  26.904  1.00  0.00     0.049 A 
ATOM     44  H   UNL A   1      43.563  28.283  28.031  1.00  0.00     0.167 HD
ATOM     45  C   UNL A   1      40.384  30.403  30.209  1.00  0.00     0.037 A 
ATOM     46  C   UNL A   1      46.020  28.063  26.726  1.00  0.00     0.037 A 
ATOM     47  C   UNL A   1      41.457  31.353  30.079  1.00  0.00     0.049 A 
ATOM     48  C   UNL A   1      45.953  29.457  27.280  1.00  0.00     0.074 A 
ATOM     49  C   UNL A   1      41.537  32.642  30.576  1.00  0.00     0.029 A 
ATOM     50  N   UNL A   1      42.647  31.108  29.406  1.00  0.00    -0.354 N 
ATOM     51  N   UNL A   1      44.988  30.030  27.959  1.00  0.00    -0.248 NA
ATOM     52  C   UNL A   1      47.110  30.327  27.030  1.00  0.00     0.031 C 
ATOM     53  C   UNL A   1      42.760  33.189  30.170  1.00  0.00     0.029 A 
ATOM     54  C   UNL A   1      43.459  32.228  29.455  1.00  0.00     0.049 A 
ATOM     55  H   UNL A   1      42.878  30.261  28.959  1.00  0.00     0.167 HD
ATOM     56  C   UNL A   1      45.415  31.325  28.214  1.00  0.00     0.074 A 
ATOM     57  C   UNL A   1      46.740  31.446  27.639  1.00  0.00     0.031 C 
ATOM     58  C   UNL A   1      44.767  32.326  28.859  1.00  0.00     0.037 A 
BRANCH  45  59
ATOM     59  C   UNL A   1      39.125  30.824  30.904  1.00  0.00     0.064 A 
ATOM     60  C   UNL A   1      38.951  30.678  32.288  1.00  0.00     0.173 A 
ATOM     61  C   UNL A   1      38.067  31.370  30.162  1.00  0.00     0.173 A 
ATOM     62  F   UNL A   1      39.924  30.142  33.039  1.00  0.00    -0.203 F 
ATOM     63  C   UNL A   1      37.750  31.034  32.899  1.00  0.00     0.198 A 
ATOM     64  C   UNL A   1      36.877  31.748  30.779  1.00  0.00     0.198 A 
ATOM     65  F   UNL A   1      38.183  31.530  28.836  1.00  0.00    -0.203 F 
ATOM     66  F   UNL A   1      37.583  30.833  34.213  1.00  0.00    -0.200 F 
ATOM     67  C   UNL A   1      36.715  31.570  32.145  1.00  0.00     0.200 A 
ATOM     68  F   UNL A   1      35.882  32.271  30.050  1.00  0.00    -0.200 F 
ATOM     69  F   UNL A   1      35.559  31.905  32.733  1.00  0.00    -0.200 F 
ENDBRANCH  45  59
BRANCH  46  70
ATOM     70  C   UNL A   1      47.187  27.592  25.940  1.00  0.00     0.064 A 
ATOM     71  C   UNL A   1      47.219  27.707  24.546  1.00  0.00     0.173 A 
ATOM     72  C   UNL A   1      48.316  27.057  26.579  1.00  0.00     0.173 A 
ATOM     73  F   UNL A   1      46.155  28.190  23.888  1.00  0.00    -0.203 F 
ATOM     74  C   UNL A   1      48.341  27.310  23.819  1.00  0.00     0.198 A 
ATOM     75  C   UNL A   1      49.446  26.685  25.856  1.00  0.00     0.198 A 
ATOM     76  F   UNL A   1      48.333  26.926  27.915  1.00  0.00    -0.203 F 
ATOM     77  F   UNL A   1      48.342  27.412  22.483  1.00  0.00    -0.200 F 
ATOM     78  C   UNL A   1      49.456  26.810  24.475  1.00  0.00     0.200 A 
ATOM     79  F   UNL A   1      50.526  26.218  26.496  1.00  0.00    -0.200 F 
ATOM     80  F   UNL A   1      50.542  26.448  23.777  1.00  0.00    -0.200 F 
ENDBRANCH  46  70
BRANCH  58  81
ATOM     81  C   UNL A   1      45.484  33.637  28.968  1.00  0.00     0.064 A 
ATOM     82  C   UNL A   1      45.313  34.643  28.006  1.00  0.00     0.173 A 
ATOM     83  C   UNL A   1      46.319  33.905  30.063  1.00  0.00     0.173 A 
ATOM     84  F   UNL A   1      44.537  34.425  26.933  1.00  0.00    -0.203 F 
ATOM     85  C   UNL A   1      45.966  35.865  28.128  1.00  0.00     0.198 A 
ATOM     86  C   UNL A   1      46.953  35.137  30.193  1.00  0.00     0.198 A 
ATOM     87  F   UNL A   1      46.511  32.975  31.010  1.00  0.00    -0.203 F 
ATOM     88  F   UNL A   1      45.818  36.800  27.178  1.00  0.00    -0.200 F 
ATOM     89  C   UNL A   1      46.780  36.113  29.223  1.00  0.00     0.200 A 
ATOM     90  F   UNL A   1      47.733  35.378  31.255  1.00  0.00    -0.200 F 
ATOM     91  F   UNL A   1      47.405  37.293  29.341  1.00  0.00    -0.200 F 
ENDBRANCH  58  81
ENDBRANCH  32  33
ENDBRANCH  25  27
ENDBRANCH  24  25
ENDBRANCH  23  24
ENDBRANCH   1  23
TORSDOF 15
ENDMDL
MODEL 2
REMARK VINA RESULT:     -11.5      5.040     10.321
REMARK SMILES COC(=O)[C@H]1CCN(C(=O)Nc2sccc2C(=O)OCCOC(=O)c2ccc(-c3c4nc(c(-c5c(F)c(F)c(F)c(F)c5F)c5ccc([nH]5)c(-c5c(F)c(F)c(F)c(F)c5F)c5nc(c(-c6c(F)c(F)c(F)c(F)c6F)c6ccc3[nH]6)C=C5)C=C4)cc2)C1
REMARK SMILES IDX 20 1 19 2 17 3 18 4 16 5 12 6 13 7 14 8 15 9 11 10 9 11
REMARK SMILES IDX 10 12 8 14 5 15 6 16 88 17 7 18 3 19 4 20 2 21 1 22 21 23
REMARK SMILES IDX 22 24 23 25 24 26 25 27 26 28 87 29 27 30 86 31 28 32 29 33
REMARK SMILES IDX 30 34 80 35 31 36 85 37 79 38 81 39 32 40 84 41 78 42 77 43
REMARK SMILES IDX 33 45 65 46 45 47 64 48 46 49 49 50 63 51 82 52 47 53 48 54
REMARK SMILES IDX 62 56 83 57 50 58 34 59 35 60 43 61 36 62 37 63 41 64 44 65
REMARK SMILES IDX 38 66 39 67 42 68 40 69 66 70 67 71 75 72 68 73 69 74 73 75
REMARK SMILES IDX 76 76 70 77 71 78 74 79 72 80 51 81 52 82 60 83 53 84 54 85
REMARK SMILES IDX 58 86 61 87 55 88 56 89 59 90 57 91
REMARK H PARENT 11 13 81 44 49 55
REMARK Flexibility Score: inf
ROOT
ATOM      1  C   UNL A   1      31.767  28.930  27.115  1.00  0.00     0.275 C 
ENDROOT
BRANCH   1   2
ATOM      2  O   UNL A   1      31.439  28.166  25.936  1.00  0.00    -0.458 OA
BRANCH   2   3
ATOM      3  C   UNL A   1      31.535  26.816  26.076  1.00  0.00     0.341 C 
ATOM      4  O   UNL A   1      31.268  26.201  27.100  1.00  0.00    -0.246 OA
BRANCH   3   5
ATOM      5  C   UNL A   1      31.964  26.128  24.867  1.00  0.00     0.094 A 
ATOM      6  C   UNL A   1      31.131  25.614  23.893  1.00  0.00     0.111 A 
ATOM      7  S   UNL A   1      31.980  24.827  22.636  1.00  0.00    -0.126 S 
ATOM      8  C   UNL A   1      33.487  25.291  23.278  1.00  0.00     0.068 A 
ATOM      9  C   UNL A   1      33.341  25.947  24.478  1.00  0.00     0.029 A 
BRANCH   6  10
ATOM     10  N   UNL A   1      29.773  25.552  23.690  1.00  0.00    -0.298 N 
ATOM     11  C   UNL A   1      28.858  26.539  23.833  1.00  0.00     0.322 C 
ATOM     12  O   UNL A   1      27.793  26.271  24.396  1.00  0.00    -0.248 OA
ATOM     13  H   UNL A   1      29.422  24.678  23.406  1.00  0.00     0.172 HD
BRANCH  11  14
ATOM     14  N   UNL A   1      29.069  27.762  23.253  1.00  0.00    -0.324 N 
ATOM     15  C   UNL A   1      28.438  29.824  22.229  1.00  0.00     0.120 C 
ATOM     16  C   UNL A   1      29.959  29.684  22.236  1.00  0.00     0.039 C 
ATOM     17  C   UNL A   1      27.936  28.655  23.071  1.00  0.00     0.136 C 
ATOM     18  C   UNL A   1      30.185  28.191  22.424  1.00  0.00     0.122 C 
BRANCH  15  19
ATOM     19  C   UNL A   1      27.983  31.145  22.801  1.00  0.00     0.310 C 
ATOM     20  O   UNL A   1      27.170  31.286  23.704  1.00  0.00    -0.252 OA
BRANCH  19  21
ATOM     21  O   UNL A   1      28.609  32.170  22.155  1.00  0.00    -0.469 OA
ATOM     22  C   UNL A   1      28.929  33.275  23.003  1.00  0.00     0.282 C 
ENDBRANCH  19  21
ENDBRANCH  15  19
ENDBRANCH  11  14
ENDBRANCH   6  10
ENDBRANCH   3   5
ENDBRANCH   2   3
ENDBRANCH   1   2
BRANCH   1  23
ATOM     23  C   UNL A   1      31.766  30.444  26.878  1.00  0.00     0.275 C 
BRANCH  23  24
ATOM     24  O   UNL A   1      33.070  30.935  26.507  1.00  0.00    -0.458 OA
BRANCH  24  25
ATOM     25  C   UNL A   1      33.559  31.922  27.287  1.00  0.00     0.338 C 
ATOM     26  O   UNL A   1      32.993  32.943  27.643  1.00  0.00    -0.246 OA
BRANCH  25  27
ATOM     27  C   UNL A   1      34.890  31.556  27.794  1.00  0.00     0.060 A 
ATOM     28  C   UNL A   1      35.094  30.229  28.167  1.00  0.00     0.016 A 
ATOM     29  C   UNL A   1      35.865  32.517  28.054  1.00  0.00     0.016 A 
ATOM     30  C   UNL A   1      36.237  29.849  28.849  1.00  0.00     0.010 A 
ATOM     31  C   UNL A   1      37.041  32.130  28.711  1.00  0.00     0.010 A 
ATOM     32  C   UNL A   1      37.218  30.801  29.136  1.00  0.00    -0.014 A 
BRANCH  32  33
ATOM     33  C   UNL A   1      38.375  30.395  29.965  1.00  0.00     0.031 A 
ATOM     34  C   UNL A   1      39.424  29.500  29.377  1.00  0.00     0.074 A 
ATOM     35  C   UNL A   1      38.520  30.890  31.206  1.00  0.00     0.049 A 
ATOM     36  N   UNL A   1      40.451  28.935  29.956  1.00  0.00    -0.248 NA
ATOM     37  C   UNL A   1      39.299  29.202  27.942  1.00  0.00     0.031 C 
ATOM     38  C   UNL A   1      37.608  31.840  31.846  1.00  0.00     0.029 A 
ATOM     39  N   UNL A   1      39.492  30.670  32.147  1.00  0.00    -0.354 N 
ATOM     40  C   UNL A   1      41.065  28.173  28.972  1.00  0.00     0.074 A 
ATOM     41  C   UNL A   1      40.302  28.356  27.754  1.00  0.00     0.031 C 
ATOM     42  C   UNL A   1      38.066  32.122  33.075  1.00  0.00     0.029 A 
ATOM     43  C   UNL A   1      39.262  31.325  33.330  1.00  0.00     0.049 A 
ATOM     44  H   UNL A   1      40.278  30.098  31.990  1.00  0.00     0.167 HD
ATOM     45  C   UNL A   1      42.160  27.386  29.083  1.00  0.00     0.037 A 
ATOM     46  C   UNL A   1      39.916  31.251  34.504  1.00  0.00     0.037 A 
ATOM     47  C   UNL A   1      42.930  27.246  30.291  1.00  0.00     0.049 A 
ATOM     48  C   UNL A   1      41.108  30.345  34.617  1.00  0.00     0.074 A 
ATOM     49  C   UNL A   1      44.064  26.484  30.511  1.00  0.00     0.029 A 
ATOM     50  N   UNL A   1      42.645  27.895  31.484  1.00  0.00    -0.354 N 
ATOM     51  N   UNL A   1      41.653  29.581  33.701  1.00  0.00    -0.248 NA
ATOM     52  C   UNL A   1      41.767  30.275  35.928  1.00  0.00     0.031 C 
ATOM     53  C   UNL A   1      44.442  26.644  31.850  1.00  0.00     0.029 A 
ATOM     54  C   UNL A   1      43.567  27.536  32.453  1.00  0.00     0.049 A 
ATOM     55  H   UNL A   1      41.895  28.519  31.623  1.00  0.00     0.167 HD
ATOM     56  C   UNL A   1      42.712  28.935  34.321  1.00  0.00     0.074 A 
ATOM     57  C   UNL A   1      42.751  29.419  35.687  1.00  0.00     0.031 C 
ATOM     58  C   UNL A   1      43.572  28.020  33.810  1.00  0.00     0.037 A 
BRANCH  45  59
ATOM     59  C   UNL A   1      42.540  26.571  27.884  1.00  0.00     0.064 A 
ATOM     60  C   UNL A   1      42.006  25.296  27.647  1.00  0.00     0.173 A 
ATOM     61  C   UNL A   1      43.470  27.076  26.963  1.00  0.00     0.173 A 
ATOM     62  F   UNL A   1      41.129  24.760  28.508  1.00  0.00    -0.203 F 
ATOM     63  C   UNL A   1      42.415  24.543  26.548  1.00  0.00     0.198 A 
ATOM     64  C   UNL A   1      43.858  26.332  25.853  1.00  0.00     0.198 A 
ATOM     65  F   UNL A   1      44.010  28.290  27.145  1.00  0.00    -0.203 F 
ATOM     66  F   UNL A   1      41.936  23.304  26.371  1.00  0.00    -0.200 F 
ATOM     67  C   UNL A   1      43.339  25.061  25.651  1.00  0.00     0.200 A 
ATOM     68  F   UNL A   1      44.746  26.837  24.985  1.00  0.00    -0.200 F 
ATOM     69  F   UNL A   1      43.736  24.333  24.600  1.00  0.00    -0.200 F 
ENDBRANCH  45  59
BRANCH  46  70
ATOM     70  C   UNL A   1      39.409  32.021  35.667  1.00  0.00     0.064 A 
ATOM     71  C   UNL A   1      38.483  31.468  36.558  1.00  0.00     0.173 A 
ATOM     72  C   UNL A   1      39.882  33.316  35.935  1.00  0.00     0.173 A 
ATOM     73  F   UNL A   1      37.985  30.243  36.332  1.00  0.00    -0.203 F 
ATOM     74  C   UNL A   1      38.052  32.177  37.678  1.00  0.00     0.198 A 
ATOM     75  C   UNL A   1      39.471  34.014  37.066  1.00  0.00     0.198 A 
ATOM     76  F   UNL A   1      40.771  33.890  35.109  1.00  0.00    -0.203 F 
ATOM     77  F   UNL A   1      37.149  31.635  38.506  1.00  0.00    -0.200 F 
ATOM     78  C   UNL A   1      38.554  33.445  37.936  1.00  0.00     0.200 A 
ATOM     79  F   UNL A   1      39.971  35.231  37.320  1.00  0.00    -0.200 F 
ATOM     80  F   UNL A   1      38.153  34.118  39.024  1.00  0.00    -0.200 F 
ENDBRANCH  46  70
BRANCH  58  81
ATOM     81  C   UNL A   1      44.619  27.482  34.736  1.00  0.00     0.064 A 
ATOM     82  C   UNL A   1      45.846  28.141  34.908  1.00  0.00     0.173 A 
ATOM     83  C   UNL A   1      44.382  26.322  35.487  1.00  0.00     0.173 A 
ATOM     84  F   UNL A   1      46.124  29.246  34.199  1.00  0.00    -0.203 F 
ATOM     85  C   UNL A   1      46.804  27.646  35.787  1.00  0.00     0.198 A 
ATOM     86  C   UNL A   1      45.333  25.843  36.381  1.00  0.00     0.198 A 
ATOM     87  F   UNL A   1      43.222  25.660  35.357  1.00  0.00    -0.203 F 
ATOM     88  F   UNL A   1      47.985  28.269  35.910  1.00  0.00    -0.200 F 
ATOM     89  C   UNL A   1      46.544  26.502  36.527  1.00  0.00     0.200 A 
ATOM     90  F   UNL A   1      45.078  24.741  37.101  1.00  0.00    -0.200 F 
ATOM     91  F   UNL A   1      47.467  26.029  37.377  1.00  0.00    -0.200 F 
ENDBRANCH  58  81
ENDBRANCH  32  33
ENDBRANCH  25  27
ENDBRANCH  24  25
ENDBRANCH  23  24
ENDBRANCH   1  23
TORSDOF 15
ENDMDL
MODEL 3
REMARK VINA RESULT:     -11.5      4.953     10.094
REMARK SMILES COC(=O)[C@H]1CCN(C(=O)Nc2sccc2C(=O)OCCOC(=O)c2ccc(-c3c4nc(c(-c5c(F)c(F)c(F)c(F)c5F)c5ccc([nH]5)c(-c5c(F)c(F)c(F)c(F)c5F)c5nc(c(-c6c(F)c(F)c(F)c(F)c6F)c6ccc3[nH]6)C=C5)C=C4)cc2)C1
REMARK SMILES IDX 20 1 19 2 17 3 18 4 16 5 12 6 13 7 14 8 15 9 11 10 9 11
REMARK SMILES IDX 10 12 8 14 5 15 6 16 88 17 7 18 3 19 4 20 2 21 1 22 21 23
REMARK SMILES IDX 22 24 23 25 24 26 25 27 26 28 87 29 27 30 86 31 28 32 29 33
REMARK SMILES IDX 30 34 80 35 31 36 85 37 79 38 81 39 32 40 84 41 78 42 77 43
REMARK SMILES IDX 33 45 65 46 45 47 64 48 46 49 49 50 63 51 82 52 47 53 48 54
REMARK SMILES IDX 62 56 83 57 50 58 34 59 35 60 43 61 36 62 37 63 41 64 44 65
REMARK SMILES IDX 38 66 39 67 42 68 40 69 66 70 67 71 75 72 68 73 69 74 73 75
REMARK SMILES IDX 76 76 70 77 71 78 74 79 72 80 51 81 52 82 60 83 53 84 54 85
REMARK SMILES IDX 58 86 61 87 55 88 56 89 59 90 57 91
REMARK H PARENT 11 13 81 44 49 55
REMARK Flexibility Score: inf
ROOT
ATOM      1  C   UNL A   1      31.714  29.617  25.692  1.00  0.00     0.275 C 
ENDROOT
BRANCH   1   2
ATOM      2  O   UNL A   1      32.826  28.734  25.945  1.00  0.00    -0.458 OA
BRANCH   2   3
ATOM      3  C   UNL A   1      33.518  28.342  24.841  1.00  0.00     0.341 C 
ATOM      4  O   UNL A   1      33.982  29.106  24.004  1.00  0.00    -0.246 OA
BRANCH   3   5
ATOM      5  C   UNL A   1      33.701  26.902  24.739  1.00  0.00     0.094 A 
ATOM      6  C   UNL A   1      33.495  26.141  23.605  1.00  0.00     0.111 A 
ATOM      7  S   UNL A   1      33.759  24.473  23.864  1.00  0.00    -0.126 S 
ATOM      8  C   UNL A   1      34.308  24.742  25.453  1.00  0.00     0.068 A 
ATOM      9  C   UNL A   1      34.197  26.068  25.805  1.00  0.00     0.029 A 
BRANCH   6  10
ATOM     10  N   UNL A   1      33.102  26.387  22.312  1.00  0.00    -0.298 N 
ATOM     11  C   UNL A   1      31.876  26.223  21.762  1.00  0.00     0.322 C 
ATOM     12  O   UNL A   1      31.802  25.707  20.644  1.00  0.00    -0.248 OA
ATOM     13  H   UNL A   1      33.802  26.726  21.708  1.00  0.00     0.172 HD
BRANCH  11  14
ATOM     14  N   UNL A   1      30.768  26.733  22.385  1.00  0.00    -0.324 N 
ATOM     15  C   UNL A   1      29.359  28.450  23.260  1.00  0.00     0.120 C 
ATOM     16  C   UNL A   1      28.782  27.076  23.594  1.00  0.00     0.039 C 
ATOM     17  C   UNL A   1      30.523  28.164  22.316  1.00  0.00     0.136 C 
ATOM     18  C   UNL A   1      29.972  26.138  23.448  1.00  0.00     0.122 C 
BRANCH  15  19
ATOM     19  C   UNL A   1      28.339  29.355  22.612  1.00  0.00     0.310 C 
ATOM     20  O   UNL A   1      27.221  29.593  23.049  1.00  0.00    -0.252 OA
BRANCH  19  21
ATOM     21  O   UNL A   1      28.843  29.868  21.454  1.00  0.00    -0.469 OA
ATOM     22  C   UNL A   1      28.007  30.858  20.851  1.00  0.00     0.282 C 
ENDBRANCH  19  21
ENDBRANCH  15  19
ENDBRANCH  11  14
ENDBRANCH   6  10
ENDBRANCH   3   5
ENDBRANCH   2   3
ENDBRANCH   1   2
BRANCH   1  23
ATOM     23  C   UNL A   1      31.773  30.916  26.502  1.00  0.00     0.275 C 
BRANCH  23  24
ATOM     24  O   UNL A   1      32.814  30.886  27.500  1.00  0.00    -0.458 OA
BRANCH  24  25
ATOM     25  C   UNL A   1      33.657  31.939  27.488  1.00  0.00     0.338 C 
ATOM     26  O   UNL A   1      33.392  33.105  27.244  1.00  0.00    -0.246 OA
BRANCH  25  27
ATOM     27  C   UNL A   1      34.991  31.527  27.948  1.00  0.00     0.060 A 
ATOM     28  C   UNL A   1      35.142  30.214  28.393  1.00  0.00     0.016 A 
ATOM     29  C   UNL A   1      36.031  32.443  28.099  1.00  0.00     0.016 A 
ATOM     30  C   UNL A   1      36.298  29.810  29.037  1.00  0.00     0.010 A 
ATOM     31  C   UNL A   1      37.217  32.028  28.717  1.00  0.00     0.010 A 
ATOM     32  C   UNL A   1      37.343  30.718  29.215  1.00  0.00    -0.014 A 
BRANCH  32  33
ATOM     33  C   UNL A   1      38.520  30.294  30.006  1.00  0.00     0.031 A 
ATOM     34  C   UNL A   1      39.530  29.375  29.391  1.00  0.00     0.074 A 
ATOM     35  C   UNL A   1      38.717  30.796  31.238  1.00  0.00     0.049 A 
ATOM     36  N   UNL A   1      40.565  28.794  29.940  1.00  0.00    -0.248 NA
ATOM     37  C   UNL A   1      39.350  29.068  27.964  1.00  0.00     0.031 C 
ATOM     38  C   UNL A   1      37.847  31.768  31.901  1.00  0.00     0.029 A 
ATOM     39  N   UNL A   1      39.716  30.564  32.147  1.00  0.00    -0.354 N 
ATOM     40  C   UNL A   1      41.129  28.012  28.941  1.00  0.00     0.074 A 
ATOM     41  C   UNL A   1      40.330  28.201  27.749  1.00  0.00     0.031 C 
ATOM     42  C   UNL A   1      38.351  32.051  33.112  1.00  0.00     0.029 A 
ATOM     43  C   UNL A   1      39.539  31.231  33.332  1.00  0.00     0.049 A 
ATOM     44  H   UNL A   1      40.484  29.975  31.968  1.00  0.00     0.167 HD
ATOM     45  C   UNL A   1      42.212  27.203  29.022  1.00  0.00     0.037 A 
ATOM     46  C   UNL A   1      40.231  31.153  34.484  1.00  0.00     0.037 A 
ATOM     47  C   UNL A   1      43.020  27.057  30.203  1.00  0.00     0.049 A 
ATOM     48  C   UNL A   1      41.408  30.224  34.564  1.00  0.00     0.074 A 
ATOM     49  C   UNL A   1      44.145  26.274  30.392  1.00  0.00     0.029 A 
ATOM     50  N   UNL A   1      42.788  27.721  31.401  1.00  0.00    -0.354 N 
ATOM     51  N   UNL A   1      41.906  29.442  33.637  1.00  0.00    -0.248 NA
ATOM     52  C   UNL A   1      42.109  30.151  35.852  1.00  0.00     0.031 C 
ATOM     53  C   UNL A   1      44.572  26.436  31.715  1.00  0.00     0.029 A 
ATOM     54  C   UNL A   1      43.736  27.350  32.340  1.00  0.00     0.049 A 
ATOM     55  H   UNL A   1      42.056  28.361  31.559  1.00  0.00     0.167 HD
ATOM     56  C   UNL A   1      42.973  28.780  34.225  1.00  0.00     0.074 A 
ATOM     57  C   UNL A   1      43.068  29.273  35.585  1.00  0.00     0.031 C 
ATOM     58  C   UNL A   1      43.796  27.844  33.693  1.00  0.00     0.037 A 
BRANCH  45  59
ATOM     59  C   UNL A   1      42.535  26.373  27.817  1.00  0.00     0.064 A 
ATOM     60  C   UNL A   1      41.910  25.142  27.569  1.00  0.00     0.173 A 
ATOM     61  C   UNL A   1      43.501  26.815  26.902  1.00  0.00     0.173 A 
ATOM     62  F   UNL A   1      40.993  24.665  28.424  1.00  0.00    -0.203 F 
ATOM     63  C   UNL A   1      42.266  24.369  26.465  1.00  0.00     0.198 A 
ATOM     64  C   UNL A   1      43.837  26.053  25.786  1.00  0.00     0.198 A 
ATOM     65  F   UNL A   1      44.128  27.985  27.094  1.00  0.00    -0.203 F 
ATOM     66  F   UNL A   1      41.698  23.170  26.277  1.00  0.00    -0.200 F 
ATOM     67  C   UNL A   1      43.227  24.826  25.574  1.00  0.00     0.200 A 
ATOM     68  F   UNL A   1      44.761  26.499  24.924  1.00  0.00    -0.200 F 
ATOM     69  F   UNL A   1      43.573  24.078  24.518  1.00  0.00    -0.200 F 
ENDBRANCH  45  59
BRANCH  46  70
ATOM     70  C   UNL A   1      39.780  31.941  35.658  1.00  0.00     0.064 A 
ATOM     71  C   UNL A   1      40.349  33.183  35.963  1.00  0.00     0.173 A 
ATOM     72  C   UNL A   1      38.731  31.484  36.472  1.00  0.00     0.173 A 
ATOM     73  F   UNL A   1      41.369  33.651  35.229  1.00  0.00    -0.203 F 
ATOM     74  C   UNL A   1      39.884  33.941  37.036  1.00  0.00     0.198 A 
ATOM     75  C   UNL A   1      38.249  32.253  37.527  1.00  0.00     0.198 A 
ATOM     76  F   UNL A   1      38.153  30.300  36.219  1.00  0.00    -0.203 F 
ATOM     77  F   UNL A   1      40.457  35.117  37.323  1.00  0.00    -0.200 F 
ATOM     78  C   UNL A   1      38.828  33.481  37.810  1.00  0.00     0.200 A 
ATOM     79  F   UNL A   1      37.219  31.811  38.260  1.00  0.00    -0.200 F 
ATOM     80  F   UNL A   1      38.368  34.220  38.829  1.00  0.00    -0.200 F 
ENDBRANCH  46  70
BRANCH  58  81
ATOM     81  C   UNL A   1      44.864  27.292  34.587  1.00  0.00     0.064 A 
ATOM     82  C   UNL A   1      44.651  26.128  35.342  1.00  0.00     0.173 A 
ATOM     83  C   UNL A   1      46.121  27.907  34.662  1.00  0.00     0.173 A 
ATOM     84  F   UNL A   1      43.458  25.515  35.314  1.00  0.00    -0.203 F 
ATOM     85  C   UNL A   1      45.656  25.611  36.153  1.00  0.00     0.198 A 
ATOM     86  C   UNL A   1      47.131  27.375  35.457  1.00  0.00     0.198 A 
ATOM     87  F   UNL A   1      46.372  29.020  33.956  1.00  0.00    -0.203 F 
ATOM     88  F   UNL A   1      45.420  24.519  36.895  1.00  0.00    -0.200 F 
ATOM     89  C   UNL A   1      46.895  26.231  36.205  1.00  0.00     0.200 A 
ATOM     90  F   UNL A   1      48.331  27.969  35.501  1.00  0.00    -0.200 F 
ATOM     91  F   UNL A   1      47.864  25.728  36.985  1.00  0.00    -0.200 F 
ENDBRANCH  58  81
ENDBRANCH  32  33
ENDBRANCH  25  27
ENDBRANCH  24  25
ENDBRANCH  23  24
ENDBRANCH   1  23
TORSDOF 15
ENDMDL
