MODEL 1
REMARK VINA RESULT:      -9.8      0.000      0.000
REMARK SMILES O=C(CCCc1nc(-c2cccc(Cl)c2)no1)OCCOC(=O)c1ccc(-c2c3nc(c(-c4c(F)c(F)c(F)c(F)c4F)c4ccc([nH]4)c(-c4c(F)c(F)c(F)c(F)c4F)c4nc(c(-c5c(F)c(F)c(F)c(F)c5F)c5ccc2[nH]5)C=C4)C=C3)cc1
REMARK SMILES IDX 19 1 18 2 2 3 1 4 3 5 4 6 5 7 6 8 7 9 17 10 8 11 16 12 9 13
REMARK SMILES IDX 10 14 15 15 11 16 13 17 12 18 14 19 20 20 21 21 22 22 23 23
REMARK SMILES IDX 24 24 25 25 86 26 26 27 85 28 27 29 28 30 29 31 79 32 30 33
REMARK SMILES IDX 84 34 78 35 80 36 31 37 83 38 77 39 76 40 32 42 64 43 44 44
REMARK SMILES IDX 63 45 45 46 48 47 62 48 81 49 46 50 47 51 61 53 82 54 49 55
REMARK SMILES IDX 33 56 34 57 42 58 35 59 36 60 40 61 43 62 37 63 38 64 41 65
REMARK SMILES IDX 39 66 65 67 66 68 74 69 67 70 68 71 72 72 75 73 69 74 70 75
REMARK SMILES IDX 73 76 71 77 50 78 51 79 59 80 52 81 53 82 57 83 60 84 54 85
REMARK SMILES IDX 55 86 58 87 56 88
REMARK H PARENT 80 41 48 52
REMARK Flexibility Score: inf
ROOT
ATOM      1  C   UNL A   1      44.131  18.340  26.036  1.00  0.00     0.274 C 
ENDROOT
BRANCH   1   2
ATOM      2  O   UNL A   1      44.360  18.458  24.619  1.00  0.00    -0.462 OA
BRANCH   2   3
ATOM      3  C   UNL A   1      44.904  19.571  24.069  1.00  0.00     0.305 C 
ATOM      4  O   UNL A   1      44.593  19.928  22.936  1.00  0.00    -0.252 OA
BRANCH   3   5
ATOM      5  C   UNL A   1      45.998  20.284  24.836  1.00  0.00     0.123 C 
BRANCH   5   6
ATOM      6  C   UNL A   1      45.758  21.784  25.014  1.00  0.00     0.022 C 
BRANCH   6   7
ATOM      7  C   UNL A   1      46.723  22.690  24.240  1.00  0.00     0.101 C 
BRANCH   7   8
ATOM      8  C   UNL A   1      46.564  24.132  24.567  1.00  0.00     0.226 A 
ATOM      9  N   UNL A   1      45.580  24.768  25.160  1.00  0.00    -0.191 NA
ATOM     10  O   UNL A   1      47.531  24.967  24.085  1.00  0.00    -0.339 OA
ATOM     11  C   UNL A   1      45.946  26.087  25.005  1.00  0.00     0.202 A 
ATOM     12  N   UNL A   1      47.097  26.266  24.340  1.00  0.00    -0.057 NA
BRANCH  11  13
ATOM     13  C   UNL A   1      45.157  27.180  25.533  1.00  0.00     0.024 A 
ATOM     14  C   UNL A   1      45.798  28.241  26.184  1.00  0.00     0.012 A 
ATOM     15  C   UNL A   1      43.765  27.197  25.377  1.00  0.00     0.032 A 
ATOM     16  C   UNL A   1      45.058  29.322  26.665  1.00  0.00     0.002 A 
ATOM     17  C   UNL A   1      43.032  28.274  25.875  1.00  0.00     0.041 A 
ATOM     18  C   UNL A   1      43.671  29.339  26.511  1.00  0.00     0.020 A 
ATOM     19  Cl  UNL A   1      41.320  28.289  25.706  1.00  0.00    -0.084 Cl
ENDBRANCH  11  13
ENDBRANCH   7   8
ENDBRANCH   6   7
ENDBRANCH   5   6
ENDBRANCH   3   5
ENDBRANCH   2   3
ENDBRANCH   1   2
BRANCH   1  20
ATOM     20  C   UNL A   1      42.650  18.397  26.414  1.00  0.00     0.275 C 
BRANCH  20  21
ATOM     21  O   UNL A   1      41.912  19.178  25.461  1.00  0.00    -0.458 OA
BRANCH  21  22
ATOM     22  C   UNL A   1      40.949  19.961  26.014  1.00  0.00     0.338 C 
ATOM     23  O   UNL A   1      39.780  19.668  26.174  1.00  0.00    -0.246 OA
BRANCH  22  24
ATOM     24  C   UNL A   1      41.548  21.204  26.551  1.00  0.00     0.060 A 
ATOM     25  C   UNL A   1      41.480  21.397  27.937  1.00  0.00     0.016 A 
ATOM     26  C   UNL A   1      42.145  22.171  25.735  1.00  0.00     0.016 A 
ATOM     27  C   UNL A   1      41.949  22.581  28.503  1.00  0.00     0.010 A 
ATOM     28  C   UNL A   1      42.620  23.358  26.306  1.00  0.00     0.010 A 
ATOM     29  C   UNL A   1      42.485  23.585  27.685  1.00  0.00    -0.014 A 
BRANCH  29  30
ATOM     30  C   UNL A   1      42.735  24.926  28.265  1.00  0.00     0.031 A 
ATOM     31  C   UNL A   1      44.146  25.312  28.611  1.00  0.00     0.074 A 
ATOM     32  C   UNL A   1      41.736  25.811  28.430  1.00  0.00     0.049 A 
ATOM     33  N   UNL A   1      44.612  26.452  29.054  1.00  0.00    -0.248 NA
ATOM     34  C   UNL A   1      45.170  24.271  28.432  1.00  0.00     0.031 C 
ATOM     35  C   UNL A   1      40.331  25.569  28.113  1.00  0.00     0.029 A 
ATOM     36  N   UNL A   1      41.761  27.099  28.902  1.00  0.00    -0.354 N 
ATOM     37  C   UNL A   1      45.981  26.270  29.191  1.00  0.00     0.074 A 
ATOM     38  C   UNL A   1      46.267  24.898  28.831  1.00  0.00     0.031 C 
ATOM     39  C   UNL A   1      39.625  26.676  28.399  1.00  0.00     0.029 A 
ATOM     40  C   UNL A   1      40.527  27.698  28.929  1.00  0.00     0.049 A 
ATOM     41  H   UNL A   1      42.585  27.550  29.194  1.00  0.00     0.167 HD
ATOM     42  C   UNL A   1      46.922  27.170  29.564  1.00  0.00     0.037 A 
ATOM     43  C   UNL A   1      40.170  28.932  29.336  1.00  0.00     0.037 A 
ATOM     44  C   UNL A   1      46.644  28.532  29.934  1.00  0.00     0.049 A 
ATOM     45  C   UNL A   1      41.226  29.893  29.818  1.00  0.00     0.074 A 
ATOM     46  C   UNL A   1      47.534  29.525  30.304  1.00  0.00     0.029 A 
ATOM     47  N   UNL A   1      45.375  29.088  29.992  1.00  0.00    -0.354 N 
ATOM     48  N   UNL A   1      42.524  29.732  29.889  1.00  0.00    -0.248 NA
ATOM     49  C   UNL A   1      40.762  31.214  30.271  1.00  0.00     0.031 C 
ATOM     50  C   UNL A   1      46.798  30.669  30.632  1.00  0.00     0.029 A 
ATOM     51  C   UNL A   1      45.455  30.402  30.422  1.00  0.00     0.049 A 
ATOM     52  H   UNL A   1      44.541  28.618  29.762  1.00  0.00     0.167 HD
ATOM     53  C   UNL A   1      43.035  30.935  30.360  1.00  0.00     0.074 A 
ATOM     54  C   UNL A   1      41.907  31.820  30.554  1.00  0.00     0.031 C 
ATOM     55  C   UNL A   1      44.325  31.276  30.603  1.00  0.00     0.037 A 
BRANCH  42  56
ATOM     56  C   UNL A   1      48.342  26.694  29.607  1.00  0.00     0.064 A 
ATOM     57  C   UNL A   1      48.858  26.028  30.729  1.00  0.00     0.173 A 
ATOM     58  C   UNL A   1      49.195  26.898  28.513  1.00  0.00     0.173 A 
ATOM     59  F   UNL A   1      48.086  25.826  31.808  1.00  0.00    -0.203 F 
ATOM     60  C   UNL A   1      50.186  25.610  30.765  1.00  0.00     0.198 A 
ATOM     61  C   UNL A   1      50.514  26.455  28.542  1.00  0.00     0.198 A 
ATOM     62  F   UNL A   1      48.748  27.526  27.415  1.00  0.00    -0.203 F 
ATOM     63  F   UNL A   1      50.670  25.021  31.867  1.00  0.00    -0.200 F 
ATOM     64  C   UNL A   1      51.010  25.819  29.670  1.00  0.00     0.200 A 
ATOM     65  F   UNL A   1      51.308  26.651  27.481  1.00  0.00    -0.200 F 
ATOM     66  F   UNL A   1      52.288  25.416  29.706  1.00  0.00    -0.200 F 
ENDBRANCH  42  56
BRANCH  43  67
ATOM     67  C   UNL A   1      38.743  29.342  29.289  1.00  0.00     0.064 A 
ATOM     68  C   UNL A   1      38.136  29.706  28.080  1.00  0.00     0.173 A 
ATOM     69  C   UNL A   1      37.966  29.393  30.454  1.00  0.00     0.173 A 
ATOM     70  F   UNL A   1      38.849  29.698  26.944  1.00  0.00    -0.203 F 
ATOM     71  C   UNL A   1      36.807  30.122  28.040  1.00  0.00     0.198 A 
ATOM     72  C   UNL A   1      36.630  29.787  30.410  1.00  0.00     0.198 A 
ATOM     73  F   UNL A   1      38.503  29.058  31.636  1.00  0.00    -0.203 F 
ATOM     74  F   UNL A   1      36.261  30.504  26.877  1.00  0.00    -0.200 F 
ATOM     75  C   UNL A   1      36.054  30.156  29.204  1.00  0.00     0.200 A 
ATOM     76  F   UNL A   1      35.903  29.814  31.536  1.00  0.00    -0.200 F 
ATOM     77  F   UNL A   1      34.775  30.556  29.166  1.00  0.00    -0.200 F 
ENDBRANCH  43  67
BRANCH  55  78
ATOM     78  C   UNL A   1      44.594  32.674  31.076  1.00  0.00     0.064 A 
ATOM     79  C   UNL A   1      44.640  32.993  32.441  1.00  0.00     0.173 A 
ATOM     80  C   UNL A   1      44.860  33.697  30.154  1.00  0.00     0.173 A 
ATOM     81  F   UNL A   1      44.379  32.054  33.363  1.00  0.00    -0.203 F 
ATOM     82  C   UNL A   1      44.924  34.290  32.864  1.00  0.00     0.198 A 
ATOM     83  C   UNL A   1      45.169  34.986  30.580  1.00  0.00     0.198 A 
ATOM     84  F   UNL A   1      44.835  33.443  28.836  1.00  0.00    -0.203 F 
ATOM     85  F   UNL A   1      44.924  34.581  34.173  1.00  0.00    -0.200 F 
ATOM     86  C   UNL A   1      45.194  35.283  31.934  1.00  0.00     0.200 A 
ATOM     87  F   UNL A   1      45.443  35.941  29.680  1.00  0.00    -0.200 F 
ATOM     88  F   UNL A   1      45.476  36.527  32.344  1.00  0.00    -0.200 F 
ENDBRANCH  55  78
ENDBRANCH  29  30
ENDBRANCH  22  24
ENDBRANCH  21  22
ENDBRANCH  20  21
ENDBRANCH   1  20
TORSDOF 15
ENDMDL
MODEL 2
REMARK VINA RESULT:      -9.6      4.496      6.639
REMARK SMILES O=C(CCCc1nc(-c2cccc(Cl)c2)no1)OCCOC(=O)c1ccc(-c2c3nc(c(-c4c(F)c(F)c(F)c(F)c4F)c4ccc([nH]4)c(-c4c(F)c(F)c(F)c(F)c4F)c4nc(c(-c5c(F)c(F)c(F)c(F)c5F)c5ccc2[nH]5)C=C4)C=C3)cc1
REMARK SMILES IDX 19 1 18 2 2 3 1 4 3 5 4 6 5 7 6 8 7 9 17 10 8 11 16 12 9 13
REMARK SMILES IDX 10 14 15 15 11 16 13 17 12 18 14 19 20 20 21 21 22 22 23 23
REMARK SMILES IDX 24 24 25 25 86 26 26 27 85 28 27 29 28 30 29 31 79 32 30 33
REMARK SMILES IDX 84 34 78 35 80 36 31 37 83 38 77 39 76 40 32 42 64 43 44 44
REMARK SMILES IDX 63 45 45 46 48 47 62 48 81 49 46 50 47 51 61 53 82 54 49 55
REMARK SMILES IDX 33 56 34 57 42 58 35 59 36 60 40 61 43 62 37 63 38 64 41 65
REMARK SMILES IDX 39 66 65 67 66 68 74 69 67 70 68 71 72 72 75 73 69 74 70 75
REMARK SMILES IDX 73 76 71 77 50 78 51 79 59 80 52 81 53 82 57 83 60 84 54 85
REMARK SMILES IDX 55 86 58 87 56 88
REMARK H PARENT 80 41 48 52
REMARK Flexibility Score: inf
ROOT
ATOM      1  C   UNL A   1      44.657  21.456  24.974  1.00  0.00     0.274 C 
ENDROOT
BRANCH   1   2
ATOM      2  O   UNL A   1      44.008  20.303  24.404  1.00  0.00    -0.462 OA
BRANCH   2   3
ATOM      3  C   UNL A   1      43.690  19.215  25.148  1.00  0.00     0.305 C 
ATOM      4  O   UNL A   1      43.984  18.085  24.766  1.00  0.00    -0.252 OA
BRANCH   3   5
ATOM      5  C   UNL A   1      42.852  19.422  26.392  1.00  0.00     0.123 C 
BRANCH   5   6
ATOM      6  C   UNL A   1      41.464  20.004  26.117  1.00  0.00     0.022 C 
BRANCH   6   7
ATOM      7  C   UNL A   1      41.249  21.433  26.631  1.00  0.00     0.101 C 
BRANCH   7   8
ATOM      8  C   UNL A   1      39.868  21.937  26.404  1.00  0.00     0.226 A 
ATOM      9  N   UNL A   1      38.883  21.434  25.695  1.00  0.00    -0.191 NA
ATOM     10  O   UNL A   1      39.589  23.173  26.911  1.00  0.00    -0.339 OA
ATOM     11  C   UNL A   1      37.946  22.442  25.739  1.00  0.00     0.202 A 
ATOM     12  N   UNL A   1      38.328  23.523  26.433  1.00  0.00    -0.057 NA
BRANCH  11  13
ATOM     13  C   UNL A   1      36.652  22.328  25.100  1.00  0.00     0.024 A 
ATOM     14  C   UNL A   1      36.314  23.209  24.065  1.00  0.00     0.012 A 
ATOM     15  C   UNL A   1      35.746  21.333  25.490  1.00  0.00     0.032 A 
ATOM     16  C   UNL A   1      35.087  23.090  23.411  1.00  0.00     0.002 A 
ATOM     17  C   UNL A   1      34.516  21.231  24.841  1.00  0.00     0.041 A 
ATOM     18  C   UNL A   1      34.185  22.099  23.800  1.00  0.00     0.020 A 
ATOM     19  Cl  UNL A   1      33.392  20.024  25.333  1.00  0.00    -0.084 Cl
ENDBRANCH  11  13
ENDBRANCH   7   8
ENDBRANCH   6   7
ENDBRANCH   5   6
ENDBRANCH   3   5
ENDBRANCH   2   3
ENDBRANCH   1   2
BRANCH   1  20
ATOM     20  C   UNL A   1      44.600  22.688  24.070  1.00  0.00     0.275 C 
BRANCH  20  21
ATOM     21  O   UNL A   1      43.751  23.697  24.638  1.00  0.00    -0.458 OA
BRANCH  21  22
ATOM     22  C   UNL A   1      44.409  24.815  25.040  1.00  0.00     0.338 C 
ATOM     23  O   UNL A   1      45.472  25.224  24.614  1.00  0.00    -0.246 OA
BRANCH  22  24
ATOM     24  C   UNL A   1      43.576  25.583  25.992  1.00  0.00     0.060 A 
ATOM     25  C   UNL A   1      44.010  26.874  26.323  1.00  0.00     0.016 A 
ATOM     26  C   UNL A   1      42.410  25.066  26.568  1.00  0.00     0.016 A 
ATOM     27  C   UNL A   1      43.320  27.623  27.274  1.00  0.00     0.010 A 
ATOM     28  C   UNL A   1      41.716  25.821  27.521  1.00  0.00     0.010 A 
ATOM     29  C   UNL A   1      42.193  27.084  27.908  1.00  0.00    -0.014 A 
BRANCH  29  30
ATOM     30  C   UNL A   1      41.632  27.780  29.091  1.00  0.00     0.031 A 
ATOM     31  C   UNL A   1      42.335  27.640  30.412  1.00  0.00     0.074 A 
ATOM     32  C   UNL A   1      40.549  28.570  28.985  1.00  0.00     0.049 A 
ATOM     33  N   UNL A   1      42.074  28.214  31.558  1.00  0.00    -0.248 NA
ATOM     34  C   UNL A   1      43.490  26.729  30.444  1.00  0.00     0.031 C 
ATOM     35  C   UNL A   1      39.792  28.808  27.760  1.00  0.00     0.029 A 
ATOM     36  N   UNL A   1      39.907  29.325  29.934  1.00  0.00    -0.354 N 
ATOM     37  C   UNL A   1      43.039  27.748  32.440  1.00  0.00     0.074 A 
ATOM     38  C   UNL A   1      43.862  26.806  31.712  1.00  0.00     0.031 C 
ATOM     39  C   UNL A   1      38.783  29.655  28.030  1.00  0.00     0.029 A 
ATOM     40  C   UNL A   1      38.820  30.008  29.449  1.00  0.00     0.049 A 
ATOM     41  H   UNL A   1      40.197  29.373  30.873  1.00  0.00     0.167 HD
ATOM     42  C   UNL A   1      43.236  28.087  33.736  1.00  0.00     0.037 A 
ATOM     43  C   UNL A   1      37.955  30.825  30.081  1.00  0.00     0.037 A 
ATOM     44  C   UNL A   1      42.416  29.013  34.469  1.00  0.00     0.049 A 
ATOM     45  C   UNL A   1      38.150  31.130  31.545  1.00  0.00     0.074 A 
ATOM     46  C   UNL A   1      42.551  29.437  35.780  1.00  0.00     0.029 A 
ATOM     47  N   UNL A   1      41.297  29.650  33.955  1.00  0.00    -0.354 N 
ATOM     48  N   UNL A   1      39.099  30.730  32.355  1.00  0.00    -0.248 NA
ATOM     49  C   UNL A   1      37.155  32.008  32.177  1.00  0.00     0.031 C 
ATOM     50  C   UNL A   1      41.485  30.295  36.072  1.00  0.00     0.029 A 
ATOM     51  C   UNL A   1      40.713  30.440  34.932  1.00  0.00     0.049 A 
ATOM     52  H   UNL A   1      40.965  29.554  33.033  1.00  0.00     0.167 HD
ATOM     53  C   UNL A   1      38.836  31.331  33.580  1.00  0.00     0.074 A 
ATOM     54  C   UNL A   1      37.640  32.128  33.405  1.00  0.00     0.031 C 
ATOM     55  C   UNL A   1      39.527  31.236  34.743  1.00  0.00     0.037 A 
BRANCH  42  56
ATOM     56  C   UNL A   1      44.380  27.430  34.447  1.00  0.00     0.064 A 
ATOM     57  C   UNL A   1      45.656  28.014  34.478  1.00  0.00     0.173 A 
ATOM     58  C   UNL A   1      44.200  26.207  35.110  1.00  0.00     0.173 A 
ATOM     59  F   UNL A   1      45.882  29.174  33.844  1.00  0.00    -0.203 F 
ATOM     60  C   UNL A   1      46.716  27.383  35.124  1.00  0.00     0.198 A 
ATOM     61  C   UNL A   1      45.256  25.592  35.776  1.00  0.00     0.198 A 
ATOM     62  F   UNL A   1      42.999  25.610  35.111  1.00  0.00    -0.203 F 
ATOM     63  F   UNL A   1      47.937  27.936  35.099  1.00  0.00    -0.200 F 
ATOM     64  C   UNL A   1      46.514  26.176  35.776  1.00  0.00     0.200 A 
ATOM     65  F   UNL A   1      45.058  24.429  36.412  1.00  0.00    -0.200 F 
ATOM     66  F   UNL A   1      47.535  25.570  36.396  1.00  0.00    -0.200 F 
ENDBRANCH  42  56
BRANCH  43  67
ATOM     67  C   UNL A   1      36.827  31.432  29.330  1.00  0.00     0.064 A 
ATOM     68  C   UNL A   1      36.821  32.799  29.018  1.00  0.00     0.173 A 
ATOM     69  C   UNL A   1      35.728  30.663  28.925  1.00  0.00     0.173 A 
ATOM     70  F   UNL A   1      37.838  33.579  29.410  1.00  0.00    -0.203 F 
ATOM     71  C   UNL A   1      35.748  33.376  28.342  1.00  0.00     0.198 A 
ATOM     72  C   UNL A   1      34.667  31.236  28.228  1.00  0.00     0.198 A 
ATOM     73  F   UNL A   1      35.687  29.352  29.203  1.00  0.00    -0.203 F 
ATOM     74  F   UNL A   1      35.747  34.692  28.092  1.00  0.00    -0.200 F 
ATOM     75  C   UNL A   1      34.675  32.593  27.942  1.00  0.00     0.200 A 
ATOM     76  F   UNL A   1      33.634  30.476  27.839  1.00  0.00    -0.200 F 
ATOM     77  F   UNL A   1      33.644  33.148  27.291  1.00  0.00    -0.200 F 
ENDBRANCH  43  67
BRANCH  55  78
ATOM     78  C   UNL A   1      39.031  32.035  35.911  1.00  0.00     0.064 A 
ATOM     79  C   UNL A   1      38.206  31.468  36.893  1.00  0.00     0.173 A 
ATOM     80  C   UNL A   1      39.427  33.371  36.078  1.00  0.00     0.173 A 
ATOM     81  F   UNL A   1      37.788  30.198  36.773  1.00  0.00    -0.203 F 
ATOM     82  C   UNL A   1      37.781  32.214  37.989  1.00  0.00     0.198 A 
ATOM     83  C   UNL A   1      39.021  34.107  37.187  1.00  0.00     0.198 A 
ATOM     84  F   UNL A   1      40.220  33.959  35.169  1.00  0.00    -0.203 F 
ATOM     85  F   UNL A   1      36.961  31.664  38.896  1.00  0.00    -0.200 F 
ATOM     86  C   UNL A   1      38.194  33.530  38.139  1.00  0.00     0.200 A 
ATOM     87  F   UNL A   1      39.432  35.374  37.337  1.00  0.00    -0.200 F 
ATOM     88  F   UNL A   1      37.790  34.244  39.199  1.00  0.00    -0.200 F 
ENDBRANCH  55  78
ENDBRANCH  29  30
ENDBRANCH  22  24
ENDBRANCH  21  22
ENDBRANCH  20  21
ENDBRANCH   1  20
TORSDOF 15
ENDMDL
MODEL 3
REMARK VINA RESULT:      -9.6      4.190      6.370
REMARK SMILES O=C(CCCc1nc(-c2cccc(Cl)c2)no1)OCCOC(=O)c1ccc(-c2c3nc(c(-c4c(F)c(F)c(F)c(F)c4F)c4ccc([nH]4)c(-c4c(F)c(F)c(F)c(F)c4F)c4nc(c(-c5c(F)c(F)c(F)c(F)c5F)c5ccc2[nH]5)C=C4)C=C3)cc1
REMARK SMILES IDX 19 1 18 2 2 3 1 4 3 5 4 6 5 7 6 8 7 9 17 10 8 11 16 12 9 13
REMARK SMILES IDX 10 14 15 15 11 16 13 17 12 18 14 19 20 20 21 21 22 22 23 23
REMARK SMILES IDX 24 24 25 25 86 26 26 27 85 28 27 29 28 30 29 31 79 32 30 33
REMARK SMILES IDX 84 34 78 35 80 36 31 37 83 38 77 39 76 40 32 42 64 43 44 44
REMARK SMILES IDX 63 45 45 46 48 47 62 48 81 49 46 50 47 51 61 53 82 54 49 55
REMARK SMILES IDX 33 56 34 57 42 58 35 59 36 60 40 61 43 62 37 63 38 64 41 65
REMARK SMILES IDX 39 66 65 67 66 68 74 69 67 70 68 71 72 72 75 73 69 74 70 75
REMARK SMILES IDX 73 76 71 77 50 78 51 79 59 80 52 81 53 82 57 83 60 84 54 85
REMARK SMILES IDX 55 86 58 87 56 88
REMARK H PARENT 80 41 48 52
REMARK Flexibility Score: inf
ROOT
ATOM      1  C   UNL A   1      46.208  22.188  24.248  1.00  0.00     0.274 C 
ENDROOT
BRANCH   1   2
ATOM      2  O   UNL A   1      46.174  21.197  25.293  1.00  0.00    -0.462 OA
BRANCH   2   3
ATOM      3  C   UNL A   1      46.172  19.868  25.024  1.00  0.00     0.305 C 
ATOM      4  O   UNL A   1      47.155  19.175  25.272  1.00  0.00    -0.252 OA
BRANCH   3   5
ATOM      5  C   UNL A   1      44.978  19.290  24.293  1.00  0.00     0.123 C 
BRANCH   5   6
ATOM      6  C   UNL A   1      44.049  18.458  25.179  1.00  0.00     0.022 C 
BRANCH   6   7
ATOM      7  C   UNL A   1      43.436  19.214  26.364  1.00  0.00     0.101 C 
BRANCH   7   8
ATOM      8  C   UNL A   1      42.071  19.734  26.086  1.00  0.00     0.226 A 
ATOM      9  N   UNL A   1      41.571  20.939  26.240  1.00  0.00    -0.191 NA
ATOM     10  O   UNL A   1      41.139  18.807  25.718  1.00  0.00    -0.339 OA
ATOM     11  C   UNL A   1      40.233  20.736  25.981  1.00  0.00     0.202 A 
ATOM     12  N   UNL A   1      39.912  19.467  25.690  1.00  0.00    -0.057 NA
BRANCH  11  13
ATOM     13  C   UNL A   1      39.264  21.812  26.008  1.00  0.00     0.024 A 
ATOM     14  C   UNL A   1      38.048  21.661  25.331  1.00  0.00     0.012 A 
ATOM     15  C   UNL A   1      39.522  22.988  26.723  1.00  0.00     0.032 A 
ATOM     16  C   UNL A   1      37.086  22.671  25.379  1.00  0.00     0.002 A 
ATOM     17  C   UNL A   1      38.562  24.000  26.751  1.00  0.00     0.041 A 
ATOM     18  C   UNL A   1      37.343  23.844  26.089  1.00  0.00     0.020 A 
ATOM     19  Cl  UNL A   1      38.884  25.456  27.609  1.00  0.00    -0.084 Cl
ENDBRANCH  11  13
ENDBRANCH   7   8
ENDBRANCH   6   7
ENDBRANCH   5   6
ENDBRANCH   3   5
ENDBRANCH   2   3
ENDBRANCH   1   2
BRANCH   1  20
ATOM     20  C   UNL A   1      44.900  22.968  24.117  1.00  0.00     0.275 C 
BRANCH  20  21
ATOM     21  O   UNL A   1      44.578  23.634  25.348  1.00  0.00    -0.458 OA
BRANCH  21  22
ATOM     22  C   UNL A   1      44.864  24.962  25.353  1.00  0.00     0.338 C 
ATOM     23  O   UNL A   1      45.636  25.540  24.613  1.00  0.00    -0.246 OA
BRANCH  22  24
ATOM     24  C   UNL A   1      43.978  25.671  26.304  1.00  0.00     0.060 A 
ATOM     25  C   UNL A   1      44.249  27.025  26.539  1.00  0.00     0.016 A 
ATOM     26  C   UNL A   1      42.922  25.040  26.971  1.00  0.00     0.016 A 
ATOM     27  C   UNL A   1      43.509  27.734  27.483  1.00  0.00     0.010 A 
ATOM     28  C   UNL A   1      42.178  25.754  27.917  1.00  0.00     0.010 A 
ATOM     29  C   UNL A   1      42.495  27.091  28.206  1.00  0.00    -0.014 A 
BRANCH  29  30
ATOM     30  C   UNL A   1      41.901  27.779  29.377  1.00  0.00     0.031 A 
ATOM     31  C   UNL A   1      42.582  27.654  30.711  1.00  0.00     0.074 A 
ATOM     32  C   UNL A   1      40.808  28.551  29.250  1.00  0.00     0.049 A 
ATOM     33  N   UNL A   1      42.290  28.225  31.851  1.00  0.00    -0.248 NA
ATOM     34  C   UNL A   1      43.751  26.762  30.766  1.00  0.00     0.031 C 
ATOM     35  C   UNL A   1      40.069  28.773  28.010  1.00  0.00     0.029 A 
ATOM     36  N   UNL A   1      40.135  29.297  30.185  1.00  0.00    -0.354 N 
ATOM     37  C   UNL A   1      43.246  27.777  32.752  1.00  0.00     0.074 A 
ATOM     38  C   UNL A   1      44.098  26.848  32.041  1.00  0.00     0.031 C 
ATOM     39  C   UNL A   1      39.041  29.604  28.260  1.00  0.00     0.029 A 
ATOM     40  C   UNL A   1      39.045  29.960  29.679  1.00  0.00     0.049 A 
ATOM     41  H   UNL A   1      40.407  29.350  31.130  1.00  0.00     0.167 HD
ATOM     42  C   UNL A   1      43.413  28.121  34.051  1.00  0.00     0.037 A 
ATOM     43  C   UNL A   1      38.156  30.763  30.294  1.00  0.00     0.037 A 
ATOM     44  C   UNL A   1      42.564  29.035  34.767  1.00  0.00     0.049 A 
ATOM     45  C   UNL A   1      38.318  31.073  31.760  1.00  0.00     0.074 A 
ATOM     46  C   UNL A   1      42.668  29.463  36.079  1.00  0.00     0.029 A 
ATOM     47  N   UNL A   1      41.444  29.651  34.231  1.00  0.00    -0.354 N 
ATOM     48  N   UNL A   1      39.258  30.691  32.589  1.00  0.00    -0.248 NA
ATOM     49  C   UNL A   1      37.296  31.935  32.372  1.00  0.00     0.031 C 
ATOM     50  C   UNL A   1      41.582  30.303  36.350  1.00  0.00     0.029 A 
ATOM     51  C   UNL A   1      40.829  30.433  35.195  1.00  0.00     0.049 A 
ATOM     52  H   UNL A   1      41.131  29.548  33.303  1.00  0.00     0.167 HD
ATOM     53  C   UNL A   1      38.963  31.290  33.807  1.00  0.00     0.074 A 
ATOM     54  C   UNL A   1      37.756  32.065  33.609  1.00  0.00     0.031 C 
ATOM     55  C   UNL A   1      39.633  31.208  34.983  1.00  0.00     0.037 A 
BRANCH  42  56
ATOM     56  C   UNL A   1      44.555  27.485  34.784  1.00  0.00     0.064 A 
ATOM     57  C   UNL A   1      45.814  28.101  34.855  1.00  0.00     0.173 A 
ATOM     58  C   UNL A   1      44.389  26.250  35.428  1.00  0.00     0.173 A 
ATOM     59  F   UNL A   1      46.027  29.274  34.240  1.00  0.00    -0.203 F 
ATOM     60  C   UNL A   1      46.873  27.490  35.521  1.00  0.00     0.198 A 
ATOM     61  C   UNL A   1      45.443  25.654  36.115  1.00  0.00     0.198 A 
ATOM     62  F   UNL A   1      43.205  25.623  35.391  1.00  0.00    -0.203 F 
ATOM     63  F   UNL A   1      48.080  28.073  35.534  1.00  0.00    -0.200 F 
ATOM     64  C   UNL A   1      46.685  26.270  36.154  1.00  0.00     0.200 A 
ATOM     65  F   UNL A   1      45.259  24.480  36.732  1.00  0.00    -0.200 F 
ATOM     66  F   UNL A   1      47.706  25.683  36.794  1.00  0.00    -0.200 F 
ENDBRANCH  42  56
BRANCH  43  67
ATOM     67  C   UNL A   1      37.032  31.349  29.521  1.00  0.00     0.064 A 
ATOM     68  C   UNL A   1      35.943  30.563  29.119  1.00  0.00     0.173 A 
ATOM     69  C   UNL A   1      37.032  32.702  29.153  1.00  0.00     0.173 A 
ATOM     70  F   UNL A   1      35.913  29.257  29.425  1.00  0.00    -0.203 F 
ATOM     71  C   UNL A   1      34.904  31.105  28.366  1.00  0.00     0.198 A 
ATOM     72  C   UNL A   1      35.981  33.249  28.420  1.00  0.00     0.198 A 
ATOM     73  F   UNL A   1      38.054  33.494  29.510  1.00  0.00    -0.203 F 
ATOM     74  F   UNL A   1      33.895  30.322  27.960  1.00  0.00    -0.200 F 
ATOM     75  C   UNL A   1      34.921  32.448  28.022  1.00  0.00     0.200 A 
ATOM     76  F   UNL A   1      35.999  34.549  28.094  1.00  0.00    -0.200 F 
ATOM     77  F   UNL A   1      33.921  32.970  27.298  1.00  0.00    -0.200 F 
ENDBRANCH  43  67
BRANCH  55  78
ATOM     78  C   UNL A   1      39.102  32.000  36.141  1.00  0.00     0.064 A 
ATOM     79  C   UNL A   1      39.459  33.342  36.339  1.00  0.00     0.173 A 
ATOM     80  C   UNL A   1      38.186  31.425  37.034  1.00  0.00     0.173 A 
ATOM     81  F   UNL A   1      40.342  33.934  35.521  1.00  0.00    -0.203 F 
ATOM     82  C   UNL A   1      38.931  34.073  37.401  1.00  0.00     0.198 A 
ATOM     83  C   UNL A   1      37.640  32.166  38.079  1.00  0.00     0.198 A 
ATOM     84  F   UNL A   1      37.808  30.146  36.885  1.00  0.00    -0.203 F 
ATOM     85  F   UNL A   1      39.315  35.343  37.594  1.00  0.00    -0.200 F 
ATOM     86  C   UNL A   1      38.018  33.487  38.265  1.00  0.00     0.200 A 
ATOM     87  F   UNL A   1      36.749  31.601  38.905  1.00  0.00    -0.200 F 
ATOM     88  F   UNL A   1      37.505  34.195  39.280  1.00  0.00    -0.200 F 
ENDBRANCH  55  78
ENDBRANCH  29  30
ENDBRANCH  22  24
ENDBRANCH  21  22
ENDBRANCH  20  21
ENDBRANCH   1  20
TORSDOF 15
ENDMDL
