MODEL 1
REMARK VINA RESULT:     -12.8      0.000      0.000
REMARK SMILES O=C(C[C@H]1S/C(=[NH+]\N=C\c2cc(Br)ccc2OCc2ccccc2)NC1=O)OCCOC(=O)c1ccc(-c2c3nc(c(-c4c(F)c(F)c(F)c(F)c4F)c4ccc([nH]4)c(-c4c(F)c(F)c(F)c(F)c4F)c4nc(c(-c5c(F)c(F)c(F)c(F)c5F)c5ccc2[nH]5)C=C4)C=C3)cc1
REMARK SMILES IDX 1 1 2 2 3 3 4 4 5 5 26 6 6 7 25 8 27 9 7 10 8 13 9 14 10 15
REMARK SMILES IDX 11 16 16 17 12 18 15 19 13 20 14 21 17 22 18 23 19 24 20 25
REMARK SMILES IDX 24 26 21 27 23 28 22 29 28 30 29 31 30 32 31 33 32 34 33 35
REMARK SMILES IDX 34 36 35 37 96 38 36 39 95 40 37 41 38 42 39 43 89 44 40 45
REMARK SMILES IDX 94 46 88 47 90 48 41 49 93 50 87 51 86 52 42 54 74 55 54 56
REMARK SMILES IDX 73 57 55 58 58 59 72 60 91 61 56 62 57 63 71 65 92 66 59 67
REMARK SMILES IDX 43 68 44 69 52 70 45 71 46 72 50 73 53 74 47 75 48 76 51 77
REMARK SMILES IDX 49 78 75 79 76 80 84 81 77 82 78 83 82 84 85 85 79 86 80 87
REMARK SMILES IDX 83 88 81 89 60 90 61 91 69 92 62 93 63 94 67 95 70 96 64 97
REMARK SMILES IDX 65 98 68 99 66 100
REMARK H PARENT 25 11 7 12 90 53 58 64
REMARK Flexibility Score: inf
ROOT
ATOM      1  O   UNL A   1      30.271  30.817  24.596  1.00  0.00    -0.252 OA
ATOM      2  C   UNL A   1      31.196  30.232  25.158  1.00  0.00     0.307 C 
ENDROOT
BRANCH   2   3
ATOM      3  C   UNL A   1      31.569  28.833  24.731  1.00  0.00     0.150 C 
BRANCH   3   4
ATOM      4  C   UNL A   1      32.002  28.720  23.275  1.00  0.00     0.184 C 
ATOM      5  S   UNL A   1      33.199  27.351  23.101  1.00  0.00    -0.020 SA
ATOM      6  C   UNL A   1      30.866  28.316  22.362  1.00  0.00     0.322 C 
ATOM      7  C   UNL A   1      31.933  26.271  22.590  1.00  0.00     0.337 C 
ATOM      8  N   UNL A   1      30.837  26.965  22.207  1.00  0.00    -0.202 N 
ATOM      9  O   UNL A   1      30.051  29.097  21.889  1.00  0.00    -0.246 OA
ATOM     10  N   UNL A   1      31.934  24.987  22.524  1.00  0.00    -0.142 N 
ATOM     11  H   UNL A   1      30.048  26.510  21.831  1.00  0.00     0.316 HD
ATOM     12  H   UNL A   1      31.136  24.475  22.261  1.00  0.00     0.343 HD
BRANCH  10  13
ATOM     13  N   UNL A   1      33.137  24.370  22.849  1.00  0.00    -0.093 NA
ATOM     14  C   UNL A   1      33.002  23.776  23.989  1.00  0.00     0.170 C 
BRANCH  14  15
ATOM     15  C   UNL A   1      34.030  22.896  24.530  1.00  0.00     0.040 A 
ATOM     16  C   UNL A   1      35.239  23.532  24.846  1.00  0.00     0.029 A 
ATOM     17  C   UNL A   1      33.825  21.541  24.824  1.00  0.00     0.128 A 
ATOM     18  C   UNL A   1      36.256  22.810  25.459  1.00  0.00     0.018 A 
ATOM     19  C   UNL A   1      34.896  20.826  25.385  1.00  0.00     0.048 A 
ATOM     20  Br  UNL A   1      37.817  23.705  26.019  1.00  0.00    -0.051 Br
ATOM     21  C   UNL A   1      36.102  21.451  25.709  1.00  0.00     0.019 A 
BRANCH  17  22
ATOM     22  O   UNL A   1      32.711  20.759  24.711  1.00  0.00    -0.488 OA
BRANCH  22  23
ATOM     23  C   UNL A   1      32.527  19.805  23.664  1.00  0.00     0.265 C 
BRANCH  23  24
ATOM     24  C   UNL A   1      32.851  18.367  24.022  1.00  0.00    -0.011 A 
ATOM     25  C   UNL A   1      32.521  17.902  25.305  1.00  0.00     0.007 A 
ATOM     26  C   UNL A   1      33.560  17.514  23.161  1.00  0.00     0.007 A 
ATOM     27  C   UNL A   1      32.973  16.657  25.749  1.00  0.00     0.000 A 
ATOM     28  C   UNL A   1      34.034  16.283  23.615  1.00  0.00     0.000 A 
ATOM     29  C   UNL A   1      33.753  15.862  24.913  1.00  0.00     0.000 A 
ENDBRANCH  23  24
ENDBRANCH  22  23
ENDBRANCH  17  22
ENDBRANCH  14  15
ENDBRANCH  10  13
ENDBRANCH   3   4
ENDBRANCH   2   3
BRANCH   2  30
ATOM     30  O   UNL A   1      31.911  30.838  26.126  1.00  0.00    -0.462 OA
BRANCH  30  31
ATOM     31  C   UNL A   1      31.403  31.848  27.019  1.00  0.00     0.274 C 
BRANCH  31  32
ATOM     32  C   UNL A   1      32.197  33.148  26.877  1.00  0.00     0.275 C 
BRANCH  32  33
ATOM     33  O   UNL A   1      33.020  33.361  28.040  1.00  0.00    -0.458 OA
BRANCH  33  34
ATOM     34  C   UNL A   1      34.219  33.958  27.819  1.00  0.00     0.338 C 
ATOM     35  O   UNL A   1      34.406  35.096  27.427  1.00  0.00    -0.246 OA
BRANCH  34  36
ATOM     36  C   UNL A   1      35.303  33.070  28.304  1.00  0.00     0.060 A 
ATOM     37  C   UNL A   1      34.984  31.746  28.639  1.00  0.00     0.016 A 
ATOM     38  C   UNL A   1      36.621  33.521  28.415  1.00  0.00     0.016 A 
ATOM     39  C   UNL A   1      35.971  30.884  29.125  1.00  0.00     0.010 A 
ATOM     40  C   UNL A   1      37.607  32.661  28.902  1.00  0.00     0.010 A 
ATOM     41  C   UNL A   1      37.282  31.350  29.292  1.00  0.00    -0.014 A 
BRANCH  41  42
ATOM     42  C   UNL A   1      38.286  30.560  30.046  1.00  0.00     0.031 A 
ATOM     43  C   UNL A   1      38.512  30.898  31.494  1.00  0.00     0.074 A 
ATOM     44  C   UNL A   1      39.029  29.608  29.454  1.00  0.00     0.049 A 
ATOM     45  N   UNL A   1      39.429  30.467  32.320  1.00  0.00    -0.248 NA
ATOM     46  C   UNL A   1      37.580  31.873  32.082  1.00  0.00     0.031 C 
ATOM     47  C   UNL A   1      38.890  29.164  28.071  1.00  0.00     0.029 A 
ATOM     48  N   UNL A   1      40.074  28.866  29.948  1.00  0.00    -0.354 N 
ATOM     49  C   UNL A   1      39.195  31.128  33.518  1.00  0.00     0.074 A 
ATOM     50  C   UNL A   1      38.068  32.011  33.304  1.00  0.00     0.031 C 
ATOM     51  C   UNL A   1      39.838  28.244  27.815  1.00  0.00     0.029 A 
ATOM     52  C   UNL A   1      40.671  28.065  29.005  1.00  0.00     0.049 A 
ATOM     53  H   UNL A   1      40.368  28.904  30.886  1.00  0.00     0.167 HD
ATOM     54  C   UNL A   1      39.857  31.009  34.694  1.00  0.00     0.037 A 
ATOM     55  C   UNL A   1      41.779  27.302  29.089  1.00  0.00     0.037 A 
ATOM     56  C   UNL A   1      40.978  30.134  34.907  1.00  0.00     0.049 A 
ATOM     57  C   UNL A   1      42.540  27.229  30.390  1.00  0.00     0.074 A 
ATOM     58  C   UNL A   1      41.700  29.924  36.068  1.00  0.00     0.029 A 
ATOM     59  N   UNL A   1      41.547  29.332  33.930  1.00  0.00    -0.354 N 
ATOM     60  N   UNL A   1      42.295  27.831  31.529  1.00  0.00    -0.248 NA
ATOM     61  C   UNL A   1      43.733  26.369  30.417  1.00  0.00     0.031 C 
ATOM     62  C   UNL A   1      42.738  29.032  35.780  1.00  0.00     0.029 A 
ATOM     63  C   UNL A   1      42.628  28.645  34.454  1.00  0.00     0.049 A 
ATOM     64  H   UNL A   1      41.230  29.263  33.000  1.00  0.00     0.167 HD
ATOM     65  C   UNL A   1      43.274  27.394  32.413  1.00  0.00     0.074 A 
ATOM     66  C   UNL A   1      44.121  26.478  31.679  1.00  0.00     0.031 C 
ATOM     67  C   UNL A   1      43.451  27.718  33.717  1.00  0.00     0.037 A 
BRANCH  54  68
ATOM     68  C   UNL A   1      39.398  31.877  35.828  1.00  0.00     0.064 A 
ATOM     69  C   UNL A   1      39.976  33.131  36.079  1.00  0.00     0.173 A 
ATOM     70  C   UNL A   1      38.367  31.446  36.676  1.00  0.00     0.173 A 
ATOM     71  F   UNL A   1      40.976  33.580  35.307  1.00  0.00    -0.203 F 
ATOM     72  C   UNL A   1      39.564  33.904  37.161  1.00  0.00     0.198 A 
ATOM     73  C   UNL A   1      37.938  32.236  37.739  1.00  0.00     0.198 A 
ATOM     74  F   UNL A   1      37.779  30.257  36.478  1.00  0.00    -0.203 F 
ATOM     75  F   UNL A   1      40.172  35.071  37.418  1.00  0.00    -0.200 F 
ATOM     76  C   UNL A   1      38.543  33.459  37.987  1.00  0.00     0.200 A 
ATOM     77  F   UNL A   1      36.944  31.809  38.530  1.00  0.00    -0.200 F 
ATOM     78  F   UNL A   1      38.150  34.203  39.030  1.00  0.00    -0.200 F 
ENDBRANCH  54  68
BRANCH  55  79
ATOM     79  C   UNL A   1      42.246  26.546  27.898  1.00  0.00     0.064 A 
ATOM     80  C   UNL A   1      41.737  25.273  27.606  1.00  0.00     0.173 A 
ATOM     81  C   UNL A   1      43.210  27.076  27.027  1.00  0.00     0.173 A 
ATOM     82  F   UNL A   1      40.851  24.703  28.436  1.00  0.00    -0.203 F 
ATOM     83  C   UNL A   1      42.157  24.568  26.480  1.00  0.00     0.198 A 
ATOM     84  C   UNL A   1      43.620  26.376  25.894  1.00  0.00     0.198 A 
ATOM     85  F   UNL A   1      43.749  28.279  27.276  1.00  0.00    -0.203 F 
ATOM     86  F   UNL A   1      41.661  23.348  26.232  1.00  0.00    -0.200 F 
ATOM     87  C   UNL A   1      43.091  25.124  25.620  1.00  0.00     0.200 A 
ATOM     88  F   UNL A   1      44.530  26.914  25.071  1.00  0.00    -0.200 F 
ATOM     89  F   UNL A   1      43.491  24.447  24.535  1.00  0.00    -0.200 F 
ENDBRANCH  55  79
BRANCH  67  90
ATOM     90  C   UNL A   1      44.566  27.044  34.464  1.00  0.00     0.064 A 
ATOM     91  C   UNL A   1      44.395  25.799  35.084  1.00  0.00     0.173 A 
ATOM     92  C   UNL A   1      45.846  27.622  34.490  1.00  0.00     0.173 A 
ATOM     93  F   UNL A   1      43.189  25.212  35.100  1.00  0.00    -0.203 F 
ATOM     94  C   UNL A   1      45.463  25.161  35.713  1.00  0.00     0.198 A 
ATOM     95  C   UNL A   1      46.915  26.969  35.095  1.00  0.00     0.198 A 
ATOM     96  F   UNL A   1      46.062  28.809  33.904  1.00  0.00    -0.203 F 
ATOM     97  F   UNL A   1      45.270  23.985  36.327  1.00  0.00    -0.200 F 
ATOM     98  C   UNL A   1      46.722  25.741  35.709  1.00  0.00     0.200 A 
ATOM     99  F   UNL A   1      48.135  27.524  35.075  1.00  0.00    -0.200 F 
ATOM    100  F   UNL A   1      47.751  25.117  36.298  1.00  0.00    -0.200 F 
ENDBRANCH  67  90
ENDBRANCH  41  42
ENDBRANCH  34  36
ENDBRANCH  33  34
ENDBRANCH  32  33
ENDBRANCH  31  32
ENDBRANCH  30  31
ENDBRANCH   2  30
TORSDOF 17
ENDMDL
MODEL 2
REMARK VINA RESULT:     -12.6      4.468     10.689
REMARK SMILES O=C(C[C@H]1S/C(=[NH+]\N=C\c2cc(Br)ccc2OCc2ccccc2)NC1=O)OCCOC(=O)c1ccc(-c2c3nc(c(-c4c(F)c(F)c(F)c(F)c4F)c4ccc([nH]4)c(-c4c(F)c(F)c(F)c(F)c4F)c4nc(c(-c5c(F)c(F)c(F)c(F)c5F)c5ccc2[nH]5)C=C4)C=C3)cc1
REMARK SMILES IDX 1 1 2 2 3 3 4 4 5 5 26 6 6 7 25 8 27 9 7 10 8 13 9 14 10 15
REMARK SMILES IDX 11 16 16 17 12 18 15 19 13 20 14 21 17 22 18 23 19 24 20 25
REMARK SMILES IDX 24 26 21 27 23 28 22 29 28 30 29 31 30 32 31 33 32 34 33 35
REMARK SMILES IDX 34 36 35 37 96 38 36 39 95 40 37 41 38 42 39 43 89 44 40 45
REMARK SMILES IDX 94 46 88 47 90 48 41 49 93 50 87 51 86 52 42 54 74 55 54 56
REMARK SMILES IDX 73 57 55 58 58 59 72 60 91 61 56 62 57 63 71 65 92 66 59 67
REMARK SMILES IDX 43 68 44 69 52 70 45 71 46 72 50 73 53 74 47 75 48 76 51 77
REMARK SMILES IDX 49 78 75 79 76 80 84 81 77 82 78 83 82 84 85 85 79 86 80 87
REMARK SMILES IDX 83 88 81 89 60 90 61 91 69 92 62 93 63 94 67 95 70 96 64 97
REMARK SMILES IDX 65 98 68 99 66 100
REMARK H PARENT 25 11 7 12 90 53 58 64
REMARK Flexibility Score: inf
ROOT
ATOM      1  O   UNL A   1      36.786  23.163  23.875  1.00  0.00    -0.252 OA
ATOM      2  C   UNL A   1      36.419  22.145  24.459  1.00  0.00     0.307 C 
ENDROOT
BRANCH   2   3
ATOM      3  C   UNL A   1      34.988  21.680  24.329  1.00  0.00     0.150 C 
BRANCH   3   4
ATOM      4  C   UNL A   1      34.224  21.641  25.646  1.00  0.00     0.184 C 
ATOM      5  S   UNL A   1      33.493  23.284  25.973  1.00  0.00    -0.020 SA
ATOM      6  C   UNL A   1      33.024  20.724  25.593  1.00  0.00     0.322 C 
ATOM      7  C   UNL A   1      31.967  22.768  25.314  1.00  0.00     0.337 C 
ATOM      8  N   UNL A   1      31.908  21.418  25.243  1.00  0.00    -0.202 N 
ATOM      9  O   UNL A   1      33.072  19.514  25.773  1.00  0.00    -0.246 OA
ATOM     10  N   UNL A   1      30.962  23.475  24.935  1.00  0.00    -0.142 N 
ATOM     11  H   UNL A   1      31.088  20.956  24.949  1.00  0.00     0.316 HD
ATOM     12  H   UNL A   1      30.161  23.072  24.530  1.00  0.00     0.343 HD
BRANCH  10  13
ATOM     13  N   UNL A   1      31.083  24.846  25.134  1.00  0.00    -0.093 NA
ATOM     14  C   UNL A   1      30.880  25.446  24.007  1.00  0.00     0.170 C 
BRANCH  14  15
ATOM     15  C   UNL A   1      30.770  26.897  23.913  1.00  0.00     0.040 A 
ATOM     16  C   UNL A   1      29.561  27.358  23.374  1.00  0.00     0.029 A 
ATOM     17  C   UNL A   1      31.730  27.789  24.409  1.00  0.00     0.128 A 
ATOM     18  C   UNL A   1      29.305  28.723  23.327  1.00  0.00     0.018 A 
ATOM     19  C   UNL A   1      31.467  29.164  24.287  1.00  0.00     0.048 A 
ATOM     20  Br  UNL A   1      27.618  29.329  22.744  1.00  0.00    -0.051 Br
ATOM     21  C   UNL A   1      30.263  29.633  23.758  1.00  0.00     0.019 A 
BRANCH  17  22
ATOM     22  O   UNL A   1      32.905  27.564  25.067  1.00  0.00    -0.488 OA
BRANCH  22  23
ATOM     23  C   UNL A   1      33.026  27.608  26.490  1.00  0.00     0.265 C 
BRANCH  23  24
ATOM     24  C   UNL A   1      33.737  28.826  27.051  1.00  0.00    -0.011 A 
ATOM     25  C   UNL A   1      32.998  30.004  27.249  1.00  0.00     0.007 A 
ATOM     26  C   UNL A   1      35.121  28.855  27.281  1.00  0.00     0.007 A 
ATOM     27  C   UNL A   1      33.641  31.200  27.573  1.00  0.00     0.000 A 
ATOM     28  C   UNL A   1      35.765  30.058  27.578  1.00  0.00     0.000 A 
ATOM     29  C   UNL A   1      35.026  31.231  27.709  1.00  0.00     0.000 A 
ENDBRANCH  23  24
ENDBRANCH  22  23
ENDBRANCH  17  22
ENDBRANCH  14  15
ENDBRANCH  10  13
ENDBRANCH   3   4
ENDBRANCH   2   3
BRANCH   2  30
ATOM     30  O   UNL A   1      37.286  21.412  25.184  1.00  0.00    -0.462 OA
BRANCH  30  31
ATOM     31  C   UNL A   1      37.539  20.006  24.994  1.00  0.00     0.274 C 
BRANCH  31  32
ATOM     32  C   UNL A   1      38.910  19.621  25.554  1.00  0.00     0.275 C 
BRANCH  32  33
ATOM     33  O   UNL A   1      39.713  20.798  25.764  1.00  0.00    -0.458 OA
BRANCH  33  34
ATOM     34  C   UNL A   1      40.357  20.874  26.957  1.00  0.00     0.338 C 
ATOM     35  O   UNL A   1      40.790  19.944  27.612  1.00  0.00    -0.246 OA
BRANCH  34  36
ATOM     36  C   UNL A   1      40.624  22.297  27.276  1.00  0.00     0.060 A 
ATOM     37  C   UNL A   1      39.869  23.283  26.625  1.00  0.00     0.016 A 
ATOM     38  C   UNL A   1      41.592  22.665  28.216  1.00  0.00     0.016 A 
ATOM     39  C   UNL A   1      40.108  24.637  26.879  1.00  0.00     0.010 A 
ATOM     40  C   UNL A   1      41.832  24.017  28.468  1.00  0.00     0.010 A 
ATOM     41  C   UNL A   1      41.117  25.011  27.776  1.00  0.00    -0.014 A 
BRANCH  41  42
ATOM     42  C   UNL A   1      41.577  26.418  27.871  1.00  0.00     0.031 A 
ATOM     43  C   UNL A   1      42.945  26.752  27.342  1.00  0.00     0.074 A 
ATOM     44  C   UNL A   1      40.836  27.368  28.466  1.00  0.00     0.049 A 
ATOM     45  N   UNL A   1      43.633  27.859  27.443  1.00  0.00    -0.248 NA
ATOM     46  C   UNL A   1      43.635  25.678  26.611  1.00  0.00     0.031 C 
ATOM     47  C   UNL A   1      39.486  27.183  28.992  1.00  0.00     0.029 A 
ATOM     48  N   UNL A   1      41.137  28.677  28.752  1.00  0.00    -0.354 N 
ATOM     49  C   UNL A   1      44.840  27.611  26.805  1.00  0.00     0.074 A 
ATOM     50  C   UNL A   1      44.803  26.239  26.344  1.00  0.00     0.031 C 
ATOM     51  C   UNL A   1      39.085  28.332  29.566  1.00  0.00     0.029 A 
ATOM     52  C   UNL A   1      40.164  29.317  29.480  1.00  0.00     0.049 A 
ATOM     53  H   UNL A   1      41.971  29.114  28.465  1.00  0.00     0.167 HD
ATOM     54  C   UNL A   1      45.886  28.450  26.616  1.00  0.00     0.037 A 
ATOM     55  C   UNL A   1      40.163  30.544  30.038  1.00  0.00     0.037 A 
ATOM     56  C   UNL A   1      45.924  29.813  27.075  1.00  0.00     0.049 A 
ATOM     57  C   UNL A   1      41.362  31.444  29.869  1.00  0.00     0.074 A 
ATOM     58  C   UNL A   1      46.928  30.751  26.911  1.00  0.00     0.029 A 
ATOM     59  N   UNL A   1      44.916  30.427  27.801  1.00  0.00    -0.354 N 
ATOM     60  N   UNL A   1      42.488  31.216  29.236  1.00  0.00    -0.248 NA
ATOM     61  C   UNL A   1      41.290  32.775  30.492  1.00  0.00     0.031 C 
ATOM     62  C   UNL A   1      46.547  31.917  27.581  1.00  0.00     0.029 A 
ATOM     63  C   UNL A   1      45.283  31.724  28.115  1.00  0.00     0.049 A 
ATOM     64  H   UNL A   1      44.064  30.003  28.056  1.00  0.00     0.167 HD
ATOM     65  C   UNL A   1      43.237  32.380  29.352  1.00  0.00     0.074 A 
ATOM     66  C   UNL A   1      42.440  33.315  30.117  1.00  0.00     0.031 C 
ATOM     67  C   UNL A   1      44.471  32.652  28.860  1.00  0.00     0.037 A 
BRANCH  54  68
ATOM     68  C   UNL A   1      47.087  27.897  25.908  1.00  0.00     0.064 A 
ATOM     69  C   UNL A   1      47.151  27.823  24.508  1.00  0.00     0.173 A 
ATOM     70  C   UNL A   1      48.190  27.435  26.642  1.00  0.00     0.173 A 
ATOM     71  F   UNL A   1      46.116  28.237  23.762  1.00  0.00    -0.203 F 
ATOM     72  C   UNL A   1      48.259  27.270  23.871  1.00  0.00     0.198 A 
ATOM     73  C   UNL A   1      49.308  26.911  26.000  1.00  0.00     0.198 A 
ATOM     74  F   UNL A   1      48.181  27.487  27.983  1.00  0.00    -0.203 F 
ATOM     75  F   UNL A   1      48.271  27.152  22.536  1.00  0.00    -0.200 F 
ATOM     76  C   UNL A   1      49.337  26.819  24.616  1.00  0.00     0.200 A 
ATOM     77  F   UNL A   1      50.355  26.485  26.721  1.00  0.00    -0.200 F 
ATOM     78  F   UNL A   1      50.401  26.284  24.002  1.00  0.00    -0.200 F 
ENDBRANCH  54  68
BRANCH  55  79
ATOM     79  C   UNL A   1      38.983  30.998  30.820  1.00  0.00     0.064 A 
ATOM     80  C   UNL A   1      37.952  31.727  30.212  1.00  0.00     0.173 A 
ATOM     81  C   UNL A   1      38.860  30.715  32.188  1.00  0.00     0.173 A 
ATOM     82  F   UNL A   1      38.047  32.066  28.918  1.00  0.00    -0.203 F 
ATOM     83  C   UNL A   1      36.834  32.138  30.936  1.00  0.00     0.198 A 
ATOM     84  C   UNL A   1      37.737  31.114  32.909  1.00  0.00     0.198 A 
ATOM     85  F   UNL A   1      39.832  30.043  32.824  1.00  0.00    -0.203 F 
ATOM     86  F   UNL A   1      35.869  32.844  30.332  1.00  0.00    -0.200 F 
ATOM     87  C   UNL A   1      36.724  31.824  32.282  1.00  0.00     0.200 A 
ATOM     88  F   UNL A   1      37.638  30.816  34.211  1.00  0.00    -0.200 F 
ATOM     89  F   UNL A   1      35.646  32.215  32.976  1.00  0.00    -0.200 F 
ENDBRANCH  55  79
BRANCH  67  90
ATOM     90  C   UNL A   1      45.026  34.030  29.081  1.00  0.00     0.064 A 
ATOM     91  C   UNL A   1      44.784  35.078  28.183  1.00  0.00     0.173 A 
ATOM     92  C   UNL A   1      45.748  34.319  30.250  1.00  0.00     0.173 A 
ATOM     93  F   UNL A   1      44.112  34.851  27.045  1.00  0.00    -0.203 F 
ATOM     94  C   UNL A   1      45.253  36.365  28.443  1.00  0.00     0.198 A 
ATOM     95  C   UNL A   1      46.191  35.611  30.519  1.00  0.00     0.198 A 
ATOM     96  F   UNL A   1      46.000  33.351  31.144  1.00  0.00    -0.203 F 
ATOM     97  F   UNL A   1      45.036  37.347  27.556  1.00  0.00    -0.200 F 
ATOM     98  C   UNL A   1      45.946  36.631  29.614  1.00  0.00     0.200 A 
ATOM     99  F   UNL A   1      46.847  35.869  31.659  1.00  0.00    -0.200 F 
ATOM    100  F   UNL A   1      46.380  37.873  29.870  1.00  0.00    -0.200 F 
ENDBRANCH  67  90
ENDBRANCH  41  42
ENDBRANCH  34  36
ENDBRANCH  33  34
ENDBRANCH  32  33
ENDBRANCH  31  32
ENDBRANCH  30  31
ENDBRANCH   2  30
TORSDOF 17
ENDMDL
MODEL 3
REMARK VINA RESULT:     -12.6      4.376     10.475
REMARK SMILES O=C(C[C@H]1S/C(=[NH+]\N=C\c2cc(Br)ccc2OCc2ccccc2)NC1=O)OCCOC(=O)c1ccc(-c2c3nc(c(-c4c(F)c(F)c(F)c(F)c4F)c4ccc([nH]4)c(-c4c(F)c(F)c(F)c(F)c4F)c4nc(c(-c5c(F)c(F)c(F)c(F)c5F)c5ccc2[nH]5)C=C4)C=C3)cc1
REMARK SMILES IDX 1 1 2 2 3 3 4 4 5 5 26 6 6 7 25 8 27 9 7 10 8 13 9 14 10 15
REMARK SMILES IDX 11 16 16 17 12 18 15 19 13 20 14 21 17 22 18 23 19 24 20 25
REMARK SMILES IDX 24 26 21 27 23 28 22 29 28 30 29 31 30 32 31 33 32 34 33 35
REMARK SMILES IDX 34 36 35 37 96 38 36 39 95 40 37 41 38 42 39 43 89 44 40 45
REMARK SMILES IDX 94 46 88 47 90 48 41 49 93 50 87 51 86 52 42 54 74 55 54 56
REMARK SMILES IDX 73 57 55 58 58 59 72 60 91 61 56 62 57 63 71 65 92 66 59 67
REMARK SMILES IDX 43 68 44 69 52 70 45 71 46 72 50 73 53 74 47 75 48 76 51 77
REMARK SMILES IDX 49 78 75 79 76 80 84 81 77 82 78 83 82 84 85 85 79 86 80 87
REMARK SMILES IDX 83 88 81 89 60 90 61 91 69 92 62 93 63 94 67 95 70 96 64 97
REMARK SMILES IDX 65 98 68 99 66 100
REMARK H PARENT 25 11 7 12 90 53 58 64
REMARK Flexibility Score: inf
ROOT
ATOM      1  O   UNL A   1      36.969  22.908  23.677  1.00  0.00    -0.252 OA
ATOM      2  C   UNL A   1      36.774  21.899  24.352  1.00  0.00     0.307 C 
ENDROOT
BRANCH   2   3
ATOM      3  C   UNL A   1      35.378  21.342  24.485  1.00  0.00     0.150 C 
BRANCH   3   4
ATOM      4  C   UNL A   1      34.809  21.414  25.896  1.00  0.00     0.184 C 
ATOM      5  S   UNL A   1      34.766  23.157  26.446  1.00  0.00    -0.020 SA
ATOM      6  C   UNL A   1      33.361  20.986  25.960  1.00  0.00     0.322 C 
ATOM      7  C   UNL A   1      33.091  23.289  25.990  1.00  0.00     0.337 C 
ATOM      8  N   UNL A   1      32.539  22.063  25.834  1.00  0.00    -0.202 N 
ATOM      9  O   UNL A   1      32.989  19.823  26.046  1.00  0.00    -0.246 OA
ATOM     10  N   UNL A   1      32.374  24.341  25.819  1.00  0.00    -0.142 N 
ATOM     11  H   UNL A   1      31.580  21.955  25.636  1.00  0.00     0.316 HD
ATOM     12  H   UNL A   1      31.440  24.295  25.513  1.00  0.00     0.343 HD
BRANCH  10  13
ATOM     13  N   UNL A   1      33.005  25.549  26.094  1.00  0.00    -0.093 NA
ATOM     14  C   UNL A   1      32.181  26.513  25.842  1.00  0.00     0.170 C 
BRANCH  14  15
ATOM     15  C   UNL A   1      32.480  27.898  26.187  1.00  0.00     0.040 A 
ATOM     16  C   UNL A   1      33.665  28.077  26.914  1.00  0.00     0.029 A 
ATOM     17  C   UNL A   1      31.723  28.994  25.752  1.00  0.00     0.128 A 
ATOM     18  C   UNL A   1      34.100  29.362  27.213  1.00  0.00     0.018 A 
ATOM     19  C   UNL A   1      32.157  30.276  26.126  1.00  0.00     0.048 A 
ATOM     20  Br  UNL A   1      35.769  29.601  28.056  1.00  0.00    -0.051 Br
ATOM     21  C   UNL A   1      33.340  30.466  26.845  1.00  0.00     0.019 A 
BRANCH  17  22
ATOM     22  O   UNL A   1      30.619  29.058  24.950  1.00  0.00    -0.488 OA
BRANCH  22  23
ATOM     23  C   UNL A   1      30.688  29.264  23.538  1.00  0.00     0.265 C 
BRANCH  23  24
ATOM     24  C   UNL A   1      31.571  28.294  22.776  1.00  0.00    -0.011 A 
ATOM     25  C   UNL A   1      31.020  27.077  22.345  1.00  0.00     0.007 A 
ATOM     26  C   UNL A   1      32.943  28.518  22.575  1.00  0.00     0.007 A 
ATOM     27  C   UNL A   1      31.835  26.074  21.818  1.00  0.00     0.000 A 
ATOM     28  C   UNL A   1      33.760  27.504  22.073  1.00  0.00     0.000 A 
ATOM     29  C   UNL A   1      33.208  26.278  21.709  1.00  0.00     0.000 A 
ENDBRANCH  23  24
ENDBRANCH  22  23
ENDBRANCH  17  22
ENDBRANCH  14  15
ENDBRANCH  10  13
ENDBRANCH   3   4
ENDBRANCH   2   3
BRANCH   2  30
ATOM     30  O   UNL A   1      37.799  21.255  24.945  1.00  0.00    -0.462 OA
BRANCH  30  31
ATOM     31  C   UNL A   1      37.991  19.826  24.939  1.00  0.00     0.274 C 
BRANCH  31  32
ATOM     32  C   UNL A   1      39.273  19.447  25.681  1.00  0.00     0.275 C 
BRANCH  32  33
ATOM     33  O   UNL A   1      40.076  20.619  25.922  1.00  0.00    -0.458 OA
BRANCH  33  34
ATOM     34  C   UNL A   1      40.628  20.718  27.159  1.00  0.00     0.338 C 
ATOM     35  O   UNL A   1      41.011  19.800  27.862  1.00  0.00    -0.246 OA
BRANCH  34  36
ATOM     36  C   UNL A   1      40.870  22.147  27.472  1.00  0.00     0.060 A 
ATOM     37  C   UNL A   1      40.078  23.114  26.837  1.00  0.00     0.016 A 
ATOM     38  C   UNL A   1      41.850  22.537  28.389  1.00  0.00     0.016 A 
ATOM     39  C   UNL A   1      40.292  24.474  27.085  1.00  0.00     0.010 A 
ATOM     40  C   UNL A   1      42.064  23.894  28.635  1.00  0.00     0.010 A 
ATOM     41  C   UNL A   1      41.312  24.871  27.959  1.00  0.00    -0.014 A 
BRANCH  41  42
ATOM     42  C   UNL A   1      41.742  26.288  28.043  1.00  0.00     0.031 A 
ATOM     43  C   UNL A   1      43.093  26.651  27.493  1.00  0.00     0.074 A 
ATOM     44  C   UNL A   1      40.988  27.223  28.647  1.00  0.00     0.049 A 
ATOM     45  N   UNL A   1      43.758  27.774  27.581  1.00  0.00    -0.248 NA
ATOM     46  C   UNL A   1      43.797  25.590  26.755  1.00  0.00     0.031 C 
ATOM     47  C   UNL A   1      39.651  27.011  29.193  1.00  0.00     0.029 A 
ATOM     48  N   UNL A   1      41.265  28.540  28.925  1.00  0.00    -0.354 N 
ATOM     49  C   UNL A   1      44.961  27.550  26.925  1.00  0.00     0.074 A 
ATOM     50  C   UNL A   1      44.948  26.177  26.469  1.00  0.00     0.031 C 
ATOM     51  C   UNL A   1      39.234  28.151  29.770  1.00  0.00     0.029 A 
ATOM     52  C   UNL A   1      40.289  29.161  29.665  1.00  0.00     0.049 A 
ATOM     53  H   UNL A   1      42.084  28.995  28.623  1.00  0.00     0.167 HD
ATOM     54  C   UNL A   1      45.985  28.412  26.718  1.00  0.00     0.037 A 
ATOM     55  C   UNL A   1      40.268  30.389  30.219  1.00  0.00     0.037 A 
ATOM     56  C   UNL A   1      46.000  29.777  27.172  1.00  0.00     0.049 A 
ATOM     57  C   UNL A   1      41.445  31.315  30.030  1.00  0.00     0.074 A 
ATOM     58  C   UNL A   1      46.979  30.736  26.990  1.00  0.00     0.029 A 
ATOM     59  N   UNL A   1      44.988  30.370  27.912  1.00  0.00    -0.354 N 
ATOM     60  N   UNL A   1      42.566  31.110  29.381  1.00  0.00    -0.248 NA
ATOM     61  C   UNL A   1      41.352  32.645  30.651  1.00  0.00     0.031 C 
ATOM     62  C   UNL A   1      46.583  31.896  27.663  1.00  0.00     0.029 A 
ATOM     63  C   UNL A   1      45.332  31.677  28.217  1.00  0.00     0.049 A 
ATOM     64  H   UNL A   1      44.151  29.929  28.180  1.00  0.00     0.167 HD
ATOM     65  C   UNL A   1      43.290  32.291  29.482  1.00  0.00     0.074 A 
ATOM     66  C   UNL A   1      42.484  33.210  30.257  1.00  0.00     0.031 C 
ATOM     67  C   UNL A   1      44.510  32.589  28.971  1.00  0.00     0.037 A 
BRANCH  54  68
ATOM     68  C   UNL A   1      47.188  27.884  25.993  1.00  0.00     0.064 A 
ATOM     69  C   UNL A   1      47.234  27.813  24.593  1.00  0.00     0.173 A 
ATOM     70  C   UNL A   1      48.309  27.443  26.712  1.00  0.00     0.173 A 
ATOM     71  F   UNL A   1      46.182  28.207  23.861  1.00  0.00    -0.203 F 
ATOM     72  C   UNL A   1      48.344  27.282  23.941  1.00  0.00     0.198 A 
ATOM     73  C   UNL A   1      49.428  26.942  26.055  1.00  0.00     0.198 A 
ATOM     74  F   UNL A   1      48.316  27.492  28.053  1.00  0.00    -0.203 F 
ATOM     75  F   UNL A   1      48.342  27.166  22.605  1.00  0.00    -0.200 F 
ATOM     76  C   UNL A   1      49.441  26.852  24.671  1.00  0.00     0.200 A 
ATOM     77  F   UNL A   1      50.492  26.535  26.762  1.00  0.00    -0.200 F 
ATOM     78  F   UNL A   1      50.507  26.339  24.042  1.00  0.00    -0.200 F 
ENDBRANCH  54  68
BRANCH  55  79
ATOM     79  C   UNL A   1      39.091  30.819  31.018  1.00  0.00     0.064 A 
ATOM     80  C   UNL A   1      38.041  31.535  30.427  1.00  0.00     0.173 A 
ATOM     81  C   UNL A   1      38.988  30.524  32.385  1.00  0.00     0.173 A 
ATOM     82  F   UNL A   1      38.116  31.885  29.134  1.00  0.00    -0.203 F 
ATOM     83  C   UNL A   1      36.926  31.924  31.166  1.00  0.00     0.198 A 
ATOM     84  C   UNL A   1      37.866  30.901  33.122  1.00  0.00     0.198 A 
ATOM     85  F   UNL A   1      39.977  29.864  33.006  1.00  0.00    -0.203 F 
ATOM     86  F   UNL A   1      35.943  32.619  30.578  1.00  0.00    -0.200 F 
ATOM     87  C   UNL A   1      36.835  31.599  32.511  1.00  0.00     0.200 A 
ATOM     88  F   UNL A   1      37.787  30.592  34.423  1.00  0.00    -0.200 F 
ATOM     89  F   UNL A   1      35.760  31.968  33.220  1.00  0.00    -0.200 F 
ENDBRANCH  55  79
BRANCH  67  90
ATOM     90  C   UNL A   1      45.038  33.979  29.179  1.00  0.00     0.064 A 
ATOM     91  C   UNL A   1      45.871  34.301  30.259  1.00  0.00     0.173 A 
ATOM     92  C   UNL A   1      44.764  34.985  28.238  1.00  0.00     0.173 A 
ATOM     93  F   UNL A   1      46.151  33.381  31.193  1.00  0.00    -0.203 F 
ATOM     94  C   UNL A   1      46.404  35.582  30.394  1.00  0.00     0.198 A 
ATOM     95  C   UNL A   1      45.319  36.254  28.361  1.00  0.00     0.198 A 
ATOM     96  F   UNL A   1      43.977  34.725  27.183  1.00  0.00    -0.203 F 
ATOM     97  F   UNL A   1      47.174  35.876  31.451  1.00  0.00    -0.200 F 
ATOM     98  C   UNL A   1      46.136  36.553  29.441  1.00  0.00     0.200 A 
ATOM     99  F   UNL A   1      45.072  37.186  27.431  1.00  0.00    -0.200 F 
ATOM    100  F   UNL A   1      46.664  37.778  29.564  1.00  0.00    -0.200 F 
ENDBRANCH  67  90
ENDBRANCH  41  42
ENDBRANCH  34  36
ENDBRANCH  33  34
ENDBRANCH  32  33
ENDBRANCH  31  32
ENDBRANCH  30  31
ENDBRANCH   2  30
TORSDOF 17
ENDMDL
