MODEL 1
REMARK VINA RESULT:     -11.1      0.000      0.000
REMARK SMILES CC(C)[C@H](NC(N)=O)C(=O)N[C@H](C)C(=O)OCCOC(=O)c1ccc(-c2c3nc(c(-c4c(F)c(F)c(F)c(F)c4F)c4ccc([nH]4)c(-c4c(F)c(F)c(F)c(F)c4F)c4nc(c(-c5c(F)c(F)c(F)c(F)c5F)c5ccc2[nH]5)C=C4)C=C3)cc1
REMARK SMILES IDX 17 1 16 2 14 3 15 4 12 5 13 6 11 7 9 8 10 9 4 11 2 12 1 13
REMARK SMILES IDX 3 14 5 15 6 16 7 18 8 19 18 22 19 23 20 24 21 25 22 26 23 27
REMARK SMILES IDX 84 28 24 29 83 30 25 31 26 32 27 33 77 34 28 35 82 36 76 37
REMARK SMILES IDX 78 38 29 39 81 40 75 41 74 42 30 44 62 45 42 46 61 47 43 48
REMARK SMILES IDX 46 49 60 50 79 51 44 52 45 53 59 55 80 56 47 57 31 58 32 59
REMARK SMILES IDX 40 60 33 61 34 62 38 63 41 64 35 65 36 66 39 67 37 68 63 69
REMARK SMILES IDX 64 70 72 71 65 72 66 73 70 74 73 75 67 76 68 77 71 78 69 79
REMARK SMILES IDX 48 80 49 81 57 82 50 83 51 84 55 85 58 86 52 87 53 88 56 89
REMARK SMILES IDX 54 90
REMARK H PARENT 11 10 5 17 7 20 7 21 78 43 46 54
REMARK Flexibility Score: inf
ROOT
ATOM      1  C   UNL A   1      31.406  29.402  24.799  1.00  0.00     0.274 C 
ENDROOT
BRANCH   1   2
ATOM      2  O   UNL A   1      30.388  29.782  23.855  1.00  0.00    -0.461 OA
BRANCH   2   3
ATOM      3  C   UNL A   1      29.873  28.811  23.051  1.00  0.00     0.328 C 
ATOM      4  O   UNL A   1      29.383  29.022  21.948  1.00  0.00    -0.250 OA
BRANCH   3   5
ATOM      5  C   UNL A   1      30.033  27.404  23.670  1.00  0.00     0.189 C 
ATOM      6  C   UNL A   1      28.696  26.690  23.876  1.00  0.00     0.043 C 
BRANCH   5   7
ATOM      7  N   UNL A   1      30.920  26.576  22.867  1.00  0.00    -0.341 N 
ATOM      8  C   UNL A   1      31.806  25.610  23.229  1.00  0.00     0.243 C 
ATOM      9  O   UNL A   1      32.223  24.881  22.319  1.00  0.00    -0.273 OA
ATOM     10  H   UNL A   1      30.871  26.743  21.898  1.00  0.00     0.164 HD
BRANCH   8  11
ATOM     11  C   UNL A   1      32.214  25.301  24.705  1.00  0.00     0.175 C 
BRANCH  11  12
ATOM     12  C   UNL A   1      33.682  25.747  24.998  1.00  0.00     0.015 C 
ATOM     13  C   UNL A   1      33.728  26.786  26.125  1.00  0.00     0.010 C 
ATOM     14  C   UNL A   1      34.660  24.617  25.352  1.00  0.00     0.010 C 
ENDBRANCH  11  12
BRANCH  11  15
ATOM     15  N   UNL A   1      31.929  23.958  25.215  1.00  0.00    -0.326 N 
ATOM     16  C   UNL A   1      31.143  23.754  26.310  1.00  0.00     0.312 C 
ATOM     17  H   UNL A   1      32.316  23.180  24.753  1.00  0.00     0.166 HD
ATOM     18  N   UNL A   1      31.336  22.537  26.874  1.00  0.00    -0.352 N 
ATOM     19  O   UNL A   1      30.321  24.531  26.755  1.00  0.00    -0.249 OA
ATOM     20  H   UNL A   1      32.006  21.921  26.499  1.00  0.00     0.161 HD
ATOM     21  H   UNL A   1      30.805  22.267  27.657  1.00  0.00     0.161 HD
ENDBRANCH  11  15
ENDBRANCH   8  11
ENDBRANCH   5   7
ENDBRANCH   3   5
ENDBRANCH   2   3
ENDBRANCH   1   2
BRANCH   1  22
ATOM     22  C   UNL A   1      31.596  30.518  25.831  1.00  0.00     0.275 C 
BRANCH  22  23
ATOM     23  O   UNL A   1      32.735  30.267  26.680  1.00  0.00    -0.458 OA
BRANCH  23  24
ATOM     24  C   UNL A   1      33.309  31.367  27.216  1.00  0.00     0.338 C 
ATOM     25  O   UNL A   1      32.801  32.465  27.380  1.00  0.00    -0.246 OA
BRANCH  24  26
ATOM     26  C   UNL A   1      34.656  31.052  27.715  1.00  0.00     0.060 A 
ATOM     27  C   UNL A   1      34.937  29.715  28.004  1.00  0.00     0.016 A 
ATOM     28  C   UNL A   1      35.588  32.050  28.004  1.00  0.00     0.016 A 
ATOM     29  C   UNL A   1      36.132  29.377  28.625  1.00  0.00     0.010 A 
ATOM     30  C   UNL A   1      36.802  31.704  28.611  1.00  0.00     0.010 A 
ATOM     31  C   UNL A   1      37.070  30.366  28.947  1.00  0.00    -0.014 A 
BRANCH  31  32
ATOM     32  C   UNL A   1      38.285  29.970  29.699  1.00  0.00     0.031 A 
ATOM     33  C   UNL A   1      38.495  30.471  31.100  1.00  0.00     0.074 A 
ATOM     34  C   UNL A   1      39.147  29.087  29.164  1.00  0.00     0.049 A 
ATOM     35  N   UNL A   1      39.472  30.217  31.933  1.00  0.00    -0.248 NA
ATOM     36  C   UNL A   1      37.461  31.367  31.639  1.00  0.00     0.031 C 
ATOM     37  C   UNL A   1      39.023  28.485  27.837  1.00  0.00     0.029 A 
ATOM     38  N   UNL A   1      40.290  28.530  29.680  1.00  0.00    -0.354 N 
ATOM     39  C   UNL A   1      39.180  30.930  33.087  1.00  0.00     0.074 A 
ATOM     40  C   UNL A   1      37.943  31.642  32.842  1.00  0.00     0.031 C 
ATOM     41  C   UNL A   1      40.044  27.633  27.646  1.00  0.00     0.029 A 
ATOM     42  C   UNL A   1      40.912  27.659  28.821  1.00  0.00     0.049 A 
ATOM     43  H   UNL A   1      40.632  28.735  30.580  1.00  0.00     0.167 HD
ATOM     44  C   UNL A   1      39.876  30.982  34.248  1.00  0.00     0.037 A 
ATOM     45  C   UNL A   1      42.063  26.972  28.960  1.00  0.00     0.037 A 
ATOM     46  C   UNL A   1      41.104  30.273  34.497  1.00  0.00     0.049 A 
ATOM     47  C   UNL A   1      42.847  27.095  30.239  1.00  0.00     0.074 A 
ATOM     48  C   UNL A   1      41.888  30.273  35.637  1.00  0.00     0.029 A 
ATOM     49  N   UNL A   1      41.730  29.435  33.585  1.00  0.00    -0.354 N 
ATOM     50  N   UNL A   1      42.565  27.778  31.322  1.00  0.00    -0.248 NA
ATOM     51  C   UNL A   1      44.111  26.350  30.312  1.00  0.00     0.031 C 
ATOM     52  C   UNL A   1      43.007  29.466  35.403  1.00  0.00     0.029 A 
ATOM     53  C   UNL A   1      42.897  28.925  34.133  1.00  0.00     0.049 A 
ATOM     54  H   UNL A   1      41.395  29.233  32.681  1.00  0.00     0.167 HD
ATOM     55  C   UNL A   1      43.601  27.526  32.211  1.00  0.00     0.074 A 
ATOM     56  C   UNL A   1      44.508  26.612  31.548  1.00  0.00     0.031 C 
ATOM     57  C   UNL A   1      43.787  28.011  33.464  1.00  0.00     0.037 A 
BRANCH  44  58
ATOM     58  C   UNL A   1      39.337  31.867  35.333  1.00  0.00     0.064 A 
ATOM     59  C   UNL A   1      38.509  31.366  36.349  1.00  0.00     0.173 A 
ATOM     60  C   UNL A   1      39.669  33.229  35.367  1.00  0.00     0.173 A 
ATOM     61  F   UNL A   1      38.149  30.072  36.350  1.00  0.00    -0.203 F 
ATOM     62  C   UNL A   1      38.014  32.202  37.346  1.00  0.00     0.198 A 
ATOM     63  C   UNL A   1      39.193  34.057  36.379  1.00  0.00     0.198 A 
ATOM     64  F   UNL A   1      40.459  33.756  34.419  1.00  0.00    -0.203 F 
ATOM     65  F   UNL A   1      37.189  31.712  38.281  1.00  0.00    -0.200 F 
ATOM     66  C   UNL A   1      38.361  33.546  37.364  1.00  0.00     0.200 A 
ATOM     67  F   UNL A   1      39.536  35.353  36.399  1.00  0.00    -0.200 F 
ATOM     68  F   UNL A   1      37.885  34.349  38.324  1.00  0.00    -0.200 F 
ENDBRANCH  44  58
BRANCH  45  69
ATOM     69  C   UNL A   1      42.552  26.112  27.853  1.00  0.00     0.064 A 
ATOM     70  C   UNL A   1      43.478  26.594  26.917  1.00  0.00     0.173 A 
ATOM     71  C   UNL A   1      42.082  24.800  27.692  1.00  0.00     0.173 A 
ATOM     72  F   UNL A   1      43.935  27.850  27.015  1.00  0.00    -0.203 F 
ATOM     73  C   UNL A   1      43.899  25.801  25.851  1.00  0.00     0.198 A 
ATOM     74  C   UNL A   1      42.526  24.000  26.642  1.00  0.00     0.198 A 
ATOM     75  F   UNL A   1      41.192  24.295  28.559  1.00  0.00    -0.203 F 
ATOM     76  F   UNL A   1      44.745  26.304  24.940  1.00  0.00    -0.200 F 
ATOM     77  C   UNL A   1      43.427  24.504  25.716  1.00  0.00     0.200 A 
ATOM     78  F   UNL A   1      42.074  22.745  26.521  1.00  0.00    -0.200 F 
ATOM     79  F   UNL A   1      43.832  23.745  24.690  1.00  0.00    -0.200 F 
ENDBRANCH  45  69
BRANCH  57  80
ATOM     80  C   UNL A   1      44.999  27.533  34.210  1.00  0.00     0.064 A 
ATOM     81  C   UNL A   1      44.970  26.374  35.000  1.00  0.00     0.173 A 
ATOM     82  C   UNL A   1      46.210  28.238  34.123  1.00  0.00     0.173 A 
ATOM     83  F   UNL A   1      43.832  25.674  35.128  1.00  0.00    -0.203 F 
ATOM     84  C   UNL A   1      46.099  25.957  35.702  1.00  0.00     0.198 A 
ATOM     85  C   UNL A   1      47.344  27.801  34.802  1.00  0.00     0.198 A 
ATOM     86  F   UNL A   1      46.293  29.349  33.376  1.00  0.00    -0.203 F 
ATOM     87  F   UNL A   1      46.031  24.878  36.495  1.00  0.00    -0.200 F 
ATOM     88  C   UNL A   1      47.285  26.667  35.599  1.00  0.00     0.200 A 
ATOM     89  F   UNL A   1      48.493  28.483  34.693  1.00  0.00    -0.200 F 
ATOM     90  F   UNL A   1      48.369  26.265  36.277  1.00  0.00    -0.200 F 
ENDBRANCH  57  80
ENDBRANCH  31  32
ENDBRANCH  24  26
ENDBRANCH  23  24
ENDBRANCH  22  23
ENDBRANCH   1  22
TORSDOF 15
ENDMDL
MODEL 2
REMARK VINA RESULT:     -10.9      4.318      9.644
REMARK SMILES CC(C)[C@H](NC(N)=O)C(=O)N[C@H](C)C(=O)OCCOC(=O)c1ccc(-c2c3nc(c(-c4c(F)c(F)c(F)c(F)c4F)c4ccc([nH]4)c(-c4c(F)c(F)c(F)c(F)c4F)c4nc(c(-c5c(F)c(F)c(F)c(F)c5F)c5ccc2[nH]5)C=C4)C=C3)cc1
REMARK SMILES IDX 17 1 16 2 14 3 15 4 12 5 13 6 11 7 9 8 10 9 4 11 2 12 1 13
REMARK SMILES IDX 3 14 5 15 6 16 7 18 8 19 18 22 19 23 20 24 21 25 22 26 23 27
REMARK SMILES IDX 84 28 24 29 83 30 25 31 26 32 27 33 77 34 28 35 82 36 76 37
REMARK SMILES IDX 78 38 29 39 81 40 75 41 74 42 30 44 62 45 42 46 61 47 43 48
REMARK SMILES IDX 46 49 60 50 79 51 44 52 45 53 59 55 80 56 47 57 31 58 32 59
REMARK SMILES IDX 40 60 33 61 34 62 38 63 41 64 35 65 36 66 39 67 37 68 63 69
REMARK SMILES IDX 64 70 72 71 65 72 66 73 70 74 73 75 67 76 68 77 71 78 69 79
REMARK SMILES IDX 48 80 49 81 57 82 50 83 51 84 55 85 58 86 52 87 53 88 56 89
REMARK SMILES IDX 54 90
REMARK H PARENT 11 10 5 17 7 20 7 21 78 43 46 54
REMARK Flexibility Score: inf
ROOT
ATOM      1  C   UNL A   1      35.225  20.936  24.864  1.00  0.00     0.274 C 
ENDROOT
BRANCH   1   2
ATOM      2  O   UNL A   1      34.352  19.794  24.929  1.00  0.00    -0.461 OA
BRANCH   2   3
ATOM      3  C   UNL A   1      33.016  20.005  24.767  1.00  0.00     0.328 C 
ATOM      4  O   UNL A   1      32.146  19.246  25.177  1.00  0.00    -0.250 OA
BRANCH   3   5
ATOM      5  C   UNL A   1      32.727  21.345  24.053  1.00  0.00     0.189 C 
ATOM      6  C   UNL A   1      32.163  21.157  22.644  1.00  0.00     0.043 C 
BRANCH   5   7
ATOM      7  N   UNL A   1      31.828  22.175  24.842  1.00  0.00    -0.341 N 
ATOM      8  C   UNL A   1      31.756  23.526  24.978  1.00  0.00     0.243 C 
ATOM      9  O   UNL A   1      30.721  23.968  25.496  1.00  0.00    -0.273 OA
ATOM     10  H   UNL A   1      31.161  21.675  25.364  1.00  0.00     0.164 HD
BRANCH   8  11
ATOM     11  C   UNL A   1      32.819  24.525  24.419  1.00  0.00     0.175 C 
BRANCH  11  12
ATOM     12  C   UNL A   1      33.726  25.090  25.557  1.00  0.00     0.015 C 
ATOM     13  C   UNL A   1      35.160  24.559  25.434  1.00  0.00     0.010 C 
ATOM     14  C   UNL A   1      33.792  26.621  25.654  1.00  0.00     0.010 C 
ENDBRANCH  11  12
BRANCH  11  15
ATOM     15  N   UNL A   1      32.347  25.573  23.512  1.00  0.00    -0.326 N 
ATOM     16  C   UNL A   1      32.940  25.805  22.307  1.00  0.00     0.312 C 
ATOM     17  H   UNL A   1      31.577  26.125  23.780  1.00  0.00     0.166 HD
ATOM     18  N   UNL A   1      32.664  27.038  21.816  1.00  0.00    -0.352 N 
ATOM     19  O   UNL A   1      33.623  25.017  21.683  1.00  0.00    -0.249 OA
ATOM     20  H   UNL A   1      32.109  27.663  22.337  1.00  0.00     0.161 HD
ATOM     21  H   UNL A   1      33.019  27.310  20.939  1.00  0.00     0.161 HD
ENDBRANCH  11  15
ENDBRANCH   8  11
ENDBRANCH   5   7
ENDBRANCH   3   5
ENDBRANCH   2   3
ENDBRANCH   1   2
BRANCH   1  22
ATOM     22  C   UNL A   1      36.681  20.483  25.009  1.00  0.00     0.275 C 
BRANCH  22  23
ATOM     23  O   UNL A   1      37.563  21.600  25.245  1.00  0.00    -0.458 OA
BRANCH  23  24
ATOM     24  C   UNL A   1      38.733  21.293  25.850  1.00  0.00     0.338 C 
ATOM     25  O   UNL A   1      39.331  20.230  25.813  1.00  0.00    -0.246 OA
BRANCH  24  26
ATOM     26  C   UNL A   1      39.299  22.482  26.504  1.00  0.00     0.060 A 
ATOM     27  C   UNL A   1      38.766  23.723  26.153  1.00  0.00     0.016 A 
ATOM     28  C   UNL A   1      40.402  22.400  27.357  1.00  0.00     0.016 A 
ATOM     29  C   UNL A   1      39.363  24.889  26.615  1.00  0.00     0.010 A 
ATOM     30  C   UNL A   1      40.989  23.577  27.838  1.00  0.00     0.010 A 
ATOM     31  C   UNL A   1      40.486  24.830  27.450  1.00  0.00    -0.014 A 
BRANCH  31  32
ATOM     32  C   UNL A   1      41.148  26.099  27.835  1.00  0.00     0.031 A 
ATOM     33  C   UNL A   1      42.564  26.364  27.411  1.00  0.00     0.074 A 
ATOM     34  C   UNL A   1      40.449  27.052  28.480  1.00  0.00     0.049 A 
ATOM     35  N   UNL A   1      43.308  27.421  27.619  1.00  0.00    -0.248 NA
ATOM     36  C   UNL A   1      43.227  25.304  26.638  1.00  0.00     0.031 C 
ATOM     37  C   UNL A   1      39.051  26.936  28.895  1.00  0.00     0.029 A 
ATOM     38  N   UNL A   1      40.817  28.311  28.883  1.00  0.00    -0.354 N 
ATOM     39  C   UNL A   1      44.529  27.149  27.017  1.00  0.00     0.074 A 
ATOM     40  C   UNL A   1      44.433  25.821  26.450  1.00  0.00     0.031 C 
ATOM     41  C   UNL A   1      38.675  28.083  29.485  1.00  0.00     0.029 A 
ATOM     42  C   UNL A   1      39.815  28.997  29.522  1.00  0.00     0.049 A 
ATOM     43  H   UNL A   1      41.714  28.686  28.727  1.00  0.00     0.167 HD
ATOM     44  C   UNL A   1      45.627  27.938  26.939  1.00  0.00     0.037 A 
ATOM     45  C   UNL A   1      39.822  30.218  30.090  1.00  0.00     0.037 A 
ATOM     46  C   UNL A   1      45.725  29.261  27.499  1.00  0.00     0.049 A 
ATOM     47  C   UNL A   1      41.076  31.049  30.040  1.00  0.00     0.074 A 
ATOM     48  C   UNL A   1      46.801  30.130  27.481  1.00  0.00     0.029 A 
ATOM     49  N   UNL A   1      44.703  29.906  28.182  1.00  0.00    -0.354 N 
ATOM     50  N   UNL A   1      42.227  30.780  29.473  1.00  0.00    -0.248 NA
ATOM     51  C   UNL A   1      41.029  32.356  30.710  1.00  0.00     0.031 C 
ATOM     52  C   UNL A   1      46.444  31.287  28.186  1.00  0.00     0.029 A 
ATOM     53  C   UNL A   1      45.130  31.156  28.602  1.00  0.00     0.049 A 
ATOM     54  H   UNL A   1      43.808  29.530  28.345  1.00  0.00     0.167 HD
ATOM     55  C   UNL A   1      43.031  31.890  29.697  1.00  0.00     0.074 A 
ATOM     56  C   UNL A   1      42.229  32.845  30.435  1.00  0.00     0.031 C 
ATOM     57  C   UNL A   1      44.319  32.099  29.329  1.00  0.00     0.037 A 
BRANCH  44  58
ATOM     58  C   UNL A   1      46.831  27.372  26.245  1.00  0.00     0.064 A 
ATOM     59  C   UNL A   1      47.015  27.509  24.861  1.00  0.00     0.173 A 
ATOM     60  C   UNL A   1      47.821  26.701  26.978  1.00  0.00     0.173 A 
ATOM     61  F   UNL A   1      46.087  28.128  24.114  1.00  0.00    -0.203 F 
ATOM     62  C   UNL A   1      48.136  26.974  24.232  1.00  0.00     0.198 A 
ATOM     63  C   UNL A   1      48.953  26.189  26.350  1.00  0.00     0.198 A 
ATOM     64  F   UNL A   1      47.692  26.546  28.304  1.00  0.00    -0.203 F 
ATOM     65  F   UNL A   1      48.271  27.077  22.903  1.00  0.00    -0.200 F 
ATOM     66  C   UNL A   1      49.107  26.320  24.978  1.00  0.00     0.200 A 
ATOM     67  F   UNL A   1      49.893  25.565  27.072  1.00  0.00    -0.200 F 
ATOM     68  F   UNL A   1      50.186  25.806  24.372  1.00  0.00    -0.200 F 
ENDBRANCH  44  58
BRANCH  45  69
ATOM     69  C   UNL A   1      38.602  30.729  30.766  1.00  0.00     0.064 A 
ATOM     70  C   UNL A   1      37.577  31.349  30.039  1.00  0.00     0.173 A 
ATOM     71  C   UNL A   1      38.452  30.634  32.158  1.00  0.00     0.173 A 
ATOM     72  F   UNL A   1      37.689  31.486  28.710  1.00  0.00    -0.203 F 
ATOM     73  C   UNL A   1      36.456  31.870  30.681  1.00  0.00     0.198 A 
ATOM     74  C   UNL A   1      37.317  31.131  32.794  1.00  0.00     0.198 A 
ATOM     75  F   UNL A   1      39.408  30.054  32.898  1.00  0.00    -0.203 F 
ATOM     76  F   UNL A   1      35.513  32.504  29.968  1.00  0.00    -0.200 F 
ATOM     77  C   UNL A   1      36.324  31.757  32.057  1.00  0.00     0.200 A 
ATOM     78  F   UNL A   1      37.191  31.012  34.122  1.00  0.00    -0.200 F 
ATOM     79  F   UNL A   1      35.247  32.262  32.672  1.00  0.00    -0.200 F 
ENDBRANCH  45  69
BRANCH  57  80
ATOM     80  C   UNL A   1      44.927  33.425  29.688  1.00  0.00     0.064 A 
ATOM     81  C   UNL A   1      44.834  34.533  28.834  1.00  0.00     0.173 A 
ATOM     82  C   UNL A   1      45.601  33.589  30.907  1.00  0.00     0.173 A 
ATOM     83  F   UNL A   1      44.214  34.423  27.649  1.00  0.00    -0.203 F 
ATOM     84  C   UNL A   1      45.422  35.750  29.173  1.00  0.00     0.198 A 
ATOM     85  C   UNL A   1      46.162  34.815  31.257  1.00  0.00     0.198 A 
ATOM     86  F   UNL A   1      45.712  32.562  31.763  1.00  0.00    -0.203 F 
ATOM     87  F   UNL A   1      45.369  36.779  28.316  1.00  0.00    -0.200 F 
ATOM     88  C   UNL A   1      46.081  35.891  30.385  1.00  0.00     0.200 A 
ATOM     89  F   UNL A   1      46.789  34.953  32.433  1.00  0.00    -0.200 F 
ATOM     90  F   UNL A   1      46.648  37.061  30.709  1.00  0.00    -0.200 F 
ENDBRANCH  57  80
ENDBRANCH  31  32
ENDBRANCH  24  26
ENDBRANCH  23  24
ENDBRANCH  22  23
ENDBRANCH   1  22
TORSDOF 15
ENDMDL
MODEL 3
REMARK VINA RESULT:     -10.9      4.406      9.758
REMARK SMILES CC(C)[C@H](NC(N)=O)C(=O)N[C@H](C)C(=O)OCCOC(=O)c1ccc(-c2c3nc(c(-c4c(F)c(F)c(F)c(F)c4F)c4ccc([nH]4)c(-c4c(F)c(F)c(F)c(F)c4F)c4nc(c(-c5c(F)c(F)c(F)c(F)c5F)c5ccc2[nH]5)C=C4)C=C3)cc1
REMARK SMILES IDX 17 1 16 2 14 3 15 4 12 5 13 6 11 7 9 8 10 9 4 11 2 12 1 13
REMARK SMILES IDX 3 14 5 15 6 16 7 18 8 19 18 22 19 23 20 24 21 25 22 26 23 27
REMARK SMILES IDX 84 28 24 29 83 30 25 31 26 32 27 33 77 34 28 35 82 36 76 37
REMARK SMILES IDX 78 38 29 39 81 40 75 41 74 42 30 44 62 45 42 46 61 47 43 48
REMARK SMILES IDX 46 49 60 50 79 51 44 52 45 53 59 55 80 56 47 57 31 58 32 59
REMARK SMILES IDX 40 60 33 61 34 62 38 63 41 64 35 65 36 66 39 67 37 68 63 69
REMARK SMILES IDX 64 70 72 71 65 72 66 73 70 74 73 75 67 76 68 77 71 78 69 79
REMARK SMILES IDX 48 80 49 81 57 82 50 83 51 84 55 85 58 86 52 87 53 88 56 89
REMARK SMILES IDX 54 90
REMARK H PARENT 11 10 5 17 7 20 7 21 78 43 46 54
REMARK Flexibility Score: inf
ROOT
ATOM      1  C   UNL A   1      35.856  20.466  24.999  1.00  0.00     0.274 C 
ENDROOT
BRANCH   1   2
ATOM      2  O   UNL A   1      35.634  21.806  24.523  1.00  0.00    -0.461 OA
BRANCH   2   3
ATOM      3  C   UNL A   1      34.346  22.222  24.372  1.00  0.00     0.328 C 
ATOM      4  O   UNL A   1      33.398  21.467  24.192  1.00  0.00    -0.250 OA
BRANCH   3   5
ATOM      5  C   UNL A   1      34.215  23.755  24.511  1.00  0.00     0.189 C 
ATOM      6  C   UNL A   1      35.357  24.378  25.315  1.00  0.00     0.043 C 
BRANCH   5   7
ATOM      7  N   UNL A   1      34.121  24.394  23.206  1.00  0.00    -0.341 N 
ATOM      8  C   UNL A   1      33.581  25.585  22.836  1.00  0.00     0.243 C 
ATOM      9  O   UNL A   1      33.887  25.996  21.708  1.00  0.00    -0.273 OA
ATOM     10  H   UNL A   1      34.514  23.875  22.467  1.00  0.00     0.164 HD
BRANCH   8  11
ATOM     11  C   UNL A   1      32.726  26.493  23.776  1.00  0.00     0.175 C 
BRANCH  11  12
ATOM     12  C   UNL A   1      31.205  26.396  23.436  1.00  0.00     0.015 C 
ATOM     13  C   UNL A   1      30.347  26.552  24.697  1.00  0.00     0.010 C 
ATOM     14  C   UNL A   1      30.696  27.395  22.386  1.00  0.00     0.010 C 
ENDBRANCH  11  12
BRANCH  11  15
ATOM     15  N   UNL A   1      33.168  27.877  23.960  1.00  0.00    -0.326 N 
ATOM     16  C   UNL A   1      33.603  28.341  25.165  1.00  0.00     0.312 C 
ATOM     17  H   UNL A   1      33.151  28.490  23.190  1.00  0.00     0.166 HD
ATOM     18  N   UNL A   1      33.559  29.693  25.254  1.00  0.00    -0.352 N 
ATOM     19  O   UNL A   1      34.025  27.664  26.082  1.00  0.00    -0.249 OA
ATOM     20  H   UNL A   1      33.214  30.225  24.500  1.00  0.00     0.161 HD
ATOM     21  H   UNL A   1      33.872  30.144  26.070  1.00  0.00     0.161 HD
ENDBRANCH  11  15
ENDBRANCH   8  11
ENDBRANCH   5   7
ENDBRANCH   3   5
ENDBRANCH   2   3
ENDBRANCH   1   2
BRANCH   1  22
ATOM     22  C   UNL A   1      37.357  20.161  25.004  1.00  0.00     0.275 C 
BRANCH  22  23
ATOM     23  O   UNL A   1      38.136  21.333  25.321  1.00  0.00    -0.458 OA
BRANCH  23  24
ATOM     24  C   UNL A   1      39.256  21.103  26.042  1.00  0.00     0.338 C 
ATOM     25  O   UNL A   1      39.875  20.056  26.139  1.00  0.00    -0.246 OA
BRANCH  24  26
ATOM     26  C   UNL A   1      39.744  22.353  26.643  1.00  0.00     0.060 A 
ATOM     27  C   UNL A   1      39.220  23.550  26.151  1.00  0.00     0.016 A 
ATOM     28  C   UNL A   1      40.774  22.366  27.587  1.00  0.00     0.016 A 
ATOM     29  C   UNL A   1      39.755  24.763  26.566  1.00  0.00     0.010 A 
ATOM     30  C   UNL A   1      41.296  23.591  28.018  1.00  0.00     0.010 A 
ATOM     31  C   UNL A   1      40.804  24.797  27.492  1.00  0.00    -0.014 A 
BRANCH  31  32
ATOM     32  C   UNL A   1      41.409  26.109  27.827  1.00  0.00     0.031 A 
ATOM     33  C   UNL A   1      42.792  26.441  27.345  1.00  0.00     0.074 A 
ATOM     34  C   UNL A   1      40.682  27.035  28.478  1.00  0.00     0.049 A 
ATOM     35  N   UNL A   1      43.483  27.541  27.505  1.00  0.00    -0.248 NA
ATOM     36  C   UNL A   1      43.485  25.402  26.569  1.00  0.00     0.031 C 
ATOM     37  C   UNL A   1      39.309  26.853  28.947  1.00  0.00     0.029 A 
ATOM     38  N   UNL A   1      40.994  28.321  28.841  1.00  0.00    -0.354 N 
ATOM     39  C   UNL A   1      44.695  27.324  26.863  1.00  0.00     0.074 A 
ATOM     40  C   UNL A   1      44.652  25.980  26.326  1.00  0.00     0.031 C 
ATOM     41  C   UNL A   1      38.891  27.991  29.527  1.00  0.00     0.029 A 
ATOM     42  C   UNL A   1      39.979  28.966  29.504  1.00  0.00     0.049 A 
ATOM     43  H   UNL A   1      41.862  28.742  28.646  1.00  0.00     0.167 HD
ATOM     44  C   UNL A   1      45.744  28.169  26.729  1.00  0.00     0.037 A 
ATOM     45  C   UNL A   1      39.939  30.198  30.047  1.00  0.00     0.037 A 
ATOM     46  C   UNL A   1      45.789  29.507  27.259  1.00  0.00     0.049 A 
ATOM     47  C   UNL A   1      41.143  31.094  29.934  1.00  0.00     0.074 A 
ATOM     48  C   UNL A   1      46.814  30.434  27.184  1.00  0.00     0.029 A 
ATOM     49  N   UNL A   1      44.759  30.110  27.966  1.00  0.00    -0.354 N 
ATOM     50  N   UNL A   1      42.286  30.876  29.331  1.00  0.00    -0.248 NA
ATOM     51  C   UNL A   1      41.047  32.411  30.580  1.00  0.00     0.031 C 
ATOM     52  C   UNL A   1      46.420  31.584  27.878  1.00  0.00     0.029 A 
ATOM     53  C   UNL A   1      45.131  31.391  28.345  1.00  0.00     0.049 A 
ATOM     54  H   UNL A   1      43.892  29.690  28.170  1.00  0.00     0.167 HD
ATOM     55  C   UNL A   1      43.034  32.033  29.503  1.00  0.00     0.074 A 
ATOM     56  C   UNL A   1      42.208  32.958  30.251  1.00  0.00     0.031 C 
ATOM     57  C   UNL A   1      44.295  32.304  29.083  1.00  0.00     0.037 A 
BRANCH  44  58
ATOM     58  C   UNL A   1      46.952  27.655  26.002  1.00  0.00     0.064 A 
ATOM     59  C   UNL A   1      47.050  27.715  24.604  1.00  0.00     0.173 A 
ATOM     60  C   UNL A   1      48.031  27.113  26.715  1.00  0.00     0.173 A 
ATOM     61  F   UNL A   1      46.037  28.209  23.876  1.00  0.00    -0.203 F 
ATOM     62  C   UNL A   1      48.177  27.229  23.945  1.00  0.00     0.198 A 
ATOM     63  C   UNL A   1      49.166  26.651  26.055  1.00  0.00     0.198 A 
ATOM     64  F   UNL A   1      47.985  27.035  28.054  1.00  0.00    -0.203 F 
ATOM     65  F   UNL A   1      48.232  27.255  22.606  1.00  0.00    -0.200 F 
ATOM     66  C   UNL A   1      49.236  26.703  24.671  1.00  0.00     0.200 A 
ATOM     67  F   UNL A   1      50.191  26.151  26.759  1.00  0.00    -0.200 F 
ATOM     68  F   UNL A   1      50.320  26.237  24.036  1.00  0.00    -0.200 F 
ENDBRANCH  44  58
BRANCH  45  69
ATOM     69  C   UNL A   1      38.718  30.656  30.758  1.00  0.00     0.064 A 
ATOM     70  C   UNL A   1      37.642  31.219  30.059  1.00  0.00     0.173 A 
ATOM     71  C   UNL A   1      38.616  30.567  32.154  1.00  0.00     0.173 A 
ATOM     72  F   UNL A   1      37.705  31.348  28.725  1.00  0.00    -0.203 F 
ATOM     73  C   UNL A   1      36.517  31.692  30.732  1.00  0.00     0.198 A 
ATOM     74  C   UNL A   1      37.480  31.015  32.822  1.00  0.00     0.198 A 
ATOM     75  F   UNL A   1      39.622  30.040  32.868  1.00  0.00    -0.203 F 
ATOM     76  F   UNL A   1      35.524  32.273  30.044  1.00  0.00    -0.200 F 
ATOM     77  C   UNL A   1      36.435  31.586  32.112  1.00  0.00     0.200 A 
ATOM     78  F   UNL A   1      37.401  30.902  34.155  1.00  0.00    -0.200 F 
ATOM     79  F   UNL A   1      35.354  32.044  32.758  1.00  0.00    -0.200 F 
ENDBRANCH  45  69
BRANCH  57  80
ATOM     80  C   UNL A   1      44.841  33.668  29.392  1.00  0.00     0.064 A 
ATOM     81  C   UNL A   1      44.647  34.754  28.527  1.00  0.00     0.173 A 
ATOM     82  C   UNL A   1      45.558  33.893  30.578  1.00  0.00     0.173 A 
ATOM     83  F   UNL A   1      43.982  34.586  27.373  1.00  0.00    -0.203 F 
ATOM     84  C   UNL A   1      45.179  36.008  28.819  1.00  0.00     0.198 A 
ATOM     85  C   UNL A   1      46.063  35.155  30.881  1.00  0.00     0.198 A 
ATOM     86  F   UNL A   1      45.766  32.890  31.443  1.00  0.00    -0.203 F 
ATOM     87  F   UNL A   1      45.028  37.016  27.950  1.00  0.00    -0.200 F 
ATOM     88  C   UNL A   1      45.882  36.208  29.997  1.00  0.00     0.200 A 
ATOM     89  F   UNL A   1      46.733  35.349  32.026  1.00  0.00    -0.200 F 
ATOM     90  F   UNL A   1      46.394  37.415  30.276  1.00  0.00    -0.200 F 
ENDBRANCH  57  80
ENDBRANCH  31  32
ENDBRANCH  24  26
ENDBRANCH  23  24
ENDBRANCH  22  23
ENDBRANCH   1  22
TORSDOF 15
ENDMDL
