MODEL 1
REMARK VINA RESULT:     -12.2      0.000      0.000
REMARK SMILES O=C(CN(Cc1ccccc1Cl)S(=O)(=O)c1ccc(Cl)cc1)OCCOC(=O)c1ccc(-c2c3nc(c(-c4c(F)c(F)c(F)c(F)c4F)c4ccc([nH]4)c(-c4c(F)c(F)c(F)c(F)c4F)c4nc(c(-c5c(F)c(F)c(F)c(F)c5F)c5ccc2[nH]5)C=C4)C=C3)cc1
REMARK SMILES IDX 24 1 23 2 2 3 1 4 3 5 4 6 5 7 6 8 7 9 11 10 8 11 10 12 12 13
REMARK SMILES IDX 9 14 13 15 14 16 15 17 16 18 17 19 22 20 18 21 21 22 19 23
REMARK SMILES IDX 20 24 25 25 26 26 27 27 28 28 29 29 30 30 91 31 31 32 90 33
REMARK SMILES IDX 32 34 33 35 34 36 84 37 35 38 89 39 83 40 85 41 36 42 88 43
REMARK SMILES IDX 82 44 81 45 37 47 69 48 49 49 68 50 50 51 53 52 67 53 86 54
REMARK SMILES IDX 51 55 52 56 66 58 87 59 54 60 38 61 39 62 47 63 40 64 41 65
REMARK SMILES IDX 45 66 48 67 42 68 43 69 46 70 44 71 70 72 71 73 79 74 72 75
REMARK SMILES IDX 73 76 77 77 80 78 74 79 75 80 78 81 76 82 55 83 56 84 64 85
REMARK SMILES IDX 57 86 58 87 62 88 65 89 59 90 60 91 63 92 61 93
REMARK H PARENT 85 46 53 57
REMARK Flexibility Score: inf
ROOT
ATOM      1  C   UNL A   1      31.189  28.793  24.311  1.00  0.00     0.274 C 
ENDROOT
BRANCH   1   2
ATOM      2  O   UNL A   1      31.352  27.565  25.050  1.00  0.00    -0.461 OA
BRANCH   2   3
ATOM      3  C   UNL A   1      30.730  26.399  24.752  1.00  0.00     0.321 C 
ATOM      4  O   UNL A   1      29.755  26.032  25.404  1.00  0.00    -0.251 OA
BRANCH   3   5
ATOM      5  C   UNL A   1      31.306  25.542  23.657  1.00  0.00     0.225 C 
BRANCH   5   6
ATOM      6  N   UNL A   1      32.235  24.402  23.980  1.00  0.00    -0.182 NA
BRANCH   6   7
ATOM      7  C   UNL A   1      31.496  23.146  24.411  1.00  0.00     0.140 C 
BRANCH   7   8
ATOM      8  C   UNL A   1      32.122  22.387  25.553  1.00  0.00    -0.014 A 
ATOM      9  C   UNL A   1      32.119  22.867  26.863  1.00  0.00     0.006 A 
ATOM     10  C   UNL A   1      32.915  21.286  25.277  1.00  0.00     0.045 A 
ATOM     11  C   UNL A   1      33.099  22.456  27.769  1.00  0.00     0.000 A 
ATOM     12  C   UNL A   1      33.977  20.967  26.113  1.00  0.00     0.021 A 
ATOM     13  Cl  UNL A   1      32.478  20.290  23.946  1.00  0.00    -0.084 Cl
ATOM     14  C   UNL A   1      34.085  21.568  27.361  1.00  0.00     0.002 A 
ENDBRANCH   7   8
ENDBRANCH   6   7
BRANCH   6  15
ATOM     15  S   UNL A   1      33.429  24.249  22.748  1.00  0.00     0.243 S 
ATOM     16  O   UNL A   1      33.087  23.084  21.955  1.00  0.00    -0.207 OA
ATOM     17  O   UNL A   1      33.608  25.549  22.152  1.00  0.00    -0.207 OA
BRANCH  15  18
ATOM     18  C   UNL A   1      34.921  23.883  23.637  1.00  0.00     0.082 A 
ATOM     19  C   UNL A   1      35.122  24.473  24.888  1.00  0.00     0.023 A 
ATOM     20  C   UNL A   1      35.807  22.918  23.143  1.00  0.00     0.023 A 
ATOM     21  C   UNL A   1      36.174  24.027  25.688  1.00  0.00     0.022 A 
ATOM     22  C   UNL A   1      36.855  22.475  23.950  1.00  0.00     0.022 A 
ATOM     23  C   UNL A   1      37.022  23.020  25.223  1.00  0.00     0.041 A 
ATOM     24  Cl  UNL A   1      38.265  22.416  26.248  1.00  0.00    -0.084 Cl
ENDBRANCH  15  18
ENDBRANCH   6  15
ENDBRANCH   5   6
ENDBRANCH   3   5
ENDBRANCH   2   3
ENDBRANCH   1   2
BRANCH   1  25
ATOM     25  C   UNL A   1      31.412  30.019  25.209  1.00  0.00     0.275 C 
BRANCH  25  26
ATOM     26  O   UNL A   1      32.774  30.111  25.696  1.00  0.00    -0.458 OA
BRANCH  26  27
ATOM     27  C   UNL A   1      33.024  31.024  26.674  1.00  0.00     0.338 C 
ATOM     28  O   UNL A   1      32.288  31.925  27.032  1.00  0.00    -0.246 OA
BRANCH  27  29
ATOM     29  C   UNL A   1      34.297  30.684  27.362  1.00  0.00     0.060 A 
ATOM     30  C   UNL A   1      35.056  31.719  27.917  1.00  0.00     0.016 A 
ATOM     31  C   UNL A   1      34.721  29.356  27.524  1.00  0.00     0.016 A 
ATOM     32  C   UNL A   1      36.183  31.418  28.703  1.00  0.00     0.010 A 
ATOM     33  C   UNL A   1      35.853  29.061  28.312  1.00  0.00     0.010 A 
ATOM     34  C   UNL A   1      36.573  30.084  28.949  1.00  0.00    -0.014 A 
BRANCH  34  35
ATOM     35  C   UNL A   1      37.777  29.807  29.800  1.00  0.00     0.031 A 
ATOM     36  C   UNL A   1      38.973  29.188  29.158  1.00  0.00     0.074 A 
ATOM     37  C   UNL A   1      37.852  30.087  31.121  1.00  0.00     0.049 A 
ATOM     38  N   UNL A   1      40.113  28.861  29.708  1.00  0.00    -0.248 NA
ATOM     39  C   UNL A   1      38.836  28.799  27.749  1.00  0.00     0.031 C 
ATOM     40  C   UNL A   1      36.737  30.482  31.953  1.00  0.00     0.029 A 
ATOM     41  N   UNL A   1      38.918  30.144  31.997  1.00  0.00    -0.354 N 
ATOM     42  C   UNL A   1      40.777  28.113  28.754  1.00  0.00     0.074 A 
ATOM     43  C   UNL A   1      39.955  28.115  27.561  1.00  0.00     0.031 C 
ATOM     44  C   UNL A   1      37.182  30.984  33.115  1.00  0.00     0.029 A 
ATOM     45  C   UNL A   1      38.619  30.779  33.191  1.00  0.00     0.049 A 
ATOM     46  H   UNL A   1      39.806  29.771  31.792  1.00  0.00     0.167 HD
ATOM     47  C   UNL A   1      41.925  27.415  28.904  1.00  0.00     0.037 A 
ATOM     48  C   UNL A   1      39.402  31.126  34.235  1.00  0.00     0.037 A 
ATOM     49  C   UNL A   1      42.740  27.420  30.089  1.00  0.00     0.049 A 
ATOM     50  C   UNL A   1      40.785  30.531  34.286  1.00  0.00     0.074 A 
ATOM     51  C   UNL A   1      43.929  26.749  30.314  1.00  0.00     0.029 A 
ATOM     52  N   UNL A   1      42.455  28.127  31.247  1.00  0.00    -0.354 N 
ATOM     53  N   UNL A   1      41.408  29.825  33.378  1.00  0.00    -0.248 NA
ATOM     54  C   UNL A   1      41.530  30.678  35.548  1.00  0.00     0.031 C 
ATOM     55  C   UNL A   1      44.347  27.023  31.620  1.00  0.00     0.029 A 
ATOM     56  C   UNL A   1      43.444  27.903  32.192  1.00  0.00     0.049 A 
ATOM     57  H   UNL A   1      41.667  28.703  31.379  1.00  0.00     0.167 HD
ATOM     58  C   UNL A   1      42.574  29.381  33.979  1.00  0.00     0.074 A 
ATOM     59  C   UNL A   1      42.628  29.981  35.294  1.00  0.00     0.031 C 
ATOM     60  C   UNL A   1      43.483  28.498  33.503  1.00  0.00     0.037 A 
BRANCH  47  61
ATOM     61  C   UNL A   1      42.297  26.496  27.786  1.00  0.00     0.064 A 
ATOM     62  C   UNL A   1      43.223  26.855  26.800  1.00  0.00     0.173 A 
ATOM     63  C   UNL A   1      41.691  25.233  27.701  1.00  0.00     0.173 A 
ATOM     64  F   UNL A   1      43.799  28.067  26.826  1.00  0.00    -0.203 F 
ATOM     65  C   UNL A   1      43.515  25.989  25.752  1.00  0.00     0.198 A 
ATOM     66  C   UNL A   1      42.006  24.359  26.668  1.00  0.00     0.198 A 
ATOM     67  F   UNL A   1      40.787  24.851  28.616  1.00  0.00    -0.203 F 
ATOM     68  F   UNL A   1      44.363  26.371  24.788  1.00  0.00    -0.200 F 
ATOM     69  C   UNL A   1      42.913  24.740  25.691  1.00  0.00     0.200 A 
ATOM     70  F   UNL A   1      41.425  23.152  26.612  1.00  0.00    -0.200 F 
ATOM     71  F   UNL A   1      43.197  23.908  24.680  1.00  0.00    -0.200 F 
ENDBRANCH  47  61
BRANCH  48  72
ATOM     72  C   UNL A   1      38.928  31.990  35.361  1.00  0.00     0.064 A 
ATOM     73  C   UNL A   1      39.219  33.368  35.358  1.00  0.00     0.173 A 
ATOM     74  C   UNL A   1      38.262  31.485  36.485  1.00  0.00     0.173 A 
ATOM     75  F   UNL A   1      39.892  33.908  34.331  1.00  0.00    -0.203 F 
ATOM     76  C   UNL A   1      38.888  34.188  36.438  1.00  0.00     0.198 A 
ATOM     77  C   UNL A   1      37.886  32.316  37.544  1.00  0.00     0.198 A 
ATOM     78  F   UNL A   1      37.987  30.177  36.576  1.00  0.00    -0.203 F 
ATOM     79  F   UNL A   1      39.252  35.478  36.437  1.00  0.00    -0.200 F 
ATOM     80  C   UNL A   1      38.212  33.662  37.527  1.00  0.00     0.200 A 
ATOM     81  F   UNL A   1      37.223  31.804  38.589  1.00  0.00    -0.200 F 
ATOM     82  F   UNL A   1      37.893  34.447  38.566  1.00  0.00    -0.200 F 
ENDBRANCH  48  72
BRANCH  60  83
ATOM     83  C   UNL A   1      44.594  28.098  34.424  1.00  0.00     0.064 A 
ATOM     84  C   UNL A   1      45.798  28.820  34.465  1.00  0.00     0.173 A 
ATOM     85  C   UNL A   1      44.436  27.027  35.314  1.00  0.00     0.173 A 
ATOM     86  F   UNL A   1      46.002  29.840  33.619  1.00  0.00    -0.203 F 
ATOM     87  C   UNL A   1      46.807  28.475  35.359  1.00  0.00     0.198 A 
ATOM     88  C   UNL A   1      45.438  26.701  36.223  1.00  0.00     0.198 A 
ATOM     89  F   UNL A   1      43.304  26.308  35.312  1.00  0.00    -0.203 F 
ATOM     90  F   UNL A   1      47.960  29.158  35.360  1.00  0.00    -0.200 F 
ATOM     91  C   UNL A   1      46.622  27.423  36.243  1.00  0.00     0.200 A 
ATOM     92  F   UNL A   1      45.256  25.691  37.084  1.00  0.00    -0.200 F 
ATOM     93  F   UNL A   1      47.590  27.102  37.113  1.00  0.00    -0.200 F 
ENDBRANCH  60  83
ENDBRANCH  34  35
ENDBRANCH  27  29
ENDBRANCH  26  27
ENDBRANCH  25  26
ENDBRANCH   1  25
TORSDOF 16
ENDMDL
MODEL 2
REMARK VINA RESULT:     -12.2      0.332      1.268
REMARK SMILES O=C(CN(Cc1ccccc1Cl)S(=O)(=O)c1ccc(Cl)cc1)OCCOC(=O)c1ccc(-c2c3nc(c(-c4c(F)c(F)c(F)c(F)c4F)c4ccc([nH]4)c(-c4c(F)c(F)c(F)c(F)c4F)c4nc(c(-c5c(F)c(F)c(F)c(F)c5F)c5ccc2[nH]5)C=C4)C=C3)cc1
REMARK SMILES IDX 24 1 23 2 2 3 1 4 3 5 4 6 5 7 6 8 7 9 11 10 8 11 10 12 12 13
REMARK SMILES IDX 9 14 13 15 14 16 15 17 16 18 17 19 22 20 18 21 21 22 19 23
REMARK SMILES IDX 20 24 25 25 26 26 27 27 28 28 29 29 30 30 91 31 31 32 90 33
REMARK SMILES IDX 32 34 33 35 34 36 84 37 35 38 89 39 83 40 85 41 36 42 88 43
REMARK SMILES IDX 82 44 81 45 37 47 69 48 49 49 68 50 50 51 53 52 67 53 86 54
REMARK SMILES IDX 51 55 52 56 66 58 87 59 54 60 38 61 39 62 47 63 40 64 41 65
REMARK SMILES IDX 45 66 48 67 42 68 43 69 46 70 44 71 70 72 71 73 79 74 72 75
REMARK SMILES IDX 73 76 77 77 80 78 74 79 75 80 78 81 76 82 55 83 56 84 64 85
REMARK SMILES IDX 57 86 58 87 62 88 65 89 59 90 60 91 63 92 61 93
REMARK H PARENT 85 46 53 57
REMARK Flexibility Score: inf
ROOT
ATOM      1  C   UNL A   1      31.345  28.825  23.965  1.00  0.00     0.274 C 
ENDROOT
BRANCH   1   2
ATOM      2  O   UNL A   1      30.273  27.863  24.048  1.00  0.00    -0.461 OA
BRANCH   2   3
ATOM      3  C   UNL A   1      30.417  26.586  24.478  1.00  0.00     0.321 C 
ATOM      4  O   UNL A   1      30.138  26.286  25.636  1.00  0.00    -0.251 OA
BRANCH   3   5
ATOM      5  C   UNL A   1      30.989  25.572  23.524  1.00  0.00     0.225 C 
BRANCH   5   6
ATOM      6  N   UNL A   1      32.075  24.628  23.964  1.00  0.00    -0.182 NA
BRANCH   6   7
ATOM      7  C   UNL A   1      31.592  23.193  24.086  1.00  0.00     0.140 C 
BRANCH   7   8
ATOM      8  C   UNL A   1      32.071  22.451  25.308  1.00  0.00    -0.014 A 
ATOM      9  C   UNL A   1      32.024  23.007  26.588  1.00  0.00     0.006 A 
ATOM     10  C   UNL A   1      32.776  21.271  25.149  1.00  0.00     0.045 A 
ATOM     11  C   UNL A   1      32.901  22.567  27.582  1.00  0.00     0.000 A 
ATOM     12  C   UNL A   1      33.748  20.911  26.073  1.00  0.00     0.021 A 
ATOM     13  Cl  UNL A   1      32.339  20.240  23.845  1.00  0.00    -0.084 Cl
ATOM     14  C   UNL A   1      33.828  21.574  27.291  1.00  0.00     0.002 A 
ENDBRANCH   7   8
ENDBRANCH   6   7
BRANCH   6  15
ATOM     15  S   UNL A   1      33.511  24.918  23.057  1.00  0.00     0.243 S 
ATOM     16  O   UNL A   1      33.344  24.281  21.765  1.00  0.00    -0.207 OA
ATOM     17  O   UNL A   1      33.827  26.319  23.179  1.00  0.00    -0.207 OA
BRANCH  15  18
ATOM     18  C   UNL A   1      34.767  24.031  23.942  1.00  0.00     0.082 A 
ATOM     19  C   UNL A   1      35.435  22.986  23.297  1.00  0.00     0.023 A 
ATOM     20  C   UNL A   1      35.163  24.466  25.213  1.00  0.00     0.023 A 
ATOM     21  C   UNL A   1      36.566  22.431  23.896  1.00  0.00     0.022 A 
ATOM     22  C   UNL A   1      36.296  23.908  25.804  1.00  0.00     0.022 A 
ATOM     23  C   UNL A   1      37.000  22.906  25.136  1.00  0.00     0.041 A 
ATOM     24  Cl  UNL A   1      38.443  22.275  25.828  1.00  0.00    -0.084 Cl
ENDBRANCH  15  18
ENDBRANCH   6  15
ENDBRANCH   5   6
ENDBRANCH   3   5
ENDBRANCH   2   3
ENDBRANCH   1   2
BRANCH   1  25
ATOM     25  C   UNL A   1      31.462  29.644  25.259  1.00  0.00     0.275 C 
BRANCH  25  26
ATOM     26  O   UNL A   1      32.816  30.092  25.513  1.00  0.00    -0.458 OA
BRANCH  26  27
ATOM     27  C   UNL A   1      33.003  30.945  26.557  1.00  0.00     0.338 C 
ATOM     28  O   UNL A   1      32.221  31.788  26.956  1.00  0.00    -0.246 OA
BRANCH  27  29
ATOM     29  C   UNL A   1      34.274  30.611  27.254  1.00  0.00     0.060 A 
ATOM     30  C   UNL A   1      35.001  31.645  27.852  1.00  0.00     0.016 A 
ATOM     31  C   UNL A   1      34.725  29.289  27.380  1.00  0.00     0.016 A 
ATOM     32  C   UNL A   1      36.122  31.344  28.645  1.00  0.00     0.010 A 
ATOM     33  C   UNL A   1      35.852  28.994  28.177  1.00  0.00     0.010 A 
ATOM     34  C   UNL A   1      36.539  30.012  28.856  1.00  0.00    -0.014 A 
BRANCH  34  35
ATOM     35  C   UNL A   1      37.736  29.736  29.717  1.00  0.00     0.031 A 
ATOM     36  C   UNL A   1      38.931  29.100  29.088  1.00  0.00     0.074 A 
ATOM     37  C   UNL A   1      37.807  30.029  31.035  1.00  0.00     0.049 A 
ATOM     38  N   UNL A   1      40.066  28.770  29.647  1.00  0.00    -0.248 NA
ATOM     39  C   UNL A   1      38.798  28.697  27.682  1.00  0.00     0.031 C 
ATOM     40  C   UNL A   1      36.690  30.441  31.856  1.00  0.00     0.029 A 
ATOM     41  N   UNL A   1      38.868  30.087  31.916  1.00  0.00    -0.354 N 
ATOM     42  C   UNL A   1      40.729  28.007  28.705  1.00  0.00     0.074 A 
ATOM     43  C   UNL A   1      39.913  28.004  27.507  1.00  0.00     0.031 C 
ATOM     44  C   UNL A   1      37.133  30.951  33.016  1.00  0.00     0.029 A 
ATOM     45  C   UNL A   1      38.567  30.737  33.101  1.00  0.00     0.049 A 
ATOM     46  H   UNL A   1      39.754  29.705  31.719  1.00  0.00     0.167 HD
ATOM     47  C   UNL A   1      41.871  27.302  28.868  1.00  0.00     0.037 A 
ATOM     48  C   UNL A   1      39.348  31.089  34.146  1.00  0.00     0.037 A 
ATOM     49  C   UNL A   1      42.680  27.314  30.057  1.00  0.00     0.049 A 
ATOM     50  C   UNL A   1      40.726  30.484  34.211  1.00  0.00     0.074 A 
ATOM     51  C   UNL A   1      43.862  26.636  30.295  1.00  0.00     0.029 A 
ATOM     52  N   UNL A   1      42.393  28.036  31.207  1.00  0.00    -0.354 N 
ATOM     53  N   UNL A   1      41.348  29.763  33.313  1.00  0.00    -0.248 NA
ATOM     54  C   UNL A   1      41.465  30.638  35.475  1.00  0.00     0.031 C 
ATOM     55  C   UNL A   1      44.275  26.921  31.601  1.00  0.00     0.029 A 
ATOM     56  C   UNL A   1      43.376  27.814  32.159  1.00  0.00     0.049 A 
ATOM     57  H   UNL A   1      41.610  28.619  31.328  1.00  0.00     0.167 HD
ATOM     58  C   UNL A   1      42.508  29.317  33.925  1.00  0.00     0.074 A 
ATOM     59  C   UNL A   1      42.559  29.930  35.235  1.00  0.00     0.031 C 
ATOM     60  C   UNL A   1      43.412  28.422  33.464  1.00  0.00     0.037 A 
BRANCH  47  61
ATOM     61  C   UNL A   1      42.242  26.369  27.761  1.00  0.00     0.064 A 
ATOM     62  C   UNL A   1      43.130  26.733  26.743  1.00  0.00     0.173 A 
ATOM     63  C   UNL A   1      41.674  25.086  27.722  1.00  0.00     0.173 A 
ATOM     64  F   UNL A   1      43.668  27.962  26.725  1.00  0.00    -0.203 F 
ATOM     65  C   UNL A   1      43.421  25.851  25.708  1.00  0.00     0.198 A 
ATOM     66  C   UNL A   1      41.989  24.197  26.702  1.00  0.00     0.198 A 
ATOM     67  F   UNL A   1      40.807  24.699  28.671  1.00  0.00    -0.203 F 
ATOM     68  F   UNL A   1      44.231  26.236  24.712  1.00  0.00    -0.200 F 
ATOM     69  C   UNL A   1      42.857  24.584  25.692  1.00  0.00     0.200 A 
ATOM     70  F   UNL A   1      41.445  22.973  26.689  1.00  0.00    -0.200 F 
ATOM     71  F   UNL A   1      43.140  23.736  24.692  1.00  0.00    -0.200 F 
ENDBRANCH  47  61
BRANCH  48  72
ATOM     72  C   UNL A   1      38.874  31.968  35.260  1.00  0.00     0.064 A 
ATOM     73  C   UNL A   1      39.156  33.348  35.233  1.00  0.00     0.173 A 
ATOM     74  C   UNL A   1      38.218  31.478  36.396  1.00  0.00     0.173 A 
ATOM     75  F   UNL A   1      39.819  33.874  34.193  1.00  0.00    -0.203 F 
ATOM     76  C   UNL A   1      38.826  34.183  36.301  1.00  0.00     0.198 A 
ATOM     77  C   UNL A   1      37.842  32.323  37.443  1.00  0.00     0.198 A 
ATOM     78  F   UNL A   1      37.952  30.169  36.511  1.00  0.00    -0.203 F 
ATOM     79  F   UNL A   1      39.181  35.475  36.277  1.00  0.00    -0.200 F 
ATOM     80  C   UNL A   1      38.160  33.671  37.402  1.00  0.00     0.200 A 
ATOM     81  F   UNL A   1      37.189  31.824  38.501  1.00  0.00    -0.200 F 
ATOM     82  F   UNL A   1      37.841  34.471  38.430  1.00  0.00    -0.200 F 
ENDBRANCH  48  72
BRANCH  60  83
ATOM     83  C   UNL A   1      44.515  28.023  34.395  1.00  0.00     0.064 A 
ATOM     84  C   UNL A   1      44.383  26.909  35.239  1.00  0.00     0.173 A 
ATOM     85  C   UNL A   1      45.732  28.717  34.404  1.00  0.00     0.173 A 
ATOM     86  F   UNL A   1      43.230  26.225  35.281  1.00  0.00    -0.203 F 
ATOM     87  C   UNL A   1      45.430  26.511  36.066  1.00  0.00     0.198 A 
ATOM     88  C   UNL A   1      46.785  28.301  35.214  1.00  0.00     0.198 A 
ATOM     89  F   UNL A   1      45.905  29.787  33.614  1.00  0.00    -0.203 F 
ATOM     90  F   UNL A   1      45.272  25.464  36.886  1.00  0.00    -0.200 F 
ATOM     91  C   UNL A   1      46.632  27.201  36.044  1.00  0.00     0.200 A 
ATOM     92  F   UNL A   1      47.950  28.962  35.185  1.00  0.00    -0.200 F 
ATOM     93  F   UNL A   1      47.644  26.808  36.831  1.00  0.00    -0.200 F 
ENDBRANCH  60  83
ENDBRANCH  34  35
ENDBRANCH  27  29
ENDBRANCH  26  27
ENDBRANCH  25  26
ENDBRANCH   1  25
TORSDOF 16
ENDMDL
MODEL 3
REMARK VINA RESULT:     -12.0      0.738      7.362
REMARK SMILES O=C(CN(Cc1ccccc1Cl)S(=O)(=O)c1ccc(Cl)cc1)OCCOC(=O)c1ccc(-c2c3nc(c(-c4c(F)c(F)c(F)c(F)c4F)c4ccc([nH]4)c(-c4c(F)c(F)c(F)c(F)c4F)c4nc(c(-c5c(F)c(F)c(F)c(F)c5F)c5ccc2[nH]5)C=C4)C=C3)cc1
REMARK SMILES IDX 24 1 23 2 2 3 1 4 3 5 4 6 5 7 6 8 7 9 11 10 8 11 10 12 12 13
REMARK SMILES IDX 9 14 13 15 14 16 15 17 16 18 17 19 22 20 18 21 21 22 19 23
REMARK SMILES IDX 20 24 25 25 26 26 27 27 28 28 29 29 30 30 91 31 31 32 90 33
REMARK SMILES IDX 32 34 33 35 34 36 84 37 35 38 89 39 83 40 85 41 36 42 88 43
REMARK SMILES IDX 82 44 81 45 37 47 69 48 49 49 68 50 50 51 53 52 67 53 86 54
REMARK SMILES IDX 51 55 52 56 66 58 87 59 54 60 38 61 39 62 47 63 40 64 41 65
REMARK SMILES IDX 45 66 48 67 42 68 43 69 46 70 44 71 70 72 71 73 79 74 72 75
REMARK SMILES IDX 73 76 77 77 80 78 74 79 75 80 78 81 76 82 55 83 56 84 64 85
REMARK SMILES IDX 57 86 58 87 62 88 65 89 59 90 60 91 63 92 61 93
REMARK H PARENT 85 46 53 57
REMARK Flexibility Score: inf
ROOT
ATOM      1  C   UNL A   1      31.661  28.609  24.028  1.00  0.00     0.274 C 
ENDROOT
BRANCH   1   2
ATOM      2  O   UNL A   1      30.492  27.768  23.952  1.00  0.00    -0.461 OA
BRANCH   2   3
ATOM      3  C   UNL A   1      30.466  26.455  24.285  1.00  0.00     0.321 C 
ATOM      4  O   UNL A   1      30.013  26.099  25.370  1.00  0.00    -0.251 OA
BRANCH   3   5
ATOM      5  C   UNL A   1      31.067  25.463  23.325  1.00  0.00     0.225 C 
BRANCH   5   6
ATOM      6  N   UNL A   1      32.091  24.464  23.793  1.00  0.00    -0.182 NA
BRANCH   6   7
ATOM      7  C   UNL A   1      31.495  23.090  24.050  1.00  0.00     0.140 C 
BRANCH   7   8
ATOM      8  C   UNL A   1      32.017  22.378  25.274  1.00  0.00    -0.014 A 
ATOM      9  C   UNL A   1      31.903  22.914  26.557  1.00  0.00     0.006 A 
ATOM     10  C   UNL A   1      32.823  21.265  25.115  1.00  0.00     0.045 A 
ATOM     11  C   UNL A   1      32.799  22.540  27.561  1.00  0.00     0.000 A 
ATOM     12  C   UNL A   1      33.808  20.979  26.051  1.00  0.00     0.021 A 
ATOM     13  Cl  UNL A   1      32.496  20.214  23.794  1.00  0.00    -0.084 Cl
ATOM     14  C   UNL A   1      33.811  21.633  27.277  1.00  0.00     0.002 A 
ENDBRANCH   7   8
ENDBRANCH   6   7
BRANCH   6  15
ATOM     15  S   UNL A   1      33.498  24.557  22.803  1.00  0.00     0.243 S 
ATOM     16  O   UNL A   1      33.320  23.625  21.707  1.00  0.00    -0.207 OA
ATOM     17  O   UNL A   1      33.780  25.951  22.578  1.00  0.00    -0.207 OA
BRANCH  15  18
ATOM     18  C   UNL A   1      34.796  23.933  23.840  1.00  0.00     0.082 A 
ATOM     19  C   UNL A   1      35.677  22.981  23.319  1.00  0.00     0.023 A 
ATOM     20  C   UNL A   1      35.004  24.490  25.108  1.00  0.00     0.023 A 
ATOM     21  C   UNL A   1      36.824  22.650  24.040  1.00  0.00     0.022 A 
ATOM     22  C   UNL A   1      36.154  24.156  25.822  1.00  0.00     0.022 A 
ATOM     23  C   UNL A   1      37.066  23.252  25.277  1.00  0.00     0.041 A 
ATOM     24  Cl  UNL A   1      38.523  22.902  26.121  1.00  0.00    -0.084 Cl
ENDBRANCH  15  18
ENDBRANCH   6  15
ENDBRANCH   5   6
ENDBRANCH   3   5
ENDBRANCH   2   3
ENDBRANCH   1   2
BRANCH   1  25
ATOM     25  C   UNL A   1      31.621  29.509  25.272  1.00  0.00     0.275 C 
BRANCH  25  26
ATOM     26  O   UNL A   1      32.912  30.089  25.581  1.00  0.00    -0.458 OA
BRANCH  26  27
ATOM     27  C   UNL A   1      32.961  30.991  26.599  1.00  0.00     0.338 C 
ATOM     28  O   UNL A   1      32.109  31.814  26.883  1.00  0.00    -0.246 OA
BRANCH  27  29
ATOM     29  C   UNL A   1      34.169  30.744  27.429  1.00  0.00     0.060 A 
ATOM     30  C   UNL A   1      34.565  29.422  27.659  1.00  0.00     0.016 A 
ATOM     31  C   UNL A   1      34.952  31.794  27.931  1.00  0.00     0.016 A 
ATOM     32  C   UNL A   1      35.783  29.159  28.310  1.00  0.00     0.010 A 
ATOM     33  C   UNL A   1      36.173  31.523  28.584  1.00  0.00     0.010 A 
ATOM     34  C   UNL A   1      36.627  30.204  28.743  1.00  0.00    -0.014 A 
BRANCH  34  35
ATOM     35  C   UNL A   1      37.922  29.878  29.426  1.00  0.00     0.031 A 
ATOM     36  C   UNL A   1      38.056  30.189  30.880  1.00  0.00     0.074 A 
ATOM     37  C   UNL A   1      38.984  29.314  28.808  1.00  0.00     0.049 A 
ATOM     38  N   UNL A   1      39.086  29.995  31.661  1.00  0.00    -0.248 NA
ATOM     39  C   UNL A   1      36.931  30.892  31.508  1.00  0.00     0.031 C 
ATOM     40  C   UNL A   1      39.121  29.143  27.379  1.00  0.00     0.029 A 
ATOM     41  N   UNL A   1      40.133  28.722  29.295  1.00  0.00    -0.354 N 
ATOM     42  C   UNL A   1      38.787  30.666  32.832  1.00  0.00     0.074 A 
ATOM     43  C   UNL A   1      37.443  31.190  32.693  1.00  0.00     0.031 C 
ATOM     44  C   UNL A   1      40.118  28.287  27.109  1.00  0.00     0.029 A 
ATOM     45  C   UNL A   1      40.818  27.983  28.346  1.00  0.00     0.049 A 
ATOM     46  H   UNL A   1      40.435  28.816  30.228  1.00  0.00     0.167 HD
ATOM     47  C   UNL A   1      39.604  30.896  33.884  1.00  0.00     0.037 A 
ATOM     48  C   UNL A   1      41.901  27.182  28.453  1.00  0.00     0.037 A 
ATOM     49  C   UNL A   1      40.936  30.368  34.019  1.00  0.00     0.049 A 
ATOM     50  C   UNL A   1      42.692  27.261  29.732  1.00  0.00     0.074 A 
ATOM     51  C   UNL A   1      41.824  30.544  35.065  1.00  0.00     0.029 A 
ATOM     52  N   UNL A   1      41.572  29.566  33.084  1.00  0.00    -0.354 N 
ATOM     53  N   UNL A   1      42.402  27.898  30.838  1.00  0.00    -0.248 NA
ATOM     54  C   UNL A   1      44.013  26.610  29.743  1.00  0.00     0.031 C 
ATOM     55  C   UNL A   1      43.011  29.875  34.749  1.00  0.00     0.029 A 
ATOM     56  C   UNL A   1      42.845  29.243  33.528  1.00  0.00     0.049 A 
ATOM     57  H   UNL A   1      41.178  29.269  32.232  1.00  0.00     0.167 HD
ATOM     58  C   UNL A   1      43.525  27.791  31.641  1.00  0.00     0.074 A 
ATOM     59  C   UNL A   1      44.466  26.942  30.943  1.00  0.00     0.031 C 
ATOM     60  C   UNL A   1      43.777  28.404  32.821  1.00  0.00     0.037 A 
BRANCH  47  61
ATOM     61  C   UNL A   1      39.108  31.856  34.916  1.00  0.00     0.064 A 
ATOM     62  C   UNL A   1      39.286  33.238  34.797  1.00  0.00     0.173 A 
ATOM     63  C   UNL A   1      38.455  31.364  36.057  1.00  0.00     0.173 A 
ATOM     64  F   UNL A   1      39.936  33.746  33.739  1.00  0.00    -0.203 F 
ATOM     65  C   UNL A   1      38.846  34.098  35.798  1.00  0.00     0.198 A 
ATOM     66  C   UNL A   1      37.991  32.228  37.041  1.00  0.00     0.198 A 
ATOM     67  F   UNL A   1      38.274  30.044  36.219  1.00  0.00    -0.203 F 
ATOM     68  F   UNL A   1      39.073  35.415  35.694  1.00  0.00    -0.200 F 
ATOM     69  C   UNL A   1      38.193  33.594  36.914  1.00  0.00     0.200 A 
ATOM     70  F   UNL A   1      37.358  31.739  38.116  1.00  0.00    -0.200 F 
ATOM     71  F   UNL A   1      37.769  34.425  37.876  1.00  0.00    -0.200 F 
ENDBRANCH  47  61
BRANCH  48  72
ATOM     72  C   UNL A   1      42.382  26.305  27.340  1.00  0.00     0.064 A 
ATOM     73  C   UNL A   1      41.830  25.021  27.171  1.00  0.00     0.173 A 
ATOM     74  C   UNL A   1      43.430  26.662  26.482  1.00  0.00     0.173 A 
ATOM     75  F   UNL A   1      40.852  24.600  27.987  1.00  0.00    -0.203 F 
ATOM     76  C   UNL A   1      42.323  24.133  26.214  1.00  0.00     0.198 A 
ATOM     77  C   UNL A   1      43.889  25.792  25.491  1.00  0.00     0.198 A 
ATOM     78  F   UNL A   1      44.031  27.853  26.609  1.00  0.00    -0.203 F 
ATOM     79  F   UNL A   1      41.828  22.890  26.135  1.00  0.00    -0.200 F 
ATOM     80  C   UNL A   1      43.347  24.523  25.367  1.00  0.00     0.200 A 
ATOM     81  F   UNL A   1      44.873  26.179  24.668  1.00  0.00    -0.200 F 
ATOM     82  F   UNL A   1      43.823  23.672  24.447  1.00  0.00    -0.200 F 
ENDBRANCH  48  72
BRANCH  60  83
ATOM     83  C   UNL A   1      45.138  28.208  33.416  1.00  0.00     0.064 A 
ATOM     84  C   UNL A   1      45.406  27.126  34.270  1.00  0.00     0.173 A 
ATOM     85  C   UNL A   1      46.194  29.067  33.086  1.00  0.00     0.173 A 
ATOM     86  F   UNL A   1      44.423  26.289  34.630  1.00  0.00    -0.203 F 
ATOM     87  C   UNL A   1      46.685  26.919  34.779  1.00  0.00     0.198 A 
ATOM     88  C   UNL A   1      47.477  28.841  33.578  1.00  0.00     0.198 A 
ATOM     89  F   UNL A   1      45.986  30.113  32.274  1.00  0.00    -0.203 F 
ATOM     90  F   UNL A   1      46.913  25.898  35.617  1.00  0.00    -0.200 F 
ATOM     91  C   UNL A   1      47.720  27.770  34.425  1.00  0.00     0.200 A 
ATOM     92  F   UNL A   1      48.479  29.659  33.227  1.00  0.00    -0.200 F 
ATOM     93  F   UNL A   1      48.954  27.561  34.905  1.00  0.00    -0.200 F 
ENDBRANCH  60  83
ENDBRANCH  34  35
ENDBRANCH  27  29
ENDBRANCH  26  27
ENDBRANCH  25  26
ENDBRANCH   1  25
TORSDOF 16
ENDMDL
