MODEL 1
REMARK VINA RESULT:     -11.6      0.000      0.000
REMARK SMILES O=C(CN1C(=O)S/C(=C\c2cccc(F)c2)C1=O)NCC(=O)OCCOC(=O)c1ccc(-c2c3nc(c(-c4c(F)c(F)c(F)c(F)c4F)c4ccc([nH]4)c(-c4c(F)c(F)c(F)c(F)c4F)c4nc(c(-c5c(F)c(F)c(F)c(F)c5F)c5ccc2[nH]5)C=C4)C=C3)cc1
REMARK SMILES IDX 24 1 23 2 21 3 22 4 20 5 19 6 1 7 2 8 3 10 4 11 5 12 17 13
REMARK SMILES IDX 6 14 7 15 8 16 18 17 9 18 10 19 11 20 16 21 12 22 14 23
REMARK SMILES IDX 13 24 15 25 25 26 26 27 27 28 28 29 29 30 30 31 91 32 31 33
REMARK SMILES IDX 90 34 32 35 33 36 34 37 84 38 35 39 89 40 83 41 85 42 36 43
REMARK SMILES IDX 88 44 82 45 81 46 37 48 69 49 49 50 68 51 50 52 53 53 67 54
REMARK SMILES IDX 86 55 51 56 52 57 66 59 87 60 54 61 38 62 39 63 47 64 40 65
REMARK SMILES IDX 41 66 45 67 48 68 42 69 43 70 46 71 44 72 70 73 71 74 79 75
REMARK SMILES IDX 72 76 73 77 77 78 80 79 74 80 75 81 78 82 76 83 55 84 56 85
REMARK SMILES IDX 64 86 57 87 58 88 62 89 65 90 59 91 60 92 63 93 61 94
REMARK H PARENT 19 9 85 47 53 58
REMARK Flexibility Score: inf
ROOT
ATOM      1  C   UNL A   1      32.060  29.840  25.925  1.00  0.00     0.274 C 
ENDROOT
BRANCH   1   2
ATOM      2  O   UNL A   1      32.708  29.377  24.727  1.00  0.00    -0.461 OA
BRANCH   2   3
ATOM      3  C   UNL A   1      31.900  28.938  23.723  1.00  0.00     0.325 C 
ATOM      4  O   UNL A   1      32.122  29.087  22.526  1.00  0.00    -0.250 OA
BRANCH   3   5
ATOM      5  C   UNL A   1      30.648  28.246  24.253  1.00  0.00     0.238 C 
BRANCH   5   6
ATOM      6  N   UNL A   1      30.719  26.795  24.293  1.00  0.00    -0.344 N 
ATOM      7  O   UNL A   1      30.564  26.673  26.566  1.00  0.00    -0.273 OA
ATOM      8  C   UNL A   1      30.688  26.109  25.482  1.00  0.00     0.240 C 
ATOM      9  H   UNL A   1      30.791  26.293  23.449  1.00  0.00     0.164 HD
BRANCH   8  10
ATOM     10  C   UNL A   1      30.714  24.591  25.355  1.00  0.00     0.229 C 
BRANCH  10  11
ATOM     11  N   UNL A   1      32.049  24.113  25.651  1.00  0.00    -0.259 N 
ATOM     12  C   UNL A   1      32.306  23.449  26.818  1.00  0.00     0.294 C 
ATOM     13  C   UNL A   1      33.097  24.282  24.781  1.00  0.00     0.268 C 
ATOM     14  O   UNL A   1      31.509  23.196  27.704  1.00  0.00    -0.261 OA
ATOM     15  S   UNL A   1      33.987  22.969  26.883  1.00  0.00    -0.022 SA
ATOM     16  C   UNL A   1      34.318  23.624  25.328  1.00  0.00     0.083 C 
ATOM     17  O   UNL A   1      33.055  24.836  23.692  1.00  0.00    -0.268 OA
ATOM     18  C   UNL A   1      35.464  23.562  24.633  1.00  0.00     0.029 C 
BRANCH  18  19
ATOM     19  C   UNL A   1      36.686  22.862  25.049  1.00  0.00    -0.021 A 
ATOM     20  C   UNL A   1      37.664  23.512  25.817  1.00  0.00     0.008 A 
ATOM     21  C   UNL A   1      36.863  21.516  24.716  1.00  0.00     0.047 A 
ATOM     22  C   UNL A   1      38.819  22.836  26.220  1.00  0.00     0.004 A 
ATOM     23  C   UNL A   1      38.016  20.852  25.126  1.00  0.00     0.123 A 
ATOM     24  C   UNL A   1      38.996  21.500  25.869  1.00  0.00     0.039 A 
ATOM     25  F   UNL A   1      38.184  19.564  24.800  1.00  0.00    -0.207 F 
ENDBRANCH  18  19
ENDBRANCH  10  11
ENDBRANCH   8  10
ENDBRANCH   5   6
ENDBRANCH   3   5
ENDBRANCH   2   3
ENDBRANCH   1   2
BRANCH   1  26
ATOM     26  C   UNL A   1      32.717  29.224  27.164  1.00  0.00     0.275 C 
BRANCH  26  27
ATOM     27  O   UNL A   1      34.155  29.326  27.127  1.00  0.00    -0.458 OA
BRANCH  27  28
ATOM     28  C   UNL A   1      34.677  30.342  27.851  1.00  0.00     0.338 C 
ATOM     29  O   UNL A   1      34.113  31.361  28.211  1.00  0.00    -0.246 OA
BRANCH  28  30
ATOM     30  C   UNL A   1      36.024  29.977  28.313  1.00  0.00     0.060 A 
ATOM     31  C   UNL A   1      37.089  30.155  27.427  1.00  0.00     0.016 A 
ATOM     32  C   UNL A   1      36.232  29.402  29.565  1.00  0.00     0.016 A 
ATOM     33  C   UNL A   1      38.368  29.743  27.779  1.00  0.00     0.010 A 
ATOM     34  C   UNL A   1      37.525  29.015  29.931  1.00  0.00     0.010 A 
ATOM     35  C   UNL A   1      38.601  29.179  29.039  1.00  0.00    -0.014 A 
BRANCH  35  36
ATOM     36  C   UNL A   1      39.972  28.775  29.426  1.00  0.00     0.031 A 
ATOM     37  C   UNL A   1      40.799  29.656  30.312  1.00  0.00     0.074 A 
ATOM     38  C   UNL A   1      40.467  27.605  28.976  1.00  0.00     0.049 A 
ATOM     39  N   UNL A   1      42.056  29.534  30.658  1.00  0.00    -0.248 NA
ATOM     40  C   UNL A   1      40.128  30.832  30.886  1.00  0.00     0.031 C 
ATOM     41  C   UNL A   1      39.732  26.641  28.155  1.00  0.00     0.029 A 
ATOM     42  N   UNL A   1      41.702  27.031  29.139  1.00  0.00    -0.354 N 
ATOM     43  C   UNL A   1      42.330  30.622  31.474  1.00  0.00     0.074 A 
ATOM     44  C   UNL A   1      41.118  31.409  31.554  1.00  0.00     0.031 C 
ATOM     45  C   UNL A   1      40.526  25.592  27.896  1.00  0.00     0.029 A 
ATOM     46  C   UNL A   1      41.844  25.839  28.471  1.00  0.00     0.049 A 
ATOM     47  H   UNL A   1      42.417  27.434  29.684  1.00  0.00     0.167 HD
ATOM     48  C   UNL A   1      43.490  30.927  32.103  1.00  0.00     0.037 A 
ATOM     49  C   UNL A   1      42.926  25.054  28.306  1.00  0.00     0.037 A 
ATOM     50  C   UNL A   1      44.684  30.126  32.023  1.00  0.00     0.049 A 
ATOM     51  C   UNL A   1      44.229  25.466  28.932  1.00  0.00     0.074 A 
ATOM     52  C   UNL A   1      45.909  30.345  32.630  1.00  0.00     0.029 A 
ATOM     53  N   UNL A   1      44.806  28.953  31.290  1.00  0.00    -0.354 N 
ATOM     54  N   UNL A   1      44.487  26.504  29.690  1.00  0.00    -0.248 NA
ATOM     55  C   UNL A   1      45.394  24.609  28.671  1.00  0.00     0.031 C 
ATOM     56  C   UNL A   1      46.787  29.340  32.216  1.00  0.00     0.029 A 
ATOM     57  C   UNL A   1      46.094  28.456  31.404  1.00  0.00     0.049 A 
ATOM     58  H   UNL A   1      44.084  28.537  30.766  1.00  0.00     0.167 HD
ATOM     59  C   UNL A   1      45.833  26.415  30.016  1.00  0.00     0.074 A 
ATOM     60  C   UNL A   1      46.337  25.214  29.382  1.00  0.00     0.031 C 
ATOM     61  C   UNL A   1      46.580  27.253  30.774  1.00  0.00     0.037 A 
BRANCH  48  62
ATOM     62  C   UNL A   1      43.542  32.186  32.919  1.00  0.00     0.064 A 
ATOM     63  C   UNL A   1      43.187  32.165  34.277  1.00  0.00     0.173 A 
ATOM     64  C   UNL A   1      43.866  33.424  32.346  1.00  0.00     0.173 A 
ATOM     65  F   UNL A   1      42.862  31.009  34.874  1.00  0.00    -0.203 F 
ATOM     66  C   UNL A   1      43.136  33.339  35.024  1.00  0.00     0.198 A 
ATOM     67  C   UNL A   1      43.844  34.592  33.104  1.00  0.00     0.198 A 
ATOM     68  F   UNL A   1      44.222  33.498  31.055  1.00  0.00    -0.203 F 
ATOM     69  F   UNL A   1      42.757  33.298  36.309  1.00  0.00    -0.200 F 
ATOM     70  C   UNL A   1      43.469  34.551  34.439  1.00  0.00     0.200 A 
ATOM     71  F   UNL A   1      44.189  35.760  32.544  1.00  0.00    -0.200 F 
ATOM     72  F   UNL A   1      43.430  35.678  35.162  1.00  0.00    -0.200 F 
ENDBRANCH  48  62
BRANCH  49  73
ATOM     73  C   UNL A   1      42.812  23.810  27.501  1.00  0.00     0.064 A 
ATOM     74  C   UNL A   1      42.361  22.609  28.068  1.00  0.00     0.173 A 
ATOM     75  C   UNL A   1      43.195  23.791  26.153  1.00  0.00     0.173 A 
ATOM     76  F   UNL A   1      41.982  22.574  29.355  1.00  0.00    -0.203 F 
ATOM     77  C   UNL A   1      42.327  21.429  27.328  1.00  0.00     0.198 A 
ATOM     78  C   UNL A   1      43.131  22.616  25.404  1.00  0.00     0.198 A 
ATOM     79  F   UNL A   1      43.611  24.918  25.558  1.00  0.00    -0.203 F 
ATOM     80  F   UNL A   1      41.933  20.287  27.908  1.00  0.00    -0.200 F 
ATOM     81  C   UNL A   1      42.708  21.435  25.995  1.00  0.00     0.200 A 
ATOM     82  F   UNL A   1      43.476  22.631  24.110  1.00  0.00    -0.200 F 
ATOM     83  F   UNL A   1      42.667  20.303  25.279  1.00  0.00    -0.200 F 
ENDBRANCH  49  73
BRANCH  61  84
ATOM     84  C   UNL A   1      48.023  26.905  30.991  1.00  0.00     0.064 A 
ATOM     85  C   UNL A   1      49.013  27.430  30.145  1.00  0.00     0.173 A 
ATOM     86  C   UNL A   1      48.414  25.971  31.961  1.00  0.00     0.173 A 
ATOM     87  F   UNL A   1      48.688  28.321  29.196  1.00  0.00    -0.203 F 
ATOM     88  C   UNL A   1      50.336  27.009  30.242  1.00  0.00     0.198 A 
ATOM     89  C   UNL A   1      49.744  25.574  32.075  1.00  0.00     0.198 A 
ATOM     90  F   UNL A   1      47.509  25.451  32.803  1.00  0.00    -0.203 F 
ATOM     91  F   UNL A   1      51.253  27.485  29.390  1.00  0.00    -0.200 F 
ATOM     92  C   UNL A   1      50.700  26.082  31.206  1.00  0.00     0.200 A 
ATOM     93  F   UNL A   1      50.100  24.696  33.022  1.00  0.00    -0.200 F 
ATOM     94  F   UNL A   1      51.974  25.676  31.298  1.00  0.00    -0.200 F 
ENDBRANCH  61  84
ENDBRANCH  35  36
ENDBRANCH  28  30
ENDBRANCH  27  28
ENDBRANCH  26  27
ENDBRANCH   1  26
TORSDOF 15
ENDMDL
MODEL 2
REMARK VINA RESULT:     -11.5      2.854      7.733
REMARK SMILES O=C(CN1C(=O)S/C(=C\c2cccc(F)c2)C1=O)NCC(=O)OCCOC(=O)c1ccc(-c2c3nc(c(-c4c(F)c(F)c(F)c(F)c4F)c4ccc([nH]4)c(-c4c(F)c(F)c(F)c(F)c4F)c4nc(c(-c5c(F)c(F)c(F)c(F)c5F)c5ccc2[nH]5)C=C4)C=C3)cc1
REMARK SMILES IDX 24 1 23 2 21 3 22 4 20 5 19 6 1 7 2 8 3 10 4 11 5 12 17 13
REMARK SMILES IDX 6 14 7 15 8 16 18 17 9 18 10 19 11 20 16 21 12 22 14 23
REMARK SMILES IDX 13 24 15 25 25 26 26 27 27 28 28 29 29 30 30 31 91 32 31 33
REMARK SMILES IDX 90 34 32 35 33 36 34 37 84 38 35 39 89 40 83 41 85 42 36 43
REMARK SMILES IDX 88 44 82 45 81 46 37 48 69 49 49 50 68 51 50 52 53 53 67 54
REMARK SMILES IDX 86 55 51 56 52 57 66 59 87 60 54 61 38 62 39 63 47 64 40 65
REMARK SMILES IDX 41 66 45 67 48 68 42 69 43 70 46 71 44 72 70 73 71 74 79 75
REMARK SMILES IDX 72 76 73 77 77 78 80 79 74 80 75 81 78 82 76 83 55 84 56 85
REMARK SMILES IDX 64 86 57 87 58 88 62 89 65 90 59 91 60 92 63 93 61 94
REMARK H PARENT 19 9 85 47 53 58
REMARK Flexibility Score: inf
ROOT
ATOM      1  C   UNL A   1      31.417  28.837  25.155  1.00  0.00     0.274 C 
ENDROOT
BRANCH   1   2
ATOM      2  O   UNL A   1      30.847  29.103  23.861  1.00  0.00    -0.461 OA
BRANCH   2   3
ATOM      3  C   UNL A   1      30.410  28.027  23.150  1.00  0.00     0.325 C 
ATOM      4  O   UNL A   1      30.631  27.836  21.959  1.00  0.00    -0.250 OA
BRANCH   3   5
ATOM      5  C   UNL A   1      29.579  27.072  24.002  1.00  0.00     0.238 C 
BRANCH   5   6
ATOM      6  N   UNL A   1      30.055  25.699  24.027  1.00  0.00    -0.344 N 
ATOM      7  O   UNL A   1      30.155  25.588  26.304  1.00  0.00    -0.273 OA
ATOM      8  C   UNL A   1      30.329  25.057  25.209  1.00  0.00     0.240 C 
ATOM      9  H   UNL A   1      30.184  25.219  23.177  1.00  0.00     0.164 HD
BRANCH   8  10
ATOM     10  C   UNL A   1      30.764  23.604  25.072  1.00  0.00     0.229 C 
BRANCH  10  11
ATOM     11  N   UNL A   1      32.140  23.477  25.508  1.00  0.00    -0.259 N 
ATOM     12  C   UNL A   1      32.429  23.122  26.796  1.00  0.00     0.294 C 
ATOM     13  C   UNL A   1      33.199  23.684  24.660  1.00  0.00     0.268 C 
ATOM     14  O   UNL A   1      31.631  22.889  27.686  1.00  0.00    -0.261 OA
ATOM     15  S   UNL A   1      34.161  23.019  27.020  1.00  0.00    -0.022 SA
ATOM     16  C   UNL A   1      34.479  23.411  25.375  1.00  0.00     0.083 C 
ATOM     17  O   UNL A   1      33.134  23.994  23.480  1.00  0.00    -0.268 OA
ATOM     18  C   UNL A   1      35.664  23.450  24.750  1.00  0.00     0.029 C 
BRANCH  18  19
ATOM     19  C   UNL A   1      36.963  23.112  25.345  1.00  0.00    -0.021 A 
ATOM     20  C   UNL A   1      37.668  24.045  26.121  1.00  0.00     0.008 A 
ATOM     21  C   UNL A   1      37.490  21.828  25.179  1.00  0.00     0.047 A 
ATOM     22  C   UNL A   1      38.897  23.712  26.695  1.00  0.00     0.004 A 
ATOM     23  C   UNL A   1      38.714  21.506  25.758  1.00  0.00     0.123 A 
ATOM     24  C   UNL A   1      39.424  22.437  26.509  1.00  0.00     0.039 A 
ATOM     25  F   UNL A   1      39.218  20.277  25.591  1.00  0.00    -0.207 F 
ENDBRANCH  18  19
ENDBRANCH  10  11
ENDBRANCH   8  10
ENDBRANCH   5   6
ENDBRANCH   3   5
ENDBRANCH   2   3
ENDBRANCH   1   2
BRANCH   1  26
ATOM     26  C   UNL A   1      31.784  30.145  25.862  1.00  0.00     0.275 C 
BRANCH  26  27
ATOM     27  O   UNL A   1      33.178  30.198  26.225  1.00  0.00    -0.458 OA
BRANCH  27  28
ATOM     28  C   UNL A   1      33.538  31.271  26.965  1.00  0.00     0.338 C 
ATOM     29  O   UNL A   1      32.945  32.331  27.070  1.00  0.00    -0.246 OA
BRANCH  28  30
ATOM     30  C   UNL A   1      34.699  30.928  27.799  1.00  0.00     0.060 A 
ATOM     31  C   UNL A   1      35.659  31.918  28.018  1.00  0.00     0.016 A 
ATOM     32  C   UNL A   1      34.882  29.639  28.296  1.00  0.00     0.016 A 
ATOM     33  C   UNL A   1      36.819  31.622  28.722  1.00  0.00     0.010 A 
ATOM     34  C   UNL A   1      36.036  29.350  29.031  1.00  0.00     0.010 A 
ATOM     35  C   UNL A   1      37.014  30.339  29.245  1.00  0.00    -0.014 A 
BRANCH  35  36
ATOM     36  C   UNL A   1      38.236  30.036  30.028  1.00  0.00     0.031 A 
ATOM     37  C   UNL A   1      39.302  29.151  29.455  1.00  0.00     0.074 A 
ATOM     38  C   UNL A   1      38.380  30.567  31.257  1.00  0.00     0.049 A 
ATOM     39  N   UNL A   1      40.376  28.674  30.029  1.00  0.00    -0.248 NA
ATOM     40  C   UNL A   1      39.139  28.745  28.051  1.00  0.00     0.031 C 
ATOM     41  C   UNL A   1      37.435  31.487  31.891  1.00  0.00     0.029 A 
ATOM     42  N   UNL A   1      39.370  30.408  32.193  1.00  0.00    -0.354 N 
ATOM     43  C   UNL A   1      41.008  27.901  29.066  1.00  0.00     0.074 A 
ATOM     44  C   UNL A   1      40.186  27.950  27.875  1.00  0.00     0.031 C 
ATOM     45  C   UNL A   1      37.896  31.819  33.107  1.00  0.00     0.029 A 
ATOM     46  C   UNL A   1      39.129  31.082  33.365  1.00  0.00     0.049 A 
ATOM     47  H   UNL A   1      40.176  29.863  32.039  1.00  0.00     0.167 HD
ATOM     48  C   UNL A   1      42.174  27.220  29.170  1.00  0.00     0.037 A 
ATOM     49  C   UNL A   1      39.804  31.077  34.530  1.00  0.00     0.037 A 
ATOM     50  C   UNL A   1      42.987  27.191  30.359  1.00  0.00     0.049 A 
ATOM     51  C   UNL A   1      41.042  30.232  34.653  1.00  0.00     0.074 A 
ATOM     52  C   UNL A   1      44.190  26.537  30.563  1.00  0.00     0.029 A 
ATOM     53  N   UNL A   1      42.680  27.843  31.545  1.00  0.00    -0.354 N 
ATOM     54  N   UNL A   1      41.627  29.491  33.744  1.00  0.00    -0.248 NA
ATOM     55  C   UNL A   1      41.707  30.212  35.964  1.00  0.00     0.031 C 
ATOM     56  C   UNL A   1      44.579  26.742  31.888  1.00  0.00     0.029 A 
ATOM     57  C   UNL A   1      43.655  27.579  32.494  1.00  0.00     0.049 A 
ATOM     58  H   UNL A   1      41.888  28.408  31.692  1.00  0.00     0.167 HD
ATOM     59  C   UNL A   1      42.739  28.935  34.361  1.00  0.00     0.074 A 
ATOM     60  C   UNL A   1      42.754  29.432  35.721  1.00  0.00     0.031 C 
ATOM     61  C   UNL A   1      43.663  28.090  33.843  1.00  0.00     0.037 A 
BRANCH  48  62
ATOM     62  C   UNL A   1      42.640  26.430  27.982  1.00  0.00     0.064 A 
ATOM     63  C   UNL A   1      43.402  27.047  26.976  1.00  0.00     0.173 A 
ATOM     64  C   UNL A   1      42.270  25.090  27.794  1.00  0.00     0.173 A 
ATOM     65  F   UNL A   1      43.777  28.329  27.101  1.00  0.00    -0.203 F 
ATOM     66  C   UNL A   1      43.760  26.356  25.821  1.00  0.00     0.198 A 
ATOM     67  C   UNL A   1      42.657  24.394  26.651  1.00  0.00     0.198 A 
ATOM     68  F   UNL A   1      41.551  24.452  28.728  1.00  0.00    -0.203 F 
ATOM     69  F   UNL A   1      44.456  26.978  24.859  1.00  0.00    -0.200 F 
ATOM     70  C   UNL A   1      43.392  25.030  25.662  1.00  0.00     0.200 A 
ATOM     71  F   UNL A   1      42.321  23.104  26.509  1.00  0.00    -0.200 F 
ATOM     72  F   UNL A   1      43.746  24.363  24.555  1.00  0.00    -0.200 F 
ENDBRANCH  48  62
BRANCH  49  73
ATOM     73  C   UNL A   1      39.305  31.890  35.669  1.00  0.00     0.064 A 
ATOM     74  C   UNL A   1      38.396  31.366  36.601  1.00  0.00     0.173 A 
ATOM     75  C   UNL A   1      39.695  33.228  35.822  1.00  0.00     0.173 A 
ATOM     76  F   UNL A   1      37.990  30.091  36.500  1.00  0.00    -0.203 F 
ATOM     77  C   UNL A   1      37.874  32.156  37.623  1.00  0.00     0.198 A 
ATOM     78  C   UNL A   1      39.196  34.008  36.863  1.00  0.00     0.198 A 
ATOM     79  F   UNL A   1      40.578  33.768  34.970  1.00  0.00    -0.203 F 
ATOM     80  F   UNL A   1      36.974  31.641  38.473  1.00  0.00    -0.200 F 
ATOM     81  C   UNL A   1      38.278  33.475  37.756  1.00  0.00     0.200 A 
ATOM     82  F   UNL A   1      39.607  35.275  37.003  1.00  0.00    -0.200 F 
ATOM     83  F   UNL A   1      37.783  34.233  38.744  1.00  0.00    -0.200 F 
ENDBRANCH  49  73
BRANCH  61  84
ATOM     84  C   UNL A   1      44.791  27.655  34.731  1.00  0.00     0.064 A 
ATOM     85  C   UNL A   1      44.660  26.509  35.532  1.00  0.00     0.173 A 
ATOM     86  C   UNL A   1      45.952  28.427  34.872  1.00  0.00     0.173 A 
ATOM     87  F   UNL A   1      43.564  25.740  35.439  1.00  0.00    -0.203 F 
ATOM     88  C   UNL A   1      45.637  26.170  36.463  1.00  0.00     0.198 A 
ATOM     89  C   UNL A   1      46.942  28.069  35.784  1.00  0.00     0.198 A 
ATOM     90  F   UNL A   1      46.131  29.523  34.119  1.00  0.00    -0.203 F 
ATOM     91  F   UNL A   1      45.466  25.102  37.253  1.00  0.00    -0.200 F 
ATOM     92  C   UNL A   1      46.776  26.950  36.588  1.00  0.00     0.200 A 
ATOM     93  F   UNL A   1      48.054  28.809  35.888  1.00  0.00    -0.200 F 
ATOM     94  F   UNL A   1      47.716  26.624  37.487  1.00  0.00    -0.200 F 
ENDBRANCH  61  84
ENDBRANCH  35  36
ENDBRANCH  28  30
ENDBRANCH  27  28
ENDBRANCH  26  27
ENDBRANCH   1  26
TORSDOF 15
ENDMDL
MODEL 3
REMARK VINA RESULT:     -11.5      3.707      7.154
REMARK SMILES O=C(CN1C(=O)S/C(=C\c2cccc(F)c2)C1=O)NCC(=O)OCCOC(=O)c1ccc(-c2c3nc(c(-c4c(F)c(F)c(F)c(F)c4F)c4ccc([nH]4)c(-c4c(F)c(F)c(F)c(F)c4F)c4nc(c(-c5c(F)c(F)c(F)c(F)c5F)c5ccc2[nH]5)C=C4)C=C3)cc1
REMARK SMILES IDX 24 1 23 2 21 3 22 4 20 5 19 6 1 7 2 8 3 10 4 11 5 12 17 13
REMARK SMILES IDX 6 14 7 15 8 16 18 17 9 18 10 19 11 20 16 21 12 22 14 23
REMARK SMILES IDX 13 24 15 25 25 26 26 27 27 28 28 29 29 30 30 31 91 32 31 33
REMARK SMILES IDX 90 34 32 35 33 36 34 37 84 38 35 39 89 40 83 41 85 42 36 43
REMARK SMILES IDX 88 44 82 45 81 46 37 48 69 49 49 50 68 51 50 52 53 53 67 54
REMARK SMILES IDX 86 55 51 56 52 57 66 59 87 60 54 61 38 62 39 63 47 64 40 65
REMARK SMILES IDX 41 66 45 67 48 68 42 69 43 70 46 71 44 72 70 73 71 74 79 75
REMARK SMILES IDX 72 76 73 77 77 78 80 79 74 80 75 81 78 82 76 83 55 84 56 85
REMARK SMILES IDX 64 86 57 87 58 88 62 89 65 90 59 91 60 92 63 93 61 94
REMARK H PARENT 19 9 85 47 53 58
REMARK Flexibility Score: inf
ROOT
ATOM      1  C   UNL A   1      34.775  21.089  25.662  1.00  0.00     0.274 C 
ENDROOT
BRANCH   1   2
ATOM      2  O   UNL A   1      33.952  21.748  24.682  1.00  0.00    -0.461 OA
BRANCH   2   3
ATOM      3  C   UNL A   1      32.782  21.135  24.352  1.00  0.00     0.325 C 
ATOM      4  O   UNL A   1      32.191  20.324  25.055  1.00  0.00    -0.250 OA
BRANCH   3   5
ATOM      5  C   UNL A   1      32.282  21.554  22.973  1.00  0.00     0.238 C 
BRANCH   5   6
ATOM      6  N   UNL A   1      31.729  22.897  22.902  1.00  0.00    -0.344 N 
ATOM      7  O   UNL A   1      33.644  23.833  22.086  1.00  0.00    -0.273 OA
ATOM      8  C   UNL A   1      32.483  23.960  22.469  1.00  0.00     0.240 C 
ATOM      9  H   UNL A   1      30.794  23.047  23.171  1.00  0.00     0.164 HD
BRANCH   8  10
ATOM     10  C   UNL A   1      31.746  25.291  22.398  1.00  0.00     0.229 C 
BRANCH  10  11
ATOM     11  N   UNL A   1      32.457  26.271  23.193  1.00  0.00    -0.259 N 
ATOM     12  C   UNL A   1      33.354  27.120  22.608  1.00  0.00     0.294 C 
ATOM     13  C   UNL A   1      32.253  26.405  24.544  1.00  0.00     0.268 C 
ATOM     14  O   UNL A   1      33.660  27.159  21.430  1.00  0.00    -0.261 OA
ATOM     15  S   UNL A   1      34.029  28.204  23.804  1.00  0.00    -0.022 SA
ATOM     16  C   UNL A   1      33.070  27.537  25.067  1.00  0.00     0.083 C 
ATOM     17  O   UNL A   1      31.487  25.747  25.232  1.00  0.00    -0.268 OA
ATOM     18  C   UNL A   1      32.988  27.942  26.343  1.00  0.00     0.029 C 
BRANCH  18  19
ATOM     19  C   UNL A   1      33.683  29.097  26.926  1.00  0.00    -0.021 A 
ATOM     20  C   UNL A   1      35.013  28.996  27.362  1.00  0.00     0.008 A 
ATOM     21  C   UNL A   1      33.030  30.330  27.010  1.00  0.00     0.047 A 
ATOM     22  C   UNL A   1      35.672  30.102  27.904  1.00  0.00     0.004 A 
ATOM     23  C   UNL A   1      33.698  31.427  27.548  1.00  0.00     0.123 A 
ATOM     24  C   UNL A   1      35.009  31.323  28.000  1.00  0.00     0.039 A 
ATOM     25  F   UNL A   1      33.067  32.605  27.632  1.00  0.00    -0.207 F 
ENDBRANCH  18  19
ENDBRANCH  10  11
ENDBRANCH   8  10
ENDBRANCH   5   6
ENDBRANCH   3   5
ENDBRANCH   2   3
ENDBRANCH   1   2
BRANCH   1  26
ATOM     26  C   UNL A   1      36.221  20.986  25.169  1.00  0.00     0.275 C 
BRANCH  26  27
ATOM     27  O   UNL A   1      37.072  21.990  25.759  1.00  0.00    -0.458 OA
BRANCH  27  28
ATOM     28  C   UNL A   1      38.354  21.608  25.963  1.00  0.00     0.338 C 
ATOM     29  O   UNL A   1      38.866  20.544  25.660  1.00  0.00    -0.246 OA
BRANCH  28  30
ATOM     30  C   UNL A   1      39.133  22.746  26.468  1.00  0.00     0.060 A 
ATOM     31  C   UNL A   1      38.786  24.024  26.021  1.00  0.00     0.016 A 
ATOM     32  C   UNL A   1      40.232  22.562  27.306  1.00  0.00     0.016 A 
ATOM     33  C   UNL A   1      39.546  25.125  26.395  1.00  0.00     0.010 A 
ATOM     34  C   UNL A   1      40.978  23.675  27.706  1.00  0.00     0.010 A 
ATOM     35  C   UNL A   1      40.642  24.963  27.250  1.00  0.00    -0.014 A 
BRANCH  35  36
ATOM     36  C   UNL A   1      41.428  26.145  27.677  1.00  0.00     0.031 A 
ATOM     37  C   UNL A   1      40.808  27.187  28.558  1.00  0.00     0.074 A 
ATOM     38  C   UNL A   1      42.705  26.270  27.269  1.00  0.00     0.049 A 
ATOM     39  N   UNL A   1      41.291  28.344  28.934  1.00  0.00    -0.248 NA
ATOM     40  C   UNL A   1      39.468  26.894  29.086  1.00  0.00     0.031 C 
ATOM     41  C   UNL A   1      43.429  25.289  26.458  1.00  0.00     0.029 A 
ATOM     42  N   UNL A   1      43.619  27.272  27.474  1.00  0.00    -0.354 N 
ATOM     43  C   UNL A   1      40.310  28.923  29.727  1.00  0.00     0.074 A 
ATOM     44  C   UNL A   1      39.193  28.003  29.760  1.00  0.00     0.031 C 
ATOM     45  C   UNL A   1      44.676  25.733  26.244  1.00  0.00     0.029 A 
ATOM     46  C   UNL A   1      44.818  27.058  26.840  1.00  0.00     0.049 A 
ATOM     47  H   UNL A   1      43.433  28.069  28.022  1.00  0.00     0.167 HD
ATOM     48  C   UNL A   1      40.349  30.113  30.372  1.00  0.00     0.037 A 
ATOM     49  C   UNL A   1      45.897  27.855  26.719  1.00  0.00     0.037 A 
ATOM     50  C   UNL A   1      41.474  31.012  30.338  1.00  0.00     0.049 A 
ATOM     51  C   UNL A   1      45.876  29.214  27.361  1.00  0.00     0.074 A 
ATOM     52  C   UNL A   1      41.614  32.238  30.966  1.00  0.00     0.029 A 
ATOM     53  N   UNL A   1      42.651  30.784  29.639  1.00  0.00    -0.354 N 
ATOM     54  N   UNL A   1      44.941  29.763  28.097  1.00  0.00    -0.248 NA
ATOM     55  C   UNL A   1      47.052  30.070  27.148  1.00  0.00     0.031 C 
ATOM     56  C   UNL A   1      42.849  32.777  30.597  1.00  0.00     0.029 A 
ATOM     57  C   UNL A   1      43.508  31.861  29.794  1.00  0.00     0.049 A 
ATOM     58  H   UNL A   1      42.847  29.977  29.111  1.00  0.00     0.167 HD
ATOM     59  C   UNL A   1      45.420  31.015  28.455  1.00  0.00     0.074 A 
ATOM     60  C   UNL A   1      46.736  31.142  27.863  1.00  0.00     0.031 C 
ATOM     61  C   UNL A   1      44.821  31.970  29.207  1.00  0.00     0.037 A 
BRANCH  48  62
ATOM     62  C   UNL A   1      39.139  30.532  31.155  1.00  0.00     0.064 A 
ATOM     63  C   UNL A   1      38.147  31.326  30.557  1.00  0.00     0.173 A 
ATOM     64  C   UNL A   1      38.994  30.217  32.514  1.00  0.00     0.173 A 
ATOM     65  F   UNL A   1      38.240  31.662  29.262  1.00  0.00    -0.203 F 
ATOM     66  C   UNL A   1      37.068  31.804  31.295  1.00  0.00     0.198 A 
ATOM     67  C   UNL A   1      37.896  30.672  33.242  1.00  0.00     0.198 A 
ATOM     68  F   UNL A   1      39.907  29.453  33.131  1.00  0.00    -0.203 F 
ATOM     69  F   UNL A   1      36.154  32.592  30.711  1.00  0.00    -0.200 F 
ATOM     70  C   UNL A   1      36.940  31.473  32.635  1.00  0.00     0.200 A 
ATOM     71  F   UNL A   1      37.762  30.331  34.531  1.00  0.00    -0.200 F 
ATOM     72  F   UNL A   1      35.896  31.925  33.342  1.00  0.00    -0.200 F 
ENDBRANCH  48  62
BRANCH  49  73
ATOM     73  C   UNL A   1      47.074  27.382  25.944  1.00  0.00     0.064 A 
ATOM     74  C   UNL A   1      48.151  26.735  26.570  1.00  0.00     0.173 A 
ATOM     75  C   UNL A   1      47.162  27.609  24.564  1.00  0.00     0.173 A 
ATOM     76  F   UNL A   1      48.115  26.493  27.889  1.00  0.00    -0.203 F 
ATOM     77  C   UNL A   1      49.283  26.360  25.850  1.00  0.00     0.198 A 
ATOM     78  C   UNL A   1      48.283  27.206  23.840  1.00  0.00     0.198 A 
ATOM     79  F   UNL A   1      46.150  28.203  23.917  1.00  0.00    -0.203 F 
ATOM     80  F   UNL A   1      50.315  25.783  26.481  1.00  0.00    -0.200 F 
ATOM     81  C   UNL A   1      49.347  26.592  24.485  1.00  0.00     0.200 A 
ATOM     82  F   UNL A   1      48.331  27.409  22.517  1.00  0.00    -0.200 F 
ATOM     83  F   UNL A   1      50.432  26.225  23.791  1.00  0.00    -0.200 F 
ENDBRANCH  49  73
BRANCH  61  84
ATOM     84  C   UNL A   1      45.580  33.239  29.464  1.00  0.00     0.064 A 
ATOM     85  C   UNL A   1      46.402  33.355  30.596  1.00  0.00     0.173 A 
ATOM     86  C   UNL A   1      45.410  34.371  28.656  1.00  0.00     0.173 A 
ATOM     87  F   UNL A   1      46.592  32.301  31.405  1.00  0.00    -0.203 F 
ATOM     88  C   UNL A   1      47.001  34.567  30.926  1.00  0.00     0.198 A 
ATOM     89  C   UNL A   1      46.034  35.575  28.972  1.00  0.00     0.198 A 
ATOM     90  F   UNL A   1      44.646  34.307  27.555  1.00  0.00    -0.203 F 
ATOM     91  F   UNL A   1      47.739  34.667  32.039  1.00  0.00    -0.200 F 
ATOM     92  C   UNL A   1      46.817  35.675  30.114  1.00  0.00     0.200 A 
ATOM     93  F   UNL A   1      45.875  36.640  28.175  1.00  0.00    -0.200 F 
ATOM     94  F   UNL A   1      47.392  36.843  30.434  1.00  0.00    -0.200 F 
ENDBRANCH  61  84
ENDBRANCH  35  36
ENDBRANCH  28  30
ENDBRANCH  27  28
ENDBRANCH  26  27
ENDBRANCH   1  26
TORSDOF 15
ENDMDL
