MODEL 1
REMARK VINA RESULT:     -12.4      0.000      0.000
REMARK SMILES CC(C)C[C@H](NC(=O)[C@H](Cc1ccccc1)NC(=O)CNC(=O)C[NH3+])C(=O)OCCOC(=O)c1ccc(-c2c3nc(c(-c4c(F)c(F)c(F)c(F)c4F)c4ccc([nH]4)c(-c4c(F)c(F)c(F)c(F)c4F)c4nc(c(-c5c(F)c(F)c(F)c(F)c5F)c5ccc2[nH]5)C=C4)C=C3)cc1
REMARK SMILES IDX 26 1 27 2 5 3 4 4 2 5 1 6 3 7 6 8 7 9 8 11 9 12 17 13 18 14
REMARK SMILES IDX 19 16 20 17 21 18 22 19 23 21 24 22 25 23 10 27 11 28 12 29
REMARK SMILES IDX 16 30 13 31 15 32 14 33 28 34 29 35 30 36 31 37 32 38 33 39
REMARK SMILES IDX 34 40 35 41 96 42 36 43 95 44 37 45 38 46 39 47 89 48 40 49
REMARK SMILES IDX 94 50 88 51 90 52 41 53 93 54 87 55 86 56 42 58 74 59 54 60
REMARK SMILES IDX 73 61 55 62 58 63 72 64 91 65 56 66 57 67 71 69 92 70 59 71
REMARK SMILES IDX 43 72 44 73 52 74 45 75 46 76 50 77 53 78 47 79 48 80 51 81
REMARK SMILES IDX 49 82 75 83 76 84 84 85 77 86 78 87 82 88 85 89 79 90 80 91
REMARK SMILES IDX 83 92 81 93 60 94 61 95 69 96 62 97 63 98 67 99 70 100
REMARK SMILES IDX 64 101 65 102 68 103 66 104
REMARK H PARENT 6 10 17 15 21 20 25 24 25 25 25 26 90 57 58 68
REMARK Flexibility Score: inf
ROOT
ATOM      1  C   UNL A   1      32.560  28.342  24.576  1.00  0.00     0.328 C 
ATOM      2  O   UNL A   1      33.471  27.758  25.151  1.00  0.00    -0.250 OA
ENDROOT
BRANCH   1   3
ATOM      3  C   UNL A   1      32.079  27.947  23.107  1.00  0.00     0.192 C 
BRANCH   3   4
ATOM      4  C   UNL A   1      30.560  27.608  23.099  1.00  0.00     0.040 C 
BRANCH   4   5
ATOM      5  C   UNL A   1      29.474  28.716  23.120  1.00  0.00    -0.015 C 
ATOM      6  C   UNL A   1      29.511  29.762  22.014  1.00  0.00     0.007 C 
ATOM      7  C   UNL A   1      28.089  28.056  23.098  1.00  0.00     0.007 C 
ENDBRANCH   4   5
ENDBRANCH   3   4
BRANCH   3   8
ATOM      8  N   UNL A   1      32.798  27.266  21.997  1.00  0.00    -0.341 N 
ATOM      9  C   UNL A   1      32.903  25.959  21.598  1.00  0.00     0.243 C 
ATOM     10  H   UNL A   1      33.306  27.887  21.426  1.00  0.00     0.164 HD
ATOM     11  O   UNL A   1      32.955  25.714  20.392  1.00  0.00    -0.273 OA
BRANCH   9  12
ATOM     12  C   UNL A   1      33.199  24.894  22.647  1.00  0.00     0.175 C 
BRANCH  12  13
ATOM     13  N   UNL A   1      33.935  25.267  23.857  1.00  0.00    -0.342 N 
ATOM     14  C   UNL A   1      34.975  24.583  24.451  1.00  0.00     0.240 C 
ATOM     15  H   UNL A   1      33.652  26.101  24.298  1.00  0.00     0.164 HD
ATOM     16  O   UNL A   1      35.179  24.759  25.654  1.00  0.00    -0.273 OA
BRANCH  14  17
ATOM     17  C   UNL A   1      35.860  23.610  23.634  1.00  0.00     0.216 C 
BRANCH  17  18
ATOM     18  N   UNL A   1      35.901  22.244  24.119  1.00  0.00    -0.342 N 
ATOM     19  C   UNL A   1      36.719  21.650  25.033  1.00  0.00     0.275 C 
ATOM     20  H   UNL A   1      35.225  21.647  23.723  1.00  0.00     0.164 HD
ATOM     21  O   UNL A   1      36.493  20.456  25.276  1.00  0.00    -0.268 OA
BRANCH  19  22
ATOM     22  C   UNL A   1      37.957  22.300  25.680  1.00  0.00     0.360 C 
BRANCH  22  23
ATOM     23  N   UNL A   1      39.195  21.511  25.694  1.00  0.00    -0.350 N 
ATOM     24  H   UNL A   1      38.994  20.554  25.404  1.00  0.00     0.344 HD
ATOM     25  H   UNL A   1      39.584  21.505  26.638  1.00  0.00     0.344 HD
ATOM     26  H   UNL A   1      39.870  21.926  25.052  1.00  0.00     0.344 HD
ENDBRANCH  22  23
ENDBRANCH  19  22
ENDBRANCH  17  18
ENDBRANCH  14  17
ENDBRANCH  12  13
BRANCH  12  27
ATOM     27  C   UNL A   1      31.841  24.216  22.919  1.00  0.00     0.070 C 
BRANCH  27  28
ATOM     28  C   UNL A   1      31.993  22.762  23.270  1.00  0.00    -0.045 A 
ATOM     29  C   UNL A   1      32.243  22.357  25.006  1.00  0.00     0.004 A 
ATOM     30  C   UNL A   1      31.957  21.429  22.041  1.00  0.00     0.004 A 
ATOM     31  C   UNL A   1      32.482  20.658  25.507  1.00  0.00     0.000 A 
ATOM     32  C   UNL A   1      32.217  19.698  22.558  1.00  0.00     0.000 A 
ATOM     33  C   UNL A   1      32.458  19.325  24.299  1.00  0.00     0.000 A 
ENDBRANCH  27  28
ENDBRANCH  12  27
ENDBRANCH   9  12
ENDBRANCH   3   8
ENDBRANCH   1   3
BRANCH   1  34
ATOM     34  O   UNL A   1      31.877  29.367  25.132  1.00  0.00    -0.461 OA
BRANCH  34  35
ATOM     35  C   UNL A   1      32.375  30.095  26.299  1.00  0.00     0.274 C 
BRANCH  35  36
ATOM     36  C   UNL A   1      31.647  31.619  26.524  1.00  0.00     0.275 C 
BRANCH  36  37
ATOM     37  O   UNL A   1      32.295  33.192  27.617  1.00  0.00    -0.458 OA
BRANCH  37  38
ATOM     38  C   UNL A   1      32.957  34.191  28.369  1.00  0.00     0.338 C 
ATOM     39  O   UNL A   1      32.561  35.356  28.394  1.00  0.00    -0.246 OA
BRANCH  38  40
ATOM     40  C   UNL A   1      34.218  33.900  29.142  1.00  0.00     0.060 A 
ATOM     41  C   UNL A   1      35.498  34.247  28.677  1.00  0.00     0.016 A 
ATOM     42  C   UNL A   1      34.114  33.189  30.340  1.00  0.00     0.016 A 
ATOM     43  C   UNL A   1      36.636  34.046  29.463  1.00  0.00     0.010 A 
ATOM     44  C   UNL A   1      35.263  32.890  31.084  1.00  0.00     0.010 A 
ATOM     45  C   UNL A   1      36.527  33.326  30.657  1.00  0.00    -0.014 A 
BRANCH  45  46
ATOM     46  C   UNL A   1      37.749  32.805  31.317  1.00  0.00     0.031 A 
ATOM     47  C   UNL A   1      38.473  31.675  30.642  1.00  0.00     0.074 A 
ATOM     48  C   UNL A   1      38.194  33.299  32.485  1.00  0.00     0.049 A 
ATOM     49  N   UNL A   1      39.423  30.901  31.097  1.00  0.00    -0.248 NA
ATOM     50  C   UNL A   1      38.064  31.378  29.259  1.00  0.00     0.031 C 
ATOM     51  C   UNL A   1      37.633  34.451  33.187  1.00  0.00     0.029 A 
ATOM     52  N   UNL A   1      39.213  32.870  33.301  1.00  0.00    -0.354 N 
ATOM     53  C   UNL A   1      39.707  30.014  30.067  1.00  0.00     0.074 A 
ATOM     54  C   UNL A   1      38.838  30.347  28.961  1.00  0.00     0.031 C 
ATOM     55  C   UNL A   1      38.285  34.609  34.353  1.00  0.00     0.029 A 
ATOM     56  C   UNL A   1      39.273  33.542  34.499  1.00  0.00     0.049 A 
ATOM     57  H   UNL A   1      39.838  32.151  33.052  1.00  0.00     0.167 HD
ATOM     58  C   UNL A   1      40.601  28.998  30.053  1.00  0.00     0.037 A 
ATOM     59  C   UNL A   1      40.004  33.283  35.602  1.00  0.00     0.037 A 
ATOM     60  C   UNL A   1      41.436  28.655  31.172  1.00  0.00     0.049 A 
ATOM     61  C   UNL A   1      40.943  32.102  35.595  1.00  0.00     0.074 A 
ATOM     62  C   UNL A   1      42.334  27.611  31.296  1.00  0.00     0.029 A 
ATOM     63  N   UNL A   1      41.466  29.357  32.369  1.00  0.00    -0.354 N 
ATOM     64  N   UNL A   1      41.166  31.226  34.643  1.00  0.00    -0.248 NA
ATOM     65  C   UNL A   1      41.727  31.868  36.816  1.00  0.00     0.031 C 
ATOM     66  C   UNL A   1      42.887  27.665  32.581  1.00  0.00     0.029 A 
ATOM     67  C   UNL A   1      42.368  28.770  33.239  1.00  0.00     0.049 A 
ATOM     68  H   UNL A   1      40.925  30.155  32.569  1.00  0.00     0.167 HD
ATOM     69  C   UNL A   1      42.121  30.350  35.142  1.00  0.00     0.074 A 
ATOM     70  C   UNL A   1      42.453  30.813  36.474  1.00  0.00     0.031 C 
ATOM     71  C   UNL A   1      42.674  29.256  34.559  1.00  0.00     0.037 A 
BRANCH  58  72
ATOM     72  C   UNL A   1      40.673  28.165  28.808  1.00  0.00     0.064 A 
ATOM     73  C   UNL A   1      41.468  28.543  27.715  1.00  0.00     0.173 A 
ATOM     74  C   UNL A   1      39.935  26.978  28.703  1.00  0.00     0.173 A 
ATOM     75  F   UNL A   1      42.171  29.685  27.754  1.00  0.00    -0.203 F 
ATOM     76  C   UNL A   1      41.503  27.772  26.555  1.00  0.00     0.198 A 
ATOM     77  C   UNL A   1      39.993  26.196  27.552  1.00  0.00     0.198 A 
ATOM     78  F   UNL A   1      39.153  26.576  29.717  1.00  0.00    -0.203 F 
ATOM     79  F   UNL A   1      42.230  28.178  25.504  1.00  0.00    -0.200 F 
ATOM     80  C   UNL A   1      40.770  26.597  26.477  1.00  0.00     0.200 A 
ATOM     81  F   UNL A   1      39.289  25.057  27.482  1.00  0.00    -0.200 F 
ATOM     82  F   UNL A   1      40.807  25.856  25.361  1.00  0.00    -0.200 F 
ENDBRANCH  58  72
BRANCH  59  83
ATOM     83  C   UNL A   1      39.839  34.117  36.824  1.00  0.00     0.064 A 
ATOM     84  C   UNL A   1      38.996  33.720  37.871  1.00  0.00     0.173 A 
ATOM     85  C   UNL A   1      40.508  35.344  36.959  1.00  0.00     0.173 A 
ATOM     86  F   UNL A   1      38.307  32.573  37.776  1.00  0.00    -0.203 F 
ATOM     87  C   UNL A   1      38.821  34.520  39.000  1.00  0.00     0.198 A 
ATOM     88  C   UNL A   1      40.355  36.128  38.102  1.00  0.00     0.198 A 
ATOM     89  F   UNL A   1      41.320  35.778  35.984  1.00  0.00    -0.203 F 
ATOM     90  F   UNL A   1      37.974  34.136  39.965  1.00  0.00    -0.200 F 
ATOM     91  C   UNL A   1      39.506  35.719  39.118  1.00  0.00     0.200 A 
ATOM     92  F   UNL A   1      41.030  37.281  38.216  1.00  0.00    -0.200 F 
ATOM     93  F   UNL A   1      39.344  36.483  40.207  1.00  0.00    -0.200 F 
ENDBRANCH  59  83
BRANCH  71  94
ATOM     94  C   UNL A   1      43.712  28.515  35.349  1.00  0.00     0.064 A 
ATOM     95  C   UNL A   1      45.077  28.814  35.232  1.00  0.00     0.173 A 
ATOM     96  C   UNL A   1      43.331  27.505  36.245  1.00  0.00     0.173 A 
ATOM     97  F   UNL A   1      45.490  29.762  34.378  1.00  0.00    -0.203 F 
ATOM     98  C   UNL A   1      46.027  28.105  35.963  1.00  0.00     0.198 A 
ATOM     99  C   UNL A   1      44.282  26.819  36.994  1.00  0.00     0.198 A 
ATOM    100  F   UNL A   1      42.037  27.189  36.399  1.00  0.00    -0.203 F 
ATOM    101  F   UNL A   1      47.331  28.371  35.797  1.00  0.00    -0.200 F 
ATOM    102  C   UNL A   1      45.630  27.112  36.845  1.00  0.00     0.200 A 
ATOM    103  F   UNL A   1      43.895  25.866  37.855  1.00  0.00    -0.200 F 
ATOM    104  F   UNL A   1      46.546  26.429  37.544  1.00  0.00    -0.200 F 
ENDBRANCH  71  94
ENDBRANCH  45  46
ENDBRANCH  38  40
ENDBRANCH  37  38
ENDBRANCH  36  37
ENDBRANCH  35  36
ENDBRANCH  34  35
ENDBRANCH   1  34
TORSDOF 22
ENDMDL
MODEL 2
REMARK VINA RESULT:     -12.2      5.162     11.074
REMARK SMILES CC(C)C[C@H](NC(=O)[C@H](Cc1ccccc1)NC(=O)CNC(=O)C[NH3+])C(=O)OCCOC(=O)c1ccc(-c2c3nc(c(-c4c(F)c(F)c(F)c(F)c4F)c4ccc([nH]4)c(-c4c(F)c(F)c(F)c(F)c4F)c4nc(c(-c5c(F)c(F)c(F)c(F)c5F)c5ccc2[nH]5)C=C4)C=C3)cc1
REMARK SMILES IDX 26 1 27 2 5 3 4 4 2 5 1 6 3 7 6 8 7 9 8 11 9 12 17 13 18 14
REMARK SMILES IDX 19 16 20 17 21 18 22 19 23 21 24 22 25 23 10 27 11 28 12 29
REMARK SMILES IDX 16 30 13 31 15 32 14 33 28 34 29 35 30 36 31 37 32 38 33 39
REMARK SMILES IDX 34 40 35 41 96 42 36 43 95 44 37 45 38 46 39 47 89 48 40 49
REMARK SMILES IDX 94 50 88 51 90 52 41 53 93 54 87 55 86 56 42 58 74 59 54 60
REMARK SMILES IDX 73 61 55 62 58 63 72 64 91 65 56 66 57 67 71 69 92 70 59 71
REMARK SMILES IDX 43 72 44 73 52 74 45 75 46 76 50 77 53 78 47 79 48 80 51 81
REMARK SMILES IDX 49 82 75 83 76 84 84 85 77 86 78 87 82 88 85 89 79 90 80 91
REMARK SMILES IDX 83 92 81 93 60 94 61 95 69 96 62 97 63 98 67 99 70 100
REMARK SMILES IDX 64 101 65 102 68 103 66 104
REMARK H PARENT 6 10 17 15 21 20 25 24 25 25 25 26 90 57 58 68
REMARK Flexibility Score: inf
ROOT
ATOM      1  C   UNL A   1      34.955  19.955  25.181  1.00  0.00     0.328 C 
ATOM      2  O   UNL A   1      34.989  20.836  26.032  1.00  0.00    -0.250 OA
ENDROOT
BRANCH   1   3
ATOM      3  C   UNL A   1      33.587  19.357  24.618  1.00  0.00     0.192 C 
BRANCH   3   4
ATOM      4  C   UNL A   1      33.745  17.847  24.280  1.00  0.00     0.040 C 
BRANCH   4   5
ATOM      5  C   UNL A   1      33.781  16.760  25.387  1.00  0.00    -0.015 C 
ATOM      6  C   UNL A   1      32.689  15.698  25.369  1.00  0.00     0.007 C 
ATOM      7  C   UNL A   1      35.137  16.042  25.337  1.00  0.00     0.007 C 
ENDBRANCH   4   5
ENDBRANCH   3   4
BRANCH   3   8
ATOM      8  N   UNL A   1      32.507  19.989  23.813  1.00  0.00    -0.341 N 
ATOM      9  C   UNL A   1      32.297  21.259  23.341  1.00  0.00     0.243 C 
ATOM     10  H   UNL A   1      31.790  19.360  23.565  1.00  0.00     0.164 HD
ATOM     11  O   UNL A   1      31.773  21.396  22.235  1.00  0.00    -0.273 OA
BRANCH   9  12
ATOM     12  C   UNL A   1      32.485  22.435  24.292  1.00  0.00     0.175 C 
BRANCH  12  13
ATOM     13  N   UNL A   1      32.421  22.203  25.737  1.00  0.00    -0.342 N 
ATOM     14  C   UNL A   1      31.755  22.960  26.679  1.00  0.00     0.240 C 
ATOM     15  H   UNL A   1      32.911  21.419  26.074  1.00  0.00     0.164 HD
ATOM     16  O   UNL A   1      32.149  22.918  27.847  1.00  0.00    -0.273 OA
BRANCH  14  17
ATOM     17  C   UNL A   1      30.552  23.850  26.283  1.00  0.00     0.216 C 
BRANCH  17  18
ATOM     18  N   UNL A   1      30.732  25.274  26.486  1.00  0.00    -0.342 N 
ATOM     19  C   UNL A   1      30.426  26.332  25.683  1.00  0.00     0.275 C 
ATOM     20  H   UNL A   1      31.143  25.518  27.347  1.00  0.00     0.164 HD
ATOM     21  O   UNL A   1      30.668  27.457  26.142  1.00  0.00    -0.268 OA
BRANCH  19  22
ATOM     22  C   UNL A   1      29.932  26.235  24.227  1.00  0.00     0.360 C 
BRANCH  22  23
ATOM     23  N   UNL A   1      28.505  25.956  24.022  1.00  0.00    -0.350 N 
ATOM     24  H   UNL A   1      27.962  26.798  24.215  1.00  0.00     0.344 HD
ATOM     25  H   UNL A   1      28.211  25.209  24.652  1.00  0.00     0.344 HD
ATOM     26  H   UNL A   1      28.351  25.667  23.056  1.00  0.00     0.344 HD
ENDBRANCH  22  23
ENDBRANCH  19  22
ENDBRANCH  17  18
ENDBRANCH  14  17
ENDBRANCH  12  13
BRANCH  12  27
ATOM     27  C   UNL A   1      33.782  23.122  23.822  1.00  0.00     0.070 C 
BRANCH  27  28
ATOM     28  C   UNL A   1      33.721  24.616  23.975  1.00  0.00    -0.045 A 
ATOM     29  C   UNL A   1      33.298  25.577  22.514  1.00  0.00     0.004 A 
ATOM     30  C   UNL A   1      34.068  25.474  25.536  1.00  0.00     0.004 A 
ATOM     31  C   UNL A   1      33.250  27.362  22.594  1.00  0.00     0.000 A 
ATOM     32  C   UNL A   1      34.032  27.298  25.606  1.00  0.00     0.000 A 
ATOM     33  C   UNL A   1      33.601  28.229  24.131  1.00  0.00     0.000 A 
ENDBRANCH  27  28
ENDBRANCH  12  27
ENDBRANCH   9  12
ENDBRANCH   3   8
ENDBRANCH   1   3
BRANCH   1  34
ATOM     34  O   UNL A   1      36.068  19.415  24.636  1.00  0.00    -0.461 OA
BRANCH  34  35
ATOM     35  C   UNL A   1      37.400  19.975  24.865  1.00  0.00     0.274 C 
BRANCH  35  36
ATOM     36  C   UNL A   1      38.552  18.829  25.376  1.00  0.00     0.275 C 
BRANCH  36  37
ATOM     37  O   UNL A   1      40.526  19.079  25.733  1.00  0.00    -0.458 OA
BRANCH  37  38
ATOM     38  C   UNL A   1      41.864  19.480  25.962  1.00  0.00     0.338 C 
ATOM     39  O   UNL A   1      42.800  18.683  25.916  1.00  0.00    -0.246 OA
BRANCH  38  40
ATOM     40  C   UNL A   1      42.215  20.899  26.331  1.00  0.00     0.060 A 
ATOM     41  C   UNL A   1      42.554  21.876  25.378  1.00  0.00     0.016 A 
ATOM     42  C   UNL A   1      42.276  21.239  27.684  1.00  0.00     0.016 A 
ATOM     43  C   UNL A   1      42.782  23.204  25.749  1.00  0.00     0.010 A 
ATOM     44  C   UNL A   1      42.607  22.545  28.069  1.00  0.00     0.010 A 
ATOM     45  C   UNL A   1      42.850  23.537  27.104  1.00  0.00    -0.014 A 
BRANCH  45  46
ATOM     46  C   UNL A   1      43.429  24.839  27.516  1.00  0.00     0.031 A 
ATOM     47  C   UNL A   1      42.491  25.865  28.084  1.00  0.00     0.074 A 
ATOM     48  C   UNL A   1      44.737  25.114  27.375  1.00  0.00     0.049 A 
ATOM     49  N   UNL A   1      42.687  27.137  28.320  1.00  0.00    -0.248 NA
ATOM     50  C   UNL A   1      41.143  25.388  28.435  1.00  0.00     0.031 C 
ATOM     51  C   UNL A   1      45.758  24.170  26.925  1.00  0.00     0.029 A 
ATOM     52  N   UNL A   1      45.426  26.286  27.575  1.00  0.00    -0.354 N 
ATOM     53  C   UNL A   1      41.482  27.612  28.820  1.00  0.00     0.074 A 
ATOM     54  C   UNL A   1      40.564  26.497  28.865  1.00  0.00     0.031 C 
ATOM     55  C   UNL A   1      46.936  24.814  26.837  1.00  0.00     0.029 A 
ATOM     56  C   UNL A   1      46.740  26.222  27.177  1.00  0.00     0.049 A 
ATOM     57  H   UNL A   1      45.017  27.093  27.964  1.00  0.00     0.167 HD
ATOM     58  C   UNL A   1      41.165  28.874  29.193  1.00  0.00     0.037 A 
ATOM     59  C   UNL A   1      47.656  27.204  27.052  1.00  0.00     0.037 A 
ATOM     60  C   UNL A   1      42.077  29.983  29.112  1.00  0.00     0.049 A 
ATOM     61  C   UNL A   1      47.263  28.618  27.403  1.00  0.00     0.074 A 
ATOM     62  C   UNL A   1      41.851  31.315  29.403  1.00  0.00     0.029 A 
ATOM     63  N   UNL A   1      43.399  29.879  28.701  1.00  0.00    -0.354 N 
ATOM     64  N   UNL A   1      46.106  29.078  27.818  1.00  0.00    -0.248 NA
ATOM     65  C   UNL A   1      48.300  29.651  27.261  1.00  0.00     0.031 C 
ATOM     66  C   UNL A   1      43.029  32.024  29.139  1.00  0.00     0.029 A 
ATOM     67  C   UNL A   1      44.002  31.123  28.731  1.00  0.00     0.049 A 
ATOM     68  H   UNL A   1      43.841  29.043  28.430  1.00  0.00     0.167 HD
ATOM     69  C   UNL A   1      46.279  30.444  28.000  1.00  0.00     0.074 A 
ATOM     70  C   UNL A   1      47.659  30.736  27.672  1.00  0.00     0.031 C 
ATOM     71  C   UNL A   1      45.379  31.379  28.396  1.00  0.00     0.037 A 
BRANCH  58  72
ATOM     72  C   UNL A   1      39.764  29.117  29.667  1.00  0.00     0.064 A 
ATOM     73  C   UNL A   1      38.737  29.471  28.778  1.00  0.00     0.173 A 
ATOM     74  C   UNL A   1      39.442  29.001  31.027  1.00  0.00     0.173 A 
ATOM     75  F   UNL A   1      38.998  29.623  27.471  1.00  0.00    -0.203 F 
ATOM     76  C   UNL A   1      37.446  29.720  29.238  1.00  0.00     0.198 A 
ATOM     77  C   UNL A   1      38.144  29.225  31.480  1.00  0.00     0.198 A 
ATOM     78  F   UNL A   1      40.389  28.673  31.920  1.00  0.00    -0.203 F 
ATOM     79  F   UNL A   1      36.492  30.106  28.378  1.00  0.00    -0.200 F 
ATOM     80  C   UNL A   1      37.149  29.591  30.587  1.00  0.00     0.200 A 
ATOM     81  F   UNL A   1      37.859  29.093  32.783  1.00  0.00    -0.200 F 
ATOM     82  F   UNL A   1      35.907  29.829  31.027  1.00  0.00    -0.200 F 
ENDBRANCH  58  72
BRANCH  59  83
ATOM     83  C   UNL A   1      49.013  26.899  26.520  1.00  0.00     0.064 A 
ATOM     84  C   UNL A   1      49.295  26.983  25.149  1.00  0.00     0.173 A 
ATOM     85  C   UNL A   1      50.052  26.497  27.373  1.00  0.00     0.173 A 
ATOM     86  F   UNL A   1      48.328  27.330  24.287  1.00  0.00    -0.203 F 
ATOM     87  C   UNL A   1      50.559  26.667  24.652  1.00  0.00     0.198 A 
ATOM     88  C   UNL A   1      51.323  26.211  26.878  1.00  0.00     0.198 A 
ATOM     89  F   UNL A   1      49.836  26.390  28.692  1.00  0.00    -0.203 F 
ATOM     90  F   UNL A   1      50.788  26.714  23.332  1.00  0.00    -0.200 F 
ATOM     91  C   UNL A   1      51.575  26.289  25.517  1.00  0.00     0.200 A 
ATOM     92  F   UNL A   1      52.304  25.857  27.720  1.00  0.00    -0.200 F 
ATOM     93  F   UNL A   1      52.791  25.994  25.039  1.00  0.00    -0.200 F 
ENDBRANCH  59  83
BRANCH  71  94
ATOM     94  C   UNL A   1      45.875  32.790  28.526  1.00  0.00     0.064 A 
ATOM     95  C   UNL A   1      46.435  33.266  29.719  1.00  0.00     0.173 A 
ATOM     96  C   UNL A   1      45.804  33.667  27.433  1.00  0.00     0.173 A 
ATOM     97  F   UNL A   1      46.511  32.467  30.795  1.00  0.00    -0.203 F 
ATOM     98  C   UNL A   1      46.876  34.583  29.825  1.00  0.00     0.198 A 
ATOM     99  C   UNL A   1      46.272  34.973  27.535  1.00  0.00     0.198 A 
ATOM    100  F   UNL A   1      45.285  33.256  26.267  1.00  0.00    -0.203 F 
ATOM    101  F   UNL A   1      47.358  35.033  30.992  1.00  0.00    -0.200 F 
ATOM    102  C   UNL A   1      46.798  35.433  28.733  1.00  0.00     0.200 A 
ATOM    103  F   UNL A   1      46.206  35.792  26.474  1.00  0.00    -0.200 F 
ATOM    104  F   UNL A   1      47.220  36.700  28.838  1.00  0.00    -0.200 F 
ENDBRANCH  71  94
ENDBRANCH  45  46
ENDBRANCH  38  40
ENDBRANCH  37  38
ENDBRANCH  36  37
ENDBRANCH  35  36
ENDBRANCH  34  35
ENDBRANCH   1  34
TORSDOF 22
ENDMDL
MODEL 3
REMARK VINA RESULT:     -12.1      5.173      9.904
REMARK SMILES CC(C)C[C@H](NC(=O)[C@H](Cc1ccccc1)NC(=O)CNC(=O)C[NH3+])C(=O)OCCOC(=O)c1ccc(-c2c3nc(c(-c4c(F)c(F)c(F)c(F)c4F)c4ccc([nH]4)c(-c4c(F)c(F)c(F)c(F)c4F)c4nc(c(-c5c(F)c(F)c(F)c(F)c5F)c5ccc2[nH]5)C=C4)C=C3)cc1
REMARK SMILES IDX 26 1 27 2 5 3 4 4 2 5 1 6 3 7 6 8 7 9 8 11 9 12 17 13 18 14
REMARK SMILES IDX 19 16 20 17 21 18 22 19 23 21 24 22 25 23 10 27 11 28 12 29
REMARK SMILES IDX 16 30 13 31 15 32 14 33 28 34 29 35 30 36 31 37 32 38 33 39
REMARK SMILES IDX 34 40 35 41 96 42 36 43 95 44 37 45 38 46 39 47 89 48 40 49
REMARK SMILES IDX 94 50 88 51 90 52 41 53 93 54 87 55 86 56 42 58 74 59 54 60
REMARK SMILES IDX 73 61 55 62 58 63 72 64 91 65 56 66 57 67 71 69 92 70 59 71
REMARK SMILES IDX 43 72 44 73 52 74 45 75 46 76 50 77 53 78 47 79 48 80 51 81
REMARK SMILES IDX 49 82 75 83 76 84 84 85 77 86 78 87 82 88 85 89 79 90 80 91
REMARK SMILES IDX 83 92 81 93 60 94 61 95 69 96 62 97 63 98 67 99 70 100
REMARK SMILES IDX 64 101 65 102 68 103 66 104
REMARK H PARENT 6 10 17 15 21 20 25 24 25 25 25 26 90 57 58 68
REMARK Flexibility Score: inf
ROOT
ATOM      1  C   UNL A   1      34.987  20.149  25.121  1.00  0.00     0.328 C 
ATOM      2  O   UNL A   1      34.929  20.865  26.114  1.00  0.00    -0.250 OA
ENDROOT
BRANCH   1   3
ATOM      3  C   UNL A   1      33.689  19.523  24.436  1.00  0.00     0.192 C 
BRANCH   3   4
ATOM      4  C   UNL A   1      34.009  18.129  23.823  1.00  0.00     0.040 C 
BRANCH   4   5
ATOM      5  C   UNL A   1      33.828  16.818  24.633  1.00  0.00    -0.015 C 
ATOM      6  C   UNL A   1      35.067  16.207  25.274  1.00  0.00     0.007 C 
ATOM      7  C   UNL A   1      32.792  17.055  25.740  1.00  0.00     0.007 C 
ENDBRANCH   4   5
ENDBRANCH   3   4
BRANCH   3   8
ATOM      8  N   UNL A   1      32.542  20.174  23.748  1.00  0.00    -0.341 N 
ATOM      9  C   UNL A   1      32.271  21.465  23.373  1.00  0.00     0.243 C 
ATOM     10  H   UNL A   1      31.823  19.544  23.511  1.00  0.00     0.164 HD
ATOM     11  O   UNL A   1      31.669  21.655  22.316  1.00  0.00    -0.273 OA
BRANCH   9  12
ATOM     12  C   UNL A   1      32.500  22.585  24.380  1.00  0.00     0.175 C 
BRANCH  12  13
ATOM     13  N   UNL A   1      32.441  22.283  25.812  1.00  0.00    -0.342 N 
ATOM     14  C   UNL A   1      31.741  22.966  26.785  1.00  0.00     0.240 C 
ATOM     15  H   UNL A   1      32.961  21.504  26.114  1.00  0.00     0.164 HD
ATOM     16  O   UNL A   1      32.131  22.884  27.952  1.00  0.00    -0.273 OA
BRANCH  14  17
ATOM     17  C   UNL A   1      30.503  23.823  26.425  1.00  0.00     0.216 C 
BRANCH  17  18
ATOM     18  N   UNL A   1      30.721  25.257  26.398  1.00  0.00    -0.342 N 
ATOM     19  C   UNL A   1      30.386  26.188  25.461  1.00  0.00     0.275 C 
ATOM     20  H   UNL A   1      31.186  25.617  27.187  1.00  0.00     0.164 HD
ATOM     21  O   UNL A   1      30.674  27.363  25.730  1.00  0.00    -0.268 OA
BRANCH  19  22
ATOM     22  C   UNL A   1      29.804  25.886  24.067  1.00  0.00     0.360 C 
BRANCH  22  23
ATOM     23  N   UNL A   1      28.362  26.093  23.884  1.00  0.00    -0.350 N 
ATOM     24  H   UNL A   1      28.042  25.562  23.074  1.00  0.00     0.344 HD
ATOM     25  H   UNL A   1      28.177  27.085  23.735  1.00  0.00     0.344 HD
ATOM     26  H   UNL A   1      27.865  25.776  24.716  1.00  0.00     0.344 HD
ENDBRANCH  22  23
ENDBRANCH  19  22
ENDBRANCH  17  18
ENDBRANCH  14  17
ENDBRANCH  12  13
BRANCH  12  27
ATOM     27  C   UNL A   1      33.813  23.258  23.933  1.00  0.00     0.070 C 
BRANCH  27  28
ATOM     28  C   UNL A   1      33.756  24.755  24.062  1.00  0.00    -0.045 A 
ATOM     29  C   UNL A   1      33.379  25.695  22.574  1.00  0.00     0.004 A 
ATOM     30  C   UNL A   1      34.065  25.635  25.618  1.00  0.00     0.004 A 
ATOM     31  C   UNL A   1      33.339  27.481  22.625  1.00  0.00     0.000 A 
ATOM     32  C   UNL A   1      34.037  27.460  25.659  1.00  0.00     0.000 A 
ATOM     33  C   UNL A   1      33.652  28.371  24.158  1.00  0.00     0.000 A 
ENDBRANCH  27  28
ENDBRANCH  12  27
ENDBRANCH   9  12
ENDBRANCH   3   8
ENDBRANCH   1   3
BRANCH   1  34
ATOM     34  O   UNL A   1      36.150  19.830  24.512  1.00  0.00    -0.461 OA
BRANCH  34  35
ATOM     35  C   UNL A   1      37.449  20.260  25.032  1.00  0.00     0.274 C 
BRANCH  35  36
ATOM     36  C   UNL A   1      38.551  18.984  25.278  1.00  0.00     0.275 C 
BRANCH  36  37
ATOM     37  O   UNL A   1      40.481  19.066  25.872  1.00  0.00    -0.458 OA
BRANCH  37  38
ATOM     38  C   UNL A   1      41.802  19.352  26.292  1.00  0.00     0.338 C 
ATOM     39  O   UNL A   1      42.614  18.461  26.539  1.00  0.00    -0.246 OA
BRANCH  38  40
ATOM     40  C   UNL A   1      42.276  20.766  26.514  1.00  0.00     0.060 A 
ATOM     41  C   UNL A   1      42.490  21.310  27.792  1.00  0.00     0.016 A 
ATOM     42  C   UNL A   1      42.441  21.594  25.401  1.00  0.00     0.016 A 
ATOM     43  C   UNL A   1      43.020  22.593  27.956  1.00  0.00     0.010 A 
ATOM     44  C   UNL A   1      42.872  22.917  25.565  1.00  0.00     0.010 A 
ATOM     45  C   UNL A   1      43.175  23.420  26.840  1.00  0.00    -0.014 A 
BRANCH  45  46
ATOM     46  C   UNL A   1      43.395  24.875  27.026  1.00  0.00     0.031 A 
ATOM     47  C   UNL A   1      44.781  25.402  26.784  1.00  0.00     0.074 A 
ATOM     48  C   UNL A   1      42.409  25.701  27.414  1.00  0.00     0.049 A 
ATOM     49  N   UNL A   1      45.293  26.570  27.074  1.00  0.00    -0.248 NA
ATOM     50  C   UNL A   1      45.718  24.480  26.122  1.00  0.00     0.031 C 
ATOM     51  C   UNL A   1      41.008  25.326  27.589  1.00  0.00     0.029 A 
ATOM     52  N   UNL A   1      42.447  27.031  27.757  1.00  0.00    -0.354 N 
ATOM     53  C   UNL A   1      46.615  26.511  26.653  1.00  0.00     0.074 A 
ATOM     54  C   UNL A   1      46.827  25.201  26.080  1.00  0.00     0.031 C 
ATOM     55  C   UNL A   1      40.328  26.390  28.053  1.00  0.00     0.029 A 
ATOM     56  C   UNL A   1      41.255  27.502  28.253  1.00  0.00     0.049 A 
ATOM     57  H   UNL A   1      43.251  27.592  27.659  1.00  0.00     0.167 HD
ATOM     58  C   UNL A   1      47.573  27.462  26.753  1.00  0.00     0.037 A 
ATOM     59  C   UNL A   1      40.968  28.677  28.849  1.00  0.00     0.037 A 
ATOM     60  C   UNL A   1      47.360  28.749  27.357  1.00  0.00     0.049 A 
ATOM     61  C   UNL A   1      42.066  29.697  29.019  1.00  0.00     0.074 A 
ATOM     62  C   UNL A   1      48.269  29.769  27.569  1.00  0.00     0.029 A 
ATOM     63  N   UNL A   1      46.139  29.188  27.850  1.00  0.00    -0.354 N 
ATOM     64  N   UNL A   1      43.331  29.619  28.676  1.00  0.00    -0.248 NA
ATOM     65  C   UNL A   1      41.702  30.967  29.664  1.00  0.00     0.031 C 
ATOM     66  C   UNL A   1      47.603  30.815  28.219  1.00  0.00     0.029 A 
ATOM     67  C   UNL A   1      46.269  30.464  28.367  1.00  0.00     0.049 A 
ATOM     68  H   UNL A   1      45.304  28.667  27.834  1.00  0.00     0.167 HD
ATOM     69  C   UNL A   1      43.907  30.826  29.049  1.00  0.00     0.074 A 
ATOM     70  C   UNL A   1      42.848  31.631  29.623  1.00  0.00     0.031 C 
ATOM     71  C   UNL A   1      45.195  31.237  28.934  1.00  0.00     0.037 A 
BRANCH  58  72
ATOM     72  C   UNL A   1      48.940  27.113  26.245  1.00  0.00     0.064 A 
ATOM     73  C   UNL A   1      49.281  27.255  24.891  1.00  0.00     0.173 A 
ATOM     74  C   UNL A   1      49.922  26.626  27.121  1.00  0.00     0.173 A 
ATOM     75  F   UNL A   1      48.370  27.690  24.008  1.00  0.00    -0.203 F 
ATOM     76  C   UNL A   1      50.547  26.901  24.430  1.00  0.00     0.198 A 
ATOM     77  C   UNL A   1      51.195  26.299  26.661  1.00  0.00     0.198 A 
ATOM     78  F   UNL A   1      49.645  26.465  28.423  1.00  0.00    -0.203 F 
ATOM     79  F   UNL A   1      50.835  26.998  23.124  1.00  0.00    -0.200 F 
ATOM     80  C   UNL A   1      51.505  26.429  25.317  1.00  0.00     0.200 A 
ATOM     81  F   UNL A   1      52.120  25.849  27.520  1.00  0.00    -0.200 F 
ATOM     82  F   UNL A   1      52.722  26.092  24.872  1.00  0.00    -0.200 F 
ENDBRANCH  58  72
BRANCH  59  83
ATOM     83  C   UNL A   1      39.601  28.933  29.382  1.00  0.00     0.064 A 
ATOM     84  C   UNL A   1      39.266  28.625  30.708  1.00  0.00     0.173 A 
ATOM     85  C   UNL A   1      38.595  29.474  28.567  1.00  0.00     0.173 A 
ATOM     86  F   UNL A   1      40.181  28.074  31.519  1.00  0.00    -0.203 F 
ATOM     87  C   UNL A   1      37.975  28.838  31.193  1.00  0.00     0.198 A 
ATOM     88  C   UNL A   1      37.315  29.714  29.063  1.00  0.00     0.198 A 
ATOM     89  F   UNL A   1      38.858  29.779  27.288  1.00  0.00    -0.203 F 
ATOM     90  F   UNL A   1      37.671  28.492  32.453  1.00  0.00    -0.200 F 
ATOM     91  C   UNL A   1      37.003  29.390  30.373  1.00  0.00     0.200 A 
ATOM     92  F   UNL A   1      36.382  30.259  28.268  1.00  0.00    -0.200 F 
ATOM     93  F   UNL A   1      35.767  29.602  30.843  1.00  0.00    -0.200 F 
ENDBRANCH  59  83
BRANCH  71  94
ATOM     94  C   UNL A   1      45.512  32.624  29.409  1.00  0.00     0.064 A 
ATOM     95  C   UNL A   1      45.904  32.876  30.732  1.00  0.00     0.173 A 
ATOM     96  C   UNL A   1      45.441  33.710  28.523  1.00  0.00     0.173 A 
ATOM     97  F   UNL A   1      45.974  31.872  31.618  1.00  0.00    -0.203 F 
ATOM     98  C   UNL A   1      46.181  34.173  31.159  1.00  0.00     0.198 A 
ATOM     99  C   UNL A   1      45.746  34.999  28.947  1.00  0.00     0.198 A 
ATOM    100  F   UNL A   1      45.080  33.518  27.246  1.00  0.00    -0.203 F 
ATOM    101  F   UNL A   1      46.502  34.398  32.441  1.00  0.00    -0.200 F 
ATOM    102  C   UNL A   1      46.106  35.231  30.267  1.00  0.00     0.200 A 
ATOM    103  F   UNL A   1      45.683  36.021  28.081  1.00  0.00    -0.200 F 
ATOM    104  F   UNL A   1      46.369  36.478  30.681  1.00  0.00    -0.200 F 
ENDBRANCH  71  94
ENDBRANCH  45  46
ENDBRANCH  38  40
ENDBRANCH  37  38
ENDBRANCH  36  37
ENDBRANCH  35  36
ENDBRANCH  34  35
ENDBRANCH   1  34
TORSDOF 22
ENDMDL
