MODEL 1
REMARK VINA RESULT:     -11.3      0.000      0.000
REMARK SMILES O=C(OCCOC(=O)c1[nH]ncc1C[N@H+]1CCC[C@@H](C(=O)c2ccc(Oc3ccccc3)cc2)C1)c1ccc(-c2c3nc(c(-c4c(F)c(F)c(F)c(F)c4F)c4ccc([nH]4)c(-c4c(F)c(F)c(F)c(F)c4F)c4nc(c(-c5c(F)c(F)c(F)c(F)c5F)c5ccc2[nH]5)C=C4)C=C3)cc1
REMARK SMILES IDX 7 1 8 2 6 3 5 4 4 5 3 6 2 7 1 8 36 9 37 10 98 11 38 12 97 13
REMARK SMILES IDX 39 14 40 15 41 16 91 17 42 18 96 19 90 20 92 21 43 22 95 23
REMARK SMILES IDX 89 24 88 25 44 27 76 28 56 29 75 30 57 31 60 32 74 33 93 34
REMARK SMILES IDX 58 35 59 36 73 38 94 39 61 40 45 41 46 42 54 43 47 44 48 45
REMARK SMILES IDX 52 46 55 47 49 48 50 49 53 50 51 51 77 52 78 53 86 54 79 55
REMARK SMILES IDX 80 56 84 57 87 58 81 59 82 60 85 61 83 62 62 63 63 64 71 65
REMARK SMILES IDX 64 66 65 67 69 68 72 69 66 70 67 71 70 72 68 73 9 74 10 75
REMARK SMILES IDX 13 76 11 77 12 79 14 80 15 81 16 82 35 83 17 85 19 86 18 87
REMARK SMILES IDX 20 88 21 89 22 90 23 91 34 92 24 93 33 94 25 95 26 96 27 97
REMARK SMILES IDX 28 98 32 99 29 100 31 101 30 102
REMARK H PARENT 92 26 60 37 10 78 15 84
REMARK Flexibility Score: inf
ROOT
ATOM      1  C   UNL A   1      33.155  35.974  29.847  1.00  0.00     0.356 C 
ATOM      2  O   UNL A   1      32.165  36.280  29.200  1.00  0.00    -0.244 OA
ENDROOT
BRANCH   1   3
ATOM      3  O   UNL A   1      34.017  34.958  29.548  1.00  0.00    -0.457 OA
BRANCH   3   4
ATOM      4  C   UNL A   1      33.735  34.263  28.327  1.00  0.00     0.275 C 
BRANCH   4   5
ATOM      5  C   UNL A   1      34.763  33.160  28.061  1.00  0.00     0.275 C 
BRANCH   5   6
ATOM      6  O   UNL A   1      34.201  31.838  28.167  1.00  0.00    -0.458 OA
BRANCH   6   7
ATOM      7  C   UNL A   1      34.701  30.599  27.959  1.00  0.00     0.338 C 
ATOM      8  O   UNL A   1      33.989  29.815  27.328  1.00  0.00    -0.246 OA
BRANCH   7   9
ATOM      9  C   UNL A   1      36.023  30.070  28.455  1.00  0.00     0.060 A 
ATOM     10  C   UNL A   1      36.269  29.390  29.648  1.00  0.00     0.016 A 
ATOM     11  C   UNL A   1      37.133  30.289  27.609  1.00  0.00     0.016 A 
ATOM     12  C   UNL A   1      37.565  28.973  29.998  1.00  0.00     0.010 A 
ATOM     13  C   UNL A   1      38.424  29.850  27.937  1.00  0.00     0.010 A 
ATOM     14  C   UNL A   1      38.655  29.199  29.149  1.00  0.00    -0.014 A 
BRANCH  14  15
ATOM     15  C   UNL A   1      40.021  28.765  29.542  1.00  0.00     0.031 A 
ATOM     16  C   UNL A   1      40.754  29.491  30.626  1.00  0.00     0.074 A 
ATOM     17  C   UNL A   1      40.581  27.681  28.977  1.00  0.00     0.049 A 
ATOM     18  N   UNL A   1      41.933  29.237  31.131  1.00  0.00    -0.248 NA
ATOM     19  C   UNL A   1      40.069  30.641  31.233  1.00  0.00     0.031 C 
ATOM     20  C   UNL A   1      39.937  26.874  27.958  1.00  0.00     0.029 A 
ATOM     21  N   UNL A   1      41.778  27.045  29.181  1.00  0.00    -0.354 N 
ATOM     22  C   UNL A   1      42.127  30.181  32.125  1.00  0.00     0.074 A 
ATOM     23  C   UNL A   1      40.959  31.038  32.132  1.00  0.00     0.031 C 
ATOM     24  C   UNL A   1      40.688  25.800  27.677  1.00  0.00     0.029 A 
ATOM     25  C   UNL A   1      41.930  25.901  28.428  1.00  0.00     0.049 A 
ATOM     26  H   UNL A   1      42.464  27.374  29.805  1.00  0.00     0.167 HD
ATOM     27  C   UNL A   1      43.181  30.304  32.964  1.00  0.00     0.037 A 
ATOM     28  C   UNL A   1      42.970  25.053  28.330  1.00  0.00     0.037 A 
ATOM     29  C   UNL A   1      44.339  29.453  32.946  1.00  0.00     0.049 A 
ATOM     30  C   UNL A   1      44.218  25.391  29.091  1.00  0.00     0.074 A 
ATOM     31  C   UNL A   1      45.428  29.447  33.800  1.00  0.00     0.029 A 
ATOM     32  N   UNL A   1      44.567  28.460  32.004  1.00  0.00    -0.354 N 
ATOM     33  N   UNL A   1      44.389  26.272  30.044  1.00  0.00    -0.248 NA
ATOM     34  C   UNL A   1      45.433  24.653  28.722  1.00  0.00     0.031 C 
ATOM     35  C   UNL A   1      46.335  28.479  33.346  1.00  0.00     0.029 A 
ATOM     36  C   UNL A   1      45.799  27.869  32.224  1.00  0.00     0.049 A 
ATOM     37  H   UNL A   1      43.942  28.213  31.283  1.00  0.00     0.167 HD
ATOM     38  C   UNL A   1      45.717  26.169  30.420  1.00  0.00     0.074 A 
ATOM     39  C   UNL A   1      46.313  25.149  29.580  1.00  0.00     0.031 C 
ATOM     40  C   UNL A   1      46.378  26.851  31.386  1.00  0.00     0.037 A 
BRANCH  27  41
ATOM     41  C   UNL A   1      43.119  31.413  33.966  1.00  0.00     0.064 A 
ATOM     42  C   UNL A   1      43.721  32.653  33.715  1.00  0.00     0.173 A 
ATOM     43  C   UNL A   1      42.454  31.233  35.187  1.00  0.00     0.173 A 
ATOM     44  F   UNL A   1      44.384  32.862  32.567  1.00  0.00    -0.203 F 
ATOM     45  C   UNL A   1      43.675  33.673  34.662  1.00  0.00     0.198 A 
ATOM     46  C   UNL A   1      42.399  32.258  36.126  1.00  0.00     0.198 A 
ATOM     47  F   UNL A   1      41.871  30.059  35.472  1.00  0.00    -0.203 F 
ATOM     48  F   UNL A   1      44.287  34.840  34.418  1.00  0.00    -0.200 F 
ATOM     49  C   UNL A   1      43.012  33.475  35.865  1.00  0.00     0.200 A 
ATOM     50  F   UNL A   1      41.761  32.067  37.289  1.00  0.00    -0.200 F 
ATOM     51  F   UNL A   1      42.975  34.454  36.778  1.00  0.00    -0.200 F 
ENDBRANCH  27  41
BRANCH  28  52
ATOM     52  C   UNL A   1      42.914  23.834  27.479  1.00  0.00     0.064 A 
ATOM     53  C   UNL A   1      42.531  22.602  28.030  1.00  0.00     0.173 A 
ATOM     54  C   UNL A   1      43.277  23.850  26.126  1.00  0.00     0.173 A 
ATOM     55  F   UNL A   1      42.206  22.522  29.328  1.00  0.00    -0.203 F 
ATOM     56  C   UNL A   1      42.518  21.437  27.262  1.00  0.00     0.198 A 
ATOM     57  C   UNL A   1      43.229  22.692  25.353  1.00  0.00     0.198 A 
ATOM     58  F   UNL A   1      43.677  24.992  25.548  1.00  0.00    -0.203 F 
ATOM     59  F   UNL A   1      42.189  20.267  27.826  1.00  0.00    -0.200 F 
ATOM     60  C   UNL A   1      42.860  21.485  25.922  1.00  0.00     0.200 A 
ATOM     61  F   UNL A   1      43.542  22.741  24.052  1.00  0.00    -0.200 F 
ATOM     62  F   UNL A   1      42.847  20.370  25.180  1.00  0.00    -0.200 F 
ENDBRANCH  28  52
BRANCH  40  63
ATOM     63  C   UNL A   1      47.800  26.456  31.622  1.00  0.00     0.064 A 
ATOM     64  C   UNL A   1      48.140  25.473  32.559  1.00  0.00     0.173 A 
ATOM     65  C   UNL A   1      48.834  27.092  30.920  1.00  0.00     0.173 A 
ATOM     66  F   UNL A   1      47.184  24.864  33.277  1.00  0.00    -0.203 F 
ATOM     67  C   UNL A   1      49.473  25.152  32.800  1.00  0.00     0.198 A 
ATOM     68  C   UNL A   1      50.163  26.755  31.149  1.00  0.00     0.198 A 
ATOM     69  F   UNL A   1      48.552  28.047  30.021  1.00  0.00    -0.203 F 
ATOM     70  F   UNL A   1      49.783  24.243  33.735  1.00  0.00    -0.200 F 
ATOM     71  C   UNL A   1      50.482  25.790  32.093  1.00  0.00     0.200 A 
ATOM     72  F   UNL A   1      51.137  27.374  30.467  1.00  0.00    -0.200 F 
ATOM     73  F   UNL A   1      51.764  25.487  32.333  1.00  0.00    -0.200 F 
ENDBRANCH  40  63
ENDBRANCH  14  15
ENDBRANCH   7   9
ENDBRANCH   6   7
ENDBRANCH   5   6
ENDBRANCH   4   5
ENDBRANCH   3   4
ENDBRANCH   1   3
BRANCH   1  74
ATOM     74  C   UNL A   1      33.471  36.490  31.144  1.00  0.00     0.152 A 
ATOM     75  N   UNL A   1      33.684  37.829  31.329  1.00  0.00    -0.271 N 
ATOM     76  C   UNL A   1      33.528  35.909  32.405  1.00  0.00     0.059 A 
ATOM     77  N   UNL A   1      33.704  38.193  32.617  1.00  0.00    -0.183 NA
ATOM     78  H   UNL A   1      33.810  38.464  30.587  1.00  0.00     0.190 HD
ATOM     79  C   UNL A   1      33.573  37.039  33.268  1.00  0.00     0.145 A 
BRANCH  76  80
ATOM     80  C   UNL A   1      33.391  34.458  32.753  1.00  0.00     0.303 C 
BRANCH  80  81
ATOM     81  N   UNL A   1      34.635  33.684  32.925  1.00  0.00    -0.330 N 
ATOM     82  C   UNL A   1      34.746  32.595  31.956  1.00  0.00     0.262 C 
ATOM     83  C   UNL A   1      35.880  34.459  33.023  1.00  0.00     0.274 C 
ATOM     84  H   UNL A   1      34.531  33.282  33.857  1.00  0.00     0.348 HD
ATOM     85  C   UNL A   1      35.890  31.664  32.352  1.00  0.00     0.062 C 
ATOM     86  C   UNL A   1      37.124  33.619  33.371  1.00  0.00     0.116 C 
ATOM     87  C   UNL A   1      37.209  32.421  32.423  1.00  0.00     0.023 C 
BRANCH  86  88
ATOM     88  C   UNL A   1      38.340  34.568  33.389  1.00  0.00     0.171 C 
ATOM     89  O   UNL A   1      38.588  35.301  34.347  1.00  0.00    -0.294 OA
BRANCH  88  90
ATOM     90  C   UNL A   1      39.347  34.523  32.304  1.00  0.00     0.018 A 
ATOM     91  C   UNL A   1      38.918  34.555  30.973  1.00  0.00     0.015 A 
ATOM     92  C   UNL A   1      40.705  34.404  32.591  1.00  0.00     0.015 A 
ATOM     93  C   UNL A   1      39.857  34.558  29.936  1.00  0.00     0.048 A 
ATOM     94  C   UNL A   1      41.640  34.440  31.561  1.00  0.00     0.048 A 
ATOM     95  C   UNL A   1      41.222  34.509  30.228  1.00  0.00     0.127 A 
BRANCH  95  96
ATOM     96  O   UNL A   1      42.080  34.545  29.145  1.00  0.00    -0.457 OA
BRANCH  96  97
ATOM     97  C   UNL A   1      43.209  33.763  29.222  1.00  0.00     0.127 A 
ATOM     98  C   UNL A   1      44.454  34.391  29.240  1.00  0.00     0.047 A 
ATOM     99  C   UNL A   1      43.110  32.372  29.299  1.00  0.00     0.047 A 
ATOM    100  C   UNL A   1      45.606  33.623  29.405  1.00  0.00     0.004 A 
ATOM    101  C   UNL A   1      44.263  31.610  29.475  1.00  0.00     0.004 A 
ATOM    102  C   UNL A   1      45.508  32.236  29.535  1.00  0.00     0.000 A 
ENDBRANCH  96  97
ENDBRANCH  95  96
ENDBRANCH  88  90
ENDBRANCH  86  88
ENDBRANCH  80  81
ENDBRANCH  76  80
ENDBRANCH   1  74
TORSDOF 17
ENDMDL
MODEL 2
REMARK VINA RESULT:     -11.1      4.214     10.780
REMARK SMILES O=C(OCCOC(=O)c1[nH]ncc1C[N@H+]1CCC[C@@H](C(=O)c2ccc(Oc3ccccc3)cc2)C1)c1ccc(-c2c3nc(c(-c4c(F)c(F)c(F)c(F)c4F)c4ccc([nH]4)c(-c4c(F)c(F)c(F)c(F)c4F)c4nc(c(-c5c(F)c(F)c(F)c(F)c5F)c5ccc2[nH]5)C=C4)C=C3)cc1
REMARK SMILES IDX 7 1 8 2 6 3 5 4 4 5 3 6 2 7 1 8 36 9 37 10 98 11 38 12 97 13
REMARK SMILES IDX 39 14 40 15 41 16 91 17 42 18 96 19 90 20 92 21 43 22 95 23
REMARK SMILES IDX 89 24 88 25 44 27 76 28 56 29 75 30 57 31 60 32 74 33 93 34
REMARK SMILES IDX 58 35 59 36 73 38 94 39 61 40 45 41 46 42 54 43 47 44 48 45
REMARK SMILES IDX 52 46 55 47 49 48 50 49 53 50 51 51 77 52 78 53 86 54 79 55
REMARK SMILES IDX 80 56 84 57 87 58 81 59 82 60 85 61 83 62 62 63 63 64 71 65
REMARK SMILES IDX 64 66 65 67 69 68 72 69 66 70 67 71 70 72 68 73 9 74 10 75
REMARK SMILES IDX 13 76 11 77 12 79 14 80 15 81 16 82 35 83 17 85 19 86 18 87
REMARK SMILES IDX 20 88 21 89 22 90 23 91 34 92 24 93 33 94 25 95 26 96 27 97
REMARK SMILES IDX 28 98 32 99 29 100 31 101 30 102
REMARK H PARENT 92 26 60 37 10 78 15 84
REMARK Flexibility Score: inf
ROOT
ATOM      1  C   UNL A   1      43.051  18.924  25.650  1.00  0.00     0.356 C 
ATOM      2  O   UNL A   1      42.637  17.776  25.728  1.00  0.00    -0.244 OA
ENDROOT
BRANCH   1   3
ATOM      3  O   UNL A   1      42.277  20.041  25.519  1.00  0.00    -0.457 OA
BRANCH   3   4
ATOM      4  C   UNL A   1      41.051  20.019  26.261  1.00  0.00     0.275 C 
BRANCH   4   5
ATOM      5  C   UNL A   1      40.695  21.410  26.795  1.00  0.00     0.275 C 
BRANCH   5   6
ATOM      6  O   UNL A   1      39.592  22.011  26.090  1.00  0.00    -0.458 OA
BRANCH   6   7
ATOM      7  C   UNL A   1      38.889  23.151  26.270  1.00  0.00     0.338 C 
ATOM      8  O   UNL A   1      37.725  23.153  25.864  1.00  0.00    -0.246 OA
BRANCH   7   9
ATOM      9  C   UNL A   1      39.400  24.432  26.880  1.00  0.00     0.060 A 
ATOM     10  C   UNL A   1      40.277  25.353  26.305  1.00  0.00     0.016 A 
ATOM     11  C   UNL A   1      38.930  24.729  28.179  1.00  0.00     0.016 A 
ATOM     12  C   UNL A   1      40.692  26.501  27.003  1.00  0.00     0.010 A 
ATOM     13  C   UNL A   1      39.316  25.887  28.869  1.00  0.00     0.010 A 
ATOM     14  C   UNL A   1      40.218  26.780  28.290  1.00  0.00    -0.014 A 
BRANCH  14  15
ATOM     15  C   UNL A   1      40.679  27.990  29.019  1.00  0.00     0.031 A 
ATOM     16  C   UNL A   1      39.744  29.136  29.236  1.00  0.00     0.074 A 
ATOM     17  C   UNL A   1      41.916  28.037  29.547  1.00  0.00     0.049 A 
ATOM     18  N   UNL A   1      39.953  30.256  29.879  1.00  0.00    -0.248 NA
ATOM     19  C   UNL A   1      38.392  29.004  28.672  1.00  0.00     0.031 C 
ATOM     20  C   UNL A   1      42.883  26.960  29.442  1.00  0.00     0.029 A 
ATOM     21  N   UNL A   1      42.570  28.985  30.291  1.00  0.00    -0.354 N 
ATOM     22  C   UNL A   1      38.760  30.955  29.814  1.00  0.00     0.074 A 
ATOM     23  C   UNL A   1      37.837  30.151  29.038  1.00  0.00     0.031 C 
ATOM     24  C   UNL A   1      43.975  27.251  30.163  1.00  0.00     0.029 A 
ATOM     25  C   UNL A   1      43.826  28.595  30.699  1.00  0.00     0.049 A 
ATOM     26  H   UNL A   1      42.179  29.860  30.512  1.00  0.00     0.167 HD
ATOM     27  C   UNL A   1      38.463  32.153  30.369  1.00  0.00     0.037 A 
ATOM     28  C   UNL A   1      44.763  29.264  31.396  1.00  0.00     0.037 A 
ATOM     29  C   UNL A   1      39.387  32.947  31.132  1.00  0.00     0.049 A 
ATOM     30  C   UNL A   1      44.475  30.691  31.758  1.00  0.00     0.074 A 
ATOM     31  C   UNL A   1      39.166  34.139  31.798  1.00  0.00     0.029 A 
ATOM     32  N   UNL A   1      40.726  32.633  31.312  1.00  0.00    -0.354 N 
ATOM     33  N   UNL A   1      43.339  31.339  31.712  1.00  0.00    -0.248 NA
ATOM     34  C   UNL A   1      45.615  31.495  32.217  1.00  0.00     0.031 C 
ATOM     35  C   UNL A   1      40.383  34.568  32.344  1.00  0.00     0.029 A 
ATOM     36  C   UNL A   1      41.355  33.631  32.036  1.00  0.00     0.049 A 
ATOM     37  H   UNL A   1      41.165  31.818  30.974  1.00  0.00     0.167 HD
ATOM     38  C   UNL A   1      43.614  32.615  32.174  1.00  0.00     0.074 A 
ATOM     39  C   UNL A   1      45.030  32.655  32.480  1.00  0.00     0.031 C 
ATOM     40  C   UNL A   1      42.762  33.655  32.341  1.00  0.00     0.037 A 
BRANCH  27  41
ATOM     41  C   UNL A   1      37.076  32.669  30.155  1.00  0.00     0.064 A 
ATOM     42  C   UNL A   1      36.075  32.484  31.118  1.00  0.00     0.173 A 
ATOM     43  C   UNL A   1      36.745  33.351  28.976  1.00  0.00     0.173 A 
ATOM     44  F   UNL A   1      36.344  31.819  32.252  1.00  0.00    -0.203 F 
ATOM     45  C   UNL A   1      34.781  32.951  30.901  1.00  0.00     0.198 A 
ATOM     46  C   UNL A   1      35.454  33.828  28.768  1.00  0.00     0.198 A 
ATOM     47  F   UNL A   1      37.669  33.543  28.023  1.00  0.00    -0.203 F 
ATOM     48  F   UNL A   1      33.829  32.734  31.818  1.00  0.00    -0.200 F 
ATOM     49  C   UNL A   1      34.473  33.624  29.727  1.00  0.00     0.200 A 
ATOM     50  F   UNL A   1      35.155  34.476  27.633  1.00  0.00    -0.200 F 
ATOM     51  F   UNL A   1      33.226  34.066  29.516  1.00  0.00    -0.200 F 
ENDBRANCH  27  41
BRANCH  28  52
ATOM     52  C   UNL A   1      46.057  28.637  31.776  1.00  0.00     0.064 A 
ATOM     53  C   UNL A   1      46.155  27.867  32.946  1.00  0.00     0.173 A 
ATOM     54  C   UNL A   1      47.226  28.818  31.025  1.00  0.00     0.173 A 
ATOM     55  F   UNL A   1      45.075  27.688  33.721  1.00  0.00    -0.203 F 
ATOM     56  C   UNL A   1      47.369  27.310  33.348  1.00  0.00     0.198 A 
ATOM     57  C   UNL A   1      48.429  28.231  31.410  1.00  0.00     0.198 A 
ATOM     58  F   UNL A   1      47.203  29.565  29.912  1.00  0.00    -0.203 F 
ATOM     59  F   UNL A   1      47.441  26.616  34.492  1.00  0.00    -0.200 F 
ATOM     60  C   UNL A   1      48.504  27.487  32.575  1.00  0.00     0.200 A 
ATOM     61  F   UNL A   1      49.522  28.386  30.653  1.00  0.00    -0.200 F 
ATOM     62  F   UNL A   1      49.672  26.951  32.955  1.00  0.00    -0.200 F 
ENDBRANCH  28  52
BRANCH  40  63
ATOM     63  C   UNL A   1      43.340  34.895  32.946  1.00  0.00     0.064 A 
ATOM     64  C   UNL A   1      43.466  35.040  34.333  1.00  0.00     0.173 A 
ATOM     65  C   UNL A   1      43.745  35.957  32.125  1.00  0.00     0.173 A 
ATOM     66  F   UNL A   1      43.058  34.062  35.155  1.00  0.00    -0.203 F 
ATOM     67  C   UNL A   1      43.961  36.220  34.881  1.00  0.00     0.198 A 
ATOM     68  C   UNL A   1      44.257  37.126  32.676  1.00  0.00     0.198 A 
ATOM     69  F   UNL A   1      43.631  35.862  30.792  1.00  0.00    -0.203 F 
ATOM     70  F   UNL A   1      44.030  36.362  36.212  1.00  0.00    -0.200 F 
ATOM     71  C   UNL A   1      44.359  37.260  34.052  1.00  0.00     0.200 A 
ATOM     72  F   UNL A   1      44.639  38.131  31.874  1.00  0.00    -0.200 F 
ATOM     73  F   UNL A   1      44.827  38.398  34.581  1.00  0.00    -0.200 F 
ENDBRANCH  40  63
ENDBRANCH  14  15
ENDBRANCH   7   9
ENDBRANCH   6   7
ENDBRANCH   5   6
ENDBRANCH   4   5
ENDBRANCH   3   4
ENDBRANCH   1   3
BRANCH   1  74
ATOM     74  C   UNL A   1      44.425  19.282  25.472  1.00  0.00     0.152 A 
ATOM     75  N   UNL A   1      45.424  18.419  25.833  1.00  0.00    -0.271 N 
ATOM     76  C   UNL A   1      45.049  20.371  24.874  1.00  0.00     0.059 A 
ATOM     77  N   UNL A   1      46.628  18.773  25.370  1.00  0.00    -0.183 NA
ATOM     78  H   UNL A   1      45.271  17.615  26.381  1.00  0.00     0.190 HD
ATOM     79  C   UNL A   1      46.397  19.933  24.758  1.00  0.00     0.145 A 
BRANCH  76  80
ATOM     80  C   UNL A   1      44.407  21.611  24.332  1.00  0.00     0.303 C 
BRANCH  80  81
ATOM     81  N   UNL A   1      44.107  22.692  25.290  1.00  0.00    -0.330 N 
ATOM     82  C   UNL A   1      44.321  22.277  26.675  1.00  0.00     0.262 C 
ATOM     83  C   UNL A   1      44.714  24.001  25.010  1.00  0.00     0.274 C 
ATOM     84  H   UNL A   1      43.111  22.857  25.148  1.00  0.00     0.348 HD
ATOM     85  C   UNL A   1      43.733  23.319  27.624  1.00  0.00     0.062 C 
ATOM     86  C   UNL A   1      44.236  25.133  25.939  1.00  0.00     0.116 C 
ATOM     87  C   UNL A   1      44.368  24.684  27.397  1.00  0.00     0.023 C 
BRANCH  86  88
ATOM     88  C   UNL A   1      44.997  26.416  25.546  1.00  0.00     0.171 C 
ATOM     89  O   UNL A   1      45.810  26.440  24.622  1.00  0.00    -0.294 OA
BRANCH  88  90
ATOM     90  C   UNL A   1      44.664  27.713  26.177  1.00  0.00     0.018 A 
ATOM     91  C   UNL A   1      43.393  28.263  25.978  1.00  0.00     0.015 A 
ATOM     92  C   UNL A   1      45.611  28.411  26.923  1.00  0.00     0.015 A 
ATOM     93  C   UNL A   1      43.046  29.465  26.603  1.00  0.00     0.048 A 
ATOM     94  C   UNL A   1      45.255  29.590  27.571  1.00  0.00     0.048 A 
ATOM     95  C   UNL A   1      43.974  30.129  27.409  1.00  0.00     0.127 A 
BRANCH  95  96
ATOM     96  O   UNL A   1      43.539  31.294  28.011  1.00  0.00    -0.457 OA
BRANCH  96  97
ATOM     97  C   UNL A   1      44.124  32.466  27.590  1.00  0.00     0.127 A 
ATOM     98  C   UNL A   1      44.178  32.729  26.222  1.00  0.00     0.047 A 
ATOM     99  C   UNL A   1      44.636  33.380  28.514  1.00  0.00     0.047 A 
ATOM    100  C   UNL A   1      44.688  33.949  25.779  1.00  0.00     0.004 A 
ATOM    101  C   UNL A   1      45.134  34.602  28.067  1.00  0.00     0.004 A 
ATOM    102  C   UNL A   1      45.153  34.889  26.702  1.00  0.00     0.000 A 
ENDBRANCH  96  97
ENDBRANCH  95  96
ENDBRANCH  88  90
ENDBRANCH  86  88
ENDBRANCH  80  81
ENDBRANCH  76  80
ENDBRANCH   1  74
TORSDOF 17
ENDMDL
MODEL 3
REMARK VINA RESULT:     -11.1      5.772     12.017
REMARK SMILES O=C(OCCOC(=O)c1[nH]ncc1C[N@H+]1CCC[C@@H](C(=O)c2ccc(Oc3ccccc3)cc2)C1)c1ccc(-c2c3nc(c(-c4c(F)c(F)c(F)c(F)c4F)c4ccc([nH]4)c(-c4c(F)c(F)c(F)c(F)c4F)c4nc(c(-c5c(F)c(F)c(F)c(F)c5F)c5ccc2[nH]5)C=C4)C=C3)cc1
REMARK SMILES IDX 7 1 8 2 6 3 5 4 4 5 3 6 2 7 1 8 36 9 37 10 98 11 38 12 97 13
REMARK SMILES IDX 39 14 40 15 41 16 91 17 42 18 96 19 90 20 92 21 43 22 95 23
REMARK SMILES IDX 89 24 88 25 44 27 76 28 56 29 75 30 57 31 60 32 74 33 93 34
REMARK SMILES IDX 58 35 59 36 73 38 94 39 61 40 45 41 46 42 54 43 47 44 48 45
REMARK SMILES IDX 52 46 55 47 49 48 50 49 53 50 51 51 77 52 78 53 86 54 79 55
REMARK SMILES IDX 80 56 84 57 87 58 81 59 82 60 85 61 83 62 62 63 63 64 71 65
REMARK SMILES IDX 64 66 65 67 69 68 72 69 66 70 67 71 70 72 68 73 9 74 10 75
REMARK SMILES IDX 13 76 11 77 12 79 14 80 15 81 16 82 35 83 17 85 19 86 18 87
REMARK SMILES IDX 20 88 21 89 22 90 23 91 34 92 24 93 33 94 25 95 26 96 27 97
REMARK SMILES IDX 28 98 32 99 29 100 31 101 30 102
REMARK H PARENT 92 26 60 37 10 78 15 84
REMARK Flexibility Score: inf
ROOT
ATOM      1  C   UNL A   1      35.576  20.568  25.379  1.00  0.00     0.356 C 
ATOM      2  O   UNL A   1      35.740  21.505  26.147  1.00  0.00    -0.244 OA
ENDROOT
BRANCH   1   3
ATOM      3  O   UNL A   1      36.560  19.941  24.670  1.00  0.00    -0.457 OA
BRANCH   3   4
ATOM      4  C   UNL A   1      37.895  20.350  24.992  1.00  0.00     0.275 C 
BRANCH   4   5
ATOM      5  C   UNL A   1      38.729  19.177  25.516  1.00  0.00     0.275 C 
BRANCH   5   6
ATOM      6  O   UNL A   1      40.081  19.555  25.837  1.00  0.00    -0.458 OA
BRANCH   6   7
ATOM      7  C   UNL A   1      40.647  20.147  26.913  1.00  0.00     0.338 C 
ATOM      8  O   UNL A   1      40.878  19.423  27.884  1.00  0.00    -0.246 OA
BRANCH   7   9
ATOM      9  C   UNL A   1      40.984  21.610  27.057  1.00  0.00     0.060 A 
ATOM     10  C   UNL A   1      40.544  22.663  26.254  1.00  0.00     0.016 A 
ATOM     11  C   UNL A   1      41.839  21.945  28.131  1.00  0.00     0.016 A 
ATOM     12  C   UNL A   1      40.960  23.985  26.491  1.00  0.00     0.010 A 
ATOM     13  C   UNL A   1      42.235  23.265  28.391  1.00  0.00     0.010 A 
ATOM     14  C   UNL A   1      41.809  24.300  27.559  1.00  0.00    -0.014 A 
BRANCH  14  15
ATOM     15  C   UNL A   1      42.252  25.701  27.783  1.00  0.00     0.031 A 
ATOM     16  C   UNL A   1      43.580  26.158  27.270  1.00  0.00     0.074 A 
ATOM     17  C   UNL A   1      41.437  26.584  28.388  1.00  0.00     0.049 A 
ATOM     18  N   UNL A   1      44.120  27.347  27.335  1.00  0.00    -0.248 NA
ATOM     19  C   UNL A   1      44.404  25.155  26.578  1.00  0.00     0.031 C 
ATOM     20  C   UNL A   1      40.110  26.260  28.876  1.00  0.00     0.029 A 
ATOM     21  N   UNL A   1      41.568  27.918  28.674  1.00  0.00    -0.354 N 
ATOM     22  C   UNL A   1      45.336  27.244  26.682  1.00  0.00     0.074 A 
ATOM     23  C   UNL A   1      45.475  25.866  26.255  1.00  0.00     0.031 C 
ATOM     24  C   UNL A   1      39.500  27.367  29.322  1.00  0.00     0.029 A 
ATOM     25  C   UNL A   1      40.444  28.471  29.249  1.00  0.00     0.049 A 
ATOM     26  H   UNL A   1      42.386  28.432  28.488  1.00  0.00     0.167 HD
ATOM     27  C   UNL A   1      46.243  28.221  26.447  1.00  0.00     0.037 A 
ATOM     28  C   UNL A   1      40.219  29.720  29.697  1.00  0.00     0.037 A 
ATOM     29  C   UNL A   1      46.100  29.584  26.880  1.00  0.00     0.049 A 
ATOM     30  C   UNL A   1      41.360  30.692  29.651  1.00  0.00     0.074 A 
ATOM     31  C   UNL A   1      46.926  30.666  26.633  1.00  0.00     0.029 A 
ATOM     32  N   UNL A   1      45.063  30.048  27.676  1.00  0.00    -0.354 N 
ATOM     33  N   UNL A   1      42.500  30.596  29.015  1.00  0.00    -0.248 NA
ATOM     34  C   UNL A   1      41.205  31.926  30.434  1.00  0.00     0.031 C 
ATOM     35  C   UNL A   1      46.410  31.776  27.316  1.00  0.00     0.029 A 
ATOM     36  C   UNL A   1      45.252  31.388  27.970  1.00  0.00     0.049 A 
ATOM     37  H   UNL A   1      44.303  29.503  27.987  1.00  0.00     0.167 HD
ATOM     38  C   UNL A   1      43.183  31.770  29.282  1.00  0.00     0.074 A 
ATOM     39  C   UNL A   1      42.335  32.560  30.154  1.00  0.00     0.031 C 
ATOM     40  C   UNL A   1      44.398  32.163  28.832  1.00  0.00     0.037 A 
BRANCH  27  41
ATOM     41  C   UNL A   1      47.473  27.830  25.692  1.00  0.00     0.064 A 
ATOM     42  C   UNL A   1      47.474  27.756  24.292  1.00  0.00     0.173 A 
ATOM     43  C   UNL A   1      48.659  27.525  26.373  1.00  0.00     0.173 A 
ATOM     44  F   UNL A   1      46.354  28.020  23.602  1.00  0.00    -0.203 F 
ATOM     45  C   UNL A   1      48.618  27.372  23.599  1.00  0.00     0.198 A 
ATOM     46  C   UNL A   1      49.806  27.154  25.676  1.00  0.00     0.198 A 
ATOM     47  F   UNL A   1      48.702  27.575  27.713  1.00  0.00    -0.203 F 
ATOM     48  F   UNL A   1      48.589  27.273  22.263  1.00  0.00    -0.200 F 
ATOM     49  C   UNL A   1      49.783  27.074  24.291  1.00  0.00     0.200 A 
ATOM     50  F   UNL A   1      50.931  26.864  26.344  1.00  0.00    -0.200 F 
ATOM     51  F   UNL A   1      50.881  26.698  23.623  1.00  0.00    -0.200 F 
ENDBRANCH  27  41
BRANCH  28  52
ATOM     52  C   UNL A   1      38.901  30.130  30.252  1.00  0.00     0.064 A 
ATOM     53  C   UNL A   1      37.895  30.614  29.402  1.00  0.00     0.173 A 
ATOM     54  C   UNL A   1      38.625  30.097  31.625  1.00  0.00     0.173 A 
ATOM     55  F   UNL A   1      38.117  30.698  28.082  1.00  0.00    -0.203 F 
ATOM     56  C   UNL A   1      36.669  31.049  29.905  1.00  0.00     0.198 A 
ATOM     57  C   UNL A   1      37.387  30.501  32.121  1.00  0.00     0.198 A 
ATOM     58  F   UNL A   1      39.555  29.671  32.491  1.00  0.00    -0.203 F 
ATOM     59  F   UNL A   1      35.742  31.546  29.074  1.00  0.00    -0.200 F 
ATOM     60  C   UNL A   1      36.413  30.986  31.264  1.00  0.00     0.200 A 
ATOM     61  F   UNL A   1      37.133  30.422  33.433  1.00  0.00    -0.200 F 
ATOM     62  F   UNL A   1      35.236  31.401  31.751  1.00  0.00    -0.200 F 
ENDBRANCH  28  52
BRANCH  40  63
ATOM     63  C   UNL A   1      44.840  33.536  29.226  1.00  0.00     0.064 A 
ATOM     64  C   UNL A   1      45.578  33.759  30.395  1.00  0.00     0.173 A 
ATOM     65  C   UNL A   1      44.495  34.641  28.436  1.00  0.00     0.173 A 
ATOM     66  F   UNL A   1      45.900  32.733  31.197  1.00  0.00    -0.203 F 
ATOM     67  C   UNL A   1      45.939  35.049  30.772  1.00  0.00     0.198 A 
ATOM     68  C   UNL A   1      44.874  35.927  28.805  1.00  0.00     0.198 A 
ATOM     69  F   UNL A   1      43.779  34.472  27.313  1.00  0.00    -0.203 F 
ATOM     70  F   UNL A   1      46.603  35.250  31.919  1.00  0.00    -0.200 F 
ATOM     71  C   UNL A   1      45.591  36.131  29.975  1.00  0.00     0.200 A 
ATOM     72  F   UNL A   1      44.534  36.971  28.036  1.00  0.00    -0.200 F 
ATOM     73  F   UNL A   1      45.931  37.373  30.343  1.00  0.00    -0.200 F 
ENDBRANCH  40  63
ENDBRANCH  14  15
ENDBRANCH   7   9
ENDBRANCH   6   7
ENDBRANCH   5   6
ENDBRANCH   4   5
ENDBRANCH   3   4
ENDBRANCH   1   3
BRANCH   1  74
ATOM     74  C   UNL A   1      34.302  20.099  24.929  1.00  0.00     0.152 A 
ATOM     75  N   UNL A   1      33.864  18.845  25.258  1.00  0.00    -0.271 N 
ATOM     76  C   UNL A   1      33.257  20.708  24.244  1.00  0.00     0.059 A 
ATOM     77  N   UNL A   1      32.566  18.647  24.997  1.00  0.00    -0.183 NA
ATOM     78  H   UNL A   1      34.447  18.155  25.649  1.00  0.00     0.190 HD
ATOM     79  C   UNL A   1      32.189  19.786  24.418  1.00  0.00     0.145 A 
BRANCH  76  80
ATOM     80  C   UNL A   1      33.234  22.078  23.638  1.00  0.00     0.303 C 
BRANCH  80  81
ATOM     81  N   UNL A   1      33.610  23.208  24.507  1.00  0.00    -0.330 N 
ATOM     82  C   UNL A   1      34.779  23.928  24.003  1.00  0.00     0.262 C 
ATOM     83  C   UNL A   1      32.528  24.125  24.893  1.00  0.00     0.274 C 
ATOM     84  H   UNL A   1      33.860  22.753  25.384  1.00  0.00     0.348 HD
ATOM     85  C   UNL A   1      35.293  24.893  25.069  1.00  0.00     0.062 C 
ATOM     86  C   UNL A   1      32.937  25.185  25.934  1.00  0.00     0.116 C 
ATOM     87  C   UNL A   1      34.213  25.890  25.467  1.00  0.00     0.023 C 
BRANCH  86  88
ATOM     88  C   UNL A   1      31.711  26.086  26.192  1.00  0.00     0.171 C 
ATOM     89  O   UNL A   1      31.342  26.384  27.327  1.00  0.00    -0.294 OA
BRANCH  88  90
ATOM     90  C   UNL A   1      31.015  26.751  25.067  1.00  0.00     0.018 A 
ATOM     91  C   UNL A   1      29.748  26.297  24.683  1.00  0.00     0.015 A 
ATOM     92  C   UNL A   1      31.622  27.787  24.361  1.00  0.00     0.015 A 
ATOM     93  C   UNL A   1      29.058  26.942  23.652  1.00  0.00     0.048 A 
ATOM     94  C   UNL A   1      30.921  28.449  23.357  1.00  0.00     0.048 A 
ATOM     95  C   UNL A   1      29.639  28.026  22.990  1.00  0.00     0.127 A 
BRANCH  95  96
ATOM     96  O   UNL A   1      28.876  28.622  22.005  1.00  0.00    -0.457 OA
BRANCH  96  97
ATOM     97  C   UNL A   1      28.518  29.935  22.207  1.00  0.00     0.127 A 
ATOM     98  C   UNL A   1      27.795  30.258  23.354  1.00  0.00     0.047 A 
ATOM     99  C   UNL A   1      28.887  30.924  21.291  1.00  0.00     0.047 A 
ATOM    100  C   UNL A   1      27.497  31.595  23.621  1.00  0.00     0.004 A 
ATOM    101  C   UNL A   1      28.597  32.258  21.569  1.00  0.00     0.004 A 
ATOM    102  C   UNL A   1      27.910  32.593  22.736  1.00  0.00     0.000 A 
ENDBRANCH  96  97
ENDBRANCH  95  96
ENDBRANCH  88  90
ENDBRANCH  86  88
ENDBRANCH  80  81
ENDBRANCH  76  80
ENDBRANCH   1  74
TORSDOF 17
ENDMDL
