MODEL 1
REMARK VINA RESULT:     -13.5      0.000      0.000
REMARK SMILES Cc1c(C(=O)OCCOC(=O)c2ccc(-c3c4nc(c(-c5c(F)c(F)c(F)c(F)c5F)c5ccc([nH]5)c(-c5c(F)c(F)c(F)c(F)c5F)c5nc(c(-c6c(F)c(F)c(F)c(F)c6F)c6ccc3[nH]6)C=C5)C=C4)cc2)sc2c1=C(CSc1nncn1-c1ccccc1)CC(=O)N=2
REMARK SMILES IDX 7 1 6 2 4 3 5 4 3 5 1 6 2 7 77 8 75 9 76 10 78 11 95 12
REMARK SMILES IDX 92 13 93 14 94 15 79 16 80 17 81 18 82 19 85 20 83 21 84 22
REMARK SMILES IDX 86 23 87 24 91 25 88 26 90 27 89 28 8 29 9 30 10 31 11 32
REMARK SMILES IDX 12 33 13 34 74 35 14 36 73 37 15 38 16 39 17 40 67 41 18 42
REMARK SMILES IDX 72 43 66 44 68 45 19 46 71 47 65 48 64 49 20 51 52 52 32 53
REMARK SMILES IDX 51 54 33 55 36 56 50 57 69 58 34 59 35 60 49 62 70 63 37 64
REMARK SMILES IDX 21 65 22 66 30 67 23 68 24 69 28 70 31 71 25 72 26 73 29 74
REMARK SMILES IDX 27 75 53 76 54 77 62 78 55 79 56 80 60 81 63 82 57 83 58 84
REMARK SMILES IDX 61 85 59 86 38 87 39 88 47 89 40 90 41 91 45 92 48 93 42 94
REMARK SMILES IDX 43 95 46 96 44 97
REMARK H PARENT 68 50 36 61
REMARK Flexibility Score: inf
ROOT
ATOM      1  C   UNL A   1      32.987  30.230  26.324  1.00  0.00     0.275 C 
ENDROOT
BRANCH   1   2
ATOM      2  O   UNL A   1      31.660  29.681  26.411  1.00  0.00    -0.458 OA
BRANCH   2   3
ATOM      3  C   UNL A   1      31.581  28.350  26.669  1.00  0.00     0.348 C 
ATOM      4  O   UNL A   1      31.288  27.875  27.760  1.00  0.00    -0.245 OA
BRANCH   3   5
ATOM      5  C   UNL A   1      31.822  27.524  25.448  1.00  0.00     0.118 A 
ATOM      6  C   UNL A   1      33.924  26.146  25.989  1.00  0.00     0.047 C 
ATOM      7  C   UNL A   1      32.732  26.561  25.188  1.00  0.00    -0.016 A 
ATOM      8  C   UNL A   1      32.660  26.062  23.827  1.00  0.00     0.016 A 
ATOM      9  S   UNL A   1      30.865  27.963  24.031  1.00  0.00    -0.108 S 
ATOM     10  C   UNL A   1      31.728  26.859  22.980  1.00  0.00     0.128 A 
ATOM     11  C   UNL A   1      32.811  24.848  23.261  1.00  0.00    -0.040 C 
ATOM     12  N   UNL A   1      31.478  26.753  21.724  1.00  0.00    -0.202 NA
ATOM     13  C   UNL A   1      33.180  24.927  21.791  1.00  0.00     0.135 C 
ATOM     14  C   UNL A   1      32.152  25.765  21.035  1.00  0.00     0.251 C 
ATOM     15  O   UNL A   1      31.971  25.560  19.835  1.00  0.00    -0.272 OA
BRANCH  11  16
ATOM     16  C   UNL A   1      31.976  23.605  23.543  1.00  0.00     0.110 C 
BRANCH  16  17
ATOM     17  S   UNL A   1      31.706  23.140  25.253  1.00  0.00    -0.081 SA
BRANCH  17  18
ATOM     18  C   UNL A   1      32.370  21.536  25.267  1.00  0.00     0.195 A 
ATOM     19  N   UNL A   1      31.658  20.433  25.224  1.00  0.00    -0.123 NA
ATOM     20  N   UNL A   1      33.704  21.252  25.046  1.00  0.00    -0.277 N 
ATOM     21  N   UNL A   1      32.502  19.402  24.906  1.00  0.00    -0.138 NA
ATOM     22  C   UNL A   1      33.706  19.906  24.765  1.00  0.00     0.231 A 
BRANCH  20  23
ATOM     23  C   UNL A   1      34.801  22.142  24.945  1.00  0.00     0.049 A 
ATOM     24  C   UNL A   1      35.459  22.322  23.723  1.00  0.00     0.027 A 
ATOM     25  C   UNL A   1      35.287  22.770  26.099  1.00  0.00     0.027 A 
ATOM     26  C   UNL A   1      36.639  23.062  23.670  1.00  0.00     0.002 A 
ATOM     27  C   UNL A   1      36.483  23.485  26.042  1.00  0.00     0.002 A 
ATOM     28  C   UNL A   1      37.164  23.620  24.833  1.00  0.00     0.000 A 
ENDBRANCH  20  23
ENDBRANCH  17  18
ENDBRANCH  16  17
ENDBRANCH  11  16
ENDBRANCH   3   5
ENDBRANCH   2   3
ENDBRANCH   1   2
BRANCH   1  29
ATOM     29  C   UNL A   1      33.159  31.429  27.246  1.00  0.00     0.275 C 
BRANCH  29  30
ATOM     30  O   UNL A   1      34.139  31.207  28.260  1.00  0.00    -0.458 OA
BRANCH  30  31
ATOM     31  C   UNL A   1      35.286  31.907  28.102  1.00  0.00     0.338 C 
ATOM     32  O   UNL A   1      35.437  32.945  27.481  1.00  0.00    -0.246 OA
BRANCH  31  33
ATOM     33  C   UNL A   1      36.415  31.110  28.604  1.00  0.00     0.060 A 
ATOM     34  C   UNL A   1      37.461  31.793  29.230  1.00  0.00     0.016 A 
ATOM     35  C   UNL A   1      36.532  29.757  28.253  1.00  0.00     0.016 A 
ATOM     36  C   UNL A   1      38.668  31.144  29.416  1.00  0.00     0.010 A 
ATOM     37  C   UNL A   1      37.741  29.114  28.430  1.00  0.00     0.010 A 
ATOM     38  C   UNL A   1      38.812  29.827  28.967  1.00  0.00    -0.014 A 
BRANCH  38  39
ATOM     39  C   UNL A   1      40.092  29.171  29.166  1.00  0.00     0.031 A 
ATOM     40  C   UNL A   1      40.471  28.958  30.587  1.00  0.00     0.074 A 
ATOM     41  C   UNL A   1      40.810  28.658  28.151  1.00  0.00     0.049 A 
ATOM     42  N   UNL A   1      41.555  29.328  31.185  1.00  0.00    -0.248 NA
ATOM     43  C   UNL A   1      39.485  28.315  31.469  1.00  0.00     0.031 C 
ATOM     44  C   UNL A   1      40.427  28.538  26.743  1.00  0.00     0.029 A 
ATOM     45  N   UNL A   1      42.013  28.020  28.202  1.00  0.00    -0.354 N 
ATOM     46  C   UNL A   1      41.456  28.851  32.489  1.00  0.00     0.074 A 
ATOM     47  C   UNL A   1      40.122  28.334  32.640  1.00  0.00     0.031 C 
ATOM     48  C   UNL A   1      41.273  27.681  26.128  1.00  0.00     0.029 A 
ATOM     49  C   UNL A   1      42.311  27.286  27.066  1.00  0.00     0.049 A 
ATOM     50  H   UNL A   1      42.616  28.077  28.979  1.00  0.00     0.167 HD
ATOM     51  C   UNL A   1      42.546  28.746  33.295  1.00  0.00     0.037 A 
ATOM     52  C   UNL A   1      43.291  26.356  26.947  1.00  0.00     0.037 A 
ATOM     53  C   UNL A   1      43.623  29.585  32.843  1.00  0.00     0.049 A 
ATOM     54  C   UNL A   1      44.277  26.599  28.032  1.00  0.00     0.074 A 
ATOM     55  C   UNL A   1      43.771  30.945  32.651  1.00  0.00     0.029 A 
ATOM     56  N   UNL A   1      44.681  29.004  32.190  1.00  0.00    -0.354 N 
ATOM     57  N   UNL A   1      45.077  27.626  28.077  1.00  0.00    -0.248 NA
ATOM     58  C   UNL A   1      44.090  25.899  29.295  1.00  0.00     0.031 C 
ATOM     59  C   UNL A   1      44.605  31.069  31.502  1.00  0.00     0.029 A 
ATOM     60  C   UNL A   1      44.943  29.780  31.092  1.00  0.00     0.049 A 
ATOM     61  H   UNL A   1      45.160  28.188  32.459  1.00  0.00     0.167 HD
ATOM     62  C   UNL A   1      45.144  27.959  29.421  1.00  0.00     0.074 A 
ATOM     63  C   UNL A   1      44.611  26.800  30.130  1.00  0.00     0.031 C 
ATOM     64  C   UNL A   1      45.358  29.247  29.818  1.00  0.00     0.037 A 
BRANCH  51  65
ATOM     65  C   UNL A   1      42.748  27.640  34.298  1.00  0.00     0.064 A 
ATOM     66  C   UNL A   1      43.271  26.405  33.867  1.00  0.00     0.173 A 
ATOM     67  C   UNL A   1      42.166  27.641  35.584  1.00  0.00     0.173 A 
ATOM     68  F   UNL A   1      43.830  26.285  32.652  1.00  0.00    -0.203 F 
ATOM     69  C   UNL A   1      43.144  25.243  34.632  1.00  0.00     0.198 A 
ATOM     70  C   UNL A   1      42.090  26.492  36.368  1.00  0.00     0.198 A 
ATOM     71  F   UNL A   1      41.546  28.718  36.083  1.00  0.00    -0.203 F 
ATOM     72  F   UNL A   1      43.538  24.068  34.126  1.00  0.00    -0.200 F 
ATOM     73  C   UNL A   1      42.548  25.287  35.879  1.00  0.00     0.200 A 
ATOM     74  F   UNL A   1      41.491  26.550  37.565  1.00  0.00    -0.200 F 
ATOM     75  F   UNL A   1      42.365  24.164  36.585  1.00  0.00    -0.200 F 
ENDBRANCH  51  65
BRANCH  52  76
ATOM     76  C   UNL A   1      43.292  25.113  26.139  1.00  0.00     0.064 A 
ATOM     77  C   UNL A   1      44.298  24.872  25.189  1.00  0.00     0.173 A 
ATOM     78  C   UNL A   1      42.466  24.018  26.462  1.00  0.00     0.173 A 
ATOM     79  F   UNL A   1      45.156  25.845  24.852  1.00  0.00    -0.203 F 
ATOM     80  C   UNL A   1      44.487  23.607  24.623  1.00  0.00     0.198 A 
ATOM     81  C   UNL A   1      42.646  22.760  25.886  1.00  0.00     0.198 A 
ATOM     82  F   UNL A   1      41.529  24.113  27.415  1.00  0.00    -0.203 F 
ATOM     83  F   UNL A   1      45.504  23.400  23.774  1.00  0.00    -0.200 F 
ATOM     84  C   UNL A   1      43.667  22.550  24.979  1.00  0.00     0.200 A 
ATOM     85  F   UNL A   1      41.863  21.739  26.264  1.00  0.00    -0.200 F 
ATOM     86  F   UNL A   1      43.884  21.324  24.483  1.00  0.00    -0.200 F 
ENDBRANCH  52  76
BRANCH  64  87
ATOM     87  C   UNL A   1      45.797  30.237  28.778  1.00  0.00     0.064 A 
ATOM     88  C   UNL A   1      44.912  30.921  27.928  1.00  0.00     0.173 A 
ATOM     89  C   UNL A   1      47.147  30.607  28.739  1.00  0.00     0.173 A 
ATOM     90  F   UNL A   1      43.592  30.702  27.982  1.00  0.00    -0.203 F 
ATOM     91  C   UNL A   1      45.370  31.895  27.042  1.00  0.00     0.198 A 
ATOM     92  C   UNL A   1      47.595  31.608  27.881  1.00  0.00     0.198 A 
ATOM     93  F   UNL A   1      48.028  30.030  29.571  1.00  0.00    -0.203 F 
ATOM     94  F   UNL A   1      44.507  32.522  26.229  1.00  0.00    -0.200 F 
ATOM     95  C   UNL A   1      46.710  32.242  27.025  1.00  0.00     0.200 A 
ATOM     96  F   UNL A   1      48.884  31.976  27.903  1.00  0.00    -0.200 F 
ATOM     97  F   UNL A   1      47.144  33.207  26.202  1.00  0.00    -0.200 F 
ENDBRANCH  64  87
ENDBRANCH  38  39
ENDBRANCH  31  33
ENDBRANCH  30  31
ENDBRANCH  29  30
ENDBRANCH   1  29
TORSDOF 15
ENDMDL
MODEL 2
REMARK VINA RESULT:     -13.2      4.695      8.025
REMARK SMILES Cc1c(C(=O)OCCOC(=O)c2ccc(-c3c4nc(c(-c5c(F)c(F)c(F)c(F)c5F)c5ccc([nH]5)c(-c5c(F)c(F)c(F)c(F)c5F)c5nc(c(-c6c(F)c(F)c(F)c(F)c6F)c6ccc3[nH]6)C=C5)C=C4)cc2)sc2c1=C(CSc1nncn1-c1ccccc1)CC(=O)N=2
REMARK SMILES IDX 7 1 6 2 4 3 5 4 3 5 1 6 2 7 77 8 75 9 76 10 78 11 95 12
REMARK SMILES IDX 92 13 93 14 94 15 79 16 80 17 81 18 82 19 85 20 83 21 84 22
REMARK SMILES IDX 86 23 87 24 91 25 88 26 90 27 89 28 8 29 9 30 10 31 11 32
REMARK SMILES IDX 12 33 13 34 74 35 14 36 73 37 15 38 16 39 17 40 67 41 18 42
REMARK SMILES IDX 72 43 66 44 68 45 19 46 71 47 65 48 64 49 20 51 52 52 32 53
REMARK SMILES IDX 51 54 33 55 36 56 50 57 69 58 34 59 35 60 49 62 70 63 37 64
REMARK SMILES IDX 21 65 22 66 30 67 23 68 24 69 28 70 31 71 25 72 26 73 29 74
REMARK SMILES IDX 27 75 53 76 54 77 62 78 55 79 56 80 60 81 63 82 57 83 58 84
REMARK SMILES IDX 61 85 59 86 38 87 39 88 47 89 40 90 41 91 45 92 48 93 42 94
REMARK SMILES IDX 43 95 46 96 44 97
REMARK H PARENT 68 50 36 61
REMARK Flexibility Score: inf
ROOT
ATOM      1  C   UNL A   1      34.663  34.487  29.588  1.00  0.00     0.275 C 
ENDROOT
BRANCH   1   2
ATOM      2  O   UNL A   1      35.391  33.723  30.566  1.00  0.00    -0.458 OA
BRANCH   2   3
ATOM      3  C   UNL A   1      34.799  33.591  31.781  1.00  0.00     0.348 C 
ATOM      4  O   UNL A   1      33.618  33.828  32.002  1.00  0.00    -0.245 OA
BRANCH   3   5
ATOM      5  C   UNL A   1      35.738  33.052  32.810  1.00  0.00     0.118 A 
ATOM      6  C   UNL A   1      36.376  30.712  31.960  1.00  0.00     0.047 C 
ATOM      7  C   UNL A   1      36.452  31.908  32.854  1.00  0.00    -0.016 A 
ATOM      8  C   UNL A   1      37.191  31.745  34.092  1.00  0.00     0.016 A 
ATOM      9  S   UNL A   1      35.839  33.981  34.309  1.00  0.00    -0.108 S 
ATOM     10  C   UNL A   1      36.843  32.785  35.102  1.00  0.00     0.128 A 
ATOM     11  C   UNL A   1      38.402  31.241  34.405  1.00  0.00    -0.040 C 
ATOM     12  N   UNL A   1      37.240  32.903  36.318  1.00  0.00    -0.202 NA
ATOM     13  C   UNL A   1      38.496  30.795  35.853  1.00  0.00     0.135 C 
ATOM     14  C   UNL A   1      38.119  31.946  36.783  1.00  0.00     0.251 C 
ATOM     15  O   UNL A   1      38.581  31.976  37.924  1.00  0.00    -0.272 OA
BRANCH  11  16
ATOM     16  C   UNL A   1      39.751  31.744  33.905  1.00  0.00     0.110 C 
BRANCH  16  17
ATOM     17  S   UNL A   1      40.994  32.178  35.120  1.00  0.00    -0.081 SA
BRANCH  17  18
ATOM     18  C   UNL A   1      40.586  33.836  35.431  1.00  0.00     0.195 A 
ATOM     19  N   UNL A   1      40.636  34.408  36.613  1.00  0.00    -0.123 NA
ATOM     20  N   UNL A   1      40.437  34.791  34.444  1.00  0.00    -0.277 N 
ATOM     21  N   UNL A   1      40.588  35.764  36.424  1.00  0.00    -0.138 NA
ATOM     22  C   UNL A   1      40.509  35.980  35.130  1.00  0.00     0.231 A 
BRANCH  20  23
ATOM     23  C   UNL A   1      40.401  34.623  33.038  1.00  0.00     0.049 A 
ATOM     24  C   UNL A   1      39.178  34.514  32.367  1.00  0.00     0.027 A 
ATOM     25  C   UNL A   1      41.601  34.469  32.333  1.00  0.00     0.027 A 
ATOM     26  C   UNL A   1      39.153  34.176  31.014  1.00  0.00     0.002 A 
ATOM     27  C   UNL A   1      41.566  34.103  30.987  1.00  0.00     0.002 A 
ATOM     28  C   UNL A   1      40.346  33.945  30.333  1.00  0.00     0.000 A 
ENDBRANCH  20  23
ENDBRANCH  17  18
ENDBRANCH  16  17
ENDBRANCH  11  16
ENDBRANCH   3   5
ENDBRANCH   2   3
ENDBRANCH   1   2
BRANCH   1  29
ATOM     29  C   UNL A   1      34.156  33.609  28.453  1.00  0.00     0.275 C 
BRANCH  29  30
ATOM     30  O   UNL A   1      35.210  32.931  27.769  1.00  0.00    -0.458 OA
BRANCH  30  31
ATOM     31  C   UNL A   1      35.044  31.593  27.658  1.00  0.00     0.338 C 
ATOM     32  O   UNL A   1      34.034  31.001  27.317  1.00  0.00    -0.246 OA
BRANCH  31  33
ATOM     33  C   UNL A   1      36.209  30.909  28.238  1.00  0.00     0.060 A 
ATOM     34  C   UNL A   1      37.271  31.702  28.681  1.00  0.00     0.016 A 
ATOM     35  C   UNL A   1      36.333  29.516  28.129  1.00  0.00     0.016 A 
ATOM     36  C   UNL A   1      38.496  31.107  28.920  1.00  0.00     0.010 A 
ATOM     37  C   UNL A   1      37.559  28.926  28.358  1.00  0.00     0.010 A 
ATOM     38  C   UNL A   1      38.642  29.732  28.707  1.00  0.00    -0.014 A 
BRANCH  38  39
ATOM     39  C   UNL A   1      39.941  29.134  28.958  1.00  0.00     0.031 A 
ATOM     40  C   UNL A   1      40.280  28.953  30.392  1.00  0.00     0.074 A 
ATOM     41  C   UNL A   1      40.714  28.641  27.973  1.00  0.00     0.049 A 
ATOM     42  N   UNL A   1      41.327  29.376  31.022  1.00  0.00    -0.248 NA
ATOM     43  C   UNL A   1      39.292  28.279  31.250  1.00  0.00     0.031 C 
ATOM     44  C   UNL A   1      40.385  28.488  26.555  1.00  0.00     0.029 A 
ATOM     45  N   UNL A   1      41.940  28.055  28.073  1.00  0.00    -0.354 N 
ATOM     46  C   UNL A   1      41.203  28.910  32.327  1.00  0.00     0.074 A 
ATOM     47  C   UNL A   1      39.888  28.338  32.441  1.00  0.00     0.031 C 
ATOM     48  C   UNL A   1      41.286  27.661  25.980  1.00  0.00     0.029 A 
ATOM     49  C   UNL A   1      42.308  27.321  26.957  1.00  0.00     0.049 A 
ATOM     50  H   UNL A   1      42.514  28.146  28.869  1.00  0.00     0.167 HD
ATOM     51  C   UNL A   1      42.269  28.861  33.171  1.00  0.00     0.037 A 
ATOM     52  C   UNL A   1      43.329  26.432  26.883  1.00  0.00     0.037 A 
ATOM     53  C   UNL A   1      43.324  29.739  32.745  1.00  0.00     0.049 A 
ATOM     54  C   UNL A   1      44.267  26.730  27.997  1.00  0.00     0.074 A 
ATOM     55  C   UNL A   1      43.421  31.103  32.540  1.00  0.00     0.029 A 
ATOM     56  N   UNL A   1      44.427  29.197  32.135  1.00  0.00    -0.354 N 
ATOM     57  N   UNL A   1      45.021  27.790  28.056  1.00  0.00    -0.248 NA
ATOM     58  C   UNL A   1      44.067  26.037  29.262  1.00  0.00     0.031 C 
ATOM     59  C   UNL A   1      44.288  31.249  31.419  1.00  0.00     0.029 A 
ATOM     60  C   UNL A   1      44.693  29.971  31.036  1.00  0.00     0.049 A 
ATOM     61  H   UNL A   1      44.931  28.405  32.431  1.00  0.00     0.167 HD
ATOM     62  C   UNL A   1      45.028  28.141  29.397  1.00  0.00     0.074 A 
ATOM     63  C   UNL A   1      44.521  26.969  30.103  1.00  0.00     0.031 C 
ATOM     64  C   UNL A   1      45.174  29.442  29.784  1.00  0.00     0.037 A 
BRANCH  51  65
ATOM     65  C   UNL A   1      42.483  27.776  34.194  1.00  0.00     0.064 A 
ATOM     66  C   UNL A   1      43.044  26.548  33.791  1.00  0.00     0.173 A 
ATOM     67  C   UNL A   1      41.882  27.782  35.471  1.00  0.00     0.173 A 
ATOM     68  F   UNL A   1      43.624  26.424  32.587  1.00  0.00    -0.203 F 
ATOM     69  C   UNL A   1      42.934  25.396  34.572  1.00  0.00     0.198 A 
ATOM     70  C   UNL A   1      41.823  26.644  36.272  1.00  0.00     0.198 A 
ATOM     71  F   UNL A   1      41.227  28.851  35.944  1.00  0.00    -0.203 F 
ATOM     72  F   UNL A   1      43.365  24.223  34.091  1.00  0.00    -0.200 F 
ATOM     73  C   UNL A   1      42.318  25.444  35.809  1.00  0.00     0.200 A 
ATOM     74  F   UNL A   1      41.205  26.706  37.459  1.00  0.00    -0.200 F 
ATOM     75  F   UNL A   1      42.152  24.328  36.531  1.00  0.00    -0.200 F 
ENDBRANCH  51  65
BRANCH  52  76
ATOM     76  C   UNL A   1      43.410  25.181  26.092  1.00  0.00     0.064 A 
ATOM     77  C   UNL A   1      44.479  24.954  25.209  1.00  0.00     0.173 A 
ATOM     78  C   UNL A   1      42.591  24.070  26.376  1.00  0.00     0.173 A 
ATOM     79  F   UNL A   1      45.334  25.945  24.915  1.00  0.00    -0.203 F 
ATOM     80  C   UNL A   1      44.733  23.689  24.672  1.00  0.00     0.198 A 
ATOM     81  C   UNL A   1      42.837  22.811  25.827  1.00  0.00     0.198 A 
ATOM     82  F   UNL A   1      41.594  24.152  27.267  1.00  0.00    -0.203 F 
ATOM     83  F   UNL A   1      45.806  23.497  23.890  1.00  0.00    -0.200 F 
ATOM     84  C   UNL A   1      43.918  22.616  24.988  1.00  0.00     0.200 A 
ATOM     85  F   UNL A   1      42.056  21.776  26.167  1.00  0.00    -0.200 F 
ATOM     86  F   UNL A   1      44.194  21.390  24.522  1.00  0.00    -0.200 F 
ENDBRANCH  52  76
BRANCH  64  87
ATOM     87  C   UNL A   1      45.606  30.437  28.747  1.00  0.00     0.064 A 
ATOM     88  C   UNL A   1      44.720  31.082  27.867  1.00  0.00     0.173 A 
ATOM     89  C   UNL A   1      46.943  30.855  28.740  1.00  0.00     0.173 A 
ATOM     90  F   UNL A   1      43.408  30.817  27.888  1.00  0.00    -0.203 F 
ATOM     91  C   UNL A   1      45.168  32.064  26.984  1.00  0.00     0.198 A 
ATOM     92  C   UNL A   1      47.378  31.863  27.885  1.00  0.00     0.198 A 
ATOM     93  F   UNL A   1      47.820  30.316  29.601  1.00  0.00    -0.203 F 
ATOM     94  F   UNL A   1      44.306  32.653  26.142  1.00  0.00    -0.200 F 
ATOM     95  C   UNL A   1      46.495  32.458  27.000  1.00  0.00     0.200 A 
ATOM     96  F   UNL A   1      48.653  32.276  27.938  1.00  0.00    -0.200 F 
ATOM     97  F   UNL A   1      46.917  33.430  26.179  1.00  0.00    -0.200 F 
ENDBRANCH  64  87
ENDBRANCH  38  39
ENDBRANCH  31  33
ENDBRANCH  30  31
ENDBRANCH  29  30
ENDBRANCH   1  29
TORSDOF 15
ENDMDL
MODEL 3
REMARK VINA RESULT:     -13.1      1.345      2.084
REMARK SMILES Cc1c(C(=O)OCCOC(=O)c2ccc(-c3c4nc(c(-c5c(F)c(F)c(F)c(F)c5F)c5ccc([nH]5)c(-c5c(F)c(F)c(F)c(F)c5F)c5nc(c(-c6c(F)c(F)c(F)c(F)c6F)c6ccc3[nH]6)C=C5)C=C4)cc2)sc2c1=C(CSc1nncn1-c1ccccc1)CC(=O)N=2
REMARK SMILES IDX 7 1 6 2 4 3 5 4 3 5 1 6 2 7 77 8 75 9 76 10 78 11 95 12
REMARK SMILES IDX 92 13 93 14 94 15 79 16 80 17 81 18 82 19 85 20 83 21 84 22
REMARK SMILES IDX 86 23 87 24 91 25 88 26 90 27 89 28 8 29 9 30 10 31 11 32
REMARK SMILES IDX 12 33 13 34 74 35 14 36 73 37 15 38 16 39 17 40 67 41 18 42
REMARK SMILES IDX 72 43 66 44 68 45 19 46 71 47 65 48 64 49 20 51 52 52 32 53
REMARK SMILES IDX 51 54 33 55 36 56 50 57 69 58 34 59 35 60 49 62 70 63 37 64
REMARK SMILES IDX 21 65 22 66 30 67 23 68 24 69 28 70 31 71 25 72 26 73 29 74
REMARK SMILES IDX 27 75 53 76 54 77 62 78 55 79 56 80 60 81 63 82 57 83 58 84
REMARK SMILES IDX 61 85 59 86 38 87 39 88 47 89 40 90 41 91 45 92 48 93 42 94
REMARK SMILES IDX 43 95 46 96 44 97
REMARK H PARENT 68 50 36 61
REMARK Flexibility Score: inf
ROOT
ATOM      1  C   UNL A   1      31.849  30.232  26.324  1.00  0.00     0.275 C 
ENDROOT
BRANCH   1   2
ATOM      2  O   UNL A   1      32.351  29.783  25.052  1.00  0.00    -0.458 OA
BRANCH   2   3
ATOM      3  C   UNL A   1      31.674  28.759  24.472  1.00  0.00     0.348 C 
ATOM      4  O   UNL A   1      30.565  28.866  23.962  1.00  0.00    -0.245 OA
BRANCH   3   5
ATOM      5  C   UNL A   1      32.467  27.493  24.461  1.00  0.00     0.118 A 
ATOM      6  C   UNL A   1      33.469  27.322  26.822  1.00  0.00     0.047 C 
ATOM      7  C   UNL A   1      33.141  26.854  25.441  1.00  0.00    -0.016 A 
ATOM      8  C   UNL A   1      33.845  25.675  24.972  1.00  0.00     0.016 A 
ATOM      9  S   UNL A   1      32.708  26.759  22.873  1.00  0.00    -0.108 S 
ATOM     10  C   UNL A   1      33.815  25.549  23.487  1.00  0.00     0.128 A 
ATOM     11  C   UNL A   1      34.089  24.456  25.493  1.00  0.00    -0.040 C 
ATOM     12  N   UNL A   1      34.390  24.683  22.732  1.00  0.00    -0.202 NA
ATOM     13  C   UNL A   1      35.302  23.785  24.876  1.00  0.00     0.135 C 
ATOM     14  C   UNL A   1      35.150  23.715  23.359  1.00  0.00     0.251 C 
ATOM     15  O   UNL A   1      35.725  22.824  22.734  1.00  0.00    -0.272 OA
BRANCH  11  16
ATOM     16  C   UNL A   1      33.050  23.421  25.907  1.00  0.00     0.110 C 
BRANCH  16  17
ATOM     17  S   UNL A   1      33.490  21.688  25.786  1.00  0.00    -0.081 SA
BRANCH  17  18
ATOM     18  C   UNL A   1      32.634  21.229  24.348  1.00  0.00     0.195 A 
ATOM     19  N   UNL A   1      32.148  22.074  23.467  1.00  0.00    -0.123 NA
ATOM     20  N   UNL A   1      32.615  19.945  23.838  1.00  0.00    -0.277 N 
ATOM     21  N   UNL A   1      31.859  21.371  22.327  1.00  0.00    -0.138 NA
ATOM     22  C   UNL A   1      32.177  20.116  22.547  1.00  0.00     0.231 A 
BRANCH  20  23
ATOM     23  C   UNL A   1      33.098  18.747  24.420  1.00  0.00     0.049 A 
ATOM     24  C   UNL A   1      34.156  18.048  23.828  1.00  0.00     0.027 A 
ATOM     25  C   UNL A   1      32.447  18.213  25.538  1.00  0.00     0.027 A 
ATOM     26  C   UNL A   1      34.510  16.786  24.305  1.00  0.00     0.002 A 
ATOM     27  C   UNL A   1      32.789  16.938  25.991  1.00  0.00     0.002 A 
ATOM     28  C   UNL A   1      33.810  16.222  25.368  1.00  0.00     0.000 A 
ENDBRANCH  20  23
ENDBRANCH  17  18
ENDBRANCH  16  17
ENDBRANCH  11  16
ENDBRANCH   3   5
ENDBRANCH   2   3
ENDBRANCH   1   2
BRANCH   1  29
ATOM     29  C   UNL A   1      32.775  31.256  26.963  1.00  0.00     0.275 C 
BRANCH  29  30
ATOM     30  O   UNL A   1      34.053  30.711  27.295  1.00  0.00    -0.458 OA
BRANCH  30  31
ATOM     31  C   UNL A   1      34.953  31.614  27.747  1.00  0.00     0.338 C 
ATOM     32  O   UNL A   1      34.935  32.821  27.578  1.00  0.00    -0.246 OA
BRANCH  31  33
ATOM     33  C   UNL A   1      36.118  30.905  28.296  1.00  0.00     0.060 A 
ATOM     34  C   UNL A   1      37.125  31.675  28.885  1.00  0.00     0.016 A 
ATOM     35  C   UNL A   1      36.306  29.542  28.022  1.00  0.00     0.016 A 
ATOM     36  C   UNL A   1      38.362  31.100  29.111  1.00  0.00     0.010 A 
ATOM     37  C   UNL A   1      37.545  28.974  28.238  1.00  0.00     0.010 A 
ATOM     38  C   UNL A   1      38.575  29.769  28.737  1.00  0.00    -0.014 A 
BRANCH  38  39
ATOM     39  C   UNL A   1      39.886  29.192  28.977  1.00  0.00     0.031 A 
ATOM     40  C   UNL A   1      40.234  29.001  30.408  1.00  0.00     0.074 A 
ATOM     41  C   UNL A   1      40.665  28.725  27.984  1.00  0.00     0.049 A 
ATOM     42  N   UNL A   1      41.274  29.436  31.039  1.00  0.00    -0.248 NA
ATOM     43  C   UNL A   1      39.261  28.299  31.261  1.00  0.00     0.031 C 
ATOM     44  C   UNL A   1      40.334  28.582  26.566  1.00  0.00     0.029 A 
ATOM     45  N   UNL A   1      41.902  28.161  28.074  1.00  0.00    -0.354 N 
ATOM     46  C   UNL A   1      41.163  28.952  32.340  1.00  0.00     0.074 A 
ATOM     47  C   UNL A   1      39.859  28.355  32.451  1.00  0.00     0.031 C 
ATOM     48  C   UNL A   1      41.249  27.779  25.978  1.00  0.00     0.029 A 
ATOM     49  C   UNL A   1      42.279  27.446  26.948  1.00  0.00     0.049 A 
ATOM     50  H   UNL A   1      42.477  28.253  28.868  1.00  0.00     0.167 HD
ATOM     51  C   UNL A   1      42.233  28.913  33.180  1.00  0.00     0.037 A 
ATOM     52  C   UNL A   1      43.317  26.578  26.860  1.00  0.00     0.037 A 
ATOM     53  C   UNL A   1      43.270  29.816  32.760  1.00  0.00     0.049 A 
ATOM     54  C   UNL A   1      44.253  26.880  27.975  1.00  0.00     0.074 A 
ATOM     55  C   UNL A   1      43.341  31.183  32.571  1.00  0.00     0.029 A 
ATOM     56  N   UNL A   1      44.381  29.301  32.141  1.00  0.00    -0.354 N 
ATOM     57  N   UNL A   1      44.987  27.954  28.044  1.00  0.00    -0.248 NA
ATOM     58  C   UNL A   1      44.070  26.168  29.232  1.00  0.00     0.031 C 
ATOM     59  C   UNL A   1      44.201  31.358  31.449  1.00  0.00     0.029 A 
ATOM     60  C   UNL A   1      44.629  30.093  31.050  1.00  0.00     0.049 A 
ATOM     61  H   UNL A   1      44.900  28.515  32.426  1.00  0.00     0.167 HD
ATOM     62  C   UNL A   1      44.992  28.288  29.389  1.00  0.00     0.074 A 
ATOM     63  C   UNL A   1      44.509  27.099  30.082  1.00  0.00     0.031 C 
ATOM     64  C   UNL A   1      45.115  29.587  29.791  1.00  0.00     0.037 A 
BRANCH  51  65
ATOM     65  C   UNL A   1      42.470  27.821  34.189  1.00  0.00     0.064 A 
ATOM     66  C   UNL A   1      43.068  26.615  33.773  1.00  0.00     0.173 A 
ATOM     67  C   UNL A   1      41.861  27.792  35.462  1.00  0.00     0.173 A 
ATOM     68  F   UNL A   1      43.660  26.523  32.572  1.00  0.00    -0.203 F 
ATOM     69  C   UNL A   1      42.985  25.449  34.538  1.00  0.00     0.198 A 
ATOM     70  C   UNL A   1      41.828  26.642  36.247  1.00  0.00     0.198 A 
ATOM     71  F   UNL A   1      41.173  28.835  35.945  1.00  0.00    -0.203 F 
ATOM     72  F   UNL A   1      43.451  24.295  34.043  1.00  0.00    -0.200 F 
ATOM     73  C   UNL A   1      42.359  25.462  35.771  1.00  0.00     0.200 A 
ATOM     74  F   UNL A   1      41.200  26.670  37.430  1.00  0.00    -0.200 F 
ATOM     75  F   UNL A   1      42.220  24.332  36.476  1.00  0.00    -0.200 F 
ENDBRANCH  51  65
BRANCH  52  76
ATOM     76  C   UNL A   1      43.418  25.338  26.054  1.00  0.00     0.064 A 
ATOM     77  C   UNL A   1      44.536  25.098  25.238  1.00  0.00     0.173 A 
ATOM     78  C   UNL A   1      42.557  24.243  26.266  1.00  0.00     0.173 A 
ATOM     79  F   UNL A   1      45.432  26.072  25.016  1.00  0.00    -0.203 F 
ATOM     80  C   UNL A   1      44.794  23.836  24.696  1.00  0.00     0.198 A 
ATOM     81  C   UNL A   1      42.806  22.988  25.712  1.00  0.00     0.198 A 
ATOM     82  F   UNL A   1      41.507  24.337  27.093  1.00  0.00    -0.203 F 
ATOM     83  F   UNL A   1      45.910  23.629  23.981  1.00  0.00    -0.200 F 
ATOM     84  C   UNL A   1      43.934  22.779  24.940  1.00  0.00     0.200 A 
ATOM     85  F   UNL A   1      41.981  21.967  25.983  1.00  0.00    -0.200 F 
ATOM     86  F   UNL A   1      44.210  21.554  24.472  1.00  0.00    -0.200 F 
ENDBRANCH  52  76
BRANCH  64  87
ATOM     87  C   UNL A   1      45.525  30.602  28.764  1.00  0.00     0.064 A 
ATOM     88  C   UNL A   1      44.626  31.236  27.889  1.00  0.00     0.173 A 
ATOM     89  C   UNL A   1      46.852  31.051  28.763  1.00  0.00     0.173 A 
ATOM     90  F   UNL A   1      43.320  30.940  27.906  1.00  0.00    -0.203 F 
ATOM     91  C   UNL A   1      45.052  32.236  27.017  1.00  0.00     0.198 A 
ATOM     92  C   UNL A   1      47.265  32.077  27.919  1.00  0.00     0.198 A 
ATOM     93  F   UNL A   1      47.741  30.524  29.620  1.00  0.00    -0.203 F 
ATOM     94  F   UNL A   1      44.177  32.813  26.179  1.00  0.00    -0.200 F 
ATOM     95  C   UNL A   1      46.370  32.660  27.038  1.00  0.00     0.200 A 
ATOM     96  F   UNL A   1      48.530  32.519  27.978  1.00  0.00    -0.200 F 
ATOM     97  F   UNL A   1      46.770  33.650  26.227  1.00  0.00    -0.200 F 
ENDBRANCH  64  87
ENDBRANCH  38  39
ENDBRANCH  31  33
ENDBRANCH  30  31
ENDBRANCH  29  30
ENDBRANCH   1  29
TORSDOF 15
ENDMDL
