MODEL 1
REMARK VINA RESULT:     -13.8      0.000      0.000
REMARK SMILES COc1cc(C(=O)N[C@H](C(=O)OCCOC(=O)c2ccc(-c3c4nc(c(-c5c(F)c(F)c(F)c(F)c5F)c5ccc([nH]5)c(-c5c(F)c(F)c(F)c(F)c5F)c5nc(c(-c6c(F)c(F)c(F)c(F)c6F)c6ccc3[nH]6)C=C5)C=C4)cc2)C2=C(C)N=N[C@H]2C)ccc1C
REMARK SMILES IDX 13 1 12 2 10 3 11 4 9 5 8 6 6 7 7 8 5 10 3 11 4 12 90 13
REMARK SMILES IDX 89 14 91 15 88 16 2 17 1 18 81 19 82 20 86 21 83 22 84 23
REMARK SMILES IDX 85 24 87 25 14 26 15 27 16 28 17 29 18 30 19 31 80 32 20 33
REMARK SMILES IDX 79 34 21 35 22 36 23 37 73 38 24 39 78 40 72 41 74 42 25 43
REMARK SMILES IDX 77 44 71 45 70 46 26 48 58 49 38 50 57 51 39 52 42 53 56 54
REMARK SMILES IDX 75 55 40 56 41 57 55 59 76 60 43 61 27 62 28 63 36 64 29 65
REMARK SMILES IDX 30 66 34 67 37 68 31 69 32 70 35 71 33 72 59 73 60 74 68 75
REMARK SMILES IDX 61 76 62 77 66 78 69 79 63 80 64 81 67 82 65 83 44 84 45 85
REMARK SMILES IDX 53 86 46 87 47 88 51 89 54 90 48 91 49 92 52 93 50 94
REMARK H PARENT 8 9 74 47 42 58
REMARK Flexibility Score: inf
ROOT
ATOM      1  C   UNL A   1      44.875  24.820  25.141  1.00  0.00     0.274 C 
ENDROOT
BRANCH   1   2
ATOM      2  O   UNL A   1      44.342  23.771  25.960  1.00  0.00    -0.460 OA
BRANCH   2   3
ATOM      3  C   UNL A   1      43.585  22.911  25.234  1.00  0.00     0.333 C 
ATOM      4  O   UNL A   1      43.347  23.065  24.040  1.00  0.00    -0.249 OA
BRANCH   3   5
ATOM      5  C   UNL A   1      43.433  21.559  25.944  1.00  0.00     0.223 C 
BRANCH   5   6
ATOM      6  N   UNL A   1      42.048  21.727  26.890  1.00  0.00    -0.335 N 
ATOM      7  C   UNL A   1      40.655  22.056  27.138  1.00  0.00     0.252 C 
ATOM      8  O   UNL A   1      40.534  22.112  28.382  1.00  0.00    -0.269 OA
ATOM      9  H   UNL A   1      42.361  21.441  27.779  1.00  0.00     0.165 HD
BRANCH   7  10
ATOM     10  C   UNL A   1      39.171  22.277  26.349  1.00  0.00     0.043 A 
ATOM     11  C   UNL A   1      36.758  21.875  25.232  1.00  0.00     0.122 A 
ATOM     12  C   UNL A   1      38.113  21.481  25.713  1.00  0.00     0.060 A 
ATOM     13  C   UNL A   1      36.482  23.249  25.362  1.00  0.00    -0.009 A 
ATOM     14  C   UNL A   1      37.494  24.062  25.962  1.00  0.00     0.008 A 
ATOM     15  C   UNL A   1      35.235  24.036  25.059  1.00  0.00     0.048 C 
ATOM     16  C   UNL A   1      38.753  23.608  26.433  1.00  0.00     0.014 A 
BRANCH  11  17
ATOM     17  O   UNL A   1      35.701  20.715  25.086  1.00  0.00    -0.496 OA
ATOM     18  C   UNL A   1      33.867  19.981  24.626  1.00  0.00     0.278 C 
ENDBRANCH  11  17
ENDBRANCH   7  10
ENDBRANCH   5   6
BRANCH   5  19
ATOM     19  C   UNL A   1      43.981  20.217  25.342  1.00  0.00     0.012 C 
ATOM     20  C   UNL A   1      45.129  19.603  24.923  1.00  0.00     0.064 C 
ATOM     21  C   UNL A   1      43.139  18.951  25.474  1.00  0.00     0.156 C 
ATOM     22  C   UNL A   1      46.602  19.845  25.044  1.00  0.00     0.069 C 
ATOM     23  N   UNL A   1      44.873  18.418  24.246  1.00  0.00    -0.160 NA
ATOM     24  N   UNL A   1      43.678  18.085  24.406  1.00  0.00    -0.181 NA
ATOM     25  C   UNL A   1      43.485  18.185  26.785  1.00  0.00     0.040 C 
ENDBRANCH   5  19
ENDBRANCH   3   5
ENDBRANCH   2   3
ENDBRANCH   1   2
BRANCH   1  26
ATOM     26  C   UNL A   1      44.270  26.172  25.552  1.00  0.00     0.275 C 
BRANCH  26  27
ATOM     27  O   UNL A   1      43.197  26.046  26.526  1.00  0.00    -0.458 OA
BRANCH  27  28
ATOM     28  C   UNL A   1      41.843  26.085  26.290  1.00  0.00     0.338 C 
ATOM     29  O   UNL A   1      41.288  25.669  25.297  1.00  0.00    -0.246 OA
BRANCH  28  30
ATOM     30  C   UNL A   1      41.204  26.627  27.595  1.00  0.00     0.060 A 
ATOM     31  C   UNL A   1      40.157  26.261  28.432  1.00  0.00     0.016 A 
ATOM     32  C   UNL A   1      41.817  27.768  28.015  1.00  0.00     0.016 A 
ATOM     33  C   UNL A   1      39.679  27.168  29.487  1.00  0.00     0.010 A 
ATOM     34  C   UNL A   1      41.419  28.607  29.057  1.00  0.00     0.010 A 
ATOM     35  C   UNL A   1      40.287  28.409  29.765  1.00  0.00    -0.014 A 
BRANCH  35  36
ATOM     36  C   UNL A   1      39.781  29.724  30.288  1.00  0.00     0.031 A 
ATOM     37  C   UNL A   1      38.777  30.665  29.712  1.00  0.00     0.074 A 
ATOM     38  C   UNL A   1      39.754  29.824  31.641  1.00  0.00     0.049 A 
ATOM     39  N   UNL A   1      38.858  31.944  29.917  1.00  0.00    -0.248 NA
ATOM     40  C   UNL A   1      37.487  30.285  29.139  1.00  0.00     0.031 C 
ATOM     41  C   UNL A   1      39.127  30.747  32.581  1.00  0.00     0.029 A 
ATOM     42  N   UNL A   1      40.407  28.984  32.477  1.00  0.00    -0.354 N 
ATOM     43  C   UNL A   1      37.563  32.447  29.930  1.00  0.00     0.074 A 
ATOM     44  C   UNL A   1      36.770  31.404  29.314  1.00  0.00     0.031 C 
ATOM     45  C   UNL A   1      39.675  30.594  33.801  1.00  0.00     0.029 A 
ATOM     46  C   UNL A   1      40.617  29.500  33.744  1.00  0.00     0.049 A 
ATOM     47  H   UNL A   1      40.709  28.085  32.207  1.00  0.00     0.167 HD
ATOM     48  C   UNL A   1      37.261  33.588  30.642  1.00  0.00     0.037 A 
ATOM     49  C   UNL A   1      41.909  29.466  34.150  1.00  0.00     0.037 A 
ATOM     50  C   UNL A   1      38.386  33.987  31.529  1.00  0.00     0.049 A 
ATOM     51  C   UNL A   1      42.581  30.654  33.415  1.00  0.00     0.074 A 
ATOM     52  C   UNL A   1      38.535  34.144  32.903  1.00  0.00     0.029 A 
ATOM     53  N   UNL A   1      39.688  33.991  31.032  1.00  0.00    -0.354 N 
ATOM     54  N   UNL A   1      41.959  31.805  33.245  1.00  0.00    -0.248 NA
ATOM     55  C   UNL A   1      43.906  30.703  32.788  1.00  0.00     0.031 C 
ATOM     56  C   UNL A   1      39.924  34.107  33.223  1.00  0.00     0.029 A 
ATOM     57  C   UNL A   1      40.626  33.908  32.051  1.00  0.00     0.049 A 
ATOM     58  H   UNL A   1      39.914  34.046  30.076  1.00  0.00     0.167 HD
ATOM     59  C   UNL A   1      42.620  32.586  32.317  1.00  0.00     0.074 A 
ATOM     60  C   UNL A   1      43.898  31.911  32.177  1.00  0.00     0.031 C 
ATOM     61  C   UNL A   1      42.031  33.674  31.710  1.00  0.00     0.037 A 
BRANCH  48  62
ATOM     62  C   UNL A   1      35.869  34.232  30.747  1.00  0.00     0.064 A 
ATOM     63  C   UNL A   1      35.142  34.642  29.601  1.00  0.00     0.173 A 
ATOM     64  C   UNL A   1      35.151  34.392  31.951  1.00  0.00     0.173 A 
ATOM     65  F   UNL A   1      35.597  34.430  28.361  1.00  0.00    -0.203 F 
ATOM     66  C   UNL A   1      33.878  35.246  29.665  1.00  0.00     0.198 A 
ATOM     67  C   UNL A   1      33.901  35.031  32.021  1.00  0.00     0.198 A 
ATOM     68  F   UNL A   1      35.580  33.856  33.098  1.00  0.00    -0.203 F 
ATOM     69  F   UNL A   1      33.250  35.596  28.533  1.00  0.00    -0.200 F 
ATOM     70  C   UNL A   1      33.266  35.462  30.878  1.00  0.00     0.200 A 
ATOM     71  F   UNL A   1      33.304  35.191  33.211  1.00  0.00    -0.200 F 
ATOM     72  F   UNL A   1      32.057  36.037  30.942  1.00  0.00    -0.200 F 
ENDBRANCH  48  62
BRANCH  49  73
ATOM     73  C   UNL A   1      42.109  27.954  34.284  1.00  0.00     0.064 A 
ATOM     74  C   UNL A   1      43.171  27.266  33.005  1.00  0.00     0.173 A 
ATOM     75  C   UNL A   1      42.119  27.134  35.877  1.00  0.00     0.173 A 
ATOM     76  F   UNL A   1      43.072  27.757  31.762  1.00  0.00    -0.203 F 
ATOM     77  C   UNL A   1      44.249  25.823  33.309  1.00  0.00     0.198 A 
ATOM     78  C   UNL A   1      43.175  25.711  36.203  1.00  0.00     0.198 A 
ATOM     79  F   UNL A   1      41.124  27.423  36.727  1.00  0.00    -0.203 F 
ATOM     80  F   UNL A   1      44.867  25.219  32.286  1.00  0.00    -0.200 F 
ATOM     81  C   UNL A   1      44.277  25.067  34.933  1.00  0.00     0.200 A 
ATOM     82  F   UNL A   1      42.876  24.912  37.236  1.00  0.00    -0.200 F 
ATOM     83  F   UNL A   1      44.938  23.920  35.137  1.00  0.00    -0.200 F 
ENDBRANCH  49  73
BRANCH  61  84
ATOM     84  C   UNL A   1      42.640  34.652  30.708  1.00  0.00     0.064 A 
ATOM     85  C   UNL A   1      42.717  34.470  29.321  1.00  0.00     0.173 A 
ATOM     86  C   UNL A   1      43.078  35.927  31.173  1.00  0.00     0.173 A 
ATOM     87  F   UNL A   1      42.253  33.356  28.740  1.00  0.00    -0.203 F 
ATOM     88  C   UNL A   1      43.237  35.464  28.473  1.00  0.00     0.198 A 
ATOM     89  C   UNL A   1      43.534  36.934  30.322  1.00  0.00     0.198 A 
ATOM     90  F   UNL A   1      43.058  36.237  32.478  1.00  0.00    -0.203 F 
ATOM     91  F   UNL A   1      43.335  35.230  27.156  1.00  0.00    -0.200 F 
ATOM     92  C   UNL A   1      43.633  36.695  28.971  1.00  0.00     0.200 A 
ATOM     93  F   UNL A   1      43.866  38.133  30.822  1.00  0.00    -0.200 F 
ATOM     94  F   UNL A   1      44.099  37.648  28.152  1.00  0.00    -0.200 F 
ENDBRANCH  61  84
ENDBRANCH  35  36
ENDBRANCH  28  30
ENDBRANCH  27  28
ENDBRANCH  26  27
ENDBRANCH   1  26
TORSDOF 15
ENDMDL
MODEL 2
REMARK VINA RESULT:     -13.4      3.222      5.900
REMARK SMILES COc1cc(C(=O)N[C@H](C(=O)OCCOC(=O)c2ccc(-c3c4nc(c(-c5c(F)c(F)c(F)c(F)c5F)c5ccc([nH]5)c(-c5c(F)c(F)c(F)c(F)c5F)c5nc(c(-c6c(F)c(F)c(F)c(F)c6F)c6ccc3[nH]6)C=C5)C=C4)cc2)C2=C(C)N=N[C@H]2C)ccc1C
REMARK SMILES IDX 13 1 12 2 10 3 11 4 9 5 8 6 6 7 7 8 5 10 3 11 4 12 90 13
REMARK SMILES IDX 89 14 91 15 88 16 2 17 1 18 81 19 82 20 86 21 83 22 84 23
REMARK SMILES IDX 85 24 87 25 14 26 15 27 16 28 17 29 18 30 19 31 80 32 20 33
REMARK SMILES IDX 79 34 21 35 22 36 23 37 73 38 24 39 78 40 72 41 74 42 25 43
REMARK SMILES IDX 77 44 71 45 70 46 26 48 58 49 38 50 57 51 39 52 42 53 56 54
REMARK SMILES IDX 75 55 40 56 41 57 55 59 76 60 43 61 27 62 28 63 36 64 29 65
REMARK SMILES IDX 30 66 34 67 37 68 31 69 32 70 35 71 33 72 59 73 60 74 68 75
REMARK SMILES IDX 61 76 62 77 66 78 69 79 63 80 64 81 67 82 65 83 44 84 45 85
REMARK SMILES IDX 53 86 46 87 47 88 51 89 54 90 48 91 49 92 52 93 50 94
REMARK H PARENT 8 9 74 47 42 58
REMARK Flexibility Score: inf
ROOT
ATOM      1  C   UNL A   1      46.619  29.422  26.252  1.00  0.00     0.274 C 
ENDROOT
BRANCH   1   2
ATOM      2  O   UNL A   1      46.694  29.435  24.820  1.00  0.00    -0.460 OA
BRANCH   2   3
ATOM      3  C   UNL A   1      46.525  28.192  24.303  1.00  0.00     0.333 C 
ATOM      4  O   UNL A   1      47.092  27.803  23.286  1.00  0.00    -0.249 OA
BRANCH   3   5
ATOM      5  C   UNL A   1      45.910  27.234  25.331  1.00  0.00     0.223 C 
BRANCH   5   6
ATOM      6  N   UNL A   1      44.245  27.421  25.148  1.00  0.00    -0.335 N 
ATOM      7  C   UNL A   1      42.859  26.987  25.186  1.00  0.00     0.252 C 
ATOM      8  O   UNL A   1      42.213  27.854  24.557  1.00  0.00    -0.269 OA
ATOM      9  H   UNL A   1      44.168  28.354  24.841  1.00  0.00     0.165 HD
BRANCH   7  10
ATOM     10  C   UNL A   1      41.845  25.806  25.857  1.00  0.00     0.043 A 
ATOM     11  C   UNL A   1      39.695  24.395  26.640  1.00  0.00     0.122 A 
ATOM     12  C   UNL A   1      40.436  25.620  26.225  1.00  0.00     0.060 A 
ATOM     13  C   UNL A   1      40.501  23.246  26.747  1.00  0.00    -0.009 A 
ATOM     14  C   UNL A   1      41.884  23.389  26.412  1.00  0.00     0.008 A 
ATOM     15  C   UNL A   1      40.146  21.820  27.073  1.00  0.00     0.048 C 
ATOM     16  C   UNL A   1      42.516  24.586  25.986  1.00  0.00     0.014 A 
BRANCH  11  17
ATOM     17  O   UNL A   1      38.129  24.429  26.462  1.00  0.00    -0.496 OA
ATOM     18  C   UNL A   1      36.368  23.706  25.762  1.00  0.00     0.278 C 
ENDBRANCH  11  17
ENDBRANCH   7  10
ENDBRANCH   5   6
BRANCH   5  19
ATOM     19  C   UNL A   1      46.643  25.937  25.828  1.00  0.00     0.012 C 
ATOM     20  C   UNL A   1      46.682  24.581  25.663  1.00  0.00     0.064 C 
ATOM     21  C   UNL A   1      48.001  26.074  26.512  1.00  0.00     0.156 C 
ATOM     22  C   UNL A   1      46.151  23.587  24.677  1.00  0.00     0.069 C 
ATOM     23  N   UNL A   1      47.455  23.956  26.634  1.00  0.00    -0.160 NA
ATOM     24  N   UNL A   1      48.119  24.809  27.263  1.00  0.00    -0.181 NA
ATOM     25  C   UNL A   1      49.158  26.000  25.472  1.00  0.00     0.040 C 
ENDBRANCH   5  19
ENDBRANCH   3   5
ENDBRANCH   2   3
ENDBRANCH   1   2
BRANCH   1  26
ATOM     26  C   UNL A   1      45.410  30.243  26.726  1.00  0.00     0.275 C 
BRANCH  26  27
ATOM     27  O   UNL A   1      45.707  31.657  26.890  1.00  0.00    -0.458 OA
BRANCH  27  28
ATOM     28  C   UNL A   1      46.452  32.247  27.884  1.00  0.00     0.338 C 
ATOM     29  O   UNL A   1      47.607  32.599  27.784  1.00  0.00    -0.246 OA
BRANCH  28  30
ATOM     30  C   UNL A   1      45.472  32.479  29.063  1.00  0.00     0.060 A 
ATOM     31  C   UNL A   1      45.436  32.177  30.419  1.00  0.00     0.016 A 
ATOM     32  C   UNL A   1      44.348  33.133  28.657  1.00  0.00     0.016 A 
ATOM     33  C   UNL A   1      44.205  32.360  31.202  1.00  0.00     0.010 A 
ATOM     34  C   UNL A   1      43.196  33.377  29.406  1.00  0.00     0.010 A 
ATOM     35  C   UNL A   1      43.027  32.917  30.662  1.00  0.00    -0.014 A 
BRANCH  35  36
ATOM     36  C   UNL A   1      41.563  32.728  30.941  1.00  0.00     0.031 A 
ATOM     37  C   UNL A   1      40.432  33.696  30.839  1.00  0.00     0.074 A 
ATOM     38  C   UNL A   1      41.095  31.477  30.698  1.00  0.00     0.049 A 
ATOM     39  N   UNL A   1      39.398  33.609  31.619  1.00  0.00    -0.248 NA
ATOM     40  C   UNL A   1      40.202  34.620  29.730  1.00  0.00     0.031 C 
ATOM     41  C   UNL A   1      39.763  30.897  30.564  1.00  0.00     0.029 A 
ATOM     42  N   UNL A   1      41.885  30.391  30.533  1.00  0.00    -0.354 N 
ATOM     43  C   UNL A   1      38.299  34.076  30.909  1.00  0.00     0.074 A 
ATOM     44  C   UNL A   1      38.876  34.807  29.801  1.00  0.00     0.031 C 
ATOM     45  C   UNL A   1      39.842  29.555  30.645  1.00  0.00     0.029 A 
ATOM     46  C   UNL A   1      41.236  29.186  30.740  1.00  0.00     0.049 A 
ATOM     47  H   UNL A   1      42.837  30.452  30.290  1.00  0.00     0.167 HD
ATOM     48  C   UNL A   1      37.031  33.625  31.204  1.00  0.00     0.037 A 
ATOM     49  C   UNL A   1      41.843  28.376  31.639  1.00  0.00     0.037 A 
ATOM     50  C   UNL A   1      37.071  32.463  32.131  1.00  0.00     0.049 A 
ATOM     51  C   UNL A   1      41.459  28.966  33.020  1.00  0.00     0.074 A 
ATOM     52  C   UNL A   1      36.647  31.140  32.055  1.00  0.00     0.029 A 
ATOM     53  N   UNL A   1      37.903  32.500  33.249  1.00  0.00    -0.354 N 
ATOM     54  N   UNL A   1      40.254  29.450  33.256  1.00  0.00    -0.248 NA
ATOM     55  C   UNL A   1      42.303  29.123  34.209  1.00  0.00     0.031 C 
ATOM     56  C   UNL A   1      37.332  30.378  33.046  1.00  0.00     0.029 A 
ATOM     57  C   UNL A   1      38.191  31.226  33.717  1.00  0.00     0.049 A 
ATOM     58  H   UNL A   1      38.244  33.329  33.656  1.00  0.00     0.167 HD
ATOM     59  C   UNL A   1      40.241  30.182  34.426  1.00  0.00     0.074 A 
ATOM     60  C   UNL A   1      41.503  29.823  35.048  1.00  0.00     0.031 C 
ATOM     61  C   UNL A   1      39.225  31.059  34.741  1.00  0.00     0.037 A 
BRANCH  48  62
ATOM     62  C   UNL A   1      35.742  34.051  30.484  1.00  0.00     0.064 A 
ATOM     63  C   UNL A   1      34.738  34.817  31.128  1.00  0.00     0.173 A 
ATOM     64  C   UNL A   1      35.474  33.815  29.119  1.00  0.00     0.173 A 
ATOM     65  F   UNL A   1      34.886  35.267  32.379  1.00  0.00    -0.203 F 
ATOM     66  C   UNL A   1      33.546  35.208  30.503  1.00  0.00     0.198 A 
ATOM     67  C   UNL A   1      34.264  34.173  28.500  1.00  0.00     0.198 A 
ATOM     68  F   UNL A   1      36.403  33.311  28.300  1.00  0.00    -0.203 F 
ATOM     69  F   UNL A   1      32.649  35.941  31.179  1.00  0.00    -0.200 F 
ATOM     70  C   UNL A   1      33.297  34.866  29.194  1.00  0.00     0.200 A 
ATOM     71  F   UNL A   1      34.062  33.866  27.210  1.00  0.00    -0.200 F 
ATOM     72  F   UNL A   1      32.160  35.241  28.593  1.00  0.00    -0.200 F 
ENDBRANCH  48  62
BRANCH  49  73
ATOM     73  C   UNL A   1      43.120  28.028  30.869  1.00  0.00     0.064 A 
ATOM     74  C   UNL A   1      44.622  28.457  31.760  1.00  0.00     0.173 A 
ATOM     75  C   UNL A   1      43.207  26.626  29.757  1.00  0.00     0.173 A 
ATOM     76  F   UNL A   1      44.636  29.589  32.479  1.00  0.00    -0.203 F 
ATOM     77  C   UNL A   1      46.165  27.494  31.586  1.00  0.00     0.198 A 
ATOM     78  C   UNL A   1      44.715  25.658  29.569  1.00  0.00     0.198 A 
ATOM     79  F   UNL A   1      42.220  26.484  28.862  1.00  0.00    -0.203 F 
ATOM     80  F   UNL A   1      47.309  27.959  32.104  1.00  0.00    -0.200 F 
ATOM     81  C   UNL A   1      46.196  26.062  30.511  1.00  0.00     0.200 A 
ATOM     82  F   UNL A   1      44.857  24.893  28.478  1.00  0.00    -0.200 F 
ATOM     83  F   UNL A   1      47.350  25.435  30.248  1.00  0.00    -0.200 F 
ENDBRANCH  49  73
BRANCH  61  84
ATOM     84  C   UNL A   1      39.048  31.900  36.003  1.00  0.00     0.064 A 
ATOM     85  C   UNL A   1      39.607  33.163  36.238  1.00  0.00     0.173 A 
ATOM     86  C   UNL A   1      38.148  31.443  37.010  1.00  0.00     0.173 A 
ATOM     87  F   UNL A   1      40.396  33.751  35.331  1.00  0.00    -0.203 F 
ATOM     88  C   UNL A   1      39.327  33.888  37.409  1.00  0.00     0.198 A 
ATOM     89  C   UNL A   1      37.824  32.194  38.141  1.00  0.00     0.198 A 
ATOM     90  F   UNL A   1      37.540  30.251  36.913  1.00  0.00    -0.203 F 
ATOM     91  F   UNL A   1      39.920  35.073  37.615  1.00  0.00    -0.200 F 
ATOM     92  C   UNL A   1      38.430  33.410  38.351  1.00  0.00     0.200 A 
ATOM     93  F   UNL A   1      36.916  31.732  39.013  1.00  0.00    -0.200 F 
ATOM     94  F   UNL A   1      38.146  34.122  39.450  1.00  0.00    -0.200 F 
ENDBRANCH  61  84
ENDBRANCH  35  36
ENDBRANCH  28  30
ENDBRANCH  27  28
ENDBRANCH  26  27
ENDBRANCH   1  26
TORSDOF 15
ENDMDL
MODEL 3
REMARK VINA RESULT:     -13.2      3.000      5.186
REMARK SMILES COc1cc(C(=O)N[C@H](C(=O)OCCOC(=O)c2ccc(-c3c4nc(c(-c5c(F)c(F)c(F)c(F)c5F)c5ccc([nH]5)c(-c5c(F)c(F)c(F)c(F)c5F)c5nc(c(-c6c(F)c(F)c(F)c(F)c6F)c6ccc3[nH]6)C=C5)C=C4)cc2)C2=C(C)N=N[C@H]2C)ccc1C
REMARK SMILES IDX 13 1 12 2 10 3 11 4 9 5 8 6 6 7 7 8 5 10 3 11 4 12 90 13
REMARK SMILES IDX 89 14 91 15 88 16 2 17 1 18 81 19 82 20 86 21 83 22 84 23
REMARK SMILES IDX 85 24 87 25 14 26 15 27 16 28 17 29 18 30 19 31 80 32 20 33
REMARK SMILES IDX 79 34 21 35 22 36 23 37 73 38 24 39 78 40 72 41 74 42 25 43
REMARK SMILES IDX 77 44 71 45 70 46 26 48 58 49 38 50 57 51 39 52 42 53 56 54
REMARK SMILES IDX 75 55 40 56 41 57 55 59 76 60 43 61 27 62 28 63 36 64 29 65
REMARK SMILES IDX 30 66 34 67 37 68 31 69 32 70 35 71 33 72 59 73 60 74 68 75
REMARK SMILES IDX 61 76 62 77 66 78 69 79 63 80 64 81 67 82 65 83 44 84 45 85
REMARK SMILES IDX 53 86 46 87 47 88 51 89 54 90 48 91 49 92 52 93 50 94
REMARK H PARENT 8 9 74 47 42 58
REMARK Flexibility Score: inf
ROOT
ATOM      1  C   UNL A   1      37.030  23.383  25.045  1.00  0.00     0.274 C 
ENDROOT
BRANCH   1   2
ATOM      2  O   UNL A   1      36.162  22.287  25.360  1.00  0.00    -0.460 OA
BRANCH   2   3
ATOM      3  C   UNL A   1      35.008  22.717  25.931  1.00  0.00     0.333 C 
ATOM      4  O   UNL A   1      34.975  23.436  26.925  1.00  0.00    -0.249 OA
BRANCH   3   5
ATOM      5  C   UNL A   1      33.817  22.564  24.976  1.00  0.00     0.223 C 
BRANCH   5   6
ATOM      6  N   UNL A   1      33.970  23.847  23.894  1.00  0.00    -0.335 N 
ATOM      7  C   UNL A   1      33.701  25.182  23.388  1.00  0.00     0.252 C 
ATOM      8  O   UNL A   1      34.132  25.194  22.213  1.00  0.00    -0.269 OA
ATOM      9  H   UNL A   1      34.596  23.487  23.224  1.00  0.00     0.165 HD
BRANCH   7  10
ATOM     10  C   UNL A   1      33.120  26.701  23.864  1.00  0.00     0.043 A 
ATOM     11  C   UNL A   1      31.583  28.877  24.228  1.00  0.00     0.122 A 
ATOM     12  C   UNL A   1      32.039  27.639  23.534  1.00  0.00     0.060 A 
ATOM     13  C   UNL A   1      32.359  29.224  25.350  1.00  0.00    -0.009 A 
ATOM     14  C   UNL A   1      33.432  28.344  25.696  1.00  0.00     0.008 A 
ATOM     15  C   UNL A   1      32.207  30.343  26.345  1.00  0.00     0.048 C 
ATOM     16  C   UNL A   1      33.786  27.155  25.006  1.00  0.00     0.014 A 
BRANCH  11  17
ATOM     17  O   UNL A   1      30.110  29.350  23.924  1.00  0.00    -0.496 OA
ATOM     18  C   UNL A   1      28.737  30.672  23.231  1.00  0.00     0.278 C 
ENDBRANCH  11  17
ENDBRANCH   7  10
ENDBRANCH   5   6
BRANCH   5  19
ATOM     19  C   UNL A   1      33.142  21.178  24.675  1.00  0.00     0.012 C 
ATOM     20  C   UNL A   1      32.431  20.500  23.724  1.00  0.00     0.064 C 
ATOM     21  C   UNL A   1      33.575  19.956  25.481  1.00  0.00     0.156 C 
ATOM     22  C   UNL A   1      32.102  20.681  22.274  1.00  0.00     0.069 C 
ATOM     23  N   UNL A   1      31.915  19.305  24.208  1.00  0.00    -0.160 NA
ATOM     24  N   UNL A   1      32.437  19.032  25.312  1.00  0.00    -0.181 NA
ATOM     25  C   UNL A   1      34.759  19.222  24.786  1.00  0.00     0.040 C 
ENDBRANCH   5  19
ENDBRANCH   3   5
ENDBRANCH   2   3
ENDBRANCH   1   2
BRANCH   1  26
ATOM     26  C   UNL A   1      38.268  23.357  25.955  1.00  0.00     0.275 C 
BRANCH  26  27
ATOM     27  O   UNL A   1      38.709  24.683  26.358  1.00  0.00    -0.458 OA
BRANCH  27  28
ATOM     28  C   UNL A   1      39.998  25.102  26.593  1.00  0.00     0.338 C 
ATOM     29  O   UNL A   1      40.937  24.948  25.843  1.00  0.00    -0.246 OA
BRANCH  28  30
ATOM     30  C   UNL A   1      39.944  25.909  27.916  1.00  0.00     0.060 A 
ATOM     31  C   UNL A   1      39.446  25.711  29.197  1.00  0.00     0.016 A 
ATOM     32  C   UNL A   1      40.518  27.136  27.776  1.00  0.00     0.016 A 
ATOM     33  C   UNL A   1      39.371  26.821  30.160  1.00  0.00     0.010 A 
ATOM     34  C   UNL A   1      40.518  28.179  28.703  1.00  0.00     0.010 A 
ATOM     35  C   UNL A   1      39.864  28.113  29.881  1.00  0.00    -0.014 A 
BRANCH  35  36
ATOM     36  C   UNL A   1      39.471  29.495  30.321  1.00  0.00     0.031 A 
ATOM     37  C   UNL A   1      38.467  30.438  29.747  1.00  0.00     0.074 A 
ATOM     38  C   UNL A   1      39.569  29.714  31.657  1.00  0.00     0.049 A 
ATOM     39  N   UNL A   1      38.629  31.723  29.826  1.00  0.00    -0.248 NA
ATOM     40  C   UNL A   1      37.115  30.084  29.321  1.00  0.00     0.031 C 
ATOM     41  C   UNL A   1      39.074  30.751  32.556  1.00  0.00     0.029 A 
ATOM     42  N   UNL A   1      40.252  28.915  32.509  1.00  0.00    -0.354 N 
ATOM     43  C   UNL A   1      37.367  32.299  29.900  1.00  0.00     0.074 A 
ATOM     44  C   UNL A   1      36.472  31.253  29.452  1.00  0.00     0.031 C 
ATOM     45  C   UNL A   1      39.719  30.674  33.736  1.00  0.00     0.029 A 
ATOM     46  C   UNL A   1      40.598  29.528  33.701  1.00  0.00     0.049 A 
ATOM     47  H   UNL A   1      40.483  27.981  32.299  1.00  0.00     0.167 HD
ATOM     48  C   UNL A   1      37.186  33.513  30.527  1.00  0.00     0.037 A 
ATOM     49  C   UNL A   1      41.917  29.456  33.998  1.00  0.00     0.037 A 
ATOM     50  C   UNL A   1      38.404  33.923  31.276  1.00  0.00     0.049 A 
ATOM     51  C   UNL A   1      42.580  30.534  33.104  1.00  0.00     0.074 A 
ATOM     52  C   UNL A   1      38.682  34.191  32.612  1.00  0.00     0.029 A 
ATOM     53  N   UNL A   1      39.655  33.809  30.673  1.00  0.00    -0.354 N 
ATOM     54  N   UNL A   1      42.003  31.699  32.880  1.00  0.00    -0.248 NA
ATOM     55  C   UNL A   1      43.845  30.452  32.366  1.00  0.00     0.031 C 
ATOM     56  C   UNL A   1      40.090  34.103  32.817  1.00  0.00     0.029 A 
ATOM     57  C   UNL A   1      40.675  33.762  31.614  1.00  0.00     0.049 A 
ATOM     58  H   UNL A   1      39.798  33.767  29.700  1.00  0.00     0.167 HD
ATOM     59  C   UNL A   1      42.617  32.357  31.833  1.00  0.00     0.074 A 
ATOM     60  C   UNL A   1      43.842  31.600  31.649  1.00  0.00     0.031 C 
ATOM     61  C   UNL A   1      42.030  33.419  31.178  1.00  0.00     0.037 A 
BRANCH  48  62
ATOM     62  C   UNL A   1      35.843  34.242  30.688  1.00  0.00     0.064 A 
ATOM     63  C   UNL A   1      35.072  34.653  29.572  1.00  0.00     0.173 A 
ATOM     64  C   UNL A   1      35.210  34.488  31.925  1.00  0.00     0.173 A 
ATOM     65  F   UNL A   1      35.437  34.370  28.317  1.00  0.00    -0.203 F 
ATOM     66  C   UNL A   1      33.851  35.334  29.686  1.00  0.00     0.198 A 
ATOM     67  C   UNL A   1      34.006  35.202  32.043  1.00  0.00     0.198 A 
ATOM     68  F   UNL A   1      35.677  33.970  33.065  1.00  0.00    -0.203 F 
ATOM     69  F   UNL A   1      33.176  35.679  28.580  1.00  0.00    -0.200 F 
ATOM     70  C   UNL A   1      33.328  35.630  30.924  1.00  0.00     0.200 A 
ATOM     71  F   UNL A   1      33.493  35.441  33.259  1.00  0.00    -0.200 F 
ATOM     72  F   UNL A   1      32.160  36.277  31.036  1.00  0.00    -0.200 F 
ENDBRANCH  48  62
BRANCH  49  73
ATOM     73  C   UNL A   1      42.053  27.952  34.254  1.00  0.00     0.064 A 
ATOM     74  C   UNL A   1      43.049  27.111  33.014  1.00  0.00     0.173 A 
ATOM     75  C   UNL A   1      42.070  27.268  35.910  1.00  0.00     0.173 A 
ATOM     76  F   UNL A   1      42.939  27.503  31.736  1.00  0.00    -0.203 F 
ATOM     77  C   UNL A   1      44.070  25.650  33.413  1.00  0.00     0.198 A 
ATOM     78  C   UNL A   1      43.070  25.829  36.330  1.00  0.00     0.198 A 
ATOM     79  F   UNL A   1      41.112  27.671  36.756  1.00  0.00    -0.203 F 
ATOM     80  F   UNL A   1      44.632  24.936  32.430  1.00  0.00    -0.200 F 
ATOM     81  C   UNL A   1      44.108  25.031  35.093  1.00  0.00     0.200 A 
ATOM     82  F   UNL A   1      42.764  25.132  37.433  1.00  0.00    -0.200 F 
ATOM     83  F   UNL A   1      44.723  23.875  35.378  1.00  0.00    -0.200 F 
ENDBRANCH  49  73
BRANCH  61  84
ATOM     84  C   UNL A   1      42.596  34.269  30.043  1.00  0.00     0.064 A 
ATOM     85  C   UNL A   1      42.911  35.632  30.111  1.00  0.00     0.173 A 
ATOM     86  C   UNL A   1      42.956  33.628  28.821  1.00  0.00     0.173 A 
ATOM     87  F   UNL A   1      42.713  36.334  31.234  1.00  0.00    -0.203 F 
ATOM     88  C   UNL A   1      43.494  36.311  29.027  1.00  0.00     0.198 A 
ATOM     89  C   UNL A   1      43.591  34.291  27.771  1.00  0.00     0.198 A 
ATOM     90  F   UNL A   1      42.712  32.324  28.619  1.00  0.00    -0.203 F 
ATOM     91  F   UNL A   1      43.737  37.626  29.119  1.00  0.00    -0.200 F 
ATOM     92  C   UNL A   1      43.842  35.640  27.865  1.00  0.00     0.200 A 
ATOM     93  F   UNL A   1      43.963  33.610  26.677  1.00  0.00    -0.200 F 
ATOM     94  F   UNL A   1      44.426  36.289  26.848  1.00  0.00    -0.200 F 
ENDBRANCH  61  84
ENDBRANCH  35  36
ENDBRANCH  28  30
ENDBRANCH  27  28
ENDBRANCH  26  27
ENDBRANCH   1  26
TORSDOF 15
ENDMDL
