MODEL 1
REMARK VINA RESULT:     -15.0      0.000      0.000
REMARK SMILES Cc1ccc(-c2cc(C(=O)OCCOC(=O)c3ccc(-c4c5nc(c(-c6c(F)c(F)c(F)c(F)c6F)c6ccc([nH]6)c(-c6c(F)c(F)c(F)c(F)c6F)c6nc(c(-c7c(F)c(F)c(F)c(F)c7F)c7ccc4[nH]7)C=C6)C=C5)cc3)c3c(-c4cccc([N+](=O)[O-])c4)[nH]nc3n2)cc1
REMARK SMILES IDX 12 1 11 2 9 3 10 4 8 5 6 6 7 7 94 8 93 9 80 10 92 11 81 12
REMARK SMILES IDX 91 13 5 15 1 16 2 17 3 18 96 19 4 20 95 21 82 22 83 23 90 24
REMARK SMILES IDX 84 25 86 26 85 27 87 28 88 29 89 30 13 31 14 32 15 33 16 34
REMARK SMILES IDX 17 35 18 36 79 37 19 38 78 39 20 40 21 41 22 42 72 43 23 44
REMARK SMILES IDX 77 45 71 46 73 47 24 48 76 49 70 50 69 51 25 53 57 54 37 55
REMARK SMILES IDX 56 56 38 57 41 58 55 59 74 60 39 61 40 62 54 64 75 65 42 66
REMARK SMILES IDX 26 67 27 68 35 69 28 70 29 71 33 72 36 73 30 74 31 75 34 76
REMARK SMILES IDX 32 77 58 78 59 79 67 80 60 81 61 82 65 83 68 84 62 85 63 86
REMARK SMILES IDX 66 87 64 88 43 89 44 90 52 91 45 92 46 93 50 94 53 95 47 96
REMARK SMILES IDX 48 97 51 98 49 99
REMARK H PARENT 91 14 73 52 41 63
REMARK Flexibility Score: inf
ROOT
ATOM      1  C   UNL A   1      33.398  28.891  25.053  1.00  0.00     0.275 C 
ENDROOT
BRANCH   1   2
ATOM      2  O   UNL A   1      32.766  28.671  23.759  1.00  0.00    -0.458 OA
BRANCH   2   3
ATOM      3  C   UNL A   1      33.343  27.700  22.996  1.00  0.00     0.339 C 
ATOM      4  O   UNL A   1      33.992  27.923  21.976  1.00  0.00    -0.246 OA
BRANCH   3   5
ATOM      5  C   UNL A   1      32.788  26.347  23.181  1.00  0.00     0.075 A 
ATOM      6  C   UNL A   1      33.999  24.437  24.203  1.00  0.00     0.074 A 
ATOM      7  C   UNL A   1      33.927  25.515  23.311  1.00  0.00     0.045 A 
ATOM      8  N   UNL A   1      32.979  23.947  24.921  1.00  0.00    -0.226 NA
ATOM      9  C   UNL A   1      31.822  24.621  24.746  1.00  0.00     0.182 A 
ATOM     10  C   UNL A   1      31.659  25.830  23.917  1.00  0.00     0.061 A 
ATOM     11  N   UNL A   1      30.707  24.252  25.351  1.00  0.00    -0.154 NA
ATOM     12  C   UNL A   1      30.287  26.146  24.093  1.00  0.00     0.076 A 
ATOM     13  N   UNL A   1      29.822  25.120  24.907  1.00  0.00    -0.275 N 
ATOM     14  H   UNL A   1      28.869  25.044  25.142  1.00  0.00     0.190 HD
BRANCH   6  15
ATOM     15  C   UNL A   1      35.315  23.858  24.455  1.00  0.00     0.000 A 
ATOM     16  C   UNL A   1      38.706  21.501  25.656  1.00  0.00     0.044 C 
ATOM     17  C   UNL A   1      37.576  22.365  25.189  1.00  0.00    -0.051 A 
ATOM     18  C   UNL A   1      37.070  23.355  26.041  1.00  0.00     0.004 A 
ATOM     19  C   UNL A   1      36.988  22.172  23.934  1.00  0.00     0.004 A 
ATOM     20  C   UNL A   1      35.953  24.102  25.673  1.00  0.00     0.010 A 
ATOM     21  C   UNL A   1      35.866  22.917  23.568  1.00  0.00     0.010 A 
ENDBRANCH   6  15
BRANCH  12  22
ATOM     22  C   UNL A   1      29.191  27.083  23.695  1.00  0.00     0.007 A 
ATOM     23  C   UNL A   1      27.854  26.764  24.079  1.00  0.00     0.011 A 
ATOM     24  C   UNL A   1      29.346  28.224  22.912  1.00  0.00     0.096 A 
ATOM     25  C   UNL A   1      26.745  27.568  23.781  1.00  0.00     0.008 A 
ATOM     26  C   UNL A   1      28.239  29.086  22.692  1.00  0.00     0.270 A 
ATOM     27  C   UNL A   1      26.940  28.760  23.112  1.00  0.00     0.085 A 
BRANCH  26  28
ATOM     28  N   UNL A   1      28.442  30.416  22.111  1.00  0.00     0.062 N 
ATOM     29  O   UNL A   1      29.291  30.519  21.210  1.00  0.00    -0.258 OA
ATOM     30  O   UNL A   1      27.795  31.356  22.589  1.00  0.00    -0.258 OA
ENDBRANCH  26  28
ENDBRANCH  12  22
ENDBRANCH   3   5
ENDBRANCH   2   3
ENDBRANCH   1   2
BRANCH   1  31
ATOM     31  C   UNL A   1      32.700  29.969  25.916  1.00  0.00     0.275 C 
BRANCH  31  32
ATOM     32  O   UNL A   1      33.113  30.153  27.285  1.00  0.00    -0.458 OA
BRANCH  32  33
ATOM     33  C   UNL A   1      33.812  31.267  27.550  1.00  0.00     0.338 C 
ATOM     34  O   UNL A   1      33.309  32.379  27.634  1.00  0.00    -0.246 OA
BRANCH  33  35
ATOM     35  C   UNL A   1      35.198  30.940  27.911  1.00  0.00     0.060 A 
ATOM     36  C   UNL A   1      36.141  31.974  28.001  1.00  0.00     0.016 A 
ATOM     37  C   UNL A   1      35.481  29.665  28.392  1.00  0.00     0.016 A 
ATOM     38  C   UNL A   1      37.346  31.781  28.645  1.00  0.00     0.010 A 
ATOM     39  C   UNL A   1      36.651  29.472  29.067  1.00  0.00     0.010 A 
ATOM     40  C   UNL A   1      37.578  30.521  29.150  1.00  0.00    -0.014 A 
BRANCH  40  41
ATOM     41  C   UNL A   1      38.876  30.134  29.625  1.00  0.00     0.031 A 
ATOM     42  C   UNL A   1      39.447  28.862  29.164  1.00  0.00     0.074 A 
ATOM     43  C   UNL A   1      39.439  31.137  30.332  1.00  0.00     0.049 A 
ATOM     44  N   UNL A   1      40.285  28.167  29.846  1.00  0.00    -0.248 NA
ATOM     45  C   UNL A   1      39.041  28.185  27.926  1.00  0.00     0.031 C 
ATOM     46  C   UNL A   1      40.824  31.451  30.590  1.00  0.00     0.029 A 
ATOM     47  N   UNL A   1      38.735  32.144  31.024  1.00  0.00    -0.354 N 
ATOM     48  C   UNL A   1      40.870  27.300  28.947  1.00  0.00     0.074 A 
ATOM     49  C   UNL A   1      39.917  27.170  27.875  1.00  0.00     0.031 C 
ATOM     50  C   UNL A   1      40.888  32.369  31.575  1.00  0.00     0.029 A 
ATOM     51  C   UNL A   1      39.542  32.591  32.078  1.00  0.00     0.049 A 
ATOM     52  H   UNL A   1      37.834  32.474  30.803  1.00  0.00     0.167 HD
ATOM     53  C   UNL A   1      42.209  27.064  29.074  1.00  0.00     0.037 A 
ATOM     54  C   UNL A   1      39.141  32.369  33.369  1.00  0.00     0.037 A 
ATOM     55  C   UNL A   1      42.717  27.828  30.216  1.00  0.00     0.049 A 
ATOM     56  C   UNL A   1      39.924  31.247  33.992  1.00  0.00     0.074 A 
ATOM     57  C   UNL A   1      43.325  29.071  30.273  1.00  0.00     0.029 A 
ATOM     58  N   UNL A   1      42.243  27.560  31.494  1.00  0.00    -0.354 N 
ATOM     59  N   UNL A   1      40.555  30.330  33.313  1.00  0.00    -0.248 NA
ATOM     60  C   UNL A   1      40.069  31.097  35.431  1.00  0.00     0.031 C 
ATOM     61  C   UNL A   1      43.198  29.561  31.596  1.00  0.00     0.029 A 
ATOM     62  C   UNL A   1      42.487  28.631  32.333  1.00  0.00     0.049 A 
ATOM     63  H   UNL A   1      41.797  26.725  31.765  1.00  0.00     0.167 HD
ATOM     64  C   UNL A   1      41.267  29.546  34.175  1.00  0.00     0.074 A 
ATOM     65  C   UNL A   1      40.923  30.063  35.489  1.00  0.00     0.031 C 
ATOM     66  C   UNL A   1      42.119  28.571  33.737  1.00  0.00     0.037 A 
BRANCH  53  67
ATOM     67  C   UNL A   1      43.123  26.507  28.001  1.00  0.00     0.064 A 
ATOM     68  C   UNL A   1      43.576  27.340  26.948  1.00  0.00     0.173 A 
ATOM     69  C   UNL A   1      43.588  25.181  27.937  1.00  0.00     0.173 A 
ATOM     70  F   UNL A   1      43.288  28.647  26.907  1.00  0.00    -0.203 F 
ATOM     71  C   UNL A   1      44.354  26.871  25.888  1.00  0.00     0.198 A 
ATOM     72  C   UNL A   1      44.355  24.706  26.863  1.00  0.00     0.198 A 
ATOM     73  F   UNL A   1      43.357  24.313  28.929  1.00  0.00    -0.203 F 
ATOM     74  F   UNL A   1      44.730  27.718  24.919  1.00  0.00    -0.200 F 
ATOM     75  C   UNL A   1      44.731  25.550  25.835  1.00  0.00     0.200 A 
ATOM     76  F   UNL A   1      44.735  23.421  26.832  1.00  0.00    -0.200 F 
ATOM     77  F   UNL A   1      45.473  25.099  24.815  1.00  0.00    -0.200 F 
ENDBRANCH  53  67
BRANCH  54  78
ATOM     78  C   UNL A   1      37.668  32.543  33.549  1.00  0.00     0.064 A 
ATOM     79  C   UNL A   1      37.212  33.870  33.680  1.00  0.00     0.173 A 
ATOM     80  C   UNL A   1      36.829  31.613  32.941  1.00  0.00     0.173 A 
ATOM     81  F   UNL A   1      37.947  34.768  34.352  1.00  0.00    -0.203 F 
ATOM     82  C   UNL A   1      36.137  34.318  32.928  1.00  0.00     0.198 A 
ATOM     83  C   UNL A   1      35.768  32.069  32.184  1.00  0.00     0.198 A 
ATOM     84  F   UNL A   1      37.143  30.312  32.894  1.00  0.00    -0.203 F 
ATOM     85  F   UNL A   1      35.843  35.625  32.874  1.00  0.00    -0.200 F 
ATOM     86  C   UNL A   1      35.473  33.426  32.114  1.00  0.00     0.200 A 
ATOM     87  F   UNL A   1      35.134  31.185  31.410  1.00  0.00    -0.200 F 
ATOM     88  F   UNL A   1      34.597  33.894  31.218  1.00  0.00    -0.200 F 
ENDBRANCH  54  78
BRANCH  66  89
ATOM     89  C   UNL A   1      42.827  27.561  34.601  1.00  0.00     0.064 A 
ATOM     90  C   UNL A   1      44.133  27.716  35.078  1.00  0.00     0.173 A 
ATOM     91  C   UNL A   1      42.140  26.411  35.069  1.00  0.00     0.173 A 
ATOM     92  F   UNL A   1      44.828  28.843  34.873  1.00  0.00    -0.203 F 
ATOM     93  C   UNL A   1      44.755  26.733  35.845  1.00  0.00     0.198 A 
ATOM     94  C   UNL A   1      42.730  25.483  35.916  1.00  0.00     0.198 A 
ATOM     95  F   UNL A   1      40.866  26.153  34.741  1.00  0.00    -0.203 F 
ATOM     96  F   UNL A   1      46.041  26.880  36.187  1.00  0.00    -0.200 F 
ATOM     97  C   UNL A   1      44.053  25.622  36.271  1.00  0.00     0.200 A 
ATOM     98  F   UNL A   1      42.004  24.460  36.388  1.00  0.00    -0.200 F 
ATOM     99  F   UNL A   1      44.642  24.700  37.041  1.00  0.00    -0.200 F 
ENDBRANCH  66  89
ENDBRANCH  40  41
ENDBRANCH  33  35
ENDBRANCH  32  33
ENDBRANCH  31  32
ENDBRANCH   1  31
TORSDOF 14
ENDMDL
MODEL 2
REMARK VINA RESULT:     -15.0      2.335      3.395
REMARK SMILES Cc1ccc(-c2cc(C(=O)OCCOC(=O)c3ccc(-c4c5nc(c(-c6c(F)c(F)c(F)c(F)c6F)c6ccc([nH]6)c(-c6c(F)c(F)c(F)c(F)c6F)c6nc(c(-c7c(F)c(F)c(F)c(F)c7F)c7ccc4[nH]7)C=C6)C=C5)cc3)c3c(-c4cccc([N+](=O)[O-])c4)[nH]nc3n2)cc1
REMARK SMILES IDX 12 1 11 2 9 3 10 4 8 5 6 6 7 7 94 8 93 9 80 10 92 11 81 12
REMARK SMILES IDX 91 13 5 15 1 16 2 17 3 18 96 19 4 20 95 21 82 22 83 23 90 24
REMARK SMILES IDX 84 25 86 26 85 27 87 28 88 29 89 30 13 31 14 32 15 33 16 34
REMARK SMILES IDX 17 35 18 36 79 37 19 38 78 39 20 40 21 41 22 42 72 43 23 44
REMARK SMILES IDX 77 45 71 46 73 47 24 48 76 49 70 50 69 51 25 53 57 54 37 55
REMARK SMILES IDX 56 56 38 57 41 58 55 59 74 60 39 61 40 62 54 64 75 65 42 66
REMARK SMILES IDX 26 67 27 68 35 69 28 70 29 71 33 72 36 73 30 74 31 75 34 76
REMARK SMILES IDX 32 77 58 78 59 79 67 80 60 81 61 82 65 83 68 84 62 85 63 86
REMARK SMILES IDX 66 87 64 88 43 89 44 90 52 91 45 92 46 93 50 94 53 95 47 96
REMARK SMILES IDX 48 97 51 98 49 99
REMARK H PARENT 91 14 73 52 41 63
REMARK Flexibility Score: inf
ROOT
ATOM      1  C   UNL A   1      32.192  28.669  26.778  1.00  0.00     0.275 C 
ENDROOT
BRANCH   1   2
ATOM      2  O   UNL A   1      31.466  27.497  27.251  1.00  0.00    -0.458 OA
BRANCH   2   3
ATOM      3  C   UNL A   1      31.526  26.412  26.427  1.00  0.00     0.339 C 
ATOM      4  O   UNL A   1      31.329  25.258  26.799  1.00  0.00    -0.246 OA
BRANCH   3   5
ATOM      5  C   UNL A   1      32.274  26.619  25.174  1.00  0.00     0.075 A 
ATOM      6  C   UNL A   1      34.039  25.107  24.304  1.00  0.00     0.074 A 
ATOM      7  C   UNL A   1      33.451  25.847  25.338  1.00  0.00     0.045 A 
ATOM      8  N   UNL A   1      33.685  25.150  23.013  1.00  0.00    -0.226 NA
ATOM      9  C   UNL A   1      32.641  25.971  22.764  1.00  0.00     0.182 A 
ATOM     10  C   UNL A   1      31.882  26.712  23.789  1.00  0.00     0.061 A 
ATOM     11  N   UNL A   1      32.183  26.158  21.540  1.00  0.00    -0.154 NA
ATOM     12  C   UNL A   1      30.898  27.387  23.019  1.00  0.00     0.076 A 
ATOM     13  N   UNL A   1      31.211  27.029  21.713  1.00  0.00    -0.275 N 
ATOM     14  H   UNL A   1      30.724  27.412  20.947  1.00  0.00     0.190 HD
BRANCH   6  15
ATOM     15  C   UNL A   1      35.057  24.128  24.672  1.00  0.00     0.000 A 
ATOM     16  C   UNL A   1      38.650  21.893  25.442  1.00  0.00     0.044 C 
ATOM     17  C   UNL A   1      37.358  22.614  25.216  1.00  0.00    -0.051 A 
ATOM     18  C   UNL A   1      36.745  22.551  23.958  1.00  0.00     0.004 A 
ATOM     19  C   UNL A   1      36.773  23.384  26.227  1.00  0.00     0.004 A 
ATOM     20  C   UNL A   1      35.600  23.296  23.690  1.00  0.00     0.010 A 
ATOM     21  C   UNL A   1      35.627  24.135  25.956  1.00  0.00     0.010 A 
ENDBRANCH   6  15
BRANCH  12  22
ATOM     22  C   UNL A   1      29.751  28.345  23.077  1.00  0.00     0.007 A 
ATOM     23  C   UNL A   1      28.426  27.814  23.099  1.00  0.00     0.011 A 
ATOM     24  C   UNL A   1      29.853  29.733  23.043  1.00  0.00     0.096 A 
ATOM     25  C   UNL A   1      27.271  28.606  23.168  1.00  0.00     0.008 A 
ATOM     26  C   UNL A   1      28.691  30.531  23.210  1.00  0.00     0.270 A 
ATOM     27  C   UNL A   1      27.403  29.978  23.261  1.00  0.00     0.085 A 
BRANCH  26  28
ATOM     28  N   UNL A   1      28.812  31.972  23.451  1.00  0.00     0.062 N 
ATOM     29  O   UNL A   1      29.621  32.337  24.320  1.00  0.00    -0.258 OA
ATOM     30  O   UNL A   1      28.066  32.726  22.813  1.00  0.00    -0.258 OA
ENDBRANCH  26  28
ENDBRANCH  12  22
ENDBRANCH   3   5
ENDBRANCH   2   3
ENDBRANCH   1   2
BRANCH   1  31
ATOM     31  C   UNL A   1      33.453  29.004  27.609  1.00  0.00     0.275 C 
BRANCH  31  32
ATOM     32  O   UNL A   1      34.290  30.107  27.207  1.00  0.00    -0.458 OA
BRANCH  32  33
ATOM     33  C   UNL A   1      35.068  30.639  28.161  1.00  0.00     0.338 C 
ATOM     34  O   UNL A   1      34.690  31.504  28.941  1.00  0.00    -0.246 OA
BRANCH  33  35
ATOM     35  C   UNL A   1      36.343  29.915  28.260  1.00  0.00     0.060 A 
ATOM     36  C   UNL A   1      37.254  29.992  27.197  1.00  0.00     0.016 A 
ATOM     37  C   UNL A   1      36.716  29.383  29.490  1.00  0.00     0.016 A 
ATOM     38  C   UNL A   1      38.572  29.620  27.364  1.00  0.00     0.010 A 
ATOM     39  C   UNL A   1      38.026  29.050  29.681  1.00  0.00     0.010 A 
ATOM     40  C   UNL A   1      38.922  29.140  28.606  1.00  0.00    -0.014 A 
BRANCH  40  41
ATOM     41  C   UNL A   1      40.189  28.505  28.832  1.00  0.00     0.031 A 
ATOM     42  C   UNL A   1      40.320  27.069  28.555  1.00  0.00     0.074 A 
ATOM     43  C   UNL A   1      41.132  29.424  29.131  1.00  0.00     0.049 A 
ATOM     44  N   UNL A   1      41.153  26.299  29.158  1.00  0.00    -0.248 NA
ATOM     45  C   UNL A   1      39.439  26.329  27.643  1.00  0.00     0.031 C 
ATOM     46  C   UNL A   1      42.566  29.396  28.969  1.00  0.00     0.029 A 
ATOM     47  N   UNL A   1      40.888  30.682  29.718  1.00  0.00    -0.354 N 
ATOM     48  C   UNL A   1      41.255  25.170  28.371  1.00  0.00     0.074 A 
ATOM     49  C   UNL A   1      40.027  25.124  27.620  1.00  0.00     0.031 C 
ATOM     50  C   UNL A   1      43.105  30.414  29.669  1.00  0.00     0.029 A 
ATOM     51  C   UNL A   1      42.042  31.067  30.415  1.00  0.00     0.049 A 
ATOM     52  H   UNL A   1      40.053  31.200  29.650  1.00  0.00     0.167 HD
ATOM     53  C   UNL A   1      42.493  24.611  28.225  1.00  0.00     0.037 A 
ATOM     54  C   UNL A   1      41.994  31.177  31.780  1.00  0.00     0.037 A 
ATOM     55  C   UNL A   1      43.458  25.390  29.002  1.00  0.00     0.049 A 
ATOM     56  C   UNL A   1      42.669  30.006  32.439  1.00  0.00     0.074 A 
ATOM     57  C   UNL A   1      44.306  26.418  28.622  1.00  0.00     0.029 A 
ATOM     58  N   UNL A   1      43.330  25.474  30.383  1.00  0.00    -0.354 N 
ATOM     59  N   UNL A   1      42.867  28.855  31.860  1.00  0.00    -0.248 NA
ATOM     60  C   UNL A   1      43.189  30.064  33.795  1.00  0.00     0.031 C 
ATOM     61  C   UNL A   1      44.674  27.137  29.785  1.00  0.00     0.029 A 
ATOM     62  C   UNL A   1      44.027  26.565  30.866  1.00  0.00     0.049 A 
ATOM     63  H   UNL A   1      42.815  24.844  30.938  1.00  0.00     0.167 HD
ATOM     64  C   UNL A   1      43.616  28.064  32.683  1.00  0.00     0.074 A 
ATOM     65  C   UNL A   1      43.784  28.864  33.885  1.00  0.00     0.031 C 
ATOM     66  C   UNL A   1      44.078  26.839  32.292  1.00  0.00     0.037 A 
BRANCH  53  67
ATOM     67  C   UNL A   1      42.917  23.661  27.123  1.00  0.00     0.064 A 
ATOM     68  C   UNL A   1      42.659  22.272  27.241  1.00  0.00     0.173 A 
ATOM     69  C   UNL A   1      43.576  24.032  25.937  1.00  0.00     0.173 A 
ATOM     70  F   UNL A   1      41.970  21.767  28.272  1.00  0.00    -0.203 F 
ATOM     71  C   UNL A   1      43.092  21.335  26.302  1.00  0.00     0.198 A 
ATOM     72  C   UNL A   1      44.027  23.088  25.002  1.00  0.00     0.198 A 
ATOM     73  F   UNL A   1      43.768  25.318  25.620  1.00  0.00    -0.203 F 
ATOM     74  F   UNL A   1      42.824  20.035  26.492  1.00  0.00    -0.200 F 
ATOM     75  C   UNL A   1      43.791  21.740  25.189  1.00  0.00     0.200 A 
ATOM     76  F   UNL A   1      44.689  23.496  23.910  1.00  0.00    -0.200 F 
ATOM     77  F   UNL A   1      44.211  20.840  24.290  1.00  0.00    -0.200 F 
ENDBRANCH  53  67
BRANCH  54  78
ATOM     78  C   UNL A   1      40.708  31.764  32.263  1.00  0.00     0.064 A 
ATOM     79  C   UNL A   1      39.823  30.875  32.903  1.00  0.00     0.173 A 
ATOM     80  C   UNL A   1      40.719  33.095  32.672  1.00  0.00     0.173 A 
ATOM     81  F   UNL A   1      39.708  29.612  32.467  1.00  0.00    -0.203 F 
ATOM     82  C   UNL A   1      39.247  31.213  34.119  1.00  0.00     0.198 A 
ATOM     83  C   UNL A   1      40.155  33.421  33.890  1.00  0.00     0.198 A 
ATOM     84  F   UNL A   1      41.442  34.020  32.028  1.00  0.00    -0.203 F 
ATOM     85  F   UNL A   1      38.593  30.293  34.841  1.00  0.00    -0.200 F 
ATOM     86  C   UNL A   1      39.490  32.463  34.648  1.00  0.00     0.200 A 
ATOM     87  F   UNL A   1      40.397  34.640  34.378  1.00  0.00    -0.200 F 
ATOM     88  F   UNL A   1      39.139  32.711  35.914  1.00  0.00    -0.200 F 
ENDBRANCH  54  78
BRANCH  66  89
ATOM     89  C   UNL A   1      44.775  25.834  33.171  1.00  0.00     0.064 A 
ATOM     90  C   UNL A   1      46.145  25.552  33.104  1.00  0.00     0.173 A 
ATOM     91  C   UNL A   1      44.068  25.178  34.211  1.00  0.00     0.173 A 
ATOM     92  F   UNL A   1      46.966  26.238  32.299  1.00  0.00    -0.203 F 
ATOM     93  C   UNL A   1      46.734  24.585  33.916  1.00  0.00     0.198 A 
ATOM     94  C   UNL A   1      44.681  24.290  35.085  1.00  0.00     0.198 A 
ATOM     95  F   UNL A   1      42.762  25.387  34.434  1.00  0.00    -0.203 F 
ATOM     96  F   UNL A   1      48.024  24.275  33.741  1.00  0.00    -0.200 F 
ATOM     97  C   UNL A   1      46.005  23.961  34.911  1.00  0.00     0.200 A 
ATOM     98  F   UNL A   1      43.977  23.764  36.096  1.00  0.00    -0.200 F 
ATOM     99  F   UNL A   1      46.586  23.063  35.716  1.00  0.00    -0.200 F 
ENDBRANCH  66  89
ENDBRANCH  40  41
ENDBRANCH  33  35
ENDBRANCH  32  33
ENDBRANCH  31  32
ENDBRANCH   1  31
TORSDOF 14
ENDMDL
MODEL 3
REMARK VINA RESULT:     -14.8      1.223      2.067
REMARK SMILES Cc1ccc(-c2cc(C(=O)OCCOC(=O)c3ccc(-c4c5nc(c(-c6c(F)c(F)c(F)c(F)c6F)c6ccc([nH]6)c(-c6c(F)c(F)c(F)c(F)c6F)c6nc(c(-c7c(F)c(F)c(F)c(F)c7F)c7ccc4[nH]7)C=C6)C=C5)cc3)c3c(-c4cccc([N+](=O)[O-])c4)[nH]nc3n2)cc1
REMARK SMILES IDX 12 1 11 2 9 3 10 4 8 5 6 6 7 7 94 8 93 9 80 10 92 11 81 12
REMARK SMILES IDX 91 13 5 15 1 16 2 17 3 18 96 19 4 20 95 21 82 22 83 23 90 24
REMARK SMILES IDX 84 25 86 26 85 27 87 28 88 29 89 30 13 31 14 32 15 33 16 34
REMARK SMILES IDX 17 35 18 36 79 37 19 38 78 39 20 40 21 41 22 42 72 43 23 44
REMARK SMILES IDX 77 45 71 46 73 47 24 48 76 49 70 50 69 51 25 53 57 54 37 55
REMARK SMILES IDX 56 56 38 57 41 58 55 59 74 60 39 61 40 62 54 64 75 65 42 66
REMARK SMILES IDX 26 67 27 68 35 69 28 70 29 71 33 72 36 73 30 74 31 75 34 76
REMARK SMILES IDX 32 77 58 78 59 79 67 80 60 81 61 82 65 83 68 84 62 85 63 86
REMARK SMILES IDX 66 87 64 88 43 89 44 90 52 91 45 92 46 93 50 94 53 95 47 96
REMARK SMILES IDX 48 97 51 98 49 99
REMARK H PARENT 91 14 73 52 41 63
REMARK Flexibility Score: inf
ROOT
ATOM      1  C   UNL A   1      33.396  29.647  25.077  1.00  0.00     0.275 C 
ENDROOT
BRANCH   1   2
ATOM      2  O   UNL A   1      33.178  28.293  24.585  1.00  0.00    -0.458 OA
BRANCH   2   3
ATOM      3  C   UNL A   1      32.983  28.196  23.239  1.00  0.00     0.339 C 
ATOM      4  O   UNL A   1      33.461  28.975  22.418  1.00  0.00    -0.246 OA
BRANCH   3   5
ATOM      5  C   UNL A   1      31.815  27.394  22.833  1.00  0.00     0.075 A 
ATOM      6  C   UNL A   1      31.533  24.966  23.266  1.00  0.00     0.074 A 
ATOM      7  C   UNL A   1      32.291  26.060  22.826  1.00  0.00     0.045 A 
ATOM      8  N   UNL A   1      30.234  24.997  23.591  1.00  0.00    -0.226 NA
ATOM      9  C   UNL A   1      29.680  26.225  23.497  1.00  0.00     0.182 A 
ATOM     10  C   UNL A   1      30.408  27.460  23.148  1.00  0.00     0.061 A 
ATOM     11  N   UNL A   1      28.399  26.430  23.748  1.00  0.00    -0.154 NA
ATOM     12  C   UNL A   1      29.392  28.449  23.213  1.00  0.00     0.076 A 
ATOM     13  N   UNL A   1      28.250  27.717  23.517  1.00  0.00    -0.275 N 
ATOM     14  H   UNL A   1      27.364  28.145  23.559  1.00  0.00     0.190 HD
BRANCH   6  15
ATOM     15  C   UNL A   1      32.235  23.707  23.491  1.00  0.00     0.000 A 
ATOM     16  C   UNL A   1      34.650  20.438  24.899  1.00  0.00     0.044 C 
ATOM     17  C   UNL A   1      33.774  21.524  24.355  1.00  0.00    -0.051 A 
ATOM     18  C   UNL A   1      34.328  22.496  23.511  1.00  0.00     0.004 A 
ATOM     19  C   UNL A   1      32.424  21.610  24.708  1.00  0.00     0.004 A 
ATOM     20  C   UNL A   1      33.562  23.574  23.076  1.00  0.00     0.010 A 
ATOM     21  C   UNL A   1      31.658  22.694  24.276  1.00  0.00     0.010 A 
ENDBRANCH   6  15
BRANCH  12  22
ATOM     22  C   UNL A   1      29.090  29.901  23.018  1.00  0.00     0.007 A 
ATOM     23  C   UNL A   1      29.544  30.825  24.006  1.00  0.00     0.011 A 
ATOM     24  C   UNL A   1      28.336  30.438  21.979  1.00  0.00     0.096 A 
ATOM     25  C   UNL A   1      29.339  32.210  23.930  1.00  0.00     0.008 A 
ATOM     26  C   UNL A   1      28.210  31.847  21.853  1.00  0.00     0.270 A 
ATOM     27  C   UNL A   1      28.697  32.733  22.825  1.00  0.00     0.085 A 
BRANCH  26  28
ATOM     28  N   UNL A   1      27.660  32.433  20.627  1.00  0.00     0.062 N 
ATOM     29  O   UNL A   1      27.544  31.685  19.642  1.00  0.00    -0.258 OA
ATOM     30  O   UNL A   1      27.397  33.642  20.636  1.00  0.00    -0.258 OA
ENDBRANCH  26  28
ENDBRANCH  12  22
ENDBRANCH   3   5
ENDBRANCH   2   3
ENDBRANCH   1   2
BRANCH   1  31
ATOM     31  C   UNL A   1      32.442  30.060  26.221  1.00  0.00     0.275 C 
BRANCH  31  32
ATOM     32  O   UNL A   1      32.985  30.335  27.528  1.00  0.00    -0.458 OA
BRANCH  32  33
ATOM     33  C   UNL A   1      33.748  31.433  27.636  1.00  0.00     0.338 C 
ATOM     34  O   UNL A   1      33.304  32.573  27.602  1.00  0.00    -0.246 OA
BRANCH  33  35
ATOM     35  C   UNL A   1      35.129  31.076  27.988  1.00  0.00     0.060 A 
ATOM     36  C   UNL A   1      36.109  32.079  28.003  1.00  0.00     0.016 A 
ATOM     37  C   UNL A   1      35.377  29.820  28.532  1.00  0.00     0.016 A 
ATOM     38  C   UNL A   1      37.320  31.878  28.632  1.00  0.00     0.010 A 
ATOM     39  C   UNL A   1      36.554  29.622  29.194  1.00  0.00     0.010 A 
ATOM     40  C   UNL A   1      37.518  30.639  29.202  1.00  0.00    -0.014 A 
BRANCH  40  41
ATOM     41  C   UNL A   1      38.812  30.232  29.672  1.00  0.00     0.031 A 
ATOM     42  C   UNL A   1      39.364  28.955  29.204  1.00  0.00     0.074 A 
ATOM     43  C   UNL A   1      39.390  31.223  30.383  1.00  0.00     0.049 A 
ATOM     44  N   UNL A   1      40.194  28.245  29.881  1.00  0.00    -0.248 NA
ATOM     45  C   UNL A   1      38.946  28.289  27.964  1.00  0.00     0.031 C 
ATOM     46  C   UNL A   1      40.780  31.517  30.640  1.00  0.00     0.029 A 
ATOM     47  N   UNL A   1      38.702  32.237  31.081  1.00  0.00    -0.354 N 
ATOM     48  C   UNL A   1      40.765  27.374  28.976  1.00  0.00     0.074 A 
ATOM     49  C   UNL A   1      39.808  27.263  27.906  1.00  0.00     0.031 C 
ATOM     50  C   UNL A   1      40.859  32.429  31.629  1.00  0.00     0.029 A 
ATOM     51  C   UNL A   1      39.517  32.667  32.136  1.00  0.00     0.049 A 
ATOM     52  H   UNL A   1      37.805  32.581  30.864  1.00  0.00     0.167 HD
ATOM     53  C   UNL A   1      42.101  27.119  29.100  1.00  0.00     0.037 A 
ATOM     54  C   UNL A   1      39.114  32.445  33.427  1.00  0.00     0.037 A 
ATOM     55  C   UNL A   1      42.621  27.870  30.244  1.00  0.00     0.049 A 
ATOM     56  C   UNL A   1      39.884  31.309  34.043  1.00  0.00     0.074 A 
ATOM     57  C   UNL A   1      43.247  29.104  30.307  1.00  0.00     0.029 A 
ATOM     58  N   UNL A   1      42.146  27.603  31.522  1.00  0.00    -0.354 N 
ATOM     59  N   UNL A   1      40.500  30.387  33.358  1.00  0.00    -0.248 NA
ATOM     60  C   UNL A   1      40.029  31.150  35.480  1.00  0.00     0.031 C 
ATOM     61  C   UNL A   1      43.129  29.590  31.631  1.00  0.00     0.029 A 
ATOM     62  C   UNL A   1      42.407  28.666  32.366  1.00  0.00     0.049 A 
ATOM     63  H   UNL A   1      41.689  26.772  31.789  1.00  0.00     0.167 HD
ATOM     64  C   UNL A   1      41.204  29.589  34.215  1.00  0.00     0.074 A 
ATOM     65  C   UNL A   1      40.869  30.104  35.532  1.00  0.00     0.031 C 
ATOM     66  C   UNL A   1      42.040  28.604  33.770  1.00  0.00     0.037 A 
BRANCH  53  67
ATOM     67  C   UNL A   1      43.005  26.554  28.023  1.00  0.00     0.064 A 
ATOM     68  C   UNL A   1      43.480  27.390  26.981  1.00  0.00     0.173 A 
ATOM     69  C   UNL A   1      43.441  25.219  27.944  1.00  0.00     0.173 A 
ATOM     70  F   UNL A   1      43.221  28.703  26.954  1.00  0.00    -0.203 F 
ATOM     71  C   UNL A   1      44.249  26.916  25.917  1.00  0.00     0.198 A 
ATOM     72  C   UNL A   1      44.200  24.741  26.865  1.00  0.00     0.198 A 
ATOM     73  F   UNL A   1      43.188  24.345  28.924  1.00  0.00    -0.203 F 
ATOM     74  F   UNL A   1      44.647  27.766  24.959  1.00  0.00    -0.200 F 
ATOM     75  C   UNL A   1      44.597  25.588  25.849  1.00  0.00     0.200 A 
ATOM     76  F   UNL A   1      44.551  23.447  26.820  1.00  0.00    -0.200 F 
ATOM     77  F   UNL A   1      45.331  25.132  24.825  1.00  0.00    -0.200 F 
ENDBRANCH  53  67
BRANCH  54  78
ATOM     78  C   UNL A   1      37.645  32.638  33.610  1.00  0.00     0.064 A 
ATOM     79  C   UNL A   1      37.203  33.973  33.710  1.00  0.00     0.173 A 
ATOM     80  C   UNL A   1      36.793  31.702  33.031  1.00  0.00     0.173 A 
ATOM     81  F   UNL A   1      37.951  34.880  34.355  1.00  0.00    -0.203 F 
ATOM     82  C   UNL A   1      36.128  34.413  32.953  1.00  0.00     0.198 A 
ATOM     83  C   UNL A   1      35.732  32.149  32.268  1.00  0.00     0.198 A 
ATOM     84  F   UNL A   1      37.094  30.397  33.015  1.00  0.00    -0.203 F 
ATOM     85  F   UNL A   1      35.847  35.721  32.867  1.00  0.00    -0.200 F 
ATOM     86  C   UNL A   1      35.450  33.507  32.165  1.00  0.00     0.200 A 
ATOM     87  F   UNL A   1      35.085  31.252  31.521  1.00  0.00    -0.200 F 
ATOM     88  F   UNL A   1      34.574  33.961  31.262  1.00  0.00    -0.200 F 
ENDBRANCH  54  78
BRANCH  66  89
ATOM     89  C   UNL A   1      42.736  27.581  34.628  1.00  0.00     0.064 A 
ATOM     90  C   UNL A   1      42.130  26.409  35.098  1.00  0.00     0.173 A 
ATOM     91  C   UNL A   1      44.117  27.714  34.926  1.00  0.00     0.173 A 
ATOM     92  F   UNL A   1      40.889  26.064  34.731  1.00  0.00    -0.203 F 
ATOM     93  C   UNL A   1      42.809  25.512  35.920  1.00  0.00     0.198 A 
ATOM     94  C   UNL A   1      44.816  26.766  35.661  1.00  0.00     0.198 A 
ATOM     95  F   UNL A   1      44.846  28.755  34.499  1.00  0.00    -0.203 F 
ATOM     96  F   UNL A   1      42.154  24.463  36.431  1.00  0.00    -0.200 F 
ATOM     97  C   UNL A   1      44.153  25.685  36.194  1.00  0.00     0.200 A 
ATOM     98  F   UNL A   1      46.136  26.909  35.841  1.00  0.00    -0.200 F 
ATOM     99  F   UNL A   1      44.810  24.799  36.951  1.00  0.00    -0.200 F 
ENDBRANCH  66  89
ENDBRANCH  40  41
ENDBRANCH  33  35
ENDBRANCH  32  33
ENDBRANCH  31  32
ENDBRANCH   1  31
TORSDOF 14
ENDMDL
