MODEL 1
REMARK VINA RESULT:     -12.1      0.000      0.000
REMARK SMILES O=C(CCN1C(=O)/C(=C\c2ccc(-c3cccc(Cl)c3)o2)SC1=S)OCCOC(=O)c1ccc(-c2c3nc(c(-c4c(F)c(F)c(F)c(F)c4F)c4ccc([nH]4)c(-c4c(F)c(F)c(F)c(F)c4F)c4nc(c(-c5c(F)c(F)c(F)c(F)c5F)c5ccc2[nH]5)C=C4)C=C3)cc1
REMARK SMILES IDX 26 1 25 2 2 3 1 4 3 5 4 6 5 7 6 8 23 9 7 10 8 11 22 12 24 13
REMARK SMILES IDX 9 14 10 15 11 16 21 17 12 18 13 19 14 20 15 21 20 22 16 23
REMARK SMILES IDX 18 24 17 25 19 26 27 27 28 28 29 29 30 30 31 31 32 32 93 33
REMARK SMILES IDX 33 34 92 35 34 36 35 37 36 38 86 39 37 40 91 41 85 42 87 43
REMARK SMILES IDX 38 44 90 45 84 46 83 47 39 49 71 50 51 51 70 52 52 53 55 54
REMARK SMILES IDX 69 55 88 56 53 57 54 58 68 60 89 61 56 62 40 63 41 64 49 65
REMARK SMILES IDX 42 66 43 67 47 68 50 69 44 70 45 71 48 72 46 73 72 74 73 75
REMARK SMILES IDX 81 76 74 77 75 78 79 79 82 80 76 81 77 82 80 83 78 84 57 85
REMARK SMILES IDX 58 86 66 87 59 88 60 89 64 90 67 91 61 92 62 93 65 94 63 95
REMARK H PARENT 87 48 55 59
REMARK Flexibility Score: inf
ROOT
ATOM      1  C   UNL A   1      38.147  20.050  24.982  1.00  0.00     0.274 C 
ENDROOT
BRANCH   1   2
ATOM      2  O   UNL A   1      37.940  21.458  25.242  1.00  0.00    -0.462 OA
BRANCH   2   3
ATOM      3  C   UNL A   1      36.980  22.246  24.709  1.00  0.00     0.307 C 
ATOM      4  O   UNL A   1      37.238  23.394  24.352  1.00  0.00    -0.252 OA
BRANCH   3   5
ATOM      5  C   UNL A   1      35.594  21.697  24.510  1.00  0.00     0.144 C 
BRANCH   5   6
ATOM      6  C   UNL A   1      34.704  22.703  23.783  1.00  0.00     0.139 C 
BRANCH   6   7
ATOM      7  N   UNL A   1      33.402  22.866  24.438  1.00  0.00    -0.292 N 
ATOM      8  C   UNL A   1      33.181  24.030  25.154  1.00  0.00     0.266 C 
ATOM      9  C   UNL A   1      32.396  21.923  24.472  1.00  0.00     0.148 C 
ATOM     10  O   UNL A   1      34.014  24.909  25.325  1.00  0.00    -0.268 OA
ATOM     11  C   UNL A   1      31.835  24.000  25.789  1.00  0.00     0.084 C 
ATOM     12  S   UNL A   1      31.174  22.416  25.646  1.00  0.00    -0.054 SA
ATOM     13  S   UNL A   1      32.272  20.514  23.597  1.00  0.00    -0.052 S 
ATOM     14  C   UNL A   1      31.172  25.033  26.325  1.00  0.00     0.068 C 
BRANCH  14  15
ATOM     15  C   UNL A   1      31.559  26.377  26.074  1.00  0.00     0.128 A 
ATOM     16  C   UNL A   1      30.998  27.253  25.147  1.00  0.00     0.051 A 
ATOM     17  O   UNL A   1      32.512  27.072  26.789  1.00  0.00    -0.457 OA
ATOM     18  C   UNL A   1      31.630  28.499  25.290  1.00  0.00     0.051 A 
ATOM     19  C   UNL A   1      32.547  28.344  26.301  1.00  0.00     0.134 A 
BRANCH  19  20
ATOM     20  C   UNL A   1      33.463  29.283  26.917  1.00  0.00     0.019 A 
ATOM     21  C   UNL A   1      32.997  30.556  27.276  1.00  0.00     0.012 A 
ATOM     22  C   UNL A   1      34.824  28.988  27.043  1.00  0.00     0.032 A 
ATOM     23  C   UNL A   1      33.880  31.533  27.738  1.00  0.00     0.002 A 
ATOM     24  C   UNL A   1      35.704  29.973  27.492  1.00  0.00     0.041 A 
ATOM     25  C   UNL A   1      35.238  31.244  27.835  1.00  0.00     0.020 A 
ATOM     26  Cl  UNL A   1      37.389  29.636  27.588  1.00  0.00    -0.084 Cl
ENDBRANCH  19  20
ENDBRANCH  14  15
ENDBRANCH   6   7
ENDBRANCH   5   6
ENDBRANCH   3   5
ENDBRANCH   2   3
ENDBRANCH   1   2
BRANCH   1  27
ATOM     27  C   UNL A   1      39.398  19.519  25.677  1.00  0.00     0.275 C 
BRANCH  27  28
ATOM     28  O   UNL A   1      40.300  20.605  25.937  1.00  0.00    -0.458 OA
BRANCH  28  29
ATOM     29  C   UNL A   1      40.749  20.676  27.215  1.00  0.00     0.338 C 
ATOM     30  O   UNL A   1      41.021  19.749  27.951  1.00  0.00    -0.246 OA
BRANCH  29  31
ATOM     31  C   UNL A   1      41.035  22.088  27.538  1.00  0.00     0.060 A 
ATOM     32  C   UNL A   1      40.395  23.076  26.779  1.00  0.00     0.016 A 
ATOM     33  C   UNL A   1      41.921  22.440  28.559  1.00  0.00     0.016 A 
ATOM     34  C   UNL A   1      40.673  24.422  27.014  1.00  0.00     0.010 A 
ATOM     35  C   UNL A   1      42.200  23.788  28.791  1.00  0.00     0.010 A 
ATOM     36  C   UNL A   1      41.601  24.782  27.999  1.00  0.00    -0.014 A 
BRANCH  36  37
ATOM     37  C   UNL A   1      42.060  26.185  28.108  1.00  0.00     0.031 A 
ATOM     38  C   UNL A   1      43.384  26.560  27.504  1.00  0.00     0.074 A 
ATOM     39  C   UNL A   1      41.312  27.106  28.738  1.00  0.00     0.049 A 
ATOM     40  N   UNL A   1      44.004  27.712  27.512  1.00  0.00    -0.248 NA
ATOM     41  C   UNL A   1      44.110  25.488  26.802  1.00  0.00     0.031 C 
ATOM     42  C   UNL A   1      40.005  26.863  29.344  1.00  0.00     0.029 A 
ATOM     43  N   UNL A   1      41.557  28.434  28.982  1.00  0.00    -0.354 N 
ATOM     44  C   UNL A   1      45.188  27.505  26.817  1.00  0.00     0.074 A 
ATOM     45  C   UNL A   1      45.219  26.112  26.431  1.00  0.00     0.031 C 
ATOM     46  C   UNL A   1      39.566  28.003  29.905  1.00  0.00     0.029 A 
ATOM     47  C   UNL A   1      40.574  29.046  29.720  1.00  0.00     0.049 A 
ATOM     48  H   UNL A   1      42.359  28.903  28.659  1.00  0.00     0.167 HD
ATOM     49  C   UNL A   1      46.156  28.403  26.517  1.00  0.00     0.037 A 
ATOM     50  C   UNL A   1      40.511  30.303  30.204  1.00  0.00     0.037 A 
ATOM     51  C   UNL A   1      46.123  29.788  26.905  1.00  0.00     0.049 A 
ATOM     52  C   UNL A   1      41.635  31.263  29.911  1.00  0.00     0.074 A 
ATOM     53  C   UNL A   1      47.043  30.783  26.626  1.00  0.00     0.029 A 
ATOM     54  N   UNL A   1      45.120  30.369  27.665  1.00  0.00    -0.354 N 
ATOM     55  N   UNL A   1      42.726  31.075  29.209  1.00  0.00    -0.248 NA
ATOM     56  C   UNL A   1      41.514  32.616  30.475  1.00  0.00     0.031 C 
ATOM     57  C   UNL A   1      46.622  31.955  27.262  1.00  0.00     0.029 A 
ATOM     58  C   UNL A   1      45.413  31.704  27.890  1.00  0.00     0.049 A 
ATOM     59  H   UNL A   1      44.319  29.902  27.996  1.00  0.00     0.167 HD
ATOM     60  C   UNL A   1      43.402  32.289  29.218  1.00  0.00     0.074 A 
ATOM     61  C   UNL A   1      42.592  33.211  29.985  1.00  0.00     0.031 C 
ATOM     62  C   UNL A   1      44.588  32.611  28.645  1.00  0.00     0.037 A 
BRANCH  49  63
ATOM     63  C   UNL A   1      47.343  27.911  25.743  1.00  0.00     0.064 A 
ATOM     64  C   UNL A   1      47.314  27.797  24.346  1.00  0.00     0.173 A 
ATOM     65  C   UNL A   1      48.540  27.598  26.404  1.00  0.00     0.173 A 
ATOM     66  F   UNL A   1      46.188  28.072  23.669  1.00  0.00    -0.203 F 
ATOM     67  C   UNL A   1      48.435  27.370  23.639  1.00  0.00     0.198 A 
ATOM     68  C   UNL A   1      49.667  27.196  25.692  1.00  0.00     0.198 A 
ATOM     69  F   UNL A   1      48.620  27.692  27.740  1.00  0.00    -0.203 F 
ATOM     70  F   UNL A   1      48.373  27.231  22.307  1.00  0.00    -0.200 F 
ATOM     71  C   UNL A   1      49.612  27.077  24.312  1.00  0.00     0.200 A 
ATOM     72  F   UNL A   1      50.807  26.926  26.343  1.00  0.00    -0.200 F 
ATOM     73  F   UNL A   1      50.694  26.677  23.629  1.00  0.00    -0.200 F 
ENDBRANCH  49  63
BRANCH  50  74
ATOM     74  C   UNL A   1      39.348  30.730  31.027  1.00  0.00     0.064 A 
ATOM     75  C   UNL A   1      39.229  30.343  32.369  1.00  0.00     0.173 A 
ATOM     76  C   UNL A   1      38.312  31.499  30.475  1.00  0.00     0.173 A 
ATOM     77  F   UNL A   1      40.181  29.586  32.934  1.00  0.00    -0.203 F 
ATOM     78  C   UNL A   1      38.106  30.684  33.119  1.00  0.00     0.198 A 
ATOM     79  C   UNL A   1      37.203  31.866  31.236  1.00  0.00     0.198 A 
ATOM     80  F   UNL A   1      38.376  31.895  29.196  1.00  0.00    -0.203 F 
ATOM     81  F   UNL A   1      37.990  30.251  34.383  1.00  0.00    -0.200 F 
ATOM     82  C   UNL A   1      37.096  31.448  32.554  1.00  0.00     0.200 A 
ATOM     83  F   UNL A   1      36.236  32.612  30.689  1.00  0.00    -0.200 F 
ATOM     84  F   UNL A   1      36.014  31.772  33.275  1.00  0.00    -0.200 F 
ENDBRANCH  50  74
BRANCH  62  85
ATOM     85  C   UNL A   1      45.061  34.029  28.786  1.00  0.00     0.064 A 
ATOM     86  C   UNL A   1      44.682  35.028  27.877  1.00  0.00     0.173 A 
ATOM     87  C   UNL A   1      45.867  34.403  29.874  1.00  0.00     0.173 A 
ATOM     88  F   UNL A   1      43.924  34.720  26.814  1.00  0.00    -0.203 F 
ATOM     89  C   UNL A   1      45.112  36.342  28.037  1.00  0.00     0.198 A 
ATOM     90  C   UNL A   1      46.270  35.724  30.047  1.00  0.00     0.198 A 
ATOM     91  F   UNL A   1      46.251  33.489  30.776  1.00  0.00    -0.203 F 
ATOM     92  F   UNL A   1      44.776  37.270  27.130  1.00  0.00    -0.200 F 
ATOM     93  C   UNL A   1      45.899  36.691  29.125  1.00  0.00     0.200 A 
ATOM     94  F   UNL A   1      47.016  36.062  31.108  1.00  0.00    -0.200 F 
ATOM     95  F   UNL A   1      46.304  37.958  29.283  1.00  0.00    -0.200 F 
ENDBRANCH  62  85
ENDBRANCH  36  37
ENDBRANCH  29  31
ENDBRANCH  28  29
ENDBRANCH  27  28
ENDBRANCH   1  27
TORSDOF 15
ENDMDL
MODEL 2
REMARK VINA RESULT:     -12.0      0.704      1.796
REMARK SMILES O=C(CCN1C(=O)/C(=C\c2ccc(-c3cccc(Cl)c3)o2)SC1=S)OCCOC(=O)c1ccc(-c2c3nc(c(-c4c(F)c(F)c(F)c(F)c4F)c4ccc([nH]4)c(-c4c(F)c(F)c(F)c(F)c4F)c4nc(c(-c5c(F)c(F)c(F)c(F)c5F)c5ccc2[nH]5)C=C4)C=C3)cc1
REMARK SMILES IDX 26 1 25 2 2 3 1 4 3 5 4 6 5 7 6 8 23 9 7 10 8 11 22 12 24 13
REMARK SMILES IDX 9 14 10 15 11 16 21 17 12 18 13 19 14 20 15 21 20 22 16 23
REMARK SMILES IDX 18 24 17 25 19 26 27 27 28 28 29 29 30 30 31 31 32 32 93 33
REMARK SMILES IDX 33 34 92 35 34 36 35 37 36 38 86 39 37 40 91 41 85 42 87 43
REMARK SMILES IDX 38 44 90 45 84 46 83 47 39 49 71 50 51 51 70 52 52 53 55 54
REMARK SMILES IDX 69 55 88 56 53 57 54 58 68 60 89 61 56 62 40 63 41 64 49 65
REMARK SMILES IDX 42 66 43 67 47 68 50 69 44 70 45 71 48 72 46 73 72 74 73 75
REMARK SMILES IDX 81 76 74 77 75 78 79 79 82 80 76 81 77 82 80 83 78 84 57 85
REMARK SMILES IDX 58 86 66 87 59 88 60 89 64 90 67 91 61 92 62 93 65 94 63 95
REMARK H PARENT 87 48 55 59
REMARK Flexibility Score: inf
ROOT
ATOM      1  C   UNL A   1      37.908  19.589  25.005  1.00  0.00     0.274 C 
ENDROOT
BRANCH   1   2
ATOM      2  O   UNL A   1      37.634  21.009  24.993  1.00  0.00    -0.462 OA
BRANCH   2   3
ATOM      3  C   UNL A   1      36.467  21.611  25.315  1.00  0.00     0.307 C 
ATOM      4  O   UNL A   1      35.684  21.079  26.099  1.00  0.00    -0.252 OA
BRANCH   3   5
ATOM      5  C   UNL A   1      36.147  22.964  24.742  1.00  0.00     0.144 C 
BRANCH   5   6
ATOM      6  C   UNL A   1      34.938  22.893  23.811  1.00  0.00     0.139 C 
BRANCH   6   7
ATOM      7  N   UNL A   1      33.670  23.008  24.539  1.00  0.00    -0.292 N 
ATOM      8  C   UNL A   1      33.420  24.190  25.214  1.00  0.00     0.266 C 
ATOM      9  C   UNL A   1      32.730  22.010  24.680  1.00  0.00     0.148 C 
ATOM     10  O   UNL A   1      34.204  25.126  25.291  1.00  0.00    -0.268 OA
ATOM     11  C   UNL A   1      32.119  24.111  25.934  1.00  0.00     0.084 C 
ATOM     12  S   UNL A   1      31.552  22.484  25.905  1.00  0.00    -0.054 SA
ATOM     13  S   UNL A   1      32.643  20.554  23.879  1.00  0.00    -0.052 S 
ATOM     14  C   UNL A   1      31.425  25.127  26.464  1.00  0.00     0.068 C 
BRANCH  14  15
ATOM     15  C   UNL A   1      31.710  26.478  26.127  1.00  0.00     0.128 A 
ATOM     16  C   UNL A   1      31.045  27.269  25.194  1.00  0.00     0.051 A 
ATOM     17  O   UNL A   1      32.654  27.266  26.753  1.00  0.00    -0.457 OA
ATOM     18  C   UNL A   1      31.602  28.558  25.241  1.00  0.00     0.051 A 
ATOM     19  C   UNL A   1      32.580  28.512  26.204  1.00  0.00     0.134 A 
BRANCH  19  20
ATOM     20  C   UNL A   1      33.466  29.535  26.722  1.00  0.00     0.019 A 
ATOM     21  C   UNL A   1      34.774  29.184  27.089  1.00  0.00     0.012 A 
ATOM     22  C   UNL A   1      33.004  30.829  26.979  1.00  0.00     0.032 A 
ATOM     23  C   UNL A   1      35.606  30.106  27.723  1.00  0.00     0.002 A 
ATOM     24  C   UNL A   1      33.836  31.743  27.625  1.00  0.00     0.041 A 
ATOM     25  C   UNL A   1      35.132  31.385  28.002  1.00  0.00     0.020 A 
ATOM     26  Cl  UNL A   1      33.250  33.317  28.001  1.00  0.00    -0.084 Cl
ENDBRANCH  19  20
ENDBRANCH  14  15
ENDBRANCH   6   7
ENDBRANCH   5   6
ENDBRANCH   3   5
ENDBRANCH   2   3
ENDBRANCH   1   2
BRANCH   1  27
ATOM     27  C   UNL A   1      39.240  19.270  25.679  1.00  0.00     0.275 C 
BRANCH  27  28
ATOM     28  O   UNL A   1      39.984  20.483  25.870  1.00  0.00    -0.458 OA
BRANCH  28  29
ATOM     29  C   UNL A   1      40.713  20.528  27.013  1.00  0.00     0.338 C 
ATOM     30  O   UNL A   1      41.205  19.591  27.609  1.00  0.00    -0.246 OA
BRANCH  29  31
ATOM     31  C   UNL A   1      40.979  21.941  27.349  1.00  0.00     0.060 A 
ATOM     32  C   UNL A   1      40.328  22.927  26.597  1.00  0.00     0.016 A 
ATOM     33  C   UNL A   1      41.859  22.296  28.375  1.00  0.00     0.016 A 
ATOM     34  C   UNL A   1      40.588  24.274  26.844  1.00  0.00     0.010 A 
ATOM     35  C   UNL A   1      42.119  23.645  28.620  1.00  0.00     0.010 A 
ATOM     36  C   UNL A   1      41.509  24.637  27.835  1.00  0.00    -0.014 A 
BRANCH  36  37
ATOM     37  C   UNL A   1      41.949  26.045  27.957  1.00  0.00     0.031 A 
ATOM     38  C   UNL A   1      43.265  26.446  27.351  1.00  0.00     0.074 A 
ATOM     39  C   UNL A   1      41.191  26.950  28.601  1.00  0.00     0.049 A 
ATOM     40  N   UNL A   1      43.869  27.605  27.369  1.00  0.00    -0.248 NA
ATOM     41  C   UNL A   1      44.002  25.392  26.634  1.00  0.00     0.031 C 
ATOM     42  C   UNL A   1      39.891  26.681  29.210  1.00  0.00     0.029 A 
ATOM     43  N   UNL A   1      41.419  28.278  28.859  1.00  0.00    -0.354 N 
ATOM     44  C   UNL A   1      45.053  27.423  26.665  1.00  0.00     0.074 A 
ATOM     45  C   UNL A   1      45.100  26.034  26.264  1.00  0.00     0.031 C 
ATOM     46  C   UNL A   1      39.439  27.809  29.786  1.00  0.00     0.029 A 
ATOM     47  C   UNL A   1      40.432  28.868  29.608  1.00  0.00     0.049 A 
ATOM     48  H   UNL A   1      42.214  28.761  28.536  1.00  0.00     0.167 HD
ATOM     49  C   UNL A   1      46.006  28.337  26.371  1.00  0.00     0.037 A 
ATOM     50  C   UNL A   1      40.354  30.118  30.106  1.00  0.00     0.037 A 
ATOM     51  C   UNL A   1      45.956  29.717  26.774  1.00  0.00     0.049 A 
ATOM     52  C   UNL A   1      41.463  31.097  29.818  1.00  0.00     0.074 A 
ATOM     53  C   UNL A   1      46.861  30.728  26.502  1.00  0.00     0.029 A 
ATOM     54  N   UNL A   1      44.949  30.276  27.546  1.00  0.00    -0.354 N 
ATOM     55  N   UNL A   1      42.553  30.932  29.109  1.00  0.00    -0.248 NA
ATOM     56  C   UNL A   1      41.326  32.442  30.397  1.00  0.00     0.031 C 
ATOM     57  C   UNL A   1      46.427  31.887  27.153  1.00  0.00     0.029 A 
ATOM     58  C   UNL A   1      45.225  31.613  27.784  1.00  0.00     0.049 A 
ATOM     59  H   UNL A   1      44.156  29.795  27.875  1.00  0.00     0.167 HD
ATOM     60  C   UNL A   1      43.213  32.155  29.129  1.00  0.00     0.074 A 
ATOM     61  C   UNL A   1      42.394  33.058  29.909  1.00  0.00     0.031 C 
ATOM     62  C   UNL A   1      44.391  32.500  28.553  1.00  0.00     0.037 A 
BRANCH  49  63
ATOM     63  C   UNL A   1      47.196  27.870  25.586  1.00  0.00     0.064 A 
ATOM     64  C   UNL A   1      47.191  27.854  24.184  1.00  0.00     0.173 A 
ATOM     65  C   UNL A   1      48.372  27.482  26.244  1.00  0.00     0.173 A 
ATOM     66  F   UNL A   1      46.086  28.203  23.508  1.00  0.00    -0.203 F 
ATOM     67  C   UNL A   1      48.315  27.448  23.469  1.00  0.00     0.198 A 
ATOM     68  C   UNL A   1      49.502  27.103  25.526  1.00  0.00     0.198 A 
ATOM     69  F   UNL A   1      48.429  27.482  27.585  1.00  0.00    -0.203 F 
ATOM     70  F   UNL A   1      48.276  27.403  22.130  1.00  0.00    -0.200 F 
ATOM     71  C   UNL A   1      49.472  27.081  24.141  1.00  0.00     0.200 A 
ATOM     72  F   UNL A   1      50.624  26.760  26.177  1.00  0.00    -0.200 F 
ATOM     73  F   UNL A   1      50.557  26.702  23.451  1.00  0.00    -0.200 F 
ENDBRANCH  49  63
BRANCH  50  74
ATOM     74  C   UNL A   1      39.189  30.520  30.939  1.00  0.00     0.064 A 
ATOM     75  C   UNL A   1      38.152  31.299  30.406  1.00  0.00     0.173 A 
ATOM     76  C   UNL A   1      39.111  30.169  32.295  1.00  0.00     0.173 A 
ATOM     77  F   UNL A   1      38.196  31.682  29.122  1.00  0.00    -0.203 F 
ATOM     78  C   UNL A   1      37.097  31.735  31.204  1.00  0.00     0.198 A 
ATOM     79  C   UNL A   1      38.038  30.580  33.085  1.00  0.00     0.198 A 
ATOM     80  F   UNL A   1      40.077  29.426  32.855  1.00  0.00    -0.203 F 
ATOM     81  F   UNL A   1      36.149  32.527  30.683  1.00  0.00    -0.200 F 
ATOM     82  C   UNL A   1      37.038  31.372  32.541  1.00  0.00     0.200 A 
ATOM     83  F   UNL A   1      37.980  30.218  34.373  1.00  0.00    -0.200 F 
ATOM     84  F   UNL A   1      36.025  31.795  33.309  1.00  0.00    -0.200 F 
ENDBRANCH  50  74
BRANCH  62  85
ATOM     85  C   UNL A   1      44.846  33.922  28.708  1.00  0.00     0.064 A 
ATOM     86  C   UNL A   1      45.696  34.315  29.751  1.00  0.00     0.173 A 
ATOM     87  C   UNL A   1      44.464  34.896  27.771  1.00  0.00     0.173 A 
ATOM     88  F   UNL A   1      46.079  33.427  30.681  1.00  0.00    -0.203 F 
ATOM     89  C   UNL A   1      46.126  35.635  29.866  1.00  0.00     0.198 A 
ATOM     90  C   UNL A   1      44.920  36.206  27.871  1.00  0.00     0.198 A 
ATOM     91  F   UNL A   1      43.658  34.571  26.749  1.00  0.00    -0.203 F 
ATOM     92  F   UNL A   1      46.900  35.998  30.898  1.00  0.00    -0.200 F 
ATOM     93  C   UNL A   1      45.744  36.577  28.922  1.00  0.00     0.200 A 
ATOM     94  F   UNL A   1      44.563  37.111  26.949  1.00  0.00    -0.200 F 
ATOM     95  F   UNL A   1      46.166  37.844  29.029  1.00  0.00    -0.200 F 
ENDBRANCH  62  85
ENDBRANCH  36  37
ENDBRANCH  29  31
ENDBRANCH  28  29
ENDBRANCH  27  28
ENDBRANCH   1  27
TORSDOF 15
ENDMDL
MODEL 3
REMARK VINA RESULT:     -11.5      4.775      9.068
REMARK SMILES O=C(CCN1C(=O)/C(=C\c2ccc(-c3cccc(Cl)c3)o2)SC1=S)OCCOC(=O)c1ccc(-c2c3nc(c(-c4c(F)c(F)c(F)c(F)c4F)c4ccc([nH]4)c(-c4c(F)c(F)c(F)c(F)c4F)c4nc(c(-c5c(F)c(F)c(F)c(F)c5F)c5ccc2[nH]5)C=C4)C=C3)cc1
REMARK SMILES IDX 26 1 25 2 2 3 1 4 3 5 4 6 5 7 6 8 23 9 7 10 8 11 22 12 24 13
REMARK SMILES IDX 9 14 10 15 11 16 21 17 12 18 13 19 14 20 15 21 20 22 16 23
REMARK SMILES IDX 18 24 17 25 19 26 27 27 28 28 29 29 30 30 31 31 32 32 93 33
REMARK SMILES IDX 33 34 92 35 34 36 35 37 36 38 86 39 37 40 91 41 85 42 87 43
REMARK SMILES IDX 38 44 90 45 84 46 83 47 39 49 71 50 51 51 70 52 52 53 55 54
REMARK SMILES IDX 69 55 88 56 53 57 54 58 68 60 89 61 56 62 40 63 41 64 49 65
REMARK SMILES IDX 42 66 43 67 47 68 50 69 44 70 45 71 48 72 46 73 72 74 73 75
REMARK SMILES IDX 81 76 74 77 75 78 79 79 82 80 76 81 77 82 80 83 78 84 57 85
REMARK SMILES IDX 58 86 66 87 59 88 60 89 64 90 67 91 61 92 62 93 65 94 63 95
REMARK H PARENT 87 48 55 59
REMARK Flexibility Score: inf
ROOT
ATOM      1  C   UNL A   1      33.178  31.503  27.646  1.00  0.00     0.274 C 
ENDROOT
BRANCH   1   2
ATOM      2  O   UNL A   1      33.197  30.578  26.535  1.00  0.00    -0.462 OA
BRANCH   2   3
ATOM      3  C   UNL A   1      33.860  29.401  26.474  1.00  0.00     0.307 C 
ATOM      4  O   UNL A   1      34.516  29.001  27.433  1.00  0.00    -0.252 OA
BRANCH   3   5
ATOM      5  C   UNL A   1      33.754  28.553  25.236  1.00  0.00     0.144 C 
BRANCH   5   6
ATOM      6  C   UNL A   1      32.895  27.316  25.490  1.00  0.00     0.139 C 
BRANCH   6   7
ATOM      7  N   UNL A   1      32.847  26.426  24.325  1.00  0.00    -0.292 N 
ATOM      8  C   UNL A   1      33.795  25.420  24.244  1.00  0.00     0.266 C 
ATOM      9  C   UNL A   1      31.988  26.548  23.255  1.00  0.00     0.148 C 
ATOM     10  O   UNL A   1      34.702  25.253  25.047  1.00  0.00    -0.268 OA
ATOM     11  C   UNL A   1      33.628  24.652  22.979  1.00  0.00     0.084 C 
ATOM     12  S   UNL A   1      32.518  25.480  21.954  1.00  0.00    -0.054 SA
ATOM     13  S   UNL A   1      30.648  27.525  23.113  1.00  0.00    -0.052 S 
ATOM     14  C   UNL A   1      34.171  23.465  22.677  1.00  0.00     0.068 C 
BRANCH  14  15
ATOM     15  C   UNL A   1      34.744  22.633  23.677  1.00  0.00     0.128 A 
ATOM     16  C   UNL A   1      34.066  21.839  24.598  1.00  0.00     0.051 A 
ATOM     17  O   UNL A   1      36.095  22.404  23.834  1.00  0.00    -0.457 OA
ATOM     18  C   UNL A   1      35.020  21.124  25.340  1.00  0.00     0.051 A 
ATOM     19  C   UNL A   1      36.245  21.499  24.842  1.00  0.00     0.134 A 
BRANCH  19  20
ATOM     20  C   UNL A   1      37.588  21.075  25.180  1.00  0.00     0.019 A 
ATOM     21  C   UNL A   1      37.951  19.735  24.982  1.00  0.00     0.012 A 
ATOM     22  C   UNL A   1      38.483  21.943  25.814  1.00  0.00     0.032 A 
ATOM     23  C   UNL A   1      39.184  19.258  25.428  1.00  0.00     0.002 A 
ATOM     24  C   UNL A   1      39.709  21.457  26.269  1.00  0.00     0.041 A 
ATOM     25  C   UNL A   1      40.060  20.119  26.083  1.00  0.00     0.020 A 
ATOM     26  Cl  UNL A   1      40.787  22.506  27.106  1.00  0.00    -0.084 Cl
ENDBRANCH  19  20
ENDBRANCH  14  15
ENDBRANCH   6   7
ENDBRANCH   5   6
ENDBRANCH   3   5
ENDBRANCH   2   3
ENDBRANCH   1   2
BRANCH   1  27
ATOM     27  C   UNL A   1      32.418  32.783  27.310  1.00  0.00     0.275 C 
BRANCH  27  28
ATOM     28  O   UNL A   1      33.314  33.903  27.368  1.00  0.00    -0.458 OA
BRANCH  28  29
ATOM     29  C   UNL A   1      33.288  34.591  28.537  1.00  0.00     0.338 C 
ATOM     30  O   UNL A   1      32.405  35.320  28.941  1.00  0.00    -0.246 OA
BRANCH  29  31
ATOM     31  C   UNL A   1      34.445  34.176  29.356  1.00  0.00     0.060 A 
ATOM     32  C   UNL A   1      35.726  34.356  28.818  1.00  0.00     0.016 A 
ATOM     33  C   UNL A   1      34.280  33.612  30.624  1.00  0.00     0.016 A 
ATOM     34  C   UNL A   1      36.845  33.933  29.533  1.00  0.00     0.010 A 
ATOM     35  C   UNL A   1      35.402  33.187  31.337  1.00  0.00     0.010 A 
ATOM     36  C   UNL A   1      36.685  33.317  30.781  1.00  0.00    -0.014 A 
BRANCH  36  37
ATOM     37  C   UNL A   1      37.842  32.676  31.444  1.00  0.00     0.031 A 
ATOM     38  C   UNL A   1      38.469  31.472  30.798  1.00  0.00     0.074 A 
ATOM     39  C   UNL A   1      38.323  33.155  32.605  1.00  0.00     0.049 A 
ATOM     40  N   UNL A   1      39.460  30.728  31.215  1.00  0.00    -0.248 NA
ATOM     41  C   UNL A   1      37.896  31.049  29.510  1.00  0.00     0.031 C 
ATOM     42  C   UNL A   1      37.809  34.325  33.313  1.00  0.00     0.029 A 
ATOM     43  N   UNL A   1      39.347  32.702  33.398  1.00  0.00    -0.354 N 
ATOM     44  C   UNL A   1      39.630  29.751  30.242  1.00  0.00     0.074 A 
ATOM     45  C   UNL A   1      38.620  29.975  29.232  1.00  0.00     0.031 C 
ATOM     46  C   UNL A   1      38.512  34.491  34.447  1.00  0.00     0.029 A 
ATOM     47  C   UNL A   1      39.506  33.423  34.555  1.00  0.00     0.049 A 
ATOM     48  H   UNL A   1      39.914  31.933  33.159  1.00  0.00     0.167 HD
ATOM     49  C   UNL A   1      40.556  28.765  30.192  1.00  0.00     0.037 A 
ATOM     50  C   UNL A   1      40.348  33.227  35.589  1.00  0.00     0.037 A 
ATOM     51  C   UNL A   1      41.557  28.543  31.201  1.00  0.00     0.049 A 
ATOM     52  C   UNL A   1      41.325  32.080  35.537  1.00  0.00     0.074 A 
ATOM     53  C   UNL A   1      42.557  27.587  31.228  1.00  0.00     0.029 A 
ATOM     54  N   UNL A   1      41.678  29.284  32.367  1.00  0.00    -0.354 N 
ATOM     55  N   UNL A   1      41.514  31.193  34.590  1.00  0.00    -0.248 NA
ATOM     56  C   UNL A   1      42.210  31.911  36.699  1.00  0.00     0.031 C 
ATOM     57  C   UNL A   1      43.250  27.716  32.436  1.00  0.00     0.029 A 
ATOM     58  C   UNL A   1      42.719  28.787  33.135  1.00  0.00     0.049 A 
ATOM     59  H   UNL A   1      41.109  30.049  32.612  1.00  0.00     0.167 HD
ATOM     60  C   UNL A   1      42.557  30.385  35.025  1.00  0.00     0.074 A 
ATOM     61  C   UNL A   1      42.970  30.895  36.315  1.00  0.00     0.031 C 
ATOM     62  C   UNL A   1      43.123  29.316  34.412  1.00  0.00     0.037 A 
BRANCH  49  63
ATOM     63  C   UNL A   1      40.519  27.837  29.014  1.00  0.00     0.064 A 
ATOM     64  C   UNL A   1      39.665  26.726  28.980  1.00  0.00     0.173 A 
ATOM     65  C   UNL A   1      41.311  28.092  27.885  1.00  0.00     0.173 A 
ATOM     66  F   UNL A   1      38.897  26.432  30.041  1.00  0.00    -0.203 F 
ATOM     67  C   UNL A   1      39.619  25.892  27.866  1.00  0.00     0.198 A 
ATOM     68  C   UNL A   1      41.243  27.272  26.763  1.00  0.00     0.198 A 
ATOM     69  F   UNL A   1      42.144  29.144  27.866  1.00  0.00    -0.203 F 
ATOM     70  F   UNL A   1      38.823  24.813  27.870  1.00  0.00    -0.200 F 
ATOM     71  C   UNL A   1      40.402  26.171  26.756  1.00  0.00     0.200 A 
ATOM     72  F   UNL A   1      41.992  27.550  25.685  1.00  0.00    -0.200 F 
ATOM     73  F   UNL A   1      40.348  25.374  25.680  1.00  0.00    -0.200 F 
ENDBRANCH  49  63
BRANCH  50  74
ATOM     74  C   UNL A   1      40.304  34.128  36.771  1.00  0.00     0.064 A 
ATOM     75  C   UNL A   1      39.445  33.870  37.848  1.00  0.00     0.173 A 
ATOM     76  C   UNL A   1      41.091  35.289  36.828  1.00  0.00     0.173 A 
ATOM     77  F   UNL A   1      38.653  32.787  37.827  1.00  0.00    -0.203 F 
ATOM     78  C   UNL A   1      39.353  34.751  38.922  1.00  0.00     0.198 A 
ATOM     79  C   UNL A   1      41.021  36.154  37.919  1.00  0.00     0.198 A 
ATOM     80  F   UNL A   1      41.930  35.583  35.824  1.00  0.00    -0.203 F 
ATOM     81  F   UNL A   1      38.479  34.510  39.911  1.00  0.00    -0.200 F 
ATOM     82  C   UNL A   1      40.143  35.890  38.959  1.00  0.00     0.200 A 
ATOM     83  F   UNL A   1      41.794  37.246  37.955  1.00  0.00    -0.200 F 
ATOM     84  F   UNL A   1      40.051  36.740  39.991  1.00  0.00    -0.200 F 
ENDBRANCH  50  74
BRANCH  62  85
ATOM     85  C   UNL A   1      44.277  28.652  35.106  1.00  0.00     0.064 A 
ATOM     86  C   UNL A   1      44.087  27.584  35.995  1.00  0.00     0.173 A 
ATOM     87  C   UNL A   1      45.594  29.058  34.841  1.00  0.00     0.173 A 
ATOM     88  F   UNL A   1      42.847  27.166  36.293  1.00  0.00    -0.203 F 
ATOM     89  C   UNL A   1      45.170  26.965  36.613  1.00  0.00     0.198 A 
ATOM     90  C   UNL A   1      46.677  28.417  35.436  1.00  0.00     0.198 A 
ATOM     91  F   UNL A   1      45.832  30.068  33.992  1.00  0.00    -0.203 F 
ATOM     92  F   UNL A   1      44.962  25.977  37.495  1.00  0.00    -0.200 F 
ATOM     93  C   UNL A   1      46.464  27.376  36.327  1.00  0.00     0.200 A 
ATOM     94  F   UNL A   1      47.926  28.805  35.146  1.00  0.00    -0.200 F 
ATOM     95  F   UNL A   1      47.506  26.773  36.915  1.00  0.00    -0.200 F 
ENDBRANCH  62  85
ENDBRANCH  36  37
ENDBRANCH  29  31
ENDBRANCH  28  29
ENDBRANCH  27  28
ENDBRANCH   1  27
TORSDOF 15
ENDMDL
