MODEL 1
REMARK VINA RESULT:     -12.2      0.000      0.000
REMARK SMILES CC[C@@H]1CCC[C@@](Cc2ccccn2)(C(=O)OCCOC(=O)c2ccc(-c3c4nc(c(-c5c(F)c(F)c(F)c(F)c5F)c5ccc([nH]5)c(-c5c(F)c(F)c(F)c(F)c5F)c5nc(c(-c6c(F)c(F)c(F)c(F)c6F)c6ccc3[nH]6)C=C5)C=C4)cc2)C1
REMARK SMILES IDX 18 1 17 2 15 3 16 4 7 5 3 6 4 7 86 8 5 9 6 10 2 11 1 12 8 13
REMARK SMILES IDX 9 14 10 15 14 16 11 17 13 18 12 19 19 20 20 21 21 22 22 23
REMARK SMILES IDX 23 24 24 25 85 26 25 27 84 28 26 29 27 30 28 31 78 32 29 33
REMARK SMILES IDX 83 34 77 35 79 36 30 37 82 38 76 39 75 40 31 42 63 43 43 44
REMARK SMILES IDX 62 45 44 46 47 47 61 48 80 49 45 50 46 51 60 53 81 54 48 55
REMARK SMILES IDX 32 56 33 57 41 58 34 59 35 60 39 61 42 62 36 63 37 64 40 65
REMARK SMILES IDX 38 66 64 67 65 68 73 69 66 70 67 71 71 72 74 73 68 74 69 75
REMARK SMILES IDX 72 76 70 77 49 78 50 79 58 80 51 81 52 82 56 83 59 84 53 85
REMARK SMILES IDX 54 86 57 87 55 88
REMARK H PARENT 79 41 47 52
REMARK Flexibility Score: inf
ROOT
ATOM      1  C   UNL A   1      31.041  30.626  25.137  1.00  0.00     0.274 C 
ENDROOT
BRANCH   1   2
ATOM      2  O   UNL A   1      31.572  29.305  25.371  1.00  0.00    -0.462 OA
BRANCH   2   3
ATOM      3  C   UNL A   1      32.257  28.736  24.344  1.00  0.00     0.312 C 
ATOM      4  O   UNL A   1      33.085  29.331  23.659  1.00  0.00    -0.252 OA
BRANCH   3   5
ATOM      5  C   UNL A   1      31.787  27.312  24.014  1.00  0.00     0.074 C 
ATOM      6  C   UNL A   1      33.612  25.860  25.204  1.00  0.00    -0.010 C 
ATOM      7  C   UNL A   1      32.530  25.276  26.114  1.00  0.00     0.003 C 
ATOM      8  C   UNL A   1      33.019  26.373  23.877  1.00  0.00     0.022 C 
ATOM      9  C   UNL A   1      31.420  26.288  26.347  1.00  0.00     0.001 C 
ATOM     10  C   UNL A   1      30.783  26.718  25.030  1.00  0.00     0.019 C 
BRANCH   6  11
ATOM     11  C   UNL A   1      34.734  24.842  24.908  1.00  0.00     0.000 C 
ATOM     12  C   UNL A   1      34.432  23.919  23.738  1.00  0.00     0.004 C 
ENDBRANCH   6  11
BRANCH   5  13
ATOM     13  C   UNL A   1      31.130  27.438  22.600  1.00  0.00     0.075 C 
BRANCH  13  14
ATOM     14  C   UNL A   1      29.966  28.398  22.540  1.00  0.00     0.041 A 
ATOM     15  C   UNL A   1      28.747  28.096  23.143  1.00  0.00     0.024 A 
ATOM     16  N   UNL A   1      30.151  29.517  21.800  1.00  0.00    -0.261 NA
ATOM     17  C   UNL A   1      27.670  28.955  22.946  1.00  0.00     0.003 A 
ATOM     18  C   UNL A   1      29.094  30.339  21.638  1.00  0.00     0.111 A 
ATOM     19  C   UNL A   1      27.843  30.098  22.176  1.00  0.00     0.020 A 
ENDBRANCH  13  14
ENDBRANCH   5  13
ENDBRANCH   3   5
ENDBRANCH   2   3
ENDBRANCH   1   2
BRANCH   1  20
ATOM     20  C   UNL A   1      31.323  31.543  26.320  1.00  0.00     0.275 C 
BRANCH  20  21
ATOM     21  O   UNL A   1      32.578  31.170  26.909  1.00  0.00    -0.458 OA
BRANCH  21  22
ATOM     22  C   UNL A   1      33.318  32.180  27.412  1.00  0.00     0.338 C 
ATOM     23  O   UNL A   1      32.976  33.350  27.532  1.00  0.00    -0.246 OA
BRANCH  22  24
ATOM     24  C   UNL A   1      34.638  31.681  27.849  1.00  0.00     0.060 A 
ATOM     25  C   UNL A   1      34.839  30.332  28.142  1.00  0.00     0.016 A 
ATOM     26  C   UNL A   1      35.661  32.597  28.098  1.00  0.00     0.016 A 
ATOM     27  C   UNL A   1      35.995  29.925  28.805  1.00  0.00     0.010 A 
ATOM     28  C   UNL A   1      36.864  32.166  28.669  1.00  0.00     0.010 A 
ATOM     29  C   UNL A   1      37.022  30.835  29.092  1.00  0.00    -0.014 A 
BRANCH  29  30
ATOM     30  C   UNL A   1      38.206  30.427  29.906  1.00  0.00     0.031 A 
ATOM     31  C   UNL A   1      39.266  29.530  29.308  1.00  0.00     0.074 A 
ATOM     32  C   UNL A   1      38.378  30.881  31.165  1.00  0.00     0.049 A 
ATOM     33  N   UNL A   1      40.278  28.933  29.890  1.00  0.00    -0.248 NA
ATOM     34  C   UNL A   1      39.174  29.263  27.863  1.00  0.00     0.031 C 
ATOM     35  C   UNL A   1      37.483  31.799  31.869  1.00  0.00     0.029 A 
ATOM     36  N   UNL A   1      39.379  30.635  32.075  1.00  0.00    -0.354 N 
ATOM     37  C   UNL A   1      40.905  28.189  28.898  1.00  0.00     0.074 A 
ATOM     38  C   UNL A   1      40.171  28.412  27.673  1.00  0.00     0.031 C 
ATOM     39  C   UNL A   1      37.997  32.078  33.075  1.00  0.00     0.029 A 
ATOM     40  C   UNL A   1      39.204  31.282  33.273  1.00  0.00     0.049 A 
ATOM     41  H   UNL A   1      40.147  30.048  31.886  1.00  0.00     0.167 HD
ATOM     42  C   UNL A   1      41.991  27.386  28.996  1.00  0.00     0.037 A 
ATOM     43  C   UNL A   1      39.902  31.212  34.423  1.00  0.00     0.037 A 
ATOM     44  C   UNL A   1      42.755  27.187  30.199  1.00  0.00     0.049 A 
ATOM     45  C   UNL A   1      41.072  30.275  34.525  1.00  0.00     0.074 A 
ATOM     46  C   UNL A   1      43.861  26.376  30.396  1.00  0.00     0.029 A 
ATOM     47  N   UNL A   1      42.502  27.820  31.404  1.00  0.00    -0.354 N 
ATOM     48  N   UNL A   1      41.595  29.502  33.607  1.00  0.00    -0.248 NA
ATOM     49  C   UNL A   1      41.726  30.177  35.838  1.00  0.00     0.031 C 
ATOM     50  C   UNL A   1      44.261  26.499  31.731  1.00  0.00     0.029 A 
ATOM     51  C   UNL A   1      43.425  27.412  32.354  1.00  0.00     0.049 A 
ATOM     52  H   UNL A   1      41.775  28.464  31.564  1.00  0.00     0.167 HD
ATOM     53  C   UNL A   1      42.632  28.822  34.227  1.00  0.00     0.074 A 
ATOM     54  C   UNL A   1      42.685  29.294  35.596  1.00  0.00     0.031 C 
ATOM     55  C   UNL A   1      43.459  27.880  33.714  1.00  0.00     0.037 A 
BRANCH  42  56
ATOM     56  C   UNL A   1      42.399  26.621  27.773  1.00  0.00     0.064 A 
ATOM     57  C   UNL A   1      43.357  27.116  26.878  1.00  0.00     0.173 A 
ATOM     58  C   UNL A   1      41.848  25.355  27.519  1.00  0.00     0.173 A 
ATOM     59  F   UNL A   1      43.897  28.328  27.068  1.00  0.00    -0.203 F 
ATOM     60  C   UNL A   1      43.742  26.373  25.763  1.00  0.00     0.198 A 
ATOM     61  C   UNL A   1      42.251  24.608  26.418  1.00  0.00     0.198 A 
ATOM     62  F   UNL A   1      40.929  24.840  28.349  1.00  0.00    -0.203 F 
ATOM     63  F   UNL A   1      44.636  26.876  24.901  1.00  0.00    -0.200 F 
ATOM     64  C   UNL A   1      43.194  25.119  25.539  1.00  0.00     0.200 A 
ATOM     65  F   UNL A   1      41.727  23.393  26.205  1.00  0.00    -0.200 F 
ATOM     66  F   UNL A   1      43.572  24.402  24.470  1.00  0.00    -0.200 F 
ENDBRANCH  42  56
BRANCH  43  67
ATOM     67  C   UNL A   1      39.469  32.015  35.596  1.00  0.00     0.064 A 
ATOM     68  C   UNL A   1      39.979  33.301  35.818  1.00  0.00     0.173 A 
ATOM     69  C   UNL A   1      38.529  31.516  36.509  1.00  0.00     0.173 A 
ATOM     70  F   UNL A   1      40.903  33.807  34.990  1.00  0.00    -0.203 F 
ATOM     71  C   UNL A   1      39.562  34.058  36.911  1.00  0.00     0.198 A 
ATOM     72  C   UNL A   1      38.092  32.285  37.584  1.00  0.00     0.198 A 
ATOM     73  F   UNL A   1      38.017  30.287  36.343  1.00  0.00    -0.203 F 
ATOM     74  F   UNL A   1      40.088  35.272  37.122  1.00  0.00    -0.200 F 
ATOM     75  C   UNL A   1      38.611  33.554  37.787  1.00  0.00     0.200 A 
ATOM     76  F   UNL A   1      37.164  31.798  38.420  1.00  0.00    -0.200 F 
ATOM     77  F   UNL A   1      38.201  34.288  38.829  1.00  0.00    -0.200 F 
ENDBRANCH  43  67
BRANCH  55  78
ATOM     78  C   UNL A   1      44.490  27.302  34.634  1.00  0.00     0.064 A 
ATOM     79  C   UNL A   1      45.741  27.913  34.801  1.00  0.00     0.173 A 
ATOM     80  C   UNL A   1      44.219  26.140  35.369  1.00  0.00     0.173 A 
ATOM     81  F   UNL A   1      46.049  29.018  34.105  1.00  0.00    -0.203 F 
ATOM     82  C   UNL A   1      46.694  27.367  35.655  1.00  0.00     0.198 A 
ATOM     83  C   UNL A   1      45.167  25.608  36.239  1.00  0.00     0.198 A 
ATOM     84  F   UNL A   1      43.035  25.522  35.246  1.00  0.00    -0.203 F 
ATOM     85  F   UNL A   1      47.899  27.943  35.769  1.00  0.00    -0.200 F 
ATOM     86  C   UNL A   1      46.405  26.218  36.376  1.00  0.00     0.200 A 
ATOM     87  F   UNL A   1      44.884  24.501  36.940  1.00  0.00    -0.200 F 
ATOM     88  F   UNL A   1      47.324  25.692  37.197  1.00  0.00    -0.200 F 
ENDBRANCH  55  78
ENDBRANCH  29  30
ENDBRANCH  22  24
ENDBRANCH  21  22
ENDBRANCH  20  21
ENDBRANCH   1  20
TORSDOF 14
ENDMDL
MODEL 2
REMARK VINA RESULT:     -12.1      5.043     10.324
REMARK SMILES CC[C@@H]1CCC[C@@](Cc2ccccn2)(C(=O)OCCOC(=O)c2ccc(-c3c4nc(c(-c5c(F)c(F)c(F)c(F)c5F)c5ccc([nH]5)c(-c5c(F)c(F)c(F)c(F)c5F)c5nc(c(-c6c(F)c(F)c(F)c(F)c6F)c6ccc3[nH]6)C=C5)C=C4)cc2)C1
REMARK SMILES IDX 18 1 17 2 15 3 16 4 7 5 3 6 4 7 86 8 5 9 6 10 2 11 1 12 8 13
REMARK SMILES IDX 9 14 10 15 14 16 11 17 13 18 12 19 19 20 20 21 21 22 22 23
REMARK SMILES IDX 23 24 24 25 85 26 25 27 84 28 26 29 27 30 28 31 78 32 29 33
REMARK SMILES IDX 83 34 77 35 79 36 30 37 82 38 76 39 75 40 31 42 63 43 43 44
REMARK SMILES IDX 62 45 44 46 47 47 61 48 80 49 45 50 46 51 60 53 81 54 48 55
REMARK SMILES IDX 32 56 33 57 41 58 34 59 35 60 39 61 42 62 36 63 37 64 40 65
REMARK SMILES IDX 38 66 64 67 65 68 73 69 66 70 67 71 71 72 74 73 68 74 69 75
REMARK SMILES IDX 72 76 70 77 49 78 50 79 58 80 51 81 52 82 56 83 59 84 53 85
REMARK SMILES IDX 54 86 57 87 55 88
REMARK H PARENT 79 41 47 52
REMARK Flexibility Score: inf
ROOT
ATOM      1  C   UNL A   1      36.099  19.982  24.977  1.00  0.00     0.274 C 
ENDROOT
BRANCH   1   2
ATOM      2  O   UNL A   1      35.501  21.268  24.715  1.00  0.00    -0.462 OA
BRANCH   2   3
ATOM      3  C   UNL A   1      34.593  21.711  25.625  1.00  0.00     0.312 C 
ATOM      4  O   UNL A   1      34.680  21.511  26.833  1.00  0.00    -0.252 OA
BRANCH   3   5
ATOM      5  C   UNL A   1      33.357  22.360  24.986  1.00  0.00     0.074 C 
ATOM      6  C   UNL A   1      33.864  24.908  25.311  1.00  0.00    -0.010 C 
ATOM      7  C   UNL A   1      33.898  25.078  23.792  1.00  0.00     0.003 C 
ATOM      8  C   UNL A   1      33.020  23.686  25.724  1.00  0.00     0.022 C 
ATOM      9  C   UNL A   1      34.384  23.805  23.119  1.00  0.00     0.001 C 
ATOM     10  C   UNL A   1      33.486  22.622  23.466  1.00  0.00     0.019 C 
BRANCH   6  11
ATOM     11  C   UNL A   1      33.331  26.168  26.025  1.00  0.00     0.000 C 
ATOM     12  C   UNL A   1      33.729  27.471  25.350  1.00  0.00     0.004 C 
ENDBRANCH   6  11
BRANCH   5  13
ATOM     13  C   UNL A   1      32.197  21.351  25.274  1.00  0.00     0.075 C 
BRANCH  13  14
ATOM     14  C   UNL A   1      32.443  19.956  24.750  1.00  0.00     0.041 A 
ATOM     15  C   UNL A   1      32.402  19.677  23.386  1.00  0.00     0.024 A 
ATOM     16  N   UNL A   1      32.618  18.990  25.683  1.00  0.00    -0.261 NA
ATOM     17  C   UNL A   1      32.505  18.353  22.969  1.00  0.00     0.003 A 
ATOM     18  C   UNL A   1      32.732  17.718  25.249  1.00  0.00     0.111 A 
ATOM     19  C   UNL A   1      32.670  17.352  23.917  1.00  0.00     0.020 A 
ENDBRANCH  13  14
ENDBRANCH   5  13
ENDBRANCH   3   5
ENDBRANCH   2   3
ENDBRANCH   1   2
BRANCH   1  20
ATOM     20  C   UNL A   1      37.613  20.044  24.821  1.00  0.00     0.275 C 
BRANCH  20  21
ATOM     21  O   UNL A   1      38.104  21.201  25.515  1.00  0.00    -0.458 OA
BRANCH  21  22
ATOM     22  C   UNL A   1      39.313  21.069  26.099  1.00  0.00     0.338 C 
ATOM     23  O   UNL A   1      40.001  20.056  26.142  1.00  0.00    -0.246 OA
BRANCH  22  24
ATOM     24  C   UNL A   1      39.745  22.357  26.681  1.00  0.00     0.060 A 
ATOM     25  C   UNL A   1      39.215  23.566  26.231  1.00  0.00     0.016 A 
ATOM     26  C   UNL A   1      40.794  22.367  27.602  1.00  0.00     0.016 A 
ATOM     27  C   UNL A   1      39.818  24.770  26.590  1.00  0.00     0.010 A 
ATOM     28  C   UNL A   1      41.330  23.584  28.039  1.00  0.00     0.010 A 
ATOM     29  C   UNL A   1      40.893  24.801  27.489  1.00  0.00    -0.014 A 
BRANCH  29  30
ATOM     30  C   UNL A   1      41.615  26.075  27.781  1.00  0.00     0.031 A 
ATOM     31  C   UNL A   1      40.957  27.144  28.625  1.00  0.00     0.074 A 
ATOM     32  C   UNL A   1      42.873  26.281  27.341  1.00  0.00     0.049 A 
ATOM     33  N   UNL A   1      41.343  28.376  28.857  1.00  0.00    -0.248 NA
ATOM     34  C   UNL A   1      39.697  26.783  29.293  1.00  0.00     0.031 C 
ATOM     35  C   UNL A   1      43.672  25.330  26.568  1.00  0.00     0.029 A 
ATOM     36  N   UNL A   1      43.708  27.364  27.493  1.00  0.00    -0.354 N 
ATOM     37  C   UNL A   1      40.353  28.942  29.651  1.00  0.00     0.074 A 
ATOM     38  C   UNL A   1      39.351  27.923  29.871  1.00  0.00     0.031 C 
ATOM     39  C   UNL A   1      44.891  25.847  26.358  1.00  0.00     0.029 A 
ATOM     40  C   UNL A   1      44.931  27.203  26.891  1.00  0.00     0.049 A 
ATOM     41  H   UNL A   1      43.451  28.176  27.987  1.00  0.00     0.167 HD
ATOM     42  C   UNL A   1      40.278  30.200  30.148  1.00  0.00     0.037 A 
ATOM     43  C   UNL A   1      45.957  28.063  26.737  1.00  0.00     0.037 A 
ATOM     44  C   UNL A   1      41.286  31.211  29.971  1.00  0.00     0.049 A 
ATOM     45  C   UNL A   1      45.830  29.469  27.251  1.00  0.00     0.074 A 
ATOM     46  C   UNL A   1      41.286  32.520  30.423  1.00  0.00     0.029 A 
ATOM     47  N   UNL A   1      42.482  31.019  29.301  1.00  0.00    -0.354 N 
ATOM     48  N   UNL A   1      44.846  30.022  27.914  1.00  0.00    -0.248 NA
ATOM     49  C   UNL A   1      46.947  30.381  26.961  1.00  0.00     0.031 C 
ATOM     50  C   UNL A   1      42.473  33.128  30.003  1.00  0.00     0.029 A 
ATOM     51  C   UNL A   1      43.226  32.188  29.319  1.00  0.00     0.049 A 
ATOM     52  H   UNL A   1      42.763  30.177  28.874  1.00  0.00     0.167 HD
ATOM     53  C   UNL A   1      45.218  31.343  28.116  1.00  0.00     0.074 A 
ATOM     54  C   UNL A   1      46.533  31.504  27.531  1.00  0.00     0.031 C 
ATOM     55  C   UNL A   1      44.526  32.337  28.722  1.00  0.00     0.037 A 
BRANCH  42  56
ATOM     56  C   UNL A   1      39.037  30.573  30.902  1.00  0.00     0.064 A 
ATOM     57  C   UNL A   1      38.956  30.457  32.296  1.00  0.00     0.173 A 
ATOM     58  C   UNL A   1      37.927  31.092  30.216  1.00  0.00     0.173 A 
ATOM     59  F   UNL A   1      39.983  29.949  32.992  1.00  0.00    -0.203 F 
ATOM     60  C   UNL A   1      37.802  30.839  32.978  1.00  0.00     0.198 A 
ATOM     61  C   UNL A   1      36.785  31.492  30.902  1.00  0.00     0.198 A 
ATOM     62  F   UNL A   1      37.959  31.222  28.882  1.00  0.00    -0.203 F 
ATOM     63  F   UNL A   1      37.732  30.692  34.307  1.00  0.00    -0.200 F 
ATOM     64  C   UNL A   1      36.722  31.361  32.281  1.00  0.00     0.200 A 
ATOM     65  F   UNL A   1      35.745  32.003  30.230  1.00  0.00    -0.200 F 
ATOM     66  F   UNL A   1      35.615  31.736  32.940  1.00  0.00    -0.200 F 
ENDBRANCH  42  56
BRANCH  43  67
ATOM     67  C   UNL A   1      47.175  27.630  26.006  1.00  0.00     0.064 A 
ATOM     68  C   UNL A   1      47.243  27.706  24.608  1.00  0.00     0.173 A 
ATOM     69  C   UNL A   1      48.298  27.144  26.691  1.00  0.00     0.173 A 
ATOM     70  F   UNL A   1      46.183  28.134  23.908  1.00  0.00    -0.203 F 
ATOM     71  C   UNL A   1      48.392  27.313  23.924  1.00  0.00     0.198 A 
ATOM     72  C   UNL A   1      49.455  26.779  26.008  1.00  0.00     0.198 A 
ATOM     73  F   UNL A   1      48.279  27.046  28.028  1.00  0.00    -0.203 F 
ATOM     74  F   UNL A   1      48.422  27.364  22.585  1.00  0.00    -0.200 F 
ATOM     75  C   UNL A   1      49.501  26.859  24.625  1.00  0.00     0.200 A 
ATOM     76  F   UNL A   1      50.528  26.353  26.690  1.00  0.00    -0.200 F 
ATOM     77  F   UNL A   1      50.608  26.495  23.967  1.00  0.00    -0.200 F 
ENDBRANCH  43  67
BRANCH  55  78
ATOM     78  C   UNL A   1      45.179  33.684  28.783  1.00  0.00     0.064 A 
ATOM     79  C   UNL A   1      44.948  34.651  27.794  1.00  0.00     0.173 A 
ATOM     80  C   UNL A   1      46.027  34.018  29.848  1.00  0.00     0.173 A 
ATOM     81  F   UNL A   1      44.157  34.369  26.748  1.00  0.00    -0.203 F 
ATOM     82  C   UNL A   1      45.563  35.898  27.856  1.00  0.00     0.198 A 
ATOM     83  C   UNL A   1      46.622  35.274  29.919  1.00  0.00     0.198 A 
ATOM     84  F   UNL A   1      46.275  33.129  30.821  1.00  0.00    -0.203 F 
ATOM     85  F   UNL A   1      45.362  36.793  26.880  1.00  0.00    -0.200 F 
ATOM     86  C   UNL A   1      46.396  36.210  28.921  1.00  0.00     0.200 A 
ATOM     87  F   UNL A   1      47.422  35.578  30.952  1.00  0.00    -0.200 F 
ATOM     88  F   UNL A   1      46.988  37.411  28.980  1.00  0.00    -0.200 F 
ENDBRANCH  55  78
ENDBRANCH  29  30
ENDBRANCH  22  24
ENDBRANCH  21  22
ENDBRANCH  20  21
ENDBRANCH   1  20
TORSDOF 14
ENDMDL
MODEL 3
REMARK VINA RESULT:     -12.0      0.248      2.007
REMARK SMILES CC[C@@H]1CCC[C@@](Cc2ccccn2)(C(=O)OCCOC(=O)c2ccc(-c3c4nc(c(-c5c(F)c(F)c(F)c(F)c5F)c5ccc([nH]5)c(-c5c(F)c(F)c(F)c(F)c5F)c5nc(c(-c6c(F)c(F)c(F)c(F)c6F)c6ccc3[nH]6)C=C5)C=C4)cc2)C1
REMARK SMILES IDX 18 1 17 2 15 3 16 4 7 5 3 6 4 7 86 8 5 9 6 10 2 11 1 12 8 13
REMARK SMILES IDX 9 14 10 15 14 16 11 17 13 18 12 19 19 20 20 21 21 22 22 23
REMARK SMILES IDX 23 24 24 25 85 26 25 27 84 28 26 29 27 30 28 31 78 32 29 33
REMARK SMILES IDX 83 34 77 35 79 36 30 37 82 38 76 39 75 40 31 42 63 43 43 44
REMARK SMILES IDX 62 45 44 46 47 47 61 48 80 49 45 50 46 51 60 53 81 54 48 55
REMARK SMILES IDX 32 56 33 57 41 58 34 59 35 60 39 61 42 62 36 63 37 64 40 65
REMARK SMILES IDX 38 66 64 67 65 68 73 69 66 70 67 71 71 72 74 73 68 74 69 75
REMARK SMILES IDX 72 76 70 77 49 78 50 79 58 80 51 81 52 82 56 83 59 84 53 85
REMARK SMILES IDX 54 86 57 87 55 88
REMARK H PARENT 79 41 47 52
REMARK Flexibility Score: inf
ROOT
ATOM      1  C   UNL A   1      31.279  30.487  25.155  1.00  0.00     0.274 C 
ENDROOT
BRANCH   1   2
ATOM      2  O   UNL A   1      31.793  29.162  25.399  1.00  0.00    -0.462 OA
BRANCH   2   3
ATOM      3  C   UNL A   1      32.437  28.561  24.364  1.00  0.00     0.312 C 
ATOM      4  O   UNL A   1      33.297  29.109  23.680  1.00  0.00    -0.252 OA
BRANCH   3   5
ATOM      5  C   UNL A   1      31.880  27.170  24.026  1.00  0.00     0.074 C 
ATOM      6  C   UNL A   1      33.632  25.600  25.177  1.00  0.00    -0.010 C 
ATOM      7  C   UNL A   1      32.529  25.071  26.094  1.00  0.00     0.003 C 
ATOM      8  C   UNL A   1      33.053  26.162  23.863  1.00  0.00     0.022 C 
ATOM      9  C   UNL A   1      31.483  26.143  26.352  1.00  0.00     0.001 C 
ATOM     10  C   UNL A   1      30.856  26.625  25.049  1.00  0.00     0.019 C 
BRANCH   6  11
ATOM     11  C   UNL A   1      34.688  24.522  24.856  1.00  0.00     0.000 C 
ATOM     12  C   UNL A   1      35.042  23.638  26.042  1.00  0.00     0.004 C 
ENDBRANCH   6  11
BRANCH   5  13
ATOM     13  C   UNL A   1      31.214  27.350  22.622  1.00  0.00     0.075 C 
BRANCH  13  14
ATOM     14  C   UNL A   1      30.041  28.301  22.609  1.00  0.00     0.041 A 
ATOM     15  C   UNL A   1      28.856  27.998  23.276  1.00  0.00     0.024 A 
ATOM     16  N   UNL A   1      30.181  29.412  21.847  1.00  0.00    -0.261 NA
ATOM     17  C   UNL A   1      27.764  28.847  23.122  1.00  0.00     0.003 A 
ATOM     18  C   UNL A   1      29.111  30.225  21.729  1.00  0.00     0.111 A 
ATOM     19  C   UNL A   1      27.890  29.981  22.331  1.00  0.00     0.020 A 
ENDBRANCH  13  14
ENDBRANCH   5  13
ENDBRANCH   3   5
ENDBRANCH   2   3
ENDBRANCH   1   2
BRANCH   1  20
ATOM     20  C   UNL A   1      31.366  31.346  26.410  1.00  0.00     0.275 C 
BRANCH  20  21
ATOM     21  O   UNL A   1      32.569  31.009  27.119  1.00  0.00    -0.458 OA
BRANCH  21  22
ATOM     22  C   UNL A   1      33.353  32.047  27.475  1.00  0.00     0.338 C 
ATOM     23  O   UNL A   1      33.049  33.233  27.470  1.00  0.00    -0.246 OA
BRANCH  22  24
ATOM     24  C   UNL A   1      34.676  31.562  27.921  1.00  0.00     0.060 A 
ATOM     25  C   UNL A   1      34.887  30.216  28.222  1.00  0.00     0.016 A 
ATOM     26  C   UNL A   1      35.691  32.488  28.169  1.00  0.00     0.016 A 
ATOM     27  C   UNL A   1      36.044  29.822  28.892  1.00  0.00     0.010 A 
ATOM     28  C   UNL A   1      36.894  32.070  28.748  1.00  0.00     0.010 A 
ATOM     29  C   UNL A   1      37.061  30.743  29.178  1.00  0.00    -0.014 A 
BRANCH  29  30
ATOM     30  C   UNL A   1      38.246  30.348  30.000  1.00  0.00     0.031 A 
ATOM     31  C   UNL A   1      39.305  29.441  29.417  1.00  0.00     0.074 A 
ATOM     32  C   UNL A   1      38.417  30.824  31.250  1.00  0.00     0.049 A 
ATOM     33  N   UNL A   1      40.317  28.855  30.010  1.00  0.00    -0.248 NA
ATOM     34  C   UNL A   1      39.215  29.150  27.978  1.00  0.00     0.031 C 
ATOM     35  C   UNL A   1      37.521  31.754  31.939  1.00  0.00     0.029 A 
ATOM     36  N   UNL A   1      39.417  30.593  32.166  1.00  0.00    -0.354 N 
ATOM     37  C   UNL A   1      40.945  28.094  29.031  1.00  0.00     0.074 A 
ATOM     38  C   UNL A   1      40.211  28.296  27.802  1.00  0.00     0.031 C 
ATOM     39  C   UNL A   1      38.035  32.053  33.140  1.00  0.00     0.029 A 
ATOM     40  C   UNL A   1      39.242  31.261  33.352  1.00  0.00     0.049 A 
ATOM     41  H   UNL A   1      40.185  30.004  31.987  1.00  0.00     0.167 HD
ATOM     42  C   UNL A   1      42.032  27.293  29.144  1.00  0.00     0.037 A 
ATOM     43  C   UNL A   1      39.939  31.211  34.503  1.00  0.00     0.037 A 
ATOM     44  C   UNL A   1      42.795  27.115  30.350  1.00  0.00     0.049 A 
ATOM     45  C   UNL A   1      41.109  30.276  34.622  1.00  0.00     0.074 A 
ATOM     46  C   UNL A   1      43.900  26.308  30.561  1.00  0.00     0.029 A 
ATOM     47  N   UNL A   1      42.542  27.768  31.544  1.00  0.00    -0.354 N 
ATOM     48  N   UNL A   1      41.633  29.488  33.717  1.00  0.00    -0.248 NA
ATOM     49  C   UNL A   1      41.763  30.201  35.937  1.00  0.00     0.031 C 
ATOM     50  C   UNL A   1      44.300  26.454  31.894  1.00  0.00     0.029 A 
ATOM     51  C   UNL A   1      43.464  27.377  32.501  1.00  0.00     0.049 A 
ATOM     52  H   UNL A   1      41.814  28.415  31.692  1.00  0.00     0.167 HD
ATOM     53  C   UNL A   1      42.670  28.818  34.350  1.00  0.00     0.074 A 
ATOM     54  C   UNL A   1      42.723  29.314  35.710  1.00  0.00     0.031 C 
ATOM     55  C   UNL A   1      43.497  27.868  33.852  1.00  0.00     0.037 A 
BRANCH  42  56
ATOM     56  C   UNL A   1      42.440  26.508  27.933  1.00  0.00     0.064 A 
ATOM     57  C   UNL A   1      41.824  25.295  27.596  1.00  0.00     0.173 A 
ATOM     58  C   UNL A   1      43.437  27.004  27.079  1.00  0.00     0.173 A 
ATOM     59  F   UNL A   1      40.880  24.773  28.393  1.00  0.00    -0.203 F 
ATOM     60  C   UNL A   1      42.200  24.599  26.449  1.00  0.00     0.198 A 
ATOM     61  C   UNL A   1      43.794  26.316  25.923  1.00  0.00     0.198 A 
ATOM     62  F   UNL A   1      44.054  28.161  27.360  1.00  0.00    -0.203 F 
ATOM     63  F   UNL A   1      41.622  23.426  26.160  1.00  0.00    -0.200 F 
ATOM     64  C   UNL A   1      43.179  25.113  25.612  1.00  0.00     0.200 A 
ATOM     65  F   UNL A   1      44.735  26.818  25.110  1.00  0.00    -0.200 F 
ATOM     66  F   UNL A   1      43.534  24.446  24.504  1.00  0.00    -0.200 F 
ENDBRANCH  42  56
BRANCH  43  67
ATOM     67  C   UNL A   1      39.506  32.034  35.662  1.00  0.00     0.064 A 
ATOM     68  C   UNL A   1      38.526  31.569  36.550  1.00  0.00     0.173 A 
ATOM     69  C   UNL A   1      40.071  33.293  35.910  1.00  0.00     0.173 A 
ATOM     70  F   UNL A   1      37.934  30.386  36.335  1.00  0.00    -0.203 F 
ATOM     71  C   UNL A   1      38.130  32.336  37.644  1.00  0.00     0.198 A 
ATOM     72  C   UNL A   1      39.695  34.044  37.021  1.00  0.00     0.198 A 
ATOM     73  F   UNL A   1      41.008  33.783  35.085  1.00  0.00    -0.203 F 
ATOM     74  F   UNL A   1      37.167  31.886  38.461  1.00  0.00    -0.200 F 
ATOM     75  C   UNL A   1      38.722  33.567  37.885  1.00  0.00     0.200 A 
ATOM     76  F   UNL A   1      40.279  35.227  37.255  1.00  0.00    -0.200 F 
ATOM     77  F   UNL A   1      38.350  34.296  38.944  1.00  0.00    -0.200 F 
ENDBRANCH  43  67
BRANCH  55  78
ATOM     78  C   UNL A   1      44.528  27.306  34.782  1.00  0.00     0.064 A 
ATOM     79  C   UNL A   1      44.274  26.155  35.541  1.00  0.00     0.173 A 
ATOM     80  C   UNL A   1      45.787  27.911  34.901  1.00  0.00     0.173 A 
ATOM     81  F   UNL A   1      43.077  25.552  35.471  1.00  0.00    -0.203 F 
ATOM     82  C   UNL A   1      45.237  25.642  36.406  1.00  0.00     0.198 A 
ATOM     83  C   UNL A   1      46.756  27.383  35.750  1.00  0.00     0.198 A 
ATOM     84  F   UNL A   1      46.079  29.011  34.192  1.00  0.00    -0.203 F 
ATOM     85  F   UNL A   1      44.959  24.565  37.153  1.00  0.00    -0.200 F 
ATOM     86  C   UNL A   1      46.477  26.254  36.506  1.00  0.00     0.200 A 
ATOM     87  F   UNL A   1      47.957  27.971  35.842  1.00  0.00    -0.200 F 
ATOM     88  F   UNL A   1      47.403  25.760  37.340  1.00  0.00    -0.200 F 
ENDBRANCH  55  78
ENDBRANCH  29  30
ENDBRANCH  22  24
ENDBRANCH  21  22
ENDBRANCH  20  21
ENDBRANCH   1  20
TORSDOF 14
ENDMDL
