MODEL 1
REMARK VINA RESULT:     -11.9      0.000      0.000
REMARK SMILES C[N@H+]1CCO[C@@H](COc2ccc(C(=O)OCCOC(=O)c3ccc(-c4c5nc(c(-c6c(F)c(F)c(F)c(F)c6F)c6ccc([nH]6)c(-c6c(F)c(F)c(F)c(F)c6F)c6nc(c(-c7c(F)c(F)c(F)c(F)c7F)c7ccc4[nH]7)C=C6)C=C5)cc3)cc2N)C1
REMARK SMILES IDX 16 1 15 2 13 3 14 4 12 5 9 6 10 7 85 8 11 9 84 10 8 11 7 12
REMARK SMILES IDX 6 13 1 14 2 15 3 16 87 17 4 19 5 20 86 21 17 24 18 25 19 26
REMARK SMILES IDX 20 27 21 28 22 29 83 30 23 31 82 32 24 33 25 34 26 35 76 36
REMARK SMILES IDX 27 37 81 38 75 39 77 40 28 41 80 42 74 43 73 44 29 46 61 47
REMARK SMILES IDX 41 48 60 49 42 50 45 51 59 52 78 53 43 54 44 55 58 57 79 58
REMARK SMILES IDX 46 59 30 60 31 61 39 62 32 63 33 64 37 65 40 66 34 67 35 68
REMARK SMILES IDX 38 69 36 70 62 71 63 72 71 73 64 74 65 75 69 76 72 77 66 78
REMARK SMILES IDX 67 79 70 80 68 81 47 82 48 83 56 84 49 85 50 86 54 87 57 88
REMARK SMILES IDX 51 89 52 90 55 91 53 92
REMARK H PARENT 2 18 86 22 86 23 77 45 45 56
REMARK Flexibility Score: inf
ROOT
ATOM      1  C   UNL A   1      31.731  29.146  25.043  1.00  0.00     0.275 C 
ENDROOT
BRANCH   1   2
ATOM      2  O   UNL A   1      32.000  29.309  23.638  1.00  0.00    -0.458 OA
BRANCH   2   3
ATOM      3  C   UNL A   1      31.267  28.538  22.802  1.00  0.00     0.338 C 
ATOM      4  O   UNL A   1      30.382  28.926  22.053  1.00  0.00    -0.246 OA
BRANCH   3   5
ATOM      5  C   UNL A   1      31.712  27.121  22.838  1.00  0.00     0.062 A 
ATOM      6  C   UNL A   1      32.615  24.508  22.634  1.00  0.00     0.142 A 
ATOM      7  C   UNL A   1      33.525  25.549  22.482  1.00  0.00     0.049 A 
ATOM      8  C   UNL A   1      31.296  24.741  23.067  1.00  0.00     0.075 A 
ATOM      9  C   UNL A   1      33.065  26.858  22.559  1.00  0.00     0.019 A 
ATOM     10  C   UNL A   1      30.844  26.061  23.129  1.00  0.00     0.045 A 
BRANCH   6  11
ATOM     11  O   UNL A   1      32.974  23.224  22.309  1.00  0.00    -0.488 OA
BRANCH  11  12
ATOM     12  C   UNL A   1      33.833  22.637  23.310  1.00  0.00     0.267 C 
BRANCH  12  13
ATOM     13  C   UNL A   1      33.124  21.596  24.205  1.00  0.00     0.210 C 
ATOM     14  C   UNL A   1      36.055  21.448  25.719  1.00  0.00     0.332 C 
ATOM     15  N   UNL A   1      34.804  20.758  25.996  1.00  0.00    -0.333 N 
ATOM     16  C   UNL A   1      33.971  21.475  26.969  1.00  0.00     0.290 C 
ATOM     17  C   UNL A   1      33.995  20.457  24.800  1.00  0.00     0.298 C 
ATOM     18  H   UNL A   1      35.106  19.869  26.394  1.00  0.00     0.348 HD
ATOM     19  C   UNL A   1      33.210  22.660  26.357  1.00  0.00     0.222 C 
ATOM     20  O   UNL A   1      32.382  22.256  25.259  1.00  0.00    -0.363 OA
ENDBRANCH  12  13
ENDBRANCH  11  12
ENDBRANCH   6  11
BRANCH   8  21
ATOM     21  N   UNL A   1      30.391  23.685  23.177  1.00  0.00    -0.396 N 
ATOM     22  H   UNL A   1      29.784  23.476  22.430  1.00  0.00     0.156 HD
ATOM     23  H   UNL A   1      30.359  23.148  24.002  1.00  0.00     0.156 HD
ENDBRANCH   8  21
ENDBRANCH   3   5
ENDBRANCH   2   3
ENDBRANCH   1   2
BRANCH   1  24
ATOM     24  C   UNL A   1      31.687  30.506  25.741  1.00  0.00     0.275 C 
BRANCH  24  25
ATOM     25  O   UNL A   1      32.440  30.480  26.971  1.00  0.00    -0.458 OA
BRANCH  25  26
ATOM     26  C   UNL A   1      33.133  31.608  27.242  1.00  0.00     0.338 C 
ATOM     27  O   UNL A   1      32.721  32.756  27.239  1.00  0.00    -0.246 OA
BRANCH  26  28
ATOM     28  C   UNL A   1      34.496  31.270  27.679  1.00  0.00     0.060 A 
ATOM     29  C   UNL A   1      34.762  29.937  27.984  1.00  0.00     0.016 A 
ATOM     30  C   UNL A   1      35.439  32.254  27.960  1.00  0.00     0.016 A 
ATOM     31  C   UNL A   1      35.936  29.578  28.630  1.00  0.00     0.010 A 
ATOM     32  C   UNL A   1      36.646  31.890  28.573  1.00  0.00     0.010 A 
ATOM     33  C   UNL A   1      36.885  30.554  28.952  1.00  0.00    -0.014 A 
BRANCH  33  34
ATOM     34  C   UNL A   1      38.056  30.175  29.788  1.00  0.00     0.031 A 
ATOM     35  C   UNL A   1      39.120  29.278  29.216  1.00  0.00     0.074 A 
ATOM     36  C   UNL A   1      38.209  30.685  31.024  1.00  0.00     0.049 A 
ATOM     37  N   UNL A   1      40.172  28.759  29.799  1.00  0.00    -0.248 NA
ATOM     38  C   UNL A   1      38.974  28.906  27.801  1.00  0.00     0.031 C 
ATOM     39  C   UNL A   1      37.284  31.611  31.677  1.00  0.00     0.029 A 
ATOM     40  N   UNL A   1      39.210  30.508  31.947  1.00  0.00    -0.354 N 
ATOM     41  C   UNL A   1      40.777  27.956  28.840  1.00  0.00     0.074 A 
ATOM     42  C   UNL A   1      39.974  28.053  27.640  1.00  0.00     0.031 C 
ATOM     43  C   UNL A   1      37.770  31.939  32.883  1.00  0.00     0.029 A 
ATOM     44  C   UNL A   1      39.010  31.201  33.115  1.00  0.00     0.049 A 
ATOM     45  H   UNL A   1      39.996  29.937  31.787  1.00  0.00     0.167 HD
ATOM     46  C   UNL A   1      41.901  27.207  28.952  1.00  0.00     0.037 A 
ATOM     47  C   UNL A   1      39.728  31.220  34.253  1.00  0.00     0.037 A 
ATOM     48  C   UNL A   1      42.733  27.163  30.126  1.00  0.00     0.049 A 
ATOM     49  C   UNL A   1      40.976  30.387  34.352  1.00  0.00     0.074 A 
ATOM     50  C   UNL A   1      43.905  26.454  30.328  1.00  0.00     0.029 A 
ATOM     51  N   UNL A   1      42.490  27.872  31.293  1.00  0.00    -0.354 N 
ATOM     52  N   UNL A   1      41.519  29.600  33.456  1.00  0.00    -0.248 NA
ATOM     53  C   UNL A   1      41.710  30.442  35.624  1.00  0.00     0.031 C 
ATOM     54  C   UNL A   1      44.352  26.708  31.629  1.00  0.00     0.029 A 
ATOM     55  C   UNL A   1      43.484  27.610  32.223  1.00  0.00     0.049 A 
ATOM     56  H   UNL A   1      41.724  28.473  31.438  1.00  0.00     0.167 HD
ATOM     57  C   UNL A   1      42.661  29.077  34.046  1.00  0.00     0.074 A 
ATOM     58  C   UNL A   1      42.745  29.653  35.371  1.00  0.00     0.031 C 
ATOM     59  C   UNL A   1      43.556  28.195  33.538  1.00  0.00     0.037 A 
BRANCH  46  60
ATOM     60  C   UNL A   1      42.269  26.339  27.784  1.00  0.00     0.064 A 
ATOM     61  C   UNL A   1      43.224  26.728  26.834  1.00  0.00     0.173 A 
ATOM     62  C   UNL A   1      41.655  25.087  27.622  1.00  0.00     0.173 A 
ATOM     63  F   UNL A   1      43.829  27.921  26.934  1.00  0.00    -0.203 F 
ATOM     64  C   UNL A   1      43.525  25.912  25.746  1.00  0.00     0.198 A 
ATOM     65  C   UNL A   1      41.980  24.260  26.549  1.00  0.00     0.198 A 
ATOM     66  F   UNL A   1      40.737  24.663  28.504  1.00  0.00    -0.203 F 
ATOM     67  F   UNL A   1      44.399  26.329  24.819  1.00  0.00    -0.200 F 
ATOM     68  C   UNL A   1      42.907  24.678  25.607  1.00  0.00     0.200 A 
ATOM     69  F   UNL A   1      41.390  23.063  26.424  1.00  0.00    -0.200 F 
ATOM     70  F   UNL A   1      43.198  23.894  24.559  1.00  0.00    -0.200 F 
ENDBRANCH  46  60
BRANCH  47  71
ATOM     71  C   UNL A   1      39.267  32.046  35.399  1.00  0.00     0.064 A 
ATOM     72  C   UNL A   1      39.606  33.402  35.497  1.00  0.00     0.173 A 
ATOM     73  C   UNL A   1      38.465  31.498  36.412  1.00  0.00     0.173 A 
ATOM     74  F   UNL A   1      40.390  33.965  34.567  1.00  0.00    -0.203 F 
ATOM     75  C   UNL A   1      39.166  34.177  36.569  1.00  0.00     0.198 A 
ATOM     76  C   UNL A   1      38.003  32.280  37.466  1.00  0.00     0.198 A 
ATOM     77  F   UNL A   1      38.116  30.204  36.364  1.00  0.00    -0.203 F 
ATOM     78  F   UNL A   1      39.532  35.463  36.658  1.00  0.00    -0.200 F 
ATOM     79  C   UNL A   1      38.357  33.618  37.548  1.00  0.00     0.200 A 
ATOM     80  F   UNL A   1      37.211  31.738  38.402  1.00  0.00    -0.200 F 
ATOM     81  F   UNL A   1      37.925  34.367  38.571  1.00  0.00    -0.200 F 
ENDBRANCH  47  71
BRANCH  59  82
ATOM     82  C   UNL A   1      44.720  27.823  34.408  1.00  0.00     0.064 A 
ATOM     83  C   UNL A   1      45.908  28.570  34.406  1.00  0.00     0.173 A 
ATOM     84  C   UNL A   1      44.638  26.721  35.271  1.00  0.00     0.173 A 
ATOM     85  F   UNL A   1      46.041  29.624  33.587  1.00  0.00    -0.203 F 
ATOM     86  C   UNL A   1      46.981  28.209  35.217  1.00  0.00     0.198 A 
ATOM     87  C   UNL A   1      45.703  26.378  36.100  1.00  0.00     0.198 A 
ATOM     88  F   UNL A   1      43.522  25.977  35.314  1.00  0.00    -0.203 F 
ATOM     89  F   UNL A   1      48.124  28.906  35.163  1.00  0.00    -0.200 F 
ATOM     90  C   UNL A   1      46.875  27.117  36.066  1.00  0.00     0.200 A 
ATOM     91  F   UNL A   1      45.596  25.330  36.928  1.00  0.00    -0.200 F 
ATOM     92  F   UNL A   1      47.910  26.771  36.845  1.00  0.00    -0.200 F 
ENDBRANCH  59  82
ENDBRANCH  33  34
ENDBRANCH  26  28
ENDBRANCH  25  26
ENDBRANCH  24  25
ENDBRANCH   1  24
TORSDOF 15
ENDMDL
MODEL 2
REMARK VINA RESULT:     -11.8      3.148      8.356
REMARK SMILES C[N@H+]1CCO[C@@H](COc2ccc(C(=O)OCCOC(=O)c3ccc(-c4c5nc(c(-c6c(F)c(F)c(F)c(F)c6F)c6ccc([nH]6)c(-c6c(F)c(F)c(F)c(F)c6F)c6nc(c(-c7c(F)c(F)c(F)c(F)c7F)c7ccc4[nH]7)C=C6)C=C5)cc3)cc2N)C1
REMARK SMILES IDX 16 1 15 2 13 3 14 4 12 5 9 6 10 7 85 8 11 9 84 10 8 11 7 12
REMARK SMILES IDX 6 13 1 14 2 15 3 16 87 17 4 19 5 20 86 21 17 24 18 25 19 26
REMARK SMILES IDX 20 27 21 28 22 29 83 30 23 31 82 32 24 33 25 34 26 35 76 36
REMARK SMILES IDX 27 37 81 38 75 39 77 40 28 41 80 42 74 43 73 44 29 46 61 47
REMARK SMILES IDX 41 48 60 49 42 50 45 51 59 52 78 53 43 54 44 55 58 57 79 58
REMARK SMILES IDX 46 59 30 60 31 61 39 62 32 63 33 64 37 65 40 66 34 67 35 68
REMARK SMILES IDX 38 69 36 70 62 71 63 72 71 73 64 74 65 75 69 76 72 77 66 78
REMARK SMILES IDX 67 79 70 80 68 81 47 82 48 83 56 84 49 85 50 86 54 87 57 88
REMARK SMILES IDX 51 89 52 90 55 91 53 92
REMARK H PARENT 2 18 86 22 86 23 77 45 45 56
REMARK Flexibility Score: inf
ROOT
ATOM      1  C   UNL A   1      42.607  21.258  26.001  1.00  0.00     0.275 C 
ENDROOT
BRANCH   1   2
ATOM      2  O   UNL A   1      41.261  21.590  25.612  1.00  0.00    -0.458 OA
BRANCH   2   3
ATOM      3  C   UNL A   1      40.350  21.631  26.611  1.00  0.00     0.338 C 
ATOM      4  O   UNL A   1      40.584  21.515  27.806  1.00  0.00    -0.246 OA
BRANCH   3   5
ATOM      5  C   UNL A   1      38.986  21.911  26.093  1.00  0.00     0.062 A 
ATOM      6  C   UNL A   1      36.384  22.546  25.377  1.00  0.00     0.142 A 
ATOM      7  C   UNL A   1      37.272  23.575  25.674  1.00  0.00     0.049 A 
ATOM      8  C   UNL A   1      36.818  21.213  25.253  1.00  0.00     0.075 A 
ATOM      9  C   UNL A   1      38.568  23.253  26.057  1.00  0.00     0.019 A 
ATOM     10  C   UNL A   1      38.121  20.902  25.653  1.00  0.00     0.045 A 
BRANCH   6  11
ATOM     11  O   UNL A   1      35.042  22.805  25.253  1.00  0.00    -0.488 OA
BRANCH  11  12
ATOM     12  C   UNL A   1      34.799  24.073  24.604  1.00  0.00     0.267 C 
BRANCH  12  13
ATOM     13  C   UNL A   1      34.389  23.943  23.121  1.00  0.00     0.210 C 
ATOM     14  C   UNL A   1      31.377  23.446  24.382  1.00  0.00     0.332 C 
ATOM     15  N   UNL A   1      31.834  23.503  23.001  1.00  0.00    -0.333 N 
ATOM     16  C   UNL A   1      31.730  24.852  22.429  1.00  0.00     0.290 C 
ATOM     17  C   UNL A   1      33.203  22.997  22.790  1.00  0.00     0.298 C 
ATOM     18  H   UNL A   1      31.196  22.875  22.513  1.00  0.00     0.348 HD
ATOM     19  C   UNL A   1      32.867  25.785  22.871  1.00  0.00     0.222 C 
ATOM     20  O   UNL A   1      34.155  25.250  22.544  1.00  0.00    -0.363 OA
ENDBRANCH  12  13
ENDBRANCH  11  12
ENDBRANCH   6  11
BRANCH   8  21
ATOM     21  N   UNL A   1      35.904  20.193  24.992  1.00  0.00    -0.396 N 
ATOM     22  H   UNL A   1      36.137  19.257  25.194  1.00  0.00     0.156 HD
ATOM     23  H   UNL A   1      35.024  20.407  24.605  1.00  0.00     0.156 HD
ENDBRANCH   8  21
ENDBRANCH   3   5
ENDBRANCH   2   3
ENDBRANCH   1   2
BRANCH   1  24
ATOM     24  C   UNL A   1      43.615  22.077  25.194  1.00  0.00     0.275 C 
BRANCH  24  25
ATOM     25  O   UNL A   1      43.029  23.313  24.738  1.00  0.00    -0.458 OA
BRANCH  25  26
ATOM     26  C   UNL A   1      43.738  24.426  25.032  1.00  0.00     0.338 C 
ATOM     27  O   UNL A   1      44.816  24.767  24.575  1.00  0.00    -0.246 OA
BRANCH  26  28
ATOM     28  C   UNL A   1      42.965  25.291  25.936  1.00  0.00     0.060 A 
ATOM     29  C   UNL A   1      43.421  26.593  26.128  1.00  0.00     0.016 A 
ATOM     30  C   UNL A   1      41.927  24.790  26.717  1.00  0.00     0.016 A 
ATOM     31  C   UNL A   1      42.898  27.386  27.140  1.00  0.00     0.010 A 
ATOM     32  C   UNL A   1      41.366  25.603  27.712  1.00  0.00     0.010 A 
ATOM     33  C   UNL A   1      41.877  26.893  27.959  1.00  0.00    -0.014 A 
BRANCH  33  34
ATOM     34  C   UNL A   1      41.448  27.693  29.138  1.00  0.00     0.031 A 
ATOM     35  C   UNL A   1      42.244  27.624  30.413  1.00  0.00     0.074 A 
ATOM     36  C   UNL A   1      40.400  28.533  29.051  1.00  0.00     0.049 A 
ATOM     37  N   UNL A   1      41.997  28.169  31.578  1.00  0.00    -0.248 NA
ATOM     38  C   UNL A   1      43.477  26.824  30.375  1.00  0.00     0.031 C 
ATOM     39  C   UNL A   1      39.579  28.741  27.858  1.00  0.00     0.029 A 
ATOM     40  N   UNL A   1      39.855  29.381  29.983  1.00  0.00    -0.354 N 
ATOM     41  C   UNL A   1      43.009  27.731  32.422  1.00  0.00     0.074 A 
ATOM     42  C   UNL A   1      43.872  26.873  31.638  1.00  0.00     0.031 C 
ATOM     43  C   UNL A   1      38.651  29.673  28.122  1.00  0.00     0.029 A 
ATOM     44  C   UNL A   1      38.772  30.085  29.519  1.00  0.00     0.049 A 
ATOM     45  H   UNL A   1      40.207  29.476  30.897  1.00  0.00     0.167 HD
ATOM     46  C   UNL A   1      43.201  28.019  33.732  1.00  0.00     0.037 A 
ATOM     47  C   UNL A   1      37.951  30.944  30.153  1.00  0.00     0.037 A 
ATOM     48  C   UNL A   1      42.380  28.925  34.493  1.00  0.00     0.049 A 
ATOM     49  C   UNL A   1      38.188  31.256  31.604  1.00  0.00     0.074 A 
ATOM     50  C   UNL A   1      42.508  29.301  35.818  1.00  0.00     0.029 A 
ATOM     51  N   UNL A   1      41.284  29.609  33.988  1.00  0.00    -0.354 N 
ATOM     52  N   UNL A   1      39.124  30.807  32.405  1.00  0.00    -0.248 NA
ATOM     53  C   UNL A   1      37.253  32.192  32.242  1.00  0.00     0.031 C 
ATOM     54  C   UNL A   1      41.470  30.187  36.125  1.00  0.00     0.029 A 
ATOM     55  C   UNL A   1      40.721  30.399  34.979  1.00  0.00     0.049 A 
ATOM     56  H   UNL A   1      40.955  29.544  33.062  1.00  0.00     0.167 HD
ATOM     57  C   UNL A   1      38.899  31.412  33.633  1.00  0.00     0.074 A 
ATOM     58  C   UNL A   1      37.752  32.278  33.467  1.00  0.00     0.031 C 
ATOM     59  C   UNL A   1      39.580  31.259  34.796  1.00  0.00     0.037 A 
BRANCH  46  60
ATOM     60  C   UNL A   1      44.323  27.311  34.436  1.00  0.00     0.064 A 
ATOM     61  C   UNL A   1      44.146  26.068  35.060  1.00  0.00     0.173 A 
ATOM     62  C   UNL A   1      45.601  27.890  34.476  1.00  0.00     0.173 A 
ATOM     63  F   UNL A   1      42.941  25.479  35.065  1.00  0.00    -0.203 F 
ATOM     64  C   UNL A   1      45.198  25.448  35.730  1.00  0.00     0.198 A 
ATOM     65  C   UNL A   1      46.659  27.252  35.120  1.00  0.00     0.198 A 
ATOM     66  F   UNL A   1      45.825  29.076  33.890  1.00  0.00    -0.203 F 
ATOM     67  F   UNL A   1      44.994  24.288  36.369  1.00  0.00    -0.200 F 
ATOM     68  C   UNL A   1      46.454  26.037  35.754  1.00  0.00     0.200 A 
ATOM     69  F   UNL A   1      47.873  27.820  35.132  1.00  0.00    -0.200 F 
ATOM     70  F   UNL A   1      47.466  25.439  36.399  1.00  0.00    -0.200 F 
ENDBRANCH  46  60
BRANCH  47  71
ATOM     71  C   UNL A   1      36.815  31.554  29.415  1.00  0.00     0.064 A 
ATOM     72  C   UNL A   1      35.713  30.784  29.019  1.00  0.00     0.173 A 
ATOM     73  C   UNL A   1      36.802  32.922  29.104  1.00  0.00     0.173 A 
ATOM     74  F   UNL A   1      35.690  29.467  29.271  1.00  0.00    -0.203 F 
ATOM     75  C   UNL A   1      34.644  31.358  28.333  1.00  0.00     0.198 A 
ATOM     76  C   UNL A   1      35.721  33.500  28.445  1.00  0.00     0.198 A 
ATOM     77  F   UNL A   1      37.834  33.700  29.460  1.00  0.00    -0.203 F 
ATOM     78  F   UNL A   1      33.618  30.594  27.935  1.00  0.00    -0.200 F 
ATOM     79  C   UNL A   1      34.644  32.718  28.055  1.00  0.00     0.200 A 
ATOM     80  F   UNL A   1      35.720  34.816  28.190  1.00  0.00    -0.200 F 
ATOM     81  F   UNL A   1      33.611  33.271  27.406  1.00  0.00    -0.200 F 
ENDBRANCH  47  71
BRANCH  59  82
ATOM     82  C   UNL A   1      39.118  32.071  35.971  1.00  0.00     0.064 A 
ATOM     83  C   UNL A   1      39.553  33.389  36.170  1.00  0.00     0.173 A 
ATOM     84  C   UNL A   1      38.212  31.530  36.895  1.00  0.00     0.173 A 
ATOM     85  F   UNL A   1      40.430  33.946  35.322  1.00  0.00    -0.203 F 
ATOM     86  C   UNL A   1      39.117  34.127  37.268  1.00  0.00     0.198 A 
ATOM     87  C   UNL A   1      37.758  32.279  37.977  1.00  0.00     0.198 A 
ATOM     88  F   UNL A   1      37.762  30.274  36.746  1.00  0.00    -0.203 F 
ATOM     89  F   UNL A   1      39.583  35.368  37.467  1.00  0.00    -0.200 F 
ATOM     90  C   UNL A   1      38.217  33.573  38.167  1.00  0.00     0.200 A 
ATOM     91  F   UNL A   1      36.880  31.747  38.838  1.00  0.00    -0.200 F 
ATOM     92  F   UNL A   1      37.800  34.285  39.223  1.00  0.00    -0.200 F 
ENDBRANCH  59  82
ENDBRANCH  33  34
ENDBRANCH  26  28
ENDBRANCH  25  26
ENDBRANCH  24  25
ENDBRANCH   1  24
TORSDOF 15
ENDMDL
MODEL 3
REMARK VINA RESULT:     -11.8      1.291      7.554
REMARK SMILES C[N@H+]1CCO[C@@H](COc2ccc(C(=O)OCCOC(=O)c3ccc(-c4c5nc(c(-c6c(F)c(F)c(F)c(F)c6F)c6ccc([nH]6)c(-c6c(F)c(F)c(F)c(F)c6F)c6nc(c(-c7c(F)c(F)c(F)c(F)c7F)c7ccc4[nH]7)C=C6)C=C5)cc3)cc2N)C1
REMARK SMILES IDX 16 1 15 2 13 3 14 4 12 5 9 6 10 7 85 8 11 9 84 10 8 11 7 12
REMARK SMILES IDX 6 13 1 14 2 15 3 16 87 17 4 19 5 20 86 21 17 24 18 25 19 26
REMARK SMILES IDX 20 27 21 28 22 29 83 30 23 31 82 32 24 33 25 34 26 35 76 36
REMARK SMILES IDX 27 37 81 38 75 39 77 40 28 41 80 42 74 43 73 44 29 46 61 47
REMARK SMILES IDX 41 48 60 49 42 50 45 51 59 52 78 53 43 54 44 55 58 57 79 58
REMARK SMILES IDX 46 59 30 60 31 61 39 62 32 63 33 64 37 65 40 66 34 67 35 68
REMARK SMILES IDX 38 69 36 70 62 71 63 72 71 73 64 74 65 75 69 76 72 77 66 78
REMARK SMILES IDX 67 79 70 80 68 81 47 82 48 83 56 84 49 85 50 86 54 87 57 88
REMARK SMILES IDX 51 89 52 90 55 91 53 92
REMARK H PARENT 2 18 86 22 86 23 77 45 45 56
REMARK Flexibility Score: inf
ROOT
ATOM      1  C   UNL A   1      31.002  31.496  25.744  1.00  0.00     0.275 C 
ENDROOT
BRANCH   1   2
ATOM      2  O   UNL A   1      31.792  30.292  25.760  1.00  0.00    -0.458 OA
BRANCH   2   3
ATOM      3  C   UNL A   1      31.398  29.314  24.913  1.00  0.00     0.338 C 
ATOM      4  O   UNL A   1      30.826  29.474  23.844  1.00  0.00    -0.246 OA
BRANCH   3   5
ATOM      5  C   UNL A   1      31.808  27.972  25.402  1.00  0.00     0.062 A 
ATOM      6  C   UNL A   1      32.682  25.425  26.058  1.00  0.00     0.142 A 
ATOM      7  C   UNL A   1      33.623  26.402  25.748  1.00  0.00     0.049 A 
ATOM      8  C   UNL A   1      31.321  25.742  26.225  1.00  0.00     0.075 A 
ATOM      9  C   UNL A   1      33.181  27.671  25.394  1.00  0.00     0.019 A 
ATOM     10  C   UNL A   1      30.889  27.018  25.855  1.00  0.00     0.045 A 
BRANCH   6  11
ATOM     11  O   UNL A   1      33.059  24.109  26.154  1.00  0.00    -0.488 OA
BRANCH  11  12
ATOM     12  C   UNL A   1      34.366  23.882  25.585  1.00  0.00     0.267 C 
BRANCH  12  13
ATOM     13  C   UNL A   1      35.222  22.869  26.376  1.00  0.00     0.210 C 
ATOM     14  C   UNL A   1      33.555  20.638  24.601  1.00  0.00     0.332 C 
ATOM     15  N   UNL A   1      34.604  20.472  25.596  1.00  0.00    -0.333 N 
ATOM     16  C   UNL A   1      35.945  20.429  24.998  1.00  0.00     0.290 C 
ATOM     17  C   UNL A   1      34.590  21.480  26.672  1.00  0.00     0.298 C 
ATOM     18  H   UNL A   1      34.390  19.569  26.019  1.00  0.00     0.348 HD
ATOM     19  C   UNL A   1      36.484  21.817  24.623  1.00  0.00     0.222 C 
ATOM     20  O   UNL A   1      36.517  22.701  25.751  1.00  0.00    -0.363 OA
ENDBRANCH  12  13
ENDBRANCH  11  12
ENDBRANCH   6  11
BRANCH   8  21
ATOM     21  N   UNL A   1      30.391  24.740  26.500  1.00  0.00    -0.396 N 
ATOM     22  H   UNL A   1      30.499  24.171  27.297  1.00  0.00     0.156 HD
ATOM     23  H   UNL A   1      29.624  24.601  25.898  1.00  0.00     0.156 HD
ENDBRANCH   8  21
ENDBRANCH   3   5
ENDBRANCH   2   3
ENDBRANCH   1   2
BRANCH   1  24
ATOM     24  C   UNL A   1      31.587  32.534  26.702  1.00  0.00     0.275 C 
BRANCH  24  25
ATOM     25  O   UNL A   1      32.789  32.040  27.328  1.00  0.00    -0.458 OA
BRANCH  25  26
ATOM     26  C   UNL A   1      33.669  32.992  27.711  1.00  0.00     0.338 C 
ATOM     27  O   UNL A   1      33.459  34.184  27.861  1.00  0.00    -0.246 OA
BRANCH  26  28
ATOM     28  C   UNL A   1      34.958  32.377  28.058  1.00  0.00     0.060 A 
ATOM     29  C   UNL A   1      34.971  31.007  28.310  1.00  0.00     0.016 A 
ATOM     30  C   UNL A   1      36.091  33.146  28.311  1.00  0.00     0.016 A 
ATOM     31  C   UNL A   1      36.083  30.400  28.876  1.00  0.00     0.010 A 
ATOM     32  C   UNL A   1      37.232  32.528  28.842  1.00  0.00     0.010 A 
ATOM     33  C   UNL A   1      37.221  31.158  29.168  1.00  0.00    -0.014 A 
BRANCH  33  34
ATOM     34  C   UNL A   1      38.335  30.525  29.924  1.00  0.00     0.031 A 
ATOM     35  C   UNL A   1      38.511  30.832  31.386  1.00  0.00     0.074 A 
ATOM     36  C   UNL A   1      39.140  29.623  29.331  1.00  0.00     0.049 A 
ATOM     37  N   UNL A   1      39.462  30.458  32.207  1.00  0.00    -0.248 NA
ATOM     38  C   UNL A   1      37.487  31.686  32.006  1.00  0.00     0.031 C 
ATOM     39  C   UNL A   1      39.042  29.189  27.938  1.00  0.00     0.029 A 
ATOM     40  N   UNL A   1      40.192  28.897  29.834  1.00  0.00    -0.354 N 
ATOM     41  C   UNL A   1      39.181  31.077  33.418  1.00  0.00     0.074 A 
ATOM     42  C   UNL A   1      37.974  31.853  33.226  1.00  0.00     0.031 C 
ATOM     43  C   UNL A   1      39.978  28.257  27.703  1.00  0.00     0.029 A 
ATOM     44  C   UNL A   1      40.780  28.070  28.910  1.00  0.00     0.049 A 
ATOM     45  H   UNL A   1      40.496  28.964  30.768  1.00  0.00     0.167 HD
ATOM     46  C   UNL A   1      39.866  31.003  34.584  1.00  0.00     0.037 A 
ATOM     47  C   UNL A   1      41.860  27.273  29.013  1.00  0.00     0.037 A 
ATOM     48  C   UNL A   1      41.029  30.179  34.791  1.00  0.00     0.049 A 
ATOM     49  C   UNL A   1      42.601  27.200  30.319  1.00  0.00     0.074 A 
ATOM     50  C   UNL A   1      41.779  30.018  35.943  1.00  0.00     0.029 A 
ATOM     51  N   UNL A   1      41.601  29.365  33.825  1.00  0.00    -0.354 N 
ATOM     52  N   UNL A   1      42.352  27.819  31.448  1.00  0.00    -0.248 NA
ATOM     53  C   UNL A   1      43.777  26.321  30.366  1.00  0.00     0.031 C 
ATOM     54  C   UNL A   1      42.825  29.131  35.665  1.00  0.00     0.029 A 
ATOM     55  C   UNL A   1      42.701  28.705  34.352  1.00  0.00     0.049 A 
ATOM     56  H   UNL A   1      41.273  29.269  32.901  1.00  0.00     0.167 HD
ATOM     57  C   UNL A   1      43.328  27.397  32.340  1.00  0.00     0.074 A 
ATOM     58  C   UNL A   1      44.161  26.451  31.628  1.00  0.00     0.031 C 
ATOM     59  C   UNL A   1      43.519  27.764  33.631  1.00  0.00     0.037 A 
BRANCH  46  60
ATOM     60  C   UNL A   1      39.398  31.873  35.715  1.00  0.00     0.064 A 
ATOM     61  C   UNL A   1      39.895  33.168  35.917  1.00  0.00     0.173 A 
ATOM     62  C   UNL A   1      38.425  31.397  36.608  1.00  0.00     0.173 A 
ATOM     63  F   UNL A   1      40.838  33.665  35.102  1.00  0.00    -0.203 F 
ATOM     64  C   UNL A   1      39.462  33.942  36.991  1.00  0.00     0.198 A 
ATOM     65  C   UNL A   1      37.971  32.185  37.663  1.00  0.00     0.198 A 
ATOM     66  F   UNL A   1      37.912  30.167  36.457  1.00  0.00    -0.203 F 
ATOM     67  F   UNL A   1      39.992  35.155  37.199  1.00  0.00    -0.200 F 
ATOM     68  C   UNL A   1      38.498  33.452  37.859  1.00  0.00     0.200 A 
ATOM     69  F   UNL A   1      37.031  31.713  38.493  1.00  0.00    -0.200 F 
ATOM     70  F   UNL A   1      38.082  34.198  38.893  1.00  0.00    -0.200 F 
ENDBRANCH  46  60
BRANCH  47  71
ATOM     71  C   UNL A   1      42.314  26.494  27.832  1.00  0.00     0.064 A 
ATOM     72  C   UNL A   1      43.277  27.008  26.953  1.00  0.00     0.173 A 
ATOM     73  C   UNL A   1      41.804  25.214  27.567  1.00  0.00     0.173 A 
ATOM     74  F   UNL A   1      43.776  28.237  27.150  1.00  0.00    -0.203 F 
ATOM     75  C   UNL A   1      43.707  26.274  25.849  1.00  0.00     0.198 A 
ATOM     76  C   UNL A   1      42.256  24.471  26.480  1.00  0.00     0.198 A 
ATOM     77  F   UNL A   1      40.880  24.680  28.378  1.00  0.00    -0.203 F 
ATOM     78  F   UNL A   1      44.603  26.801  25.004  1.00  0.00    -0.200 F 
ATOM     79  C   UNL A   1      43.203  25.002  25.619  1.00  0.00     0.200 A 
ATOM     80  F   UNL A   1      41.775  23.237  26.270  1.00  0.00    -0.200 F 
ATOM     81  F   UNL A   1      43.626  24.292  24.564  1.00  0.00    -0.200 F 
ENDBRANCH  47  71
BRANCH  59  82
ATOM     82  C   UNL A   1      44.656  27.116  34.365  1.00  0.00     0.064 A 
ATOM     83  C   UNL A   1      44.498  25.894  35.035  1.00  0.00     0.173 A 
ATOM     84  C   UNL A   1      45.925  27.714  34.378  1.00  0.00     0.173 A 
ATOM     85  F   UNL A   1      43.301  25.290  35.063  1.00  0.00    -0.203 F 
ATOM     86  C   UNL A   1      45.563  25.309  35.715  1.00  0.00     0.198 A 
ATOM     87  C   UNL A   1      46.994  27.113  35.037  1.00  0.00     0.198 A 
ATOM     88  F   UNL A   1      46.129  28.882  33.748  1.00  0.00    -0.203 F 
ATOM     89  F   UNL A   1      45.378  24.166  36.390  1.00  0.00    -0.200 F 
ATOM     90  C   UNL A   1      46.810  25.916  35.711  1.00  0.00     0.200 A 
ATOM     91  F   UNL A   1      48.201  27.696  35.023  1.00  0.00    -0.200 F 
ATOM     92  F   UNL A   1      47.834  25.351  36.367  1.00  0.00    -0.200 F 
ENDBRANCH  59  82
ENDBRANCH  33  34
ENDBRANCH  26  28
ENDBRANCH  25  26
ENDBRANCH  24  25
ENDBRANCH   1  24
TORSDOF 15
ENDMDL
