MODEL 1
REMARK VINA RESULT:     -13.2      0.000      0.000
REMARK SMILES C[C@H](C(=O)OCCOC(=O)c1ccc(-c2c3nc(c(-c4c(F)c(F)c(F)c(F)c4F)c4ccc([nH]4)c(-c4c(F)c(F)c(F)c(F)c4F)c4nc(c(-c5c(F)c(F)c(F)c(F)c5F)c5ccc2[nH]5)C=C4)C=C3)cc1)c1ccc2c3cc(Cl)ccc3n(C(=O)c3cocn3)c2c1
REMARK SMILES IDX 6 1 5 2 3 3 4 4 2 5 1 6 74 7 75 8 94 9 76 10 93 11 77 12
REMARK SMILES IDX 85 13 78 14 84 15 79 16 83 17 80 18 82 19 81 20 86 21 87 22
REMARK SMILES IDX 88 23 89 24 92 25 90 26 91 27 7 28 8 29 9 30 10 31 11 32
REMARK SMILES IDX 12 33 73 34 13 35 72 36 14 37 15 38 16 39 66 40 17 41 71 42
REMARK SMILES IDX 65 43 67 44 18 45 70 46 64 47 63 48 19 50 51 51 31 52 50 53
REMARK SMILES IDX 32 54 35 55 49 56 68 57 33 58 34 59 48 61 69 62 36 63 20 64
REMARK SMILES IDX 21 65 29 66 22 67 23 68 27 69 30 70 24 71 25 72 28 73 26 74
REMARK SMILES IDX 52 75 53 76 61 77 54 78 55 79 59 80 62 81 56 82 57 83 60 84
REMARK SMILES IDX 58 85 37 86 38 87 46 88 39 89 40 90 44 91 47 92 41 93 42 94
REMARK SMILES IDX 45 95 43 96
REMARK H PARENT 67 49 35 60
REMARK Flexibility Score: inf
ROOT
ATOM      1  C   UNL A   1      32.071  28.966  23.625  1.00  0.00     0.274 C 
ENDROOT
BRANCH   1   2
ATOM      2  O   UNL A   1      32.691  27.693  23.887  1.00  0.00    -0.462 OA
BRANCH   2   3
ATOM      3  C   UNL A   1      31.848  26.624  23.933  1.00  0.00     0.313 C 
ATOM      4  O   UNL A   1      31.202  26.209  22.976  1.00  0.00    -0.252 OA
BRANCH   3   5
ATOM      5  C   UNL A   1      31.829  25.953  25.300  1.00  0.00     0.126 C 
ATOM      6  C   UNL A   1      30.623  26.378  26.149  1.00  0.00     0.025 C 
BRANCH   5   7
ATOM      7  C   UNL A   1      32.033  24.445  25.279  1.00  0.00    -0.032 A 
ATOM      8  C   UNL A   1      31.050  23.533  25.663  1.00  0.00     0.005 A 
ATOM      9  C   UNL A   1      33.268  23.958  24.816  1.00  0.00     0.032 A 
ATOM     10  C   UNL A   1      31.279  22.153  25.592  1.00  0.00     0.011 A 
ATOM     11  C   UNL A   1      33.524  22.575  24.816  1.00  0.00     0.058 A 
ATOM     12  C   UNL A   1      32.533  21.667  25.168  1.00  0.00     0.008 A 
ATOM     13  N   UNL A   1      34.682  21.862  24.475  1.00  0.00    -0.274 N 
ATOM     14  C   UNL A   1      33.077  20.362  25.017  1.00  0.00     0.009 A 
ATOM     15  C   UNL A   1      34.419  20.495  24.637  1.00  0.00     0.057 A 
ATOM     16  C   UNL A   1      32.533  19.077  25.228  1.00  0.00     0.031 A 
ATOM     17  C   UNL A   1      35.253  19.360  24.563  1.00  0.00     0.029 A 
ATOM     18  C   UNL A   1      33.348  17.957  25.100  1.00  0.00     0.041 A 
ATOM     19  C   UNL A   1      34.694  18.095  24.785  1.00  0.00     0.023 A 
ATOM     20  Cl  UNL A   1      32.689  16.392  25.374  1.00  0.00    -0.084 Cl
BRANCH  13  21
ATOM     21  C   UNL A   1      35.907  22.481  24.098  1.00  0.00     0.284 C 
ATOM     22  O   UNL A   1      35.974  22.875  22.934  1.00  0.00    -0.266 OA
BRANCH  21  23
ATOM     23  C   UNL A   1      37.066  22.629  24.971  1.00  0.00     0.167 A 
ATOM     24  C   UNL A   1      37.427  23.701  25.758  1.00  0.00     0.231 A 
ATOM     25  N   UNL A   1      37.940  21.582  25.230  1.00  0.00    -0.211 NA
ATOM     26  O   UNL A   1      38.526  23.353  26.487  1.00  0.00    -0.451 OA
ATOM     27  C   UNL A   1      38.765  22.063  26.128  1.00  0.00     0.308 A 
ENDBRANCH  21  23
ENDBRANCH  13  21
ENDBRANCH   5   7
ENDBRANCH   3   5
ENDBRANCH   2   3
ENDBRANCH   1   2
BRANCH   1  28
ATOM     28  C   UNL A   1      31.819  29.682  24.952  1.00  0.00     0.275 C 
BRANCH  28  29
ATOM     29  O   UNL A   1      33.062  29.787  25.673  1.00  0.00    -0.458 OA
BRANCH  29  30
ATOM     30  C   UNL A   1      33.120  30.742  26.629  1.00  0.00     0.338 C 
ATOM     31  O   UNL A   1      32.265  31.589  26.862  1.00  0.00    -0.246 OA
BRANCH  30  32
ATOM     32  C   UNL A   1      34.371  30.624  27.417  1.00  0.00     0.060 A 
ATOM     33  C   UNL A   1      35.190  31.727  27.674  1.00  0.00     0.016 A 
ATOM     34  C   UNL A   1      34.775  29.362  27.858  1.00  0.00     0.016 A 
ATOM     35  C   UNL A   1      36.429  31.563  28.300  1.00  0.00     0.010 A 
ATOM     36  C   UNL A   1      35.965  29.217  28.579  1.00  0.00     0.010 A 
ATOM     37  C   UNL A   1      36.817  30.313  28.800  1.00  0.00    -0.014 A 
BRANCH  37  38
ATOM     38  C   UNL A   1      38.082  30.132  29.573  1.00  0.00     0.031 A 
ATOM     39  C   UNL A   1      39.195  29.282  29.019  1.00  0.00     0.074 A 
ATOM     40  C   UNL A   1      38.222  30.670  30.802  1.00  0.00     0.049 A 
ATOM     41  N   UNL A   1      40.218  28.747  29.638  1.00  0.00    -0.248 NA
ATOM     42  C   UNL A   1      39.138  28.980  27.581  1.00  0.00     0.031 C 
ATOM     43  C   UNL A   1      37.259  31.550  31.465  1.00  0.00     0.029 A 
ATOM     44  N   UNL A   1      39.234  30.537  31.725  1.00  0.00    -0.354 N 
ATOM     45  C   UNL A   1      40.878  27.981  28.685  1.00  0.00     0.074 A 
ATOM     46  C   UNL A   1      40.154  28.139  27.442  1.00  0.00     0.031 C 
ATOM     47  C   UNL A   1      37.734  31.899  32.669  1.00  0.00     0.029 A 
ATOM     48  C   UNL A   1      38.985  31.189  32.907  1.00  0.00     0.049 A 
ATOM     49  H   UNL A   1      40.056  30.024  31.553  1.00  0.00     0.167 HD
ATOM     50  C   UNL A   1      41.980  27.207  28.842  1.00  0.00     0.037 A 
ATOM     51  C   UNL A   1      39.651  31.176  34.079  1.00  0.00     0.037 A 
ATOM     52  C   UNL A   1      42.744  27.109  30.059  1.00  0.00     0.049 A 
ATOM     53  C   UNL A   1      40.865  30.307  34.232  1.00  0.00     0.074 A 
ATOM     54  C   UNL A   1      43.891  26.373  30.303  1.00  0.00     0.029 A 
ATOM     55  N   UNL A   1      42.449  27.788  31.232  1.00  0.00    -0.354 N 
ATOM     56  N   UNL A   1      41.435  29.522  33.353  1.00  0.00    -0.248 NA
ATOM     57  C   UNL A   1      41.510  30.300  35.553  1.00  0.00     0.031 C 
ATOM     58  C   UNL A   1      44.279  26.589  31.631  1.00  0.00     0.029 A 
ATOM     59  C   UNL A   1      43.390  27.485  32.203  1.00  0.00     0.049 A 
ATOM     60  H   UNL A   1      41.684  28.394  31.357  1.00  0.00     0.167 HD
ATOM     61  C   UNL A   1      42.506  28.933  34.008  1.00  0.00     0.074 A 
ATOM     62  C   UNL A   1      42.521  29.466  35.354  1.00  0.00     0.031 C 
ATOM     63  C   UNL A   1      43.394  28.024  33.536  1.00  0.00     0.037 A 
BRANCH  50  64
ATOM     64  C   UNL A   1      42.414  26.368  27.677  1.00  0.00     0.064 A 
ATOM     65  C   UNL A   1      43.386  26.803  26.766  1.00  0.00     0.173 A 
ATOM     66  C   UNL A   1      41.882  25.079  27.505  1.00  0.00     0.173 A 
ATOM     67  F   UNL A   1      43.917  28.029  26.883  1.00  0.00    -0.203 F 
ATOM     68  C   UNL A   1      43.796  25.988  25.714  1.00  0.00     0.198 A 
ATOM     69  C   UNL A   1      42.311  24.258  26.467  1.00  0.00     0.198 A 
ATOM     70  F   UNL A   1      40.954  24.612  28.355  1.00  0.00    -0.203 F 
ATOM     71  F   UNL A   1      44.703  26.437  24.836  1.00  0.00    -0.200 F 
ATOM     72  C   UNL A   1      43.264  24.715  25.570  1.00  0.00     0.200 A 
ATOM     73  F   UNL A   1      41.806  23.024  26.336  1.00  0.00    -0.200 F 
ATOM     74  F   UNL A   1      43.668  23.928  24.563  1.00  0.00    -0.200 F 
ENDBRANCH  50  64
BRANCH  51  75
ATOM     75  C   UNL A   1      39.145  31.981  35.220  1.00  0.00     0.064 A 
ATOM     76  C   UNL A   1      38.384  31.385  36.234  1.00  0.00     0.173 A 
ATOM     77  C   UNL A   1      39.421  33.352  35.328  1.00  0.00     0.173 A 
ATOM     78  F   UNL A   1      38.070  30.083  36.158  1.00  0.00    -0.203 F 
ATOM     79  C   UNL A   1      37.916  32.131  37.313  1.00  0.00     0.198 A 
ATOM     80  C   UNL A   1      38.977  34.091  36.421  1.00  0.00     0.198 A 
ATOM     81  F   UNL A   1      40.143  33.968  34.380  1.00  0.00    -0.203 F 
ATOM     82  F   UNL A   1      37.163  31.546  38.253  1.00  0.00    -0.200 F 
ATOM     83  C   UNL A   1      38.220  33.481  37.410  1.00  0.00     0.200 A 
ATOM     84  F   UNL A   1      39.284  35.392  36.517  1.00  0.00    -0.200 F 
ATOM     85  F   UNL A   1      37.780  34.196  38.454  1.00  0.00    -0.200 F 
ENDBRANCH  51  75
BRANCH  63  86
ATOM     86  C   UNL A   1      44.472  27.574  34.475  1.00  0.00     0.064 A 
ATOM     87  C   UNL A   1      44.316  26.432  35.273  1.00  0.00     0.173 A 
ATOM     88  C   UNL A   1      45.681  28.279  34.559  1.00  0.00     0.173 A 
ATOM     89  F   UNL A   1      43.168  25.737  35.240  1.00  0.00    -0.203 F 
ATOM     90  C   UNL A   1      45.326  26.023  36.139  1.00  0.00     0.198 A 
ATOM     91  C   UNL A   1      46.698  27.855  35.410  1.00  0.00     0.198 A 
ATOM     92  F   UNL A   1      45.877  29.376  33.815  1.00  0.00    -0.203 F 
ATOM     93  F   UNL A   1      45.141  24.951  36.923  1.00  0.00    -0.200 F 
ATOM     94  C   UNL A   1      46.517  26.731  36.204  1.00  0.00     0.200 A 
ATOM     95  F   UNL A   1      47.849  28.537  35.468  1.00  0.00    -0.200 F 
ATOM     96  F   UNL A   1      47.489  26.335  37.038  1.00  0.00    -0.200 F 
ENDBRANCH  63  86
ENDBRANCH  37  38
ENDBRANCH  30  32
ENDBRANCH  29  30
ENDBRANCH  28  29
ENDBRANCH   1  28
TORSDOF 14
ENDMDL
MODEL 2
REMARK VINA RESULT:     -12.9      1.564      2.905
REMARK SMILES C[C@H](C(=O)OCCOC(=O)c1ccc(-c2c3nc(c(-c4c(F)c(F)c(F)c(F)c4F)c4ccc([nH]4)c(-c4c(F)c(F)c(F)c(F)c4F)c4nc(c(-c5c(F)c(F)c(F)c(F)c5F)c5ccc2[nH]5)C=C4)C=C3)cc1)c1ccc2c3cc(Cl)ccc3n(C(=O)c3cocn3)c2c1
REMARK SMILES IDX 6 1 5 2 3 3 4 4 2 5 1 6 74 7 75 8 94 9 76 10 93 11 77 12
REMARK SMILES IDX 85 13 78 14 84 15 79 16 83 17 80 18 82 19 81 20 86 21 87 22
REMARK SMILES IDX 88 23 89 24 92 25 90 26 91 27 7 28 8 29 9 30 10 31 11 32
REMARK SMILES IDX 12 33 73 34 13 35 72 36 14 37 15 38 16 39 66 40 17 41 71 42
REMARK SMILES IDX 65 43 67 44 18 45 70 46 64 47 63 48 19 50 51 51 31 52 50 53
REMARK SMILES IDX 32 54 35 55 49 56 68 57 33 58 34 59 48 61 69 62 36 63 20 64
REMARK SMILES IDX 21 65 29 66 22 67 23 68 27 69 30 70 24 71 25 72 28 73 26 74
REMARK SMILES IDX 52 75 53 76 61 77 54 78 55 79 59 80 62 81 56 82 57 83 60 84
REMARK SMILES IDX 58 85 37 86 38 87 46 88 39 89 40 90 44 91 47 92 41 93 42 94
REMARK SMILES IDX 45 95 43 96
REMARK H PARENT 67 49 35 60
REMARK Flexibility Score: inf
ROOT
ATOM      1  C   UNL A   1      31.655  29.488  24.033  1.00  0.00     0.274 C 
ENDROOT
BRANCH   1   2
ATOM      2  O   UNL A   1      30.438  28.776  23.743  1.00  0.00    -0.462 OA
BRANCH   2   3
ATOM      3  C   UNL A   1      30.585  27.460  23.428  1.00  0.00     0.313 C 
ATOM      4  O   UNL A   1      30.708  27.030  22.284  1.00  0.00    -0.252 OA
BRANCH   3   5
ATOM      5  C   UNL A   1      30.636  26.564  24.659  1.00  0.00     0.126 C 
ATOM      6  C   UNL A   1      29.460  25.579  24.721  1.00  0.00     0.025 C 
BRANCH   5   7
ATOM      7  C   UNL A   1      31.979  25.897  24.915  1.00  0.00    -0.032 A 
ATOM      8  C   UNL A   1      33.051  26.543  25.530  1.00  0.00     0.005 A 
ATOM      9  C   UNL A   1      32.124  24.550  24.536  1.00  0.00     0.032 A 
ATOM     10  C   UNL A   1      34.256  25.871  25.771  1.00  0.00     0.011 A 
ATOM     11  C   UNL A   1      33.358  23.899  24.710  1.00  0.00     0.058 A 
ATOM     12  C   UNL A   1      34.414  24.534  25.352  1.00  0.00     0.008 A 
ATOM     13  N   UNL A   1      33.764  22.606  24.354  1.00  0.00    -0.274 N 
ATOM     14  C   UNL A   1      35.490  23.607  25.421  1.00  0.00     0.009 A 
ATOM     15  C   UNL A   1      35.096  22.437  24.757  1.00  0.00     0.057 A 
ATOM     16  C   UNL A   1      36.792  23.703  25.957  1.00  0.00     0.031 A 
ATOM     17  C   UNL A   1      36.023  21.398  24.536  1.00  0.00     0.029 A 
ATOM     18  C   UNL A   1      37.685  22.651  25.782  1.00  0.00     0.041 A 
ATOM     19  C   UNL A   1      37.313  21.519  25.069  1.00  0.00     0.023 A 
ATOM     20  Cl  UNL A   1      39.278  22.775  26.421  1.00  0.00    -0.084 Cl
BRANCH  13  21
ATOM     21  C   UNL A   1      32.940  21.687  23.645  1.00  0.00     0.284 C 
ATOM     22  O   UNL A   1      32.415  22.117  22.619  1.00  0.00    -0.266 OA
BRANCH  21  23
ATOM     23  C   UNL A   1      32.654  20.323  24.078  1.00  0.00     0.167 A 
ATOM     24  C   UNL A   1      32.394  19.208  23.311  1.00  0.00     0.231 A 
ATOM     25  N   UNL A   1      32.740  19.930  25.406  1.00  0.00    -0.211 NA
ATOM     26  O   UNL A   1      32.293  18.128  24.137  1.00  0.00    -0.451 OA
ATOM     27  C   UNL A   1      32.528  18.637  25.376  1.00  0.00     0.308 A 
ENDBRANCH  21  23
ENDBRANCH  13  21
ENDBRANCH   5   7
ENDBRANCH   3   5
ENDBRANCH   2   3
ENDBRANCH   1   2
BRANCH   1  28
ATOM     28  C   UNL A   1      31.589  30.031  25.461  1.00  0.00     0.275 C 
BRANCH  28  29
ATOM     29  O   UNL A   1      32.924  30.095  26.002  1.00  0.00    -0.458 OA
BRANCH  29  30
ATOM     30  C   UNL A   1      33.162  31.088  26.888  1.00  0.00     0.338 C 
ATOM     31  O   UNL A   1      32.439  32.053  27.111  1.00  0.00    -0.246 OA
BRANCH  30  32
ATOM     32  C   UNL A   1      34.433  30.851  27.615  1.00  0.00     0.060 A 
ATOM     33  C   UNL A   1      34.847  29.567  27.983  1.00  0.00     0.016 A 
ATOM     34  C   UNL A   1      35.207  31.948  27.999  1.00  0.00     0.016 A 
ATOM     35  C   UNL A   1      35.977  29.385  28.785  1.00  0.00     0.010 A 
ATOM     36  C   UNL A   1      36.397  31.756  28.710  1.00  0.00     0.010 A 
ATOM     37  C   UNL A   1      36.794  30.472  29.125  1.00  0.00    -0.014 A 
BRANCH  37  38
ATOM     38  C   UNL A   1      38.068  30.294  29.882  1.00  0.00     0.031 A 
ATOM     39  C   UNL A   1      39.195  29.488  29.292  1.00  0.00     0.074 A 
ATOM     40  C   UNL A   1      38.206  30.793  31.128  1.00  0.00     0.049 A 
ATOM     41  N   UNL A   1      40.234  28.955  29.885  1.00  0.00    -0.248 NA
ATOM     42  C   UNL A   1      39.133  29.233  27.845  1.00  0.00     0.031 C 
ATOM     43  C   UNL A   1      37.230  31.629  31.826  1.00  0.00     0.029 A 
ATOM     44  N   UNL A   1      39.228  30.652  32.038  1.00  0.00    -0.354 N 
ATOM     45  C   UNL A   1      40.904  28.236  28.902  1.00  0.00     0.074 A 
ATOM     46  C   UNL A   1      40.167  28.420  27.670  1.00  0.00     0.031 C 
ATOM     47  C   UNL A   1      37.706  31.948  33.038  1.00  0.00     0.029 A 
ATOM     48  C   UNL A   1      38.975  31.258  33.244  1.00  0.00     0.049 A 
ATOM     49  H   UNL A   1      40.060  30.163  31.844  1.00  0.00     0.167 HD
ATOM     50  C   UNL A   1      42.023  27.482  29.025  1.00  0.00     0.037 A 
ATOM     51  C   UNL A   1      39.649  31.221  34.409  1.00  0.00     0.037 A 
ATOM     52  C   UNL A   1      42.799  27.360  30.233  1.00  0.00     0.049 A 
ATOM     53  C   UNL A   1      40.884  30.374  34.524  1.00  0.00     0.074 A 
ATOM     54  C   UNL A   1      43.964  26.642  30.444  1.00  0.00     0.029 A 
ATOM     55  N   UNL A   1      42.498  27.993  31.430  1.00  0.00    -0.354 N 
ATOM     56  N   UNL A   1      41.464  29.631  33.615  1.00  0.00    -0.248 NA
ATOM     57  C   UNL A   1      41.539  30.337  35.840  1.00  0.00     0.031 C 
ATOM     58  C   UNL A   1      44.357  26.822  31.775  1.00  0.00     0.029 A 
ATOM     59  C   UNL A   1      43.454  27.678  32.384  1.00  0.00     0.049 A 
ATOM     60  H   UNL A   1      41.721  28.577  31.580  1.00  0.00     0.167 HD
ATOM     61  C   UNL A   1      42.553  29.045  34.243  1.00  0.00     0.074 A 
ATOM     62  C   UNL A   1      42.566  29.532  35.605  1.00  0.00     0.031 C 
ATOM     63  C   UNL A   1      43.456  28.173  33.734  1.00  0.00     0.037 A 
BRANCH  50  64
ATOM     64  C   UNL A   1      42.467  26.692  27.830  1.00  0.00     0.064 A 
ATOM     65  C   UNL A   1      43.292  27.240  26.839  1.00  0.00     0.173 A 
ATOM     66  C   UNL A   1      42.099  25.342  27.706  1.00  0.00     0.173 A 
ATOM     67  F   UNL A   1      43.662  28.528  26.906  1.00  0.00    -0.203 F 
ATOM     68  C   UNL A   1      43.717  26.473  25.757  1.00  0.00     0.198 A 
ATOM     69  C   UNL A   1      42.545  24.571  26.638  1.00  0.00     0.198 A 
ATOM     70  F   UNL A   1      41.317  24.767  28.633  1.00  0.00    -0.203 F 
ATOM     71  F   UNL A   1      44.479  27.026  24.804  1.00  0.00    -0.200 F 
ATOM     72  C   UNL A   1      43.351  25.138  25.661  1.00  0.00     0.200 A 
ATOM     73  F   UNL A   1      42.201  23.279  26.553  1.00  0.00    -0.200 F 
ATOM     74  F   UNL A   1      43.770  24.399  24.626  1.00  0.00    -0.200 F 
ENDBRANCH  50  64
BRANCH  51  75
ATOM     75  C   UNL A   1      39.135  31.976  35.581  1.00  0.00     0.064 A 
ATOM     76  C   UNL A   1      39.466  33.324  35.764  1.00  0.00     0.173 A 
ATOM     77  C   UNL A   1      38.295  31.372  36.528  1.00  0.00     0.173 A 
ATOM     78  F   UNL A   1      40.290  33.935  34.899  1.00  0.00    -0.203 F 
ATOM     79  C   UNL A   1      38.978  34.041  36.854  1.00  0.00     0.198 A 
ATOM     80  C   UNL A   1      37.785  32.097  37.601  1.00  0.00     0.198 A 
ATOM     81  F   UNL A   1      37.952  30.081  36.397  1.00  0.00    -0.203 F 
ATOM     82  F   UNL A   1      39.335  35.320  37.026  1.00  0.00    -0.200 F 
ATOM     83  C   UNL A   1      38.131  33.429  37.767  1.00  0.00     0.200 A 
ATOM     84  F   UNL A   1      36.957  31.506  38.474  1.00  0.00    -0.200 F 
ATOM     85  F   UNL A   1      37.652  34.122  38.808  1.00  0.00    -0.200 F 
ENDBRANCH  51  75
BRANCH  63  86
ATOM     86  C   UNL A   1      44.551  27.715  34.650  1.00  0.00     0.064 A 
ATOM     87  C   UNL A   1      45.751  28.430  34.768  1.00  0.00     0.173 A 
ATOM     88  C   UNL A   1      44.387  26.564  35.434  1.00  0.00     0.173 A 
ATOM     89  F   UNL A   1      45.960  29.526  34.024  1.00  0.00    -0.203 F 
ATOM     90  C   UNL A   1      46.759  27.996  35.625  1.00  0.00     0.198 A 
ATOM     91  C   UNL A   1      45.388  26.145  36.306  1.00  0.00     0.198 A 
ATOM     92  F   UNL A   1      43.256  25.849  35.357  1.00  0.00    -0.203 F 
ATOM     93  F   UNL A   1      47.915  28.671  35.693  1.00  0.00    -0.200 F 
ATOM     94  C   UNL A   1      46.575  26.857  36.396  1.00  0.00     0.200 A 
ATOM     95  F   UNL A   1      45.207  25.048  37.054  1.00  0.00    -0.200 F 
ATOM     96  F   UNL A   1      47.546  26.442  37.221  1.00  0.00    -0.200 F 
ENDBRANCH  63  86
ENDBRANCH  37  38
ENDBRANCH  30  32
ENDBRANCH  29  30
ENDBRANCH  28  29
ENDBRANCH   1  28
TORSDOF 14
ENDMDL
MODEL 3
REMARK VINA RESULT:     -12.6      1.539      2.613
REMARK SMILES C[C@H](C(=O)OCCOC(=O)c1ccc(-c2c3nc(c(-c4c(F)c(F)c(F)c(F)c4F)c4ccc([nH]4)c(-c4c(F)c(F)c(F)c(F)c4F)c4nc(c(-c5c(F)c(F)c(F)c(F)c5F)c5ccc2[nH]5)C=C4)C=C3)cc1)c1ccc2c3cc(Cl)ccc3n(C(=O)c3cocn3)c2c1
REMARK SMILES IDX 6 1 5 2 3 3 4 4 2 5 1 6 74 7 75 8 94 9 76 10 93 11 77 12
REMARK SMILES IDX 85 13 78 14 84 15 79 16 83 17 80 18 82 19 81 20 86 21 87 22
REMARK SMILES IDX 88 23 89 24 92 25 90 26 91 27 7 28 8 29 9 30 10 31 11 32
REMARK SMILES IDX 12 33 73 34 13 35 72 36 14 37 15 38 16 39 66 40 17 41 71 42
REMARK SMILES IDX 65 43 67 44 18 45 70 46 64 47 63 48 19 50 51 51 31 52 50 53
REMARK SMILES IDX 32 54 35 55 49 56 68 57 33 58 34 59 48 61 69 62 36 63 20 64
REMARK SMILES IDX 21 65 29 66 22 67 23 68 27 69 30 70 24 71 25 72 28 73 26 74
REMARK SMILES IDX 52 75 53 76 61 77 54 78 55 79 59 80 62 81 56 82 57 83 60 84
REMARK SMILES IDX 58 85 37 86 38 87 46 88 39 89 40 90 44 91 47 92 41 93 42 94
REMARK SMILES IDX 45 95 43 96
REMARK H PARENT 67 49 35 60
REMARK Flexibility Score: inf
ROOT
ATOM      1  C   UNL A   1      31.407  29.105  24.523  1.00  0.00     0.274 C 
ENDROOT
BRANCH   1   2
ATOM      2  O   UNL A   1      31.526  28.656  23.160  1.00  0.00    -0.462 OA
BRANCH   2   3
ATOM      3  C   UNL A   1      31.233  27.345  22.943  1.00  0.00     0.313 C 
ATOM      4  O   UNL A   1      31.070  26.844  21.834  1.00  0.00    -0.252 OA
BRANCH   3   5
ATOM      5  C   UNL A   1      31.180  26.536  24.233  1.00  0.00     0.126 C 
ATOM      6  C   UNL A   1      29.896  25.702  24.353  1.00  0.00     0.025 C 
BRANCH   5   7
ATOM      7  C   UNL A   1      32.435  25.734  24.541  1.00  0.00    -0.032 A 
ATOM      8  C   UNL A   1      33.600  26.301  25.059  1.00  0.00     0.005 A 
ATOM      9  C   UNL A   1      32.397  24.345  24.320  1.00  0.00     0.032 A 
ATOM     10  C   UNL A   1      34.717  25.511  25.356  1.00  0.00     0.011 A 
ATOM     11  C   UNL A   1      33.544  23.564  24.548  1.00  0.00     0.058 A 
ATOM     12  C   UNL A   1      34.691  24.126  25.094  1.00  0.00     0.008 A 
ATOM     13  N   UNL A   1      33.771  22.197  24.339  1.00  0.00    -0.274 N 
ATOM     14  C   UNL A   1      35.643  23.081  25.252  1.00  0.00     0.009 A 
ATOM     15  C   UNL A   1      35.083  21.905  24.736  1.00  0.00     0.057 A 
ATOM     16  C   UNL A   1      36.963  23.069  25.751  1.00  0.00     0.031 A 
ATOM     17  C   UNL A   1      35.864  20.736  24.622  1.00  0.00     0.029 A 
ATOM     18  C   UNL A   1      37.710  21.897  25.685  1.00  0.00     0.041 A 
ATOM     19  C   UNL A   1      37.175  20.749  25.116  1.00  0.00     0.023 A 
ATOM     20  Cl  UNL A   1      39.325  21.886  26.278  1.00  0.00    -0.084 Cl
BRANCH  13  21
ATOM     21  C   UNL A   1      32.815  21.318  23.756  1.00  0.00     0.284 C 
ATOM     22  O   UNL A   1      32.075  21.815  22.908  1.00  0.00    -0.266 OA
BRANCH  21  23
ATOM     23  C   UNL A   1      32.638  19.918  24.128  1.00  0.00     0.167 A 
ATOM     24  C   UNL A   1      32.408  19.376  25.374  1.00  0.00     0.231 A 
ATOM     25  N   UNL A   1      32.547  18.904  23.185  1.00  0.00    -0.211 NA
ATOM     26  O   UNL A   1      32.199  18.036  25.231  1.00  0.00    -0.451 OA
ATOM     27  C   UNL A   1      32.282  17.830  23.889  1.00  0.00     0.308 A 
ENDBRANCH  21  23
ENDBRANCH  13  21
ENDBRANCH   5   7
ENDBRANCH   3   5
ENDBRANCH   2   3
ENDBRANCH   1   2
BRANCH   1  28
ATOM     28  C   UNL A   1      32.742  29.701  24.972  1.00  0.00     0.275 C 
BRANCH  28  29
ATOM     29  O   UNL A   1      32.764  29.774  26.411  1.00  0.00    -0.458 OA
BRANCH  29  30
ATOM     30  C   UNL A   1      33.128  30.963  26.943  1.00  0.00     0.338 C 
ATOM     31  O   UNL A   1      32.521  32.023  26.838  1.00  0.00    -0.246 OA
BRANCH  30  32
ATOM     32  C   UNL A   1      34.380  30.826  27.727  1.00  0.00     0.060 A 
ATOM     33  C   UNL A   1      35.207  31.921  27.997  1.00  0.00     0.016 A 
ATOM     34  C   UNL A   1      34.776  29.557  28.153  1.00  0.00     0.016 A 
ATOM     35  C   UNL A   1      36.446  31.741  28.619  1.00  0.00     0.010 A 
ATOM     36  C   UNL A   1      35.966  29.395  28.870  1.00  0.00     0.010 A 
ATOM     37  C   UNL A   1      36.826  30.483  29.104  1.00  0.00    -0.014 A 
BRANCH  37  38
ATOM     38  C   UNL A   1      38.090  30.284  29.872  1.00  0.00     0.031 A 
ATOM     39  C   UNL A   1      39.208  29.455  29.294  1.00  0.00     0.074 A 
ATOM     40  C   UNL A   1      38.226  30.785  31.117  1.00  0.00     0.049 A 
ATOM     41  N   UNL A   1      40.232  28.906  29.898  1.00  0.00    -0.248 NA
ATOM     42  C   UNL A   1      39.154  29.197  27.848  1.00  0.00     0.031 C 
ATOM     43  C   UNL A   1      37.260  31.641  31.805  1.00  0.00     0.029 A 
ATOM     44  N   UNL A   1      39.238  30.629  32.037  1.00  0.00    -0.354 N 
ATOM     45  C   UNL A   1      40.897  28.172  28.924  1.00  0.00     0.074 A 
ATOM     46  C   UNL A   1      40.174  28.365  27.685  1.00  0.00     0.031 C 
ATOM     47  C   UNL A   1      37.731  31.956  33.019  1.00  0.00     0.029 A 
ATOM     48  C   UNL A   1      38.985  31.244  33.238  1.00  0.00     0.049 A 
ATOM     49  H   UNL A   1      40.062  30.125  31.851  1.00  0.00     0.167 HD
ATOM     50  C   UNL A   1      42.002  27.398  29.059  1.00  0.00     0.037 A 
ATOM     51  C   UNL A   1      39.649  31.199  34.409  1.00  0.00     0.037 A 
ATOM     52  C   UNL A   1      42.765  27.268  30.274  1.00  0.00     0.049 A 
ATOM     53  C   UNL A   1      40.867  30.331  34.538  1.00  0.00     0.074 A 
ATOM     54  C   UNL A   1      43.915  26.530  30.497  1.00  0.00     0.029 A 
ATOM     55  N   UNL A   1      42.465  27.910  31.466  1.00  0.00    -0.354 N 
ATOM     56  N   UNL A   1      41.442  29.575  33.637  1.00  0.00    -0.248 NA
ATOM     57  C   UNL A   1      41.511  30.287  35.859  1.00  0.00     0.031 C 
ATOM     58  C   UNL A   1      44.300  26.707  31.831  1.00  0.00     0.029 A 
ATOM     59  C   UNL A   1      43.407  27.581  32.429  1.00  0.00     0.049 A 
ATOM     60  H   UNL A   1      41.697  28.508  31.608  1.00  0.00     0.167 HD
ATOM     61  C   UNL A   1      42.515  28.971  34.276  1.00  0.00     0.074 A 
ATOM     62  C   UNL A   1      42.525  29.463  35.637  1.00  0.00     0.031 C 
ATOM     63  C   UNL A   1      43.407  28.081  33.778  1.00  0.00     0.037 A 
BRANCH  50  64
ATOM     64  C   UNL A   1      42.441  26.597  27.870  1.00  0.00     0.064 A 
ATOM     65  C   UNL A   1      41.973  25.298  27.632  1.00  0.00     0.173 A 
ATOM     66  C   UNL A   1      43.308  27.167  26.923  1.00  0.00     0.173 A 
ATOM     67  F   UNL A   1      41.151  24.707  28.512  1.00  0.00    -0.203 F 
ATOM     68  C   UNL A   1      42.370  24.590  26.500  1.00  0.00     0.198 A 
ATOM     69  C   UNL A   1      43.684  26.467  25.781  1.00  0.00     0.198 A 
ATOM     70  F   UNL A   1      43.778  28.411  27.100  1.00  0.00    -0.203 F 
ATOM     71  F   UNL A   1      41.936  23.337  26.309  1.00  0.00    -0.200 F 
ATOM     72  C   UNL A   1      43.219  25.178  25.572  1.00  0.00     0.200 A 
ATOM     73  F   UNL A   1      44.494  27.040  24.880  1.00  0.00    -0.200 F 
ATOM     74  F   UNL A   1      43.591  24.499  24.479  1.00  0.00    -0.200 F 
ENDBRANCH  50  64
BRANCH  51  75
ATOM     75  C   UNL A   1      39.138  31.967  35.574  1.00  0.00     0.064 A 
ATOM     76  C   UNL A   1      38.312  31.357  36.526  1.00  0.00     0.173 A 
ATOM     77  C   UNL A   1      39.476  33.315  35.766  1.00  0.00     0.173 A 
ATOM     78  F   UNL A   1      37.939  30.078  36.368  1.00  0.00    -0.203 F 
ATOM     79  C   UNL A   1      37.838  32.068  37.626  1.00  0.00     0.198 A 
ATOM     80  C   UNL A   1      39.025  34.017  36.880  1.00  0.00     0.198 A 
ATOM     81  F   UNL A   1      40.262  33.943  34.879  1.00  0.00    -0.203 F 
ATOM     82  F   UNL A   1      37.022  31.472  38.505  1.00  0.00    -0.200 F 
ATOM     83  C   UNL A   1      38.203  33.394  37.807  1.00  0.00     0.200 A 
ATOM     84  F   UNL A   1      39.390  35.294  37.058  1.00  0.00    -0.200 F 
ATOM     85  F   UNL A   1      37.757  34.074  38.871  1.00  0.00    -0.200 F 
ENDBRANCH  51  75
BRANCH  63  86
ATOM     86  C   UNL A   1      44.485  27.607  34.704  1.00  0.00     0.064 A 
ATOM     87  C   UNL A   1      44.334  26.440  35.465  1.00  0.00     0.173 A 
ATOM     88  C   UNL A   1      45.691  28.315  34.813  1.00  0.00     0.173 A 
ATOM     89  F   UNL A   1      43.191  25.740  35.408  1.00  0.00    -0.203 F 
ATOM     90  C   UNL A   1      45.345  26.009  36.320  1.00  0.00     0.198 A 
ATOM     91  C   UNL A   1      46.708  27.870  35.652  1.00  0.00     0.198 A 
ATOM     92  F   UNL A   1      45.882  29.437  34.103  1.00  0.00    -0.203 F 
ATOM     93  F   UNL A   1      45.165  24.912  37.069  1.00  0.00    -0.200 F 
ATOM     94  C   UNL A   1      46.532  26.721  36.409  1.00  0.00     0.200 A 
ATOM     95  F   UNL A   1      47.856  28.556  35.733  1.00  0.00    -0.200 F 
ATOM     96  F   UNL A   1      47.505  26.304  37.232  1.00  0.00    -0.200 F 
ENDBRANCH  63  86
ENDBRANCH  37  38
ENDBRANCH  30  32
ENDBRANCH  29  30
ENDBRANCH  28  29
ENDBRANCH   1  28
TORSDOF 14
ENDMDL
