MODEL 1
REMARK VINA RESULT:      -9.9      0.000      0.000
REMARK SMILES C/C=C/C=C/C(=O)N[C@@H](C)CC(=O)OCCOC(=O)c1ccc(-c2c3nc(c(-c4c(F)c(F)c(F)c(F)c4F)c4ccc([nH]4)c(-c4c(F)c(F)c(F)c(F)c4F)c4nc(c(-c5c(F)c(F)c(F)c(F)c5F)c5ccc2[nH]5)C=C4)C=C3)cc1
REMARK SMILES IDX 15 1 14 2 12 3 13 4 11 5 9 6 10 7 8 8 6 9 7 10 5 12 4 13
REMARK SMILES IDX 3 14 1 15 2 16 16 17 17 18 18 19 19 20 20 21 21 22 82 23
REMARK SMILES IDX 22 24 81 25 23 26 24 27 25 28 75 29 26 30 80 31 74 32 76 33
REMARK SMILES IDX 27 34 79 35 73 36 72 37 28 39 60 40 40 41 59 42 41 43 44 44
REMARK SMILES IDX 58 45 77 46 42 47 43 48 57 50 78 51 45 52 29 53 30 54 38 55
REMARK SMILES IDX 31 56 32 57 36 58 39 59 33 60 34 61 37 62 35 63 61 64 62 65
REMARK SMILES IDX 70 66 63 67 64 68 68 69 71 70 65 71 66 72 69 73 67 74 46 75
REMARK SMILES IDX 47 76 55 77 48 78 49 79 53 80 56 81 50 82 51 83 54 84 52 85
REMARK H PARENT 8 11 76 38 44 49
REMARK Flexibility Score: inf
ROOT
ATOM      1  C   UNL A   1      33.940  33.865  28.655  1.00  0.00     0.274 C 
ENDROOT
BRANCH   1   2
ATOM      2  O   UNL A   1      32.884  34.400  29.480  1.00  0.00    -0.462 OA
BRANCH   2   3
ATOM      3  C   UNL A   1      32.812  35.752  29.567  1.00  0.00     0.307 C 
ATOM      4  O   UNL A   1      32.151  36.469  28.824  1.00  0.00    -0.252 OA
BRANCH   3   5
ATOM      5  C   UNL A   1      33.710  36.311  30.643  1.00  0.00     0.147 C 
BRANCH   5   6
ATOM      6  C   UNL A   1      33.061  36.371  32.032  1.00  0.00     0.090 C 
ATOM      7  C   UNL A   1      33.933  37.204  32.977  1.00  0.00     0.031 C 
BRANCH   6   8
ATOM      8  N   UNL A   1      32.909  35.035  32.608  1.00  0.00    -0.350 N 
ATOM      9  C   UNL A   1      33.773  33.991  32.718  1.00  0.00     0.244 C 
ATOM     10  O   UNL A   1      33.410  32.982  33.321  1.00  0.00    -0.270 OA
ATOM     11  H   UNL A   1      32.018  34.860  32.987  1.00  0.00     0.164 HD
BRANCH   9  12
ATOM     12  C   UNL A   1      35.163  34.065  32.226  1.00  0.00     0.071 C 
ATOM     13  C   UNL A   1      35.861  33.079  31.642  1.00  0.00     0.005 C 
BRANCH  13  14
ATOM     14  C   UNL A   1      37.194  33.299  31.121  1.00  0.00    -0.004 C 
ATOM     15  C   UNL A   1      38.797  33.904  29.302  1.00  0.00     0.035 C 
ATOM     16  C   UNL A   1      37.439  33.572  29.830  1.00  0.00    -0.030 C 
ENDBRANCH  13  14
ENDBRANCH   9  12
ENDBRANCH   6   8
ENDBRANCH   5   6
ENDBRANCH   3   5
ENDBRANCH   2   3
ENDBRANCH   1   2
BRANCH   1  17
ATOM     17  C   UNL A   1      33.545  32.571  27.936  1.00  0.00     0.275 C 
BRANCH  17  18
ATOM     18  O   UNL A   1      34.686  31.867  27.407  1.00  0.00    -0.458 OA
BRANCH  18  19
ATOM     19  C   UNL A   1      34.741  30.568  27.771  1.00  0.00     0.338 C 
ATOM     20  O   UNL A   1      33.852  29.746  27.646  1.00  0.00    -0.246 OA
BRANCH  19  21
ATOM     21  C   UNL A   1      36.068  30.193  28.266  1.00  0.00     0.060 A 
ATOM     22  C   UNL A   1      37.140  30.217  27.367  1.00  0.00     0.016 A 
ATOM     23  C   UNL A   1      36.235  29.710  29.564  1.00  0.00     0.016 A 
ATOM     24  C   UNL A   1      38.396  29.776  27.771  1.00  0.00     0.010 A 
ATOM     25  C   UNL A   1      37.498  29.268  29.969  1.00  0.00     0.010 A 
ATOM     26  C   UNL A   1      38.583  29.302  29.076  1.00  0.00    -0.014 A 
BRANCH  26  27
ATOM     27  C   UNL A   1      39.928  28.882  29.526  1.00  0.00     0.031 A 
ATOM     28  C   UNL A   1      40.737  29.756  30.435  1.00  0.00     0.074 A 
ATOM     29  C   UNL A   1      40.422  27.710  29.089  1.00  0.00     0.049 A 
ATOM     30  N   UNL A   1      41.967  29.599  30.851  1.00  0.00    -0.248 NA
ATOM     31  C   UNL A   1      40.075  30.966  30.944  1.00  0.00     0.031 C 
ATOM     32  C   UNL A   1      39.709  26.768  28.225  1.00  0.00     0.029 A 
ATOM     33  N   UNL A   1      41.642  27.120  29.296  1.00  0.00    -0.354 N 
ATOM     34  C   UNL A   1      42.235  30.692  31.661  1.00  0.00     0.074 A 
ATOM     35  C   UNL A   1      41.042  31.514  31.671  1.00  0.00     0.031 C 
ATOM     36  C   UNL A   1      40.509  25.722  27.966  1.00  0.00     0.029 A 
ATOM     37  C   UNL A   1      41.801  25.943  28.609  1.00  0.00     0.049 A 
ATOM     38  H   UNL A   1      42.336  27.503  29.880  1.00  0.00     0.167 HD
ATOM     39  C   UNL A   1      43.376  30.978  32.334  1.00  0.00     0.037 A 
ATOM     40  C   UNL A   1      42.880  25.148  28.485  1.00  0.00     0.037 A 
ATOM     41  C   UNL A   1      44.556  30.153  32.321  1.00  0.00     0.049 A 
ATOM     42  C   UNL A   1      44.152  25.523  29.189  1.00  0.00     0.074 A 
ATOM     43  C   UNL A   1      45.751  30.343  32.995  1.00  0.00     0.029 A 
ATOM     44  N   UNL A   1      44.693  28.982  31.590  1.00  0.00    -0.354 N 
ATOM     45  N   UNL A   1      44.394  26.553  29.963  1.00  0.00    -0.248 NA
ATOM     46  C   UNL A   1      45.303  24.630  28.998  1.00  0.00     0.031 C 
ATOM     47  C   UNL A   1      46.624  29.308  32.640  1.00  0.00     0.029 A 
ATOM     48  C   UNL A   1      45.960  28.452  31.775  1.00  0.00     0.049 A 
ATOM     49  H   UNL A   1      43.992  28.585  31.023  1.00  0.00     0.167 HD
ATOM     50  C   UNL A   1      45.717  26.427  30.361  1.00  0.00     0.074 A 
ATOM     51  C   UNL A   1      46.223  25.213  29.754  1.00  0.00     0.031 C 
ATOM     52  C   UNL A   1      46.447  27.246  31.156  1.00  0.00     0.037 A 
BRANCH  39  53
ATOM     53  C   UNL A   1      43.415  32.251  33.124  1.00  0.00     0.064 A 
ATOM     54  C   UNL A   1      43.839  33.458  32.552  1.00  0.00     0.173 A 
ATOM     55  C   UNL A   1      42.976  32.271  34.457  1.00  0.00     0.173 A 
ATOM     56  F   UNL A   1      44.279  33.487  31.284  1.00  0.00    -0.203 F 
ATOM     57  C   UNL A   1      43.837  34.639  33.290  1.00  0.00     0.198 A 
ATOM     58  C   UNL A   1      42.957  33.457  35.186  1.00  0.00     0.198 A 
ATOM     59  F   UNL A   1      42.558  31.143  35.049  1.00  0.00    -0.203 F 
ATOM     60  F   UNL A   1      44.276  35.777  32.734  1.00  0.00    -0.200 F 
ATOM     61  C   UNL A   1      43.391  34.639  34.604  1.00  0.00     0.200 A 
ATOM     62  F   UNL A   1      42.518  33.457  36.452  1.00  0.00    -0.200 F 
ATOM     63  F   UNL A   1      43.384  35.778  35.311  1.00  0.00    -0.200 F 
ENDBRANCH  39  53
BRANCH  40  64
ATOM     64  C   UNL A   1      42.802  23.934  27.635  1.00  0.00     0.064 A 
ATOM     65  C   UNL A   1      43.128  23.984  26.275  1.00  0.00     0.173 A 
ATOM     66  C   UNL A   1      42.418  22.697  28.174  1.00  0.00     0.173 A 
ATOM     67  F   UNL A   1      43.479  25.150  25.713  1.00  0.00    -0.203 F 
ATOM     68  C   UNL A   1      43.067  22.841  25.481  1.00  0.00     0.198 A 
ATOM     69  C   UNL A   1      42.379  21.551  27.384  1.00  0.00     0.198 A 
ATOM     70  F   UNL A   1      42.096  22.601  29.472  1.00  0.00    -0.203 F 
ATOM     71  F   UNL A   1      43.354  22.920  24.174  1.00  0.00    -0.200 F 
ATOM     72  C   UNL A   1      42.700  21.624  26.037  1.00  0.00     0.200 A 
ATOM     73  F   UNL A   1      42.034  20.375  27.929  1.00  0.00    -0.200 F 
ATOM     74  F   UNL A   1      42.650  20.525  25.274  1.00  0.00    -0.200 F 
ENDBRANCH  40  64
BRANCH  52  75
ATOM     75  C   UNL A   1      47.867  26.846  31.425  1.00  0.00     0.064 A 
ATOM     76  C   UNL A   1      48.926  27.364  30.668  1.00  0.00     0.173 A 
ATOM     77  C   UNL A   1      48.171  25.963  32.472  1.00  0.00     0.173 A 
ATOM     78  F   UNL A   1      48.681  28.197  29.645  1.00  0.00    -0.203 F 
ATOM     79  C   UNL A   1      50.242  26.997  30.937  1.00  0.00     0.198 A 
ATOM     80  C   UNL A   1      49.490  25.616  32.752  1.00  0.00     0.198 A 
ATOM     81  F   UNL A   1      47.190  25.444  33.225  1.00  0.00    -0.203 F 
ATOM     82  F   UNL A   1      51.237  27.474  30.177  1.00  0.00    -0.200 F 
ATOM     83  C   UNL A   1      50.523  26.130  31.982  1.00  0.00     0.200 A 
ATOM     84  F   UNL A   1      49.760  24.784  33.766  1.00  0.00    -0.200 F 
ATOM     85  F   UNL A   1      51.790  25.781  32.242  1.00  0.00    -0.200 F 
ENDBRANCH  52  75
ENDBRANCH  26  27
ENDBRANCH  19  21
ENDBRANCH  18  19
ENDBRANCH  17  18
ENDBRANCH   1  17
TORSDOF 15
ENDMDL
MODEL 2
REMARK VINA RESULT:      -9.8      3.849      9.478
REMARK SMILES C/C=C/C=C/C(=O)N[C@@H](C)CC(=O)OCCOC(=O)c1ccc(-c2c3nc(c(-c4c(F)c(F)c(F)c(F)c4F)c4ccc([nH]4)c(-c4c(F)c(F)c(F)c(F)c4F)c4nc(c(-c5c(F)c(F)c(F)c(F)c5F)c5ccc2[nH]5)C=C4)C=C3)cc1
REMARK SMILES IDX 15 1 14 2 12 3 13 4 11 5 9 6 10 7 8 8 6 9 7 10 5 12 4 13
REMARK SMILES IDX 3 14 1 15 2 16 16 17 17 18 18 19 19 20 20 21 21 22 82 23
REMARK SMILES IDX 22 24 81 25 23 26 24 27 25 28 75 29 26 30 80 31 74 32 76 33
REMARK SMILES IDX 27 34 79 35 73 36 72 37 28 39 60 40 40 41 59 42 41 43 44 44
REMARK SMILES IDX 58 45 77 46 42 47 43 48 57 50 78 51 45 52 29 53 30 54 38 55
REMARK SMILES IDX 31 56 32 57 36 58 39 59 33 60 34 61 37 62 35 63 61 64 62 65
REMARK SMILES IDX 70 66 63 67 64 68 68 69 71 70 65 71 66 72 69 73 67 74 46 75
REMARK SMILES IDX 47 76 55 77 48 78 49 79 53 80 56 81 50 82 51 83 54 84 52 85
REMARK H PARENT 8 11 76 38 44 49
REMARK Flexibility Score: inf
ROOT
ATOM      1  C   UNL A   1      31.663  28.636  26.837  1.00  0.00     0.274 C 
ENDROOT
BRANCH   1   2
ATOM      2  O   UNL A   1      31.199  27.471  26.125  1.00  0.00    -0.462 OA
BRANCH   2   3
ATOM      3  C   UNL A   1      31.846  26.307  26.387  1.00  0.00     0.307 C 
ATOM      4  O   UNL A   1      31.367  25.359  26.999  1.00  0.00    -0.252 OA
BRANCH   3   5
ATOM      5  C   UNL A   1      33.277  26.320  25.908  1.00  0.00     0.147 C 
BRANCH   5   6
ATOM      6  C   UNL A   1      33.570  25.326  24.777  1.00  0.00     0.090 C 
ATOM      7  C   UNL A   1      34.723  24.403  25.183  1.00  0.00     0.031 C 
BRANCH   6   8
ATOM      8  N   UNL A   1      33.950  26.017  23.545  1.00  0.00    -0.350 N 
ATOM      9  C   UNL A   1      33.219  26.709  22.631  1.00  0.00     0.244 C 
ATOM     10  O   UNL A   1      33.804  27.264  21.701  1.00  0.00    -0.270 OA
ATOM     11  H   UNL A   1      34.911  25.972  23.339  1.00  0.00     0.164 HD
BRANCH   9  12
ATOM     12  C   UNL A   1      31.761  26.902  22.772  1.00  0.00     0.071 C 
ATOM     13  C   UNL A   1      31.096  28.064  22.699  1.00  0.00     0.005 C 
BRANCH  13  14
ATOM     14  C   UNL A   1      29.650  28.116  22.768  1.00  0.00    -0.004 C 
ATOM     15  C   UNL A   1      27.477  29.335  22.952  1.00  0.00     0.035 C 
ATOM     16  C   UNL A   1      28.969  29.252  22.982  1.00  0.00    -0.030 C 
ENDBRANCH  13  14
ENDBRANCH   9  12
ENDBRANCH   6   8
ENDBRANCH   5   6
ENDBRANCH   3   5
ENDBRANCH   2   3
ENDBRANCH   1   2
BRANCH   1  17
ATOM     17  C   UNL A   1      31.877  29.851  25.928  1.00  0.00     0.275 C 
BRANCH  17  18
ATOM     18  O   UNL A   1      33.234  30.336  25.969  1.00  0.00    -0.458 OA
BRANCH  18  19
ATOM     19  C   UNL A   1      33.451  31.263  26.926  1.00  0.00     0.338 C 
ATOM     20  O   UNL A   1      32.733  32.212  27.187  1.00  0.00    -0.246 OA
BRANCH  19  21
ATOM     21  C   UNL A   1      34.637  30.956  27.730  1.00  0.00     0.060 A 
ATOM     22  C   UNL A   1      35.579  31.970  27.932  1.00  0.00     0.016 A 
ATOM     23  C   UNL A   1      34.876  29.657  28.179  1.00  0.00     0.016 A 
ATOM     24  C   UNL A   1      36.764  31.692  28.607  1.00  0.00     0.010 A 
ATOM     25  C   UNL A   1      36.066  29.380  28.859  1.00  0.00     0.010 A 
ATOM     26  C   UNL A   1      37.013  30.396  29.078  1.00  0.00    -0.014 A 
BRANCH  26  27
ATOM     27  C   UNL A   1      38.246  30.109  29.842  1.00  0.00     0.031 A 
ATOM     28  C   UNL A   1      39.293  29.193  29.286  1.00  0.00     0.074 A 
ATOM     29  C   UNL A   1      38.404  30.668  31.055  1.00  0.00     0.049 A 
ATOM     30  N   UNL A   1      40.386  28.749  29.851  1.00  0.00    -0.248 NA
ATOM     31  C   UNL A   1      39.085  28.713  27.911  1.00  0.00     0.031 C 
ATOM     32  C   UNL A   1      37.461  31.597  31.680  1.00  0.00     0.029 A 
ATOM     33  N   UNL A   1      39.401  30.524  31.984  1.00  0.00    -0.354 N 
ATOM     34  C   UNL A   1      40.992  27.929  28.911  1.00  0.00     0.074 A 
ATOM     35  C   UNL A   1      40.140  27.927  27.739  1.00  0.00     0.031 C 
ATOM     36  C   UNL A   1      37.920  31.932  32.895  1.00  0.00     0.029 A 
ATOM     37  C   UNL A   1      39.163  31.208  33.149  1.00  0.00     0.049 A 
ATOM     38  H   UNL A   1      40.210  29.984  31.830  1.00  0.00     0.167 HD
ATOM     39  C   UNL A   1      42.156  27.244  29.022  1.00  0.00     0.037 A 
ATOM     40  C   UNL A   1      39.852  31.223  34.305  1.00  0.00     0.037 A 
ATOM     41  C   UNL A   1      42.998  27.255  30.190  1.00  0.00     0.049 A 
ATOM     42  C   UNL A   1      41.104  30.403  34.422  1.00  0.00     0.074 A 
ATOM     43  C   UNL A   1      44.211  26.618  30.387  1.00  0.00     0.029 A 
ATOM     44  N   UNL A   1      42.711  27.936  31.364  1.00  0.00    -0.354 N 
ATOM     45  N   UNL A   1      41.678  29.639  33.525  1.00  0.00    -0.248 NA
ATOM     46  C   UNL A   1      41.801  30.440  35.715  1.00  0.00     0.031 C 
ATOM     47  C   UNL A   1      44.638  26.880  31.694  1.00  0.00     0.029 A 
ATOM     48  C   UNL A   1      43.710  27.712  32.299  1.00  0.00     0.049 A 
ATOM     49  H   UNL A   1      41.915  28.496  31.512  1.00  0.00     0.167 HD
ATOM     50  C   UNL A   1      42.806  29.114  34.137  1.00  0.00     0.074 A 
ATOM     51  C   UNL A   1      42.846  29.658  35.479  1.00  0.00     0.031 C 
ATOM     52  C   UNL A   1      43.727  28.257  33.632  1.00  0.00     0.037 A 
BRANCH  39  53
ATOM     53  C   UNL A   1      42.578  26.401  27.857  1.00  0.00     0.064 A 
ATOM     54  C   UNL A   1      42.070  25.108  27.664  1.00  0.00     0.173 A 
ATOM     55  C   UNL A   1      43.464  26.911  26.897  1.00  0.00     0.173 A 
ATOM     56  F   UNL A   1      41.229  24.572  28.561  1.00  0.00    -0.203 F 
ATOM     57  C   UNL A   1      42.447  24.350  26.558  1.00  0.00     0.198 A 
ATOM     58  C   UNL A   1      43.823  26.159  25.782  1.00  0.00     0.198 A 
ATOM     59  F   UNL A   1      43.975  28.144  27.035  1.00  0.00    -0.203 F 
ATOM     60  F   UNL A   1      41.974  23.105  26.408  1.00  0.00    -0.200 F 
ATOM     61  C   UNL A   1      43.318  24.878  25.615  1.00  0.00     0.200 A 
ATOM     62  F   UNL A   1      44.658  26.672  24.868  1.00  0.00    -0.200 F 
ATOM     63  F   UNL A   1      43.674  24.149  24.548  1.00  0.00    -0.200 F 
ENDBRANCH  39  53
BRANCH  40  64
ATOM     64  C   UNL A   1      39.351  32.027  35.447  1.00  0.00     0.064 A 
ATOM     65  C   UNL A   1      38.499  31.463  36.405  1.00  0.00     0.173 A 
ATOM     66  C   UNL A   1      39.729  33.367  35.612  1.00  0.00     0.173 A 
ATOM     67  F   UNL A   1      38.093  30.192  36.275  1.00  0.00    -0.203 F 
ATOM     68  C   UNL A   1      38.038  32.214  37.484  1.00  0.00     0.198 A 
ATOM     69  C   UNL A   1      39.287  34.109  36.703  1.00  0.00     0.198 A 
ATOM     70  F   UNL A   1      40.543  33.949  34.719  1.00  0.00    -0.203 F 
ATOM     71  F   UNL A   1      37.199  31.663  38.371  1.00  0.00    -0.200 F 
ATOM     72  C   UNL A   1      38.438  33.534  37.637  1.00  0.00     0.200 A 
ATOM     73  F   UNL A   1      39.685  35.381  36.852  1.00  0.00    -0.200 F 
ATOM     74  F   UNL A   1      38.002  34.252  38.680  1.00  0.00    -0.200 F 
ENDBRANCH  40  64
BRANCH  52  75
ATOM     75  C   UNL A   1      44.861  27.868  34.532  1.00  0.00     0.064 A 
ATOM     76  C   UNL A   1      46.032  28.635  34.601  1.00  0.00     0.173 A 
ATOM     77  C   UNL A   1      44.759  26.739  35.357  1.00  0.00     0.173 A 
ATOM     78  F   UNL A   1      46.181  29.713  33.817  1.00  0.00    -0.203 F 
ATOM     79  C   UNL A   1      47.072  28.274  35.454  1.00  0.00     0.198 A 
ATOM     80  C   UNL A   1      45.792  26.394  36.224  1.00  0.00     0.198 A 
ATOM     81  F   UNL A   1      43.656  25.977  35.328  1.00  0.00    -0.203 F 
ATOM     82  F   UNL A   1      48.199  28.998  35.477  1.00  0.00    -0.200 F 
ATOM     83  C   UNL A   1      46.949  27.158  36.268  1.00  0.00     0.200 A 
ATOM     84  F   UNL A   1      45.669  25.320  37.016  1.00  0.00    -0.200 F 
ATOM     85  F   UNL A   1      47.949  26.813  37.091  1.00  0.00    -0.200 F 
ENDBRANCH  52  75
ENDBRANCH  26  27
ENDBRANCH  19  21
ENDBRANCH  18  19
ENDBRANCH  17  18
ENDBRANCH   1  17
TORSDOF 15
ENDMDL
MODEL 3
REMARK VINA RESULT:      -9.7      4.160      9.386
REMARK SMILES C/C=C/C=C/C(=O)N[C@@H](C)CC(=O)OCCOC(=O)c1ccc(-c2c3nc(c(-c4c(F)c(F)c(F)c(F)c4F)c4ccc([nH]4)c(-c4c(F)c(F)c(F)c(F)c4F)c4nc(c(-c5c(F)c(F)c(F)c(F)c5F)c5ccc2[nH]5)C=C4)C=C3)cc1
REMARK SMILES IDX 15 1 14 2 12 3 13 4 11 5 9 6 10 7 8 8 6 9 7 10 5 12 4 13
REMARK SMILES IDX 3 14 1 15 2 16 16 17 17 18 18 19 19 20 20 21 21 22 82 23
REMARK SMILES IDX 22 24 81 25 23 26 24 27 25 28 75 29 26 30 80 31 74 32 76 33
REMARK SMILES IDX 27 34 79 35 73 36 72 37 28 39 60 40 40 41 59 42 41 43 44 44
REMARK SMILES IDX 58 45 77 46 42 47 43 48 57 50 78 51 45 52 29 53 30 54 38 55
REMARK SMILES IDX 31 56 32 57 36 58 39 59 33 60 34 61 37 62 35 63 61 64 62 65
REMARK SMILES IDX 70 66 63 67 64 68 68 69 71 70 65 71 66 72 69 73 67 74 46 75
REMARK SMILES IDX 47 76 55 77 48 78 49 79 53 80 56 81 50 82 51 83 54 84 52 85
REMARK H PARENT 8 11 76 38 44 49
REMARK Flexibility Score: inf
ROOT
ATOM      1  C   UNL A   1      31.662  29.230  24.346  1.00  0.00     0.274 C 
ENDROOT
BRANCH   1   2
ATOM      2  O   UNL A   1      30.282  28.906  24.082  1.00  0.00    -0.462 OA
BRANCH   2   3
ATOM      3  C   UNL A   1      30.057  27.896  23.204  1.00  0.00     0.307 C 
ATOM      4  O   UNL A   1      30.260  27.956  21.997  1.00  0.00    -0.252 OA
BRANCH   3   5
ATOM      5  C   UNL A   1      29.442  26.685  23.862  1.00  0.00     0.147 C 
BRANCH   5   6
ATOM      6  C   UNL A   1      30.455  25.604  24.260  1.00  0.00     0.090 C 
ATOM      7  C   UNL A   1      30.592  24.579  23.131  1.00  0.00     0.031 C 
BRANCH   6   8
ATOM      8  N   UNL A   1      30.035  24.898  25.471  1.00  0.00    -0.350 N 
ATOM      9  C   UNL A   1      30.658  23.967  26.241  1.00  0.00     0.244 C 
ATOM     10  O   UNL A   1      30.102  23.577  27.267  1.00  0.00    -0.270 OA
ATOM     11  H   UNL A   1      29.135  25.143  25.786  1.00  0.00     0.164 HD
BRANCH   9  12
ATOM     12  C   UNL A   1      32.022  23.484  25.942  1.00  0.00     0.071 C 
ATOM     13  C   UNL A   1      33.140  24.223  25.890  1.00  0.00     0.005 C 
BRANCH  13  14
ATOM     14  C   UNL A   1      34.438  23.618  25.671  1.00  0.00    -0.004 C 
ATOM     15  C   UNL A   1      36.932  23.698  25.539  1.00  0.00     0.035 C 
ATOM     16  C   UNL A   1      35.580  24.323  25.660  1.00  0.00    -0.030 C 
ENDBRANCH  13  14
ENDBRANCH   9  12
ENDBRANCH   6   8
ENDBRANCH   5   6
ENDBRANCH   3   5
ENDBRANCH   2   3
ENDBRANCH   1   2
BRANCH   1  17
ATOM     17  C   UNL A   1      31.844  30.132  25.572  1.00  0.00     0.275 C 
BRANCH  17  18
ATOM     18  O   UNL A   1      33.194  30.105  26.078  1.00  0.00    -0.458 OA
BRANCH  18  19
ATOM     19  C   UNL A   1      33.459  31.080  26.973  1.00  0.00     0.338 C 
ATOM     20  O   UNL A   1      32.734  32.018  27.253  1.00  0.00    -0.246 OA
BRANCH  19  21
ATOM     21  C   UNL A   1      34.717  30.843  27.687  1.00  0.00     0.060 A 
ATOM     22  C   UNL A   1      34.978  29.551  28.155  1.00  0.00     0.016 A 
ATOM     23  C   UNL A   1      35.572  31.901  27.994  1.00  0.00     0.016 A 
ATOM     24  C   UNL A   1      36.114  29.305  28.920  1.00  0.00     0.010 A 
ATOM     25  C   UNL A   1      36.713  31.653  28.761  1.00  0.00     0.010 A 
ATOM     26  C   UNL A   1      36.991  30.355  29.224  1.00  0.00    -0.014 A 
BRANCH  26  27
ATOM     27  C   UNL A   1      38.227  30.088  29.992  1.00  0.00     0.031 A 
ATOM     28  C   UNL A   1      39.302  29.212  29.427  1.00  0.00     0.074 A 
ATOM     29  C   UNL A   1      38.361  30.630  31.216  1.00  0.00     0.049 A 
ATOM     30  N   UNL A   1      40.404  28.788  29.993  1.00  0.00    -0.248 NA
ATOM     31  C   UNL A   1      39.116  28.750  28.044  1.00  0.00     0.031 C 
ATOM     32  C   UNL A   1      37.389  31.522  31.849  1.00  0.00     0.029 A 
ATOM     33  N   UNL A   1      39.356  30.498  32.149  1.00  0.00    -0.354 N 
ATOM     34  C   UNL A   1      41.038  28.002  29.043  1.00  0.00     0.074 A 
ATOM     35  C   UNL A   1      40.194  27.996  27.865  1.00  0.00     0.031 C 
ATOM     36  C   UNL A   1      37.830  31.848  33.074  1.00  0.00     0.029 A 
ATOM     37  C   UNL A   1      39.091  31.155  33.323  1.00  0.00     0.049 A 
ATOM     38  H   UNL A   1      40.180  29.983  31.992  1.00  0.00     0.167 HD
ATOM     39  C   UNL A   1      42.220  27.347  29.150  1.00  0.00     0.037 A 
ATOM     40  C   UNL A   1      39.772  31.168  34.484  1.00  0.00     0.037 A 
ATOM     41  C   UNL A   1      43.054  27.362  30.324  1.00  0.00     0.049 A 
ATOM     42  C   UNL A   1      41.045  30.381  34.596  1.00  0.00     0.074 A 
ATOM     43  C   UNL A   1      44.283  26.754  30.519  1.00  0.00     0.029 A 
ATOM     44  N   UNL A   1      42.740  28.014  31.508  1.00  0.00    -0.354 N 
ATOM     45  N   UNL A   1      41.645  29.649  33.691  1.00  0.00    -0.248 NA
ATOM     46  C   UNL A   1      41.733  30.416  35.895  1.00  0.00     0.031 C 
ATOM     47  C   UNL A   1      44.694  27.006  31.833  1.00  0.00     0.029 A 
ATOM     48  C   UNL A   1      43.739  27.802  32.446  1.00  0.00     0.049 A 
ATOM     49  H   UNL A   1      41.928  28.549  31.659  1.00  0.00     0.167 HD
ATOM     50  C   UNL A   1      42.784  29.146  34.301  1.00  0.00     0.074 A 
ATOM     51  C   UNL A   1      42.800  29.667  35.652  1.00  0.00     0.031 C 
ATOM     52  C   UNL A   1      43.732  28.323  33.788  1.00  0.00     0.037 A 
BRANCH  39  53
ATOM     53  C   UNL A   1      42.673  26.536  27.974  1.00  0.00     0.064 A 
ATOM     54  C   UNL A   1      43.534  27.068  27.003  1.00  0.00     0.173 A 
ATOM     55  C   UNL A   1      42.279  25.196  27.843  1.00  0.00     0.173 A 
ATOM     56  F   UNL A   1      43.928  28.349  27.079  1.00  0.00    -0.203 F 
ATOM     57  C   UNL A   1      43.972  26.291  25.934  1.00  0.00     0.198 A 
ATOM     58  C   UNL A   1      42.736  24.416  26.784  1.00  0.00     0.198 A 
ATOM     59  F   UNL A   1      41.460  24.640  28.748  1.00  0.00    -0.203 F 
ATOM     60  F   UNL A   1      44.770  26.827  25.000  1.00  0.00    -0.200 F 
ATOM     61  C   UNL A   1      43.578  24.965  25.829  1.00  0.00     0.200 A 
ATOM     62  F   UNL A   1      42.361  23.133  26.688  1.00  0.00    -0.200 F 
ATOM     63  F   UNL A   1      44.007  24.217  24.803  1.00  0.00    -0.200 F 
ENDBRANCH  39  53
BRANCH  40  64
ATOM     64  C   UNL A   1      39.240  31.938  35.637  1.00  0.00     0.064 A 
ATOM     65  C   UNL A   1      38.366  31.346  36.556  1.00  0.00     0.173 A 
ATOM     66  C   UNL A   1      39.612  33.273  35.850  1.00  0.00     0.173 A 
ATOM     67  F   UNL A   1      37.966  30.078  36.380  1.00  0.00    -0.203 F 
ATOM     68  C   UNL A   1      37.877  32.065  37.646  1.00  0.00     0.198 A 
ATOM     69  C   UNL A   1      39.141  33.983  36.951  1.00  0.00     0.198 A 
ATOM     70  F   UNL A   1      40.447  33.882  34.994  1.00  0.00    -0.203 F 
ATOM     71  F   UNL A   1      37.018  31.486  38.495  1.00  0.00    -0.200 F 
ATOM     72  C   UNL A   1      38.271  33.380  37.846  1.00  0.00     0.200 A 
ATOM     73  F   UNL A   1      39.533  35.251  37.146  1.00  0.00    -0.200 F 
ATOM     74  F   UNL A   1      37.807  34.067  38.898  1.00  0.00    -0.200 F 
ENDBRANCH  40  64
BRANCH  52  75
ATOM     75  C   UNL A   1      44.870  27.951  34.689  1.00  0.00     0.064 A 
ATOM     76  C   UNL A   1      46.011  28.757  34.793  1.00  0.00     0.173 A 
ATOM     77  C   UNL A   1      44.802  26.795  35.481  1.00  0.00     0.173 A 
ATOM     78  F   UNL A   1      46.129  29.863  34.041  1.00  0.00    -0.203 F 
ATOM     79  C   UNL A   1      47.056  28.410  35.647  1.00  0.00     0.198 A 
ATOM     80  C   UNL A   1      45.838  26.463  36.349  1.00  0.00     0.198 A 
ATOM     81  F   UNL A   1      43.728  25.994  35.417  1.00  0.00    -0.203 F 
ATOM     82  F   UNL A   1      48.155  29.174  35.703  1.00  0.00    -0.200 F 
ATOM     83  C   UNL A   1      46.965  27.268  36.428  1.00  0.00     0.200 A 
ATOM     84  F   UNL A   1      45.746  25.363  37.109  1.00  0.00    -0.200 F 
ATOM     85  F   UNL A   1      47.970  26.936  37.251  1.00  0.00    -0.200 F 
ENDBRANCH  52  75
ENDBRANCH  26  27
ENDBRANCH  19  21
ENDBRANCH  18  19
ENDBRANCH  17  18
ENDBRANCH   1  17
TORSDOF 15
ENDMDL
