MODEL 1
REMARK VINA RESULT:     -12.6      0.000      0.000
REMARK SMILES Cc1ncccc1NC(=O)Nc1ccc(C(=O)OCCOC(=O)c2ccc(-c3c4nc(c(-c5c(F)c(F)c(F)c(F)c5F)c5ccc([nH]5)c(-c5c(F)c(F)c(F)c(F)c5F)c5nc(c(-c6c(F)c(F)c(F)c(F)c6F)c6ccc3[nH]6)C=C5)C=C4)cc2)c(O)c1
REMARK SMILES IDX 19 1 18 2 16 3 17 4 15 5 12 6 13 7 89 8 14 9 87 10 11 11
REMARK SMILES IDX 8 12 9 13 10 15 7 17 1 18 2 19 3 20 4 21 6 22 5 23 88 24
REMARK SMILES IDX 20 26 21 27 22 28 23 29 24 30 25 31 86 32 26 33 85 34 27 35
REMARK SMILES IDX 28 36 29 37 79 38 30 39 84 40 78 41 80 42 31 43 83 44 77 45
REMARK SMILES IDX 76 46 32 48 64 49 44 50 63 51 45 52 48 53 62 54 81 55 46 56
REMARK SMILES IDX 47 57 61 59 82 60 49 61 33 62 34 63 42 64 35 65 36 66 40 67
REMARK SMILES IDX 43 68 37 69 38 70 41 71 39 72 65 73 66 74 74 75 67 76 68 77
REMARK SMILES IDX 72 78 75 79 69 80 70 81 73 82 71 83 50 84 51 85 59 86 52 87
REMARK SMILES IDX 53 88 57 89 60 90 54 91 55 92 58 93 56 94
REMARK H PARENT 8 14 11 16 88 25 80 47 48 58
REMARK Flexibility Score: inf
ROOT
ATOM      1  C   UNL A   1      31.669  28.457  24.577  1.00  0.00     0.275 C 
ENDROOT
BRANCH   1   2
ATOM      2  O   UNL A   1      30.728  27.581  25.233  1.00  0.00    -0.458 OA
BRANCH   2   3
ATOM      3  C   UNL A   1      31.185  26.951  26.349  1.00  0.00     0.342 C 
ATOM      4  O   UNL A   1      31.261  27.427  27.469  1.00  0.00    -0.246 OA
BRANCH   3   5
ATOM      5  C   UNL A   1      31.458  25.522  26.051  1.00  0.00     0.101 A 
ATOM      6  C   UNL A   1      31.910  22.764  25.862  1.00  0.00     0.046 A 
ATOM      7  C   UNL A   1      32.729  23.545  26.675  1.00  0.00     0.027 A 
ATOM      8  C   UNL A   1      30.952  23.374  25.048  1.00  0.00     0.073 A 
ATOM      9  C   UNL A   1      32.531  24.926  26.733  1.00  0.00     0.022 A 
ATOM     10  C   UNL A   1      30.685  24.737  25.191  1.00  0.00     0.132 A 
BRANCH   6  11
ATOM     11  N   UNL A   1      31.971  21.362  25.860  1.00  0.00    -0.308 N 
ATOM     12  N   UNL A   1      33.668  20.810  24.279  1.00  0.00    -0.306 N 
ATOM     13  C   UNL A   1      32.524  20.521  24.954  1.00  0.00     0.323 C 
ATOM     14  H   UNL A   1      33.744  20.333  23.421  1.00  0.00     0.171 HD
ATOM     15  O   UNL A   1      31.995  19.424  24.759  1.00  0.00    -0.248 OA
ATOM     16  H   UNL A   1      31.547  20.924  26.633  1.00  0.00     0.171 HD
BRANCH  12  17
ATOM     17  C   UNL A   1      34.776  21.655  24.550  1.00  0.00     0.064 A 
ATOM     18  C   UNL A   1      34.027  23.325  22.759  1.00  0.00     0.069 C 
ATOM     19  C   UNL A   1      34.934  22.878  23.870  1.00  0.00     0.061 A 
ATOM     20  N   UNL A   1      35.925  23.770  24.163  1.00  0.00    -0.259 NA
ATOM     21  C   UNL A   1      36.826  23.425  25.105  1.00  0.00     0.111 A 
ATOM     22  C   UNL A   1      35.798  21.309  25.436  1.00  0.00     0.030 A 
ATOM     23  C   UNL A   1      36.815  22.208  25.748  1.00  0.00     0.022 A 
ENDBRANCH  12  17
ENDBRANCH   6  11
BRANCH  10  24
ATOM     24  O   UNL A   1      29.615  25.207  24.481  1.00  0.00    -0.507 OA
ATOM     25  H   UNL A   1      29.527  26.126  24.320  1.00  0.00     0.293 HD
ENDBRANCH  10  24
ENDBRANCH   3   5
ENDBRANCH   2   3
ENDBRANCH   1   2
BRANCH   1  26
ATOM     26  C   UNL A   1      31.692  29.827  25.256  1.00  0.00     0.275 C 
BRANCH  26  27
ATOM     27  O   UNL A   1      33.033  30.133  25.675  1.00  0.00    -0.458 OA
BRANCH  27  28
ATOM     28  C   UNL A   1      33.148  30.955  26.743  1.00  0.00     0.338 C 
ATOM     29  O   UNL A   1      32.340  31.772  27.149  1.00  0.00    -0.246 OA
BRANCH  28  30
ATOM     30  C   UNL A   1      34.442  30.705  27.398  1.00  0.00     0.060 A 
ATOM     31  C   UNL A   1      34.800  29.397  27.722  1.00  0.00     0.016 A 
ATOM     32  C   UNL A   1      35.253  31.772  27.782  1.00  0.00     0.016 A 
ATOM     33  C   UNL A   1      35.960  29.147  28.451  1.00  0.00     0.010 A 
ATOM     34  C   UNL A   1      36.442  31.518  28.472  1.00  0.00     0.010 A 
ATOM     35  C   UNL A   1      36.798  30.204  28.830  1.00  0.00    -0.014 A 
BRANCH  35  36
ATOM     36  C   UNL A   1      38.025  29.944  29.629  1.00  0.00     0.031 A 
ATOM     37  C   UNL A   1      39.115  29.066  29.079  1.00  0.00     0.074 A 
ATOM     38  C   UNL A   1      38.170  30.494  30.850  1.00  0.00     0.049 A 
ATOM     39  N   UNL A   1      40.191  28.610  29.673  1.00  0.00    -0.248 NA
ATOM     40  C   UNL A   1      38.974  28.640  27.679  1.00  0.00     0.031 C 
ATOM     41  C   UNL A   1      37.211  31.395  31.489  1.00  0.00     0.029 A 
ATOM     42  N   UNL A   1      39.180  30.373  31.772  1.00  0.00    -0.354 N 
ATOM     43  C   UNL A   1      40.831  27.813  28.735  1.00  0.00     0.074 A 
ATOM     44  C   UNL A   1      40.024  27.845  27.533  1.00  0.00     0.031 C 
ATOM     45  C   UNL A   1      37.685  31.757  32.691  1.00  0.00     0.029 A 
ATOM     46  C   UNL A   1      38.950  31.067  32.934  1.00  0.00     0.049 A 
ATOM     47  H   UNL A   1      39.992  29.838  31.615  1.00  0.00     0.167 HD
ATOM     48  C   UNL A   1      41.989  27.120  28.865  1.00  0.00     0.037 A 
ATOM     49  C   UNL A   1      39.658  31.119  34.078  1.00  0.00     0.037 A 
ATOM     50  C   UNL A   1      42.818  27.122  30.042  1.00  0.00     0.049 A 
ATOM     51  C   UNL A   1      40.922  30.316  34.208  1.00  0.00     0.074 A 
ATOM     52  C   UNL A   1      44.022  26.470  30.251  1.00  0.00     0.029 A 
ATOM     53  N   UNL A   1      42.535  27.817  31.208  1.00  0.00    -0.354 N 
ATOM     54  N   UNL A   1      41.503  29.540  33.327  1.00  0.00    -0.248 NA
ATOM     55  C   UNL A   1      41.622  30.385  35.499  1.00  0.00     0.031 C 
ATOM     56  C   UNL A   1      44.452  26.746  31.553  1.00  0.00     0.029 A 
ATOM     57  C   UNL A   1      43.534  27.600  32.143  1.00  0.00     0.049 A 
ATOM     58  H   UNL A   1      41.741  28.382  31.350  1.00  0.00     0.167 HD
ATOM     59  C   UNL A   1      42.637  29.038  33.949  1.00  0.00     0.074 A 
ATOM     60  C   UNL A   1      42.675  29.611  35.278  1.00  0.00     0.031 C 
ATOM     61  C   UNL A   1      43.561  28.174  33.463  1.00  0.00     0.037 A 
BRANCH  48  62
ATOM     62  C   UNL A   1      42.422  26.274  27.706  1.00  0.00     0.064 A 
ATOM     63  C   UNL A   1      43.372  26.723  26.778  1.00  0.00     0.173 A 
ATOM     64  C   UNL A   1      41.917  24.972  27.556  1.00  0.00     0.173 A 
ATOM     65  F   UNL A   1      43.876  27.962  26.874  1.00  0.00    -0.203 F 
ATOM     66  C   UNL A   1      43.788  25.905  25.731  1.00  0.00     0.198 A 
ATOM     67  C   UNL A   1      42.353  24.150  26.521  1.00  0.00     0.198 A 
ATOM     68  F   UNL A   1      41.011  24.494  28.423  1.00  0.00    -0.203 F 
ATOM     69  F   UNL A   1      44.676  26.364  24.837  1.00  0.00    -0.200 F 
ATOM     70  C   UNL A   1      43.285  24.618  25.607  1.00  0.00     0.200 A 
ATOM     71  F   UNL A   1      41.875  22.903  26.411  1.00  0.00    -0.200 F 
ATOM     72  F   UNL A   1      43.696  23.829  24.605  1.00  0.00    -0.200 F 
ENDBRANCH  48  62
BRANCH  49  73
ATOM     73  C   UNL A   1      39.168  31.947  35.209  1.00  0.00     0.064 A 
ATOM     74  C   UNL A   1      39.458  33.315  35.278  1.00  0.00     0.173 A 
ATOM     75  C   UNL A   1      38.399  31.387  36.240  1.00  0.00     0.173 A 
ATOM     76  F   UNL A   1      40.215  33.888  34.330  1.00  0.00    -0.203 F 
ATOM     77  C   UNL A   1      39.000  34.093  36.340  1.00  0.00     0.198 A 
ATOM     78  C   UNL A   1      37.920  32.170  37.287  1.00  0.00     0.198 A 
ATOM     79  F   UNL A   1      38.100  30.080  36.220  1.00  0.00    -0.203 F 
ATOM     80  F   UNL A   1      39.320  35.393  36.402  1.00  0.00    -0.200 F 
ATOM     81  C   UNL A   1      38.226  33.522  37.338  1.00  0.00     0.200 A 
ATOM     82  F   UNL A   1      37.164  31.616  38.243  1.00  0.00    -0.200 F 
ATOM     83  F   UNL A   1      37.779  34.273  38.355  1.00  0.00    -0.200 F 
ENDBRANCH  49  73
BRANCH  61  84
ATOM     84  C   UNL A   1      44.702  27.811  34.366  1.00  0.00     0.064 A 
ATOM     85  C   UNL A   1      44.651  26.679  35.191  1.00  0.00     0.173 A 
ATOM     86  C   UNL A   1      45.870  28.588  34.385  1.00  0.00     0.173 A 
ATOM     87  F   UNL A   1      43.548  25.914  35.219  1.00  0.00    -0.203 F 
ATOM     88  C   UNL A   1      45.720  26.348  36.019  1.00  0.00     0.198 A 
ATOM     89  C   UNL A   1      46.945  28.242  35.198  1.00  0.00     0.198 A 
ATOM     90  F   UNL A   1      45.968  29.680  33.612  1.00  0.00    -0.203 F 
ATOM     91  F   UNL A   1      45.634  25.284  36.830  1.00  0.00    -0.200 F 
ATOM     92  C   UNL A   1      46.868  27.127  36.018  1.00  0.00     0.200 A 
ATOM     93  F   UNL A   1      48.057  28.992  35.192  1.00  0.00    -0.200 F 
ATOM     94  F   UNL A   1      47.897  26.807  36.815  1.00  0.00    -0.200 F 
ENDBRANCH  61  84
ENDBRANCH  35  36
ENDBRANCH  28  30
ENDBRANCH  27  28
ENDBRANCH  26  27
ENDBRANCH   1  26
TORSDOF 14
ENDMDL
MODEL 2
REMARK VINA RESULT:     -12.2      1.077      1.883
REMARK SMILES Cc1ncccc1NC(=O)Nc1ccc(C(=O)OCCOC(=O)c2ccc(-c3c4nc(c(-c5c(F)c(F)c(F)c(F)c5F)c5ccc([nH]5)c(-c5c(F)c(F)c(F)c(F)c5F)c5nc(c(-c6c(F)c(F)c(F)c(F)c6F)c6ccc3[nH]6)C=C5)C=C4)cc2)c(O)c1
REMARK SMILES IDX 19 1 18 2 16 3 17 4 15 5 12 6 13 7 89 8 14 9 87 10 11 11
REMARK SMILES IDX 8 12 9 13 10 15 7 17 1 18 2 19 3 20 4 21 6 22 5 23 88 24
REMARK SMILES IDX 20 26 21 27 22 28 23 29 24 30 25 31 86 32 26 33 85 34 27 35
REMARK SMILES IDX 28 36 29 37 79 38 30 39 84 40 78 41 80 42 31 43 83 44 77 45
REMARK SMILES IDX 76 46 32 48 64 49 44 50 63 51 45 52 48 53 62 54 81 55 46 56
REMARK SMILES IDX 47 57 61 59 82 60 49 61 33 62 34 63 42 64 35 65 36 66 40 67
REMARK SMILES IDX 43 68 37 69 38 70 41 71 39 72 65 73 66 74 74 75 67 76 68 77
REMARK SMILES IDX 72 78 75 79 69 80 70 81 73 82 71 83 50 84 51 85 59 86 52 87
REMARK SMILES IDX 53 88 57 89 60 90 54 91 55 92 58 93 56 94
REMARK H PARENT 8 14 11 16 88 25 80 47 48 58
REMARK Flexibility Score: inf
ROOT
ATOM      1  C   UNL A   1      31.628  29.468  24.187  1.00  0.00     0.275 C 
ENDROOT
BRANCH   1   2
ATOM      2  O   UNL A   1      32.985  29.187  23.781  1.00  0.00    -0.458 OA
BRANCH   2   3
ATOM      3  C   UNL A   1      33.185  27.986  23.175  1.00  0.00     0.342 C 
ATOM      4  O   UNL A   1      33.811  27.788  22.148  1.00  0.00    -0.246 OA
BRANCH   3   5
ATOM      5  C   UNL A   1      32.645  26.893  24.023  1.00  0.00     0.101 A 
ATOM      6  C   UNL A   1      31.606  25.093  25.901  1.00  0.00     0.046 A 
ATOM      7  C   UNL A   1      32.838  25.704  26.135  1.00  0.00     0.027 A 
ATOM      8  C   UNL A   1      30.958  25.280  24.678  1.00  0.00     0.073 A 
ATOM      9  C   UNL A   1      33.374  26.566  25.177  1.00  0.00     0.022 A 
ATOM     10  C   UNL A   1      31.442  26.225  23.772  1.00  0.00     0.132 A 
BRANCH   6  11
ATOM     11  N   UNL A   1      30.953  24.323  26.876  1.00  0.00    -0.308 N 
ATOM     12  N   UNL A   1      31.301  22.056  26.223  1.00  0.00    -0.306 N 
ATOM     13  C   UNL A   1      30.573  23.024  26.841  1.00  0.00     0.323 C 
ATOM     14  H   UNL A   1      30.761  21.282  25.942  1.00  0.00     0.171 HD
ATOM     15  O   UNL A   1      29.543  22.688  27.431  1.00  0.00    -0.248 OA
ATOM     16  H   UNL A   1      30.738  24.799  27.710  1.00  0.00     0.171 HD
BRANCH  12  17
ATOM     17  C   UNL A   1      32.676  21.927  25.895  1.00  0.00     0.064 A 
ATOM     18  C   UNL A   1      32.153  21.953  23.389  1.00  0.00     0.069 C 
ATOM     19  C   UNL A   1      33.101  21.926  24.554  1.00  0.00     0.061 A 
ATOM     20  N   UNL A   1      34.417  21.904  24.189  1.00  0.00    -0.259 NA
ATOM     21  C   UNL A   1      35.341  21.814  25.167  1.00  0.00     0.111 A 
ATOM     22  C   UNL A   1      33.671  21.727  26.854  1.00  0.00     0.030 A 
ATOM     23  C   UNL A   1      35.018  21.704  26.501  1.00  0.00     0.022 A 
ENDBRANCH  12  17
ENDBRANCH   6  11
BRANCH  10  24
ATOM     24  O   UNL A   1      30.646  26.464  22.686  1.00  0.00    -0.507 OA
ATOM     25  H   UNL A   1      30.816  26.026  21.875  1.00  0.00     0.293 HD
ENDBRANCH  10  24
ENDBRANCH   3   5
ENDBRANCH   2   3
ENDBRANCH   1   2
BRANCH   1  26
ATOM     26  C   UNL A   1      31.611  30.259  25.495  1.00  0.00     0.275 C 
BRANCH  26  27
ATOM     27  O   UNL A   1      32.921  30.235  26.088  1.00  0.00    -0.458 OA
BRANCH  27  28
ATOM     28  C   UNL A   1      33.189  31.217  26.978  1.00  0.00     0.338 C 
ATOM     29  O   UNL A   1      32.509  32.193  27.242  1.00  0.00    -0.246 OA
BRANCH  28  30
ATOM     30  C   UNL A   1      34.473  30.927  27.636  1.00  0.00     0.060 A 
ATOM     31  C   UNL A   1      34.778  29.611  27.981  1.00  0.00     0.016 A 
ATOM     32  C   UNL A   1      35.327  31.966  28.000  1.00  0.00     0.016 A 
ATOM     33  C   UNL A   1      35.929  29.326  28.714  1.00  0.00     0.010 A 
ATOM     34  C   UNL A   1      36.506  31.676  28.694  1.00  0.00     0.010 A 
ATOM     35  C   UNL A   1      36.809  30.355  29.074  1.00  0.00    -0.014 A 
BRANCH  35  36
ATOM     36  C   UNL A   1      38.026  30.059  29.876  1.00  0.00     0.031 A 
ATOM     37  C   UNL A   1      39.107  29.177  29.315  1.00  0.00     0.074 A 
ATOM     38  C   UNL A   1      38.169  30.580  31.109  1.00  0.00     0.049 A 
ATOM     39  N   UNL A   1      40.171  28.693  29.906  1.00  0.00    -0.248 NA
ATOM     40  C   UNL A   1      38.971  28.784  27.905  1.00  0.00     0.031 C 
ATOM     41  C   UNL A   1      37.219  31.482  31.761  1.00  0.00     0.029 A 
ATOM     42  N   UNL A   1      39.171  30.424  32.036  1.00  0.00    -0.354 N 
ATOM     43  C   UNL A   1      40.807  27.906  28.956  1.00  0.00     0.074 A 
ATOM     44  C   UNL A   1      40.010  27.977  27.749  1.00  0.00     0.031 C 
ATOM     45  C   UNL A   1      37.689  31.810  32.975  1.00  0.00     0.029 A 
ATOM     46  C   UNL A   1      38.942  31.096  33.211  1.00  0.00     0.049 A 
ATOM     47  H   UNL A   1      39.976  29.880  31.873  1.00  0.00     0.167 HD
ATOM     48  C   UNL A   1      41.953  27.194  29.079  1.00  0.00     0.037 A 
ATOM     49  C   UNL A   1      39.642  31.112  34.361  1.00  0.00     0.037 A 
ATOM     50  C   UNL A   1      42.773  27.157  30.262  1.00  0.00     0.049 A 
ATOM     51  C   UNL A   1      40.893  30.287  34.483  1.00  0.00     0.074 A 
ATOM     52  C   UNL A   1      43.966  26.483  30.465  1.00  0.00     0.029 A 
ATOM     53  N   UNL A   1      42.492  27.831  31.440  1.00  0.00    -0.354 N 
ATOM     54  N   UNL A   1      41.469  29.523  33.589  1.00  0.00    -0.248 NA
ATOM     55  C   UNL A   1      41.584  30.318  35.781  1.00  0.00     0.031 C 
ATOM     56  C   UNL A   1      44.390  26.724  31.777  1.00  0.00     0.029 A 
ATOM     57  C   UNL A   1      43.480  27.579  32.378  1.00  0.00     0.049 A 
ATOM     58  H   UNL A   1      41.705  28.404  31.589  1.00  0.00     0.167 HD
ATOM     59  C   UNL A   1      42.591  28.990  34.209  1.00  0.00     0.074 A 
ATOM     60  C   UNL A   1      42.627  29.534  35.550  1.00  0.00     0.031 C 
ATOM     61  C   UNL A   1      43.506  28.123  33.711  1.00  0.00     0.037 A 
BRANCH  48  62
ATOM     62  C   UNL A   1      42.383  26.367  27.905  1.00  0.00     0.064 A 
ATOM     63  C   UNL A   1      43.309  26.842  26.966  1.00  0.00     0.173 A 
ATOM     64  C   UNL A   1      41.899  25.058  27.750  1.00  0.00     0.173 A 
ATOM     65  F   UNL A   1      43.793  28.089  27.067  1.00  0.00    -0.203 F 
ATOM     66  C   UNL A   1      43.723  26.041  25.904  1.00  0.00     0.198 A 
ATOM     67  C   UNL A   1      42.333  24.253  26.700  1.00  0.00     0.198 A 
ATOM     68  F   UNL A   1      41.016  24.555  28.626  1.00  0.00    -0.203 F 
ATOM     69  F   UNL A   1      44.588  26.525  25.001  1.00  0.00    -0.200 F 
ATOM     70  C   UNL A   1      43.241  24.747  25.776  1.00  0.00     0.200 A 
ATOM     71  F   UNL A   1      41.875  22.999  26.585  1.00  0.00    -0.200 F 
ATOM     72  F   UNL A   1      43.650  23.975  24.760  1.00  0.00    -0.200 F 
ENDBRANCH  48  62
BRANCH  49  73
ATOM     73  C   UNL A   1      39.156  31.922  35.507  1.00  0.00     0.064 A 
ATOM     74  C   UNL A   1      39.513  33.270  35.639  1.00  0.00     0.173 A 
ATOM     75  C   UNL A   1      38.322  31.366  36.488  1.00  0.00     0.173 A 
ATOM     76  F   UNL A   1      40.333  33.836  34.740  1.00  0.00    -0.203 F 
ATOM     77  C   UNL A   1      39.059  34.031  36.714  1.00  0.00     0.198 A 
ATOM     78  C   UNL A   1      37.847  32.134  37.548  1.00  0.00     0.198 A 
ATOM     79  F   UNL A   1      37.956  30.078  36.407  1.00  0.00    -0.203 F 
ATOM     80  F   UNL A   1      39.444  35.309  36.838  1.00  0.00    -0.200 F 
ATOM     81  C   UNL A   1      38.221  33.465  37.662  1.00  0.00     0.200 A 
ATOM     82  F   UNL A   1      37.030  31.586  38.456  1.00  0.00    -0.200 F 
ATOM     83  F   UNL A   1      37.778  34.200  38.692  1.00  0.00    -0.200 F 
ENDBRANCH  49  73
BRANCH  61  84
ATOM     84  C   UNL A   1      44.634  27.723  34.614  1.00  0.00     0.064 A 
ATOM     85  C   UNL A   1      45.818  28.470  34.680  1.00  0.00     0.173 A 
ATOM     86  C   UNL A   1      44.517  26.597  35.442  1.00  0.00     0.173 A 
ATOM     87  F   UNL A   1      45.982  29.545  33.894  1.00  0.00    -0.203 F 
ATOM     88  C   UNL A   1      46.855  28.093  35.529  1.00  0.00     0.198 A 
ATOM     89  C   UNL A   1      45.547  26.236  36.306  1.00  0.00     0.198 A 
ATOM     90  F   UNL A   1      43.403  25.852  35.417  1.00  0.00    -0.203 F 
ATOM     91  F   UNL A   1      47.995  28.798  35.548  1.00  0.00    -0.200 F 
ATOM     92  C   UNL A   1      46.717  26.979  36.345  1.00  0.00     0.200 A 
ATOM     93  F   UNL A   1      45.410  25.163  37.099  1.00  0.00    -0.200 F 
ATOM     94  F   UNL A   1      47.716  26.618  37.162  1.00  0.00    -0.200 F 
ENDBRANCH  61  84
ENDBRANCH  35  36
ENDBRANCH  28  30
ENDBRANCH  27  28
ENDBRANCH  26  27
ENDBRANCH   1  26
TORSDOF 14
ENDMDL
MODEL 3
REMARK VINA RESULT:     -12.2      4.714      9.936
REMARK SMILES Cc1ncccc1NC(=O)Nc1ccc(C(=O)OCCOC(=O)c2ccc(-c3c4nc(c(-c5c(F)c(F)c(F)c(F)c5F)c5ccc([nH]5)c(-c5c(F)c(F)c(F)c(F)c5F)c5nc(c(-c6c(F)c(F)c(F)c(F)c6F)c6ccc3[nH]6)C=C5)C=C4)cc2)c(O)c1
REMARK SMILES IDX 19 1 18 2 16 3 17 4 15 5 12 6 13 7 89 8 14 9 87 10 11 11
REMARK SMILES IDX 8 12 9 13 10 15 7 17 1 18 2 19 3 20 4 21 6 22 5 23 88 24
REMARK SMILES IDX 20 26 21 27 22 28 23 29 24 30 25 31 86 32 26 33 85 34 27 35
REMARK SMILES IDX 28 36 29 37 79 38 30 39 84 40 78 41 80 42 31 43 83 44 77 45
REMARK SMILES IDX 76 46 32 48 64 49 44 50 63 51 45 52 48 53 62 54 81 55 46 56
REMARK SMILES IDX 47 57 61 59 82 60 49 61 33 62 34 63 42 64 35 65 36 66 40 67
REMARK SMILES IDX 43 68 37 69 38 70 41 71 39 72 65 73 66 74 74 75 67 76 68 77
REMARK SMILES IDX 72 78 75 79 69 80 70 81 73 82 71 83 50 84 51 85 59 86 52 87
REMARK SMILES IDX 53 88 57 89 60 90 54 91 55 92 58 93 56 94
REMARK H PARENT 8 14 11 16 88 25 80 47 48 58
REMARK Flexibility Score: inf
ROOT
ATOM      1  C   UNL A   1      38.363  20.950  25.376  1.00  0.00     0.275 C 
ENDROOT
BRANCH   1   2
ATOM      2  O   UNL A   1      37.015  20.766  24.893  1.00  0.00    -0.458 OA
BRANCH   2   3
ATOM      3  C   UNL A   1      36.417  21.871  24.372  1.00  0.00     0.342 C 
ATOM      4  O   UNL A   1      36.943  22.711  23.663  1.00  0.00    -0.246 OA
BRANCH   3   5
ATOM      5  C   UNL A   1      34.963  21.851  24.671  1.00  0.00     0.101 A 
ATOM      6  C   UNL A   1      32.305  22.032  25.537  1.00  0.00     0.046 A 
ATOM      7  C   UNL A   1      33.262  21.436  26.358  1.00  0.00     0.027 A 
ATOM      8  C   UNL A   1      32.646  22.419  24.239  1.00  0.00     0.073 A 
ATOM      9  C   UNL A   1      34.576  21.307  25.905  1.00  0.00     0.022 A 
ATOM     10  C   UNL A   1      33.981  22.389  23.832  1.00  0.00     0.132 A 
BRANCH   6  11
ATOM     11  N   UNL A   1      31.003  22.310  25.981  1.00  0.00    -0.308 N 
ATOM     12  N   UNL A   1      31.134  24.463  27.000  1.00  0.00    -0.306 N 
ATOM     13  C   UNL A   1      30.572  23.231  26.876  1.00  0.00     0.323 C 
ATOM     14  H   UNL A   1      31.004  24.862  27.890  1.00  0.00     0.171 HD
ATOM     15  O   UNL A   1      29.599  22.962  27.585  1.00  0.00    -0.248 OA
ATOM     16  H   UNL A   1      30.297  21.752  25.582  1.00  0.00     0.171 HD
BRANCH  12  17
ATOM     17  C   UNL A   1      31.869  25.294  26.115  1.00  0.00     0.064 A 
ATOM     18  C   UNL A   1      29.740  25.954  24.855  1.00  0.00     0.069 C 
ATOM     19  C   UNL A   1      31.215  26.048  25.122  1.00  0.00     0.061 A 
ATOM     20  N   UNL A   1      31.864  26.936  24.313  1.00  0.00    -0.259 NA
ATOM     21  C   UNL A   1      33.202  27.041  24.437  1.00  0.00     0.111 A 
ATOM     22  C   UNL A   1      33.263  25.368  26.123  1.00  0.00     0.030 A 
ATOM     23  C   UNL A   1      33.941  26.270  25.306  1.00  0.00     0.022 A 
ENDBRANCH  12  17
ENDBRANCH   6  11
BRANCH  10  24
ATOM     24  O   UNL A   1      34.240  22.950  22.613  1.00  0.00    -0.507 OA
ATOM     25  H   UNL A   1      34.676  22.451  21.950  1.00  0.00     0.293 HD
ENDBRANCH  10  24
ENDBRANCH   3   5
ENDBRANCH   2   3
ENDBRANCH   1   2
BRANCH   1  26
ATOM     26  C   UNL A   1      39.121  19.621  25.372  1.00  0.00     0.275 C 
BRANCH  26  27
ATOM     27  O   UNL A   1      40.026  19.581  26.490  1.00  0.00    -0.458 OA
BRANCH  27  28
ATOM     28  C   UNL A   1      41.341  19.509  26.187  1.00  0.00     0.338 C 
ATOM     29  O   UNL A   1      41.958  18.553  25.752  1.00  0.00    -0.246 OA
BRANCH  28  30
ATOM     30  C   UNL A   1      41.961  20.818  26.449  1.00  0.00     0.060 A 
ATOM     31  C   UNL A   1      42.279  21.170  27.760  1.00  0.00     0.016 A 
ATOM     32  C   UNL A   1      42.135  21.734  25.412  1.00  0.00     0.016 A 
ATOM     33  C   UNL A   1      42.751  22.449  28.049  1.00  0.00     0.010 A 
ATOM     34  C   UNL A   1      42.655  23.002  25.695  1.00  0.00     0.010 A 
ATOM     35  C   UNL A   1      42.950  23.378  27.019  1.00  0.00    -0.014 A 
BRANCH  35  36
ATOM     36  C   UNL A   1      43.432  24.751  27.325  1.00  0.00     0.031 A 
ATOM     37  C   UNL A   1      42.498  25.764  27.926  1.00  0.00     0.074 A 
ATOM     38  C   UNL A   1      44.708  25.096  27.068  1.00  0.00     0.049 A 
ATOM     39  N   UNL A   1      42.687  27.043  28.137  1.00  0.00    -0.248 NA
ATOM     40  C   UNL A   1      41.175  25.276  28.341  1.00  0.00     0.031 C 
ATOM     41  C   UNL A   1      45.731  24.204  26.523  1.00  0.00     0.029 A 
ATOM     42  N   UNL A   1      45.361  26.293  27.230  1.00  0.00    -0.354 N 
ATOM     43  C   UNL A   1      41.497  27.520  28.667  1.00  0.00     0.074 A 
ATOM     44  C   UNL A   1      40.590  26.394  28.747  1.00  0.00     0.031 C 
ATOM     45  C   UNL A   1      46.886  24.879  26.410  1.00  0.00     0.029 A 
ATOM     46  C   UNL A   1      46.670  26.266  26.815  1.00  0.00     0.049 A 
ATOM     47  H   UNL A   1      44.931  27.096  27.606  1.00  0.00     0.167 HD
ATOM     48  C   UNL A   1      41.191  28.782  29.056  1.00  0.00     0.037 A 
ATOM     49  C   UNL A   1      47.585  27.250  26.739  1.00  0.00     0.037 A 
ATOM     50  C   UNL A   1      42.103  29.895  29.022  1.00  0.00     0.049 A 
ATOM     51  C   UNL A   1      47.210  28.648  27.146  1.00  0.00     0.074 A 
ATOM     52  C   UNL A   1      41.885  31.203  29.422  1.00  0.00     0.029 A 
ATOM     53  N   UNL A   1      43.412  29.831  28.569  1.00  0.00    -0.354 N 
ATOM     54  N   UNL A   1      46.073  29.095  27.618  1.00  0.00    -0.248 NA
ATOM     55  C   UNL A   1      48.245  29.683  26.997  1.00  0.00     0.031 C 
ATOM     56  C   UNL A   1      43.052  31.937  29.183  1.00  0.00     0.029 A 
ATOM     57  C   UNL A   1      44.009  31.078  28.668  1.00  0.00     0.049 A 
ATOM     58  H   UNL A   1      43.853  29.019  28.227  1.00  0.00     0.167 HD
ATOM     59  C   UNL A   1      46.255  30.454  27.830  1.00  0.00     0.074 A 
ATOM     60  C   UNL A   1      47.620  30.758  27.454  1.00  0.00     0.031 C 
ATOM     61  C   UNL A   1      45.367  31.369  28.290  1.00  0.00     0.037 A 
BRANCH  48  62
ATOM     62  C   UNL A   1      39.793  29.038  29.534  1.00  0.00     0.064 A 
ATOM     63  C   UNL A   1      38.771  29.423  28.655  1.00  0.00     0.173 A 
ATOM     64  C   UNL A   1      39.463  28.841  30.884  1.00  0.00     0.173 A 
ATOM     65  F   UNL A   1      39.040  29.633  27.357  1.00  0.00    -0.203 F 
ATOM     66  C   UNL A   1      37.471  29.619  29.114  1.00  0.00     0.198 A 
ATOM     67  C   UNL A   1      38.157  29.015  31.334  1.00  0.00     0.198 A 
ATOM     68  F   UNL A   1      40.404  28.465  31.763  1.00  0.00    -0.203 F 
ATOM     69  F   UNL A   1      36.515  30.016  28.263  1.00  0.00    -0.200 F 
ATOM     70  C   UNL A   1      37.164  29.408  30.450  1.00  0.00     0.200 A 
ATOM     71  F   UNL A   1      37.860  28.799  32.623  1.00  0.00    -0.200 F 
ATOM     72  F   UNL A   1      35.909  29.586  30.888  1.00  0.00    -0.200 F 
ENDBRANCH  48  62
BRANCH  49  73
ATOM     73  C   UNL A   1      48.946  26.951  26.227  1.00  0.00     0.064 A 
ATOM     74  C   UNL A   1      49.963  26.526  27.091  1.00  0.00     0.173 A 
ATOM     75  C   UNL A   1      49.255  27.081  24.865  1.00  0.00     0.173 A 
ATOM     76  F   UNL A   1      49.721  26.415  28.407  1.00  0.00    -0.203 F 
ATOM     77  C   UNL A   1      51.242  26.246  26.613  1.00  0.00     0.198 A 
ATOM     78  C   UNL A   1      50.526  26.776  24.384  1.00  0.00     0.198 A 
ATOM     79  F   UNL A   1      48.316  27.489  23.999  1.00  0.00    -0.203 F 
ATOM     80  F   UNL A   1      52.207  25.875  27.465  1.00  0.00    -0.200 F 
ATOM     81  C   UNL A   1      51.519  26.364  25.260  1.00  0.00     0.200 A 
ATOM     82  F   UNL A   1      50.787  26.881  23.075  1.00  0.00    -0.200 F 
ATOM     83  F   UNL A   1      52.748  26.086  24.799  1.00  0.00    -0.200 F 
ENDBRANCH  49  73
BRANCH  61  84
ATOM     84  C   UNL A   1      45.850  32.782  28.431  1.00  0.00     0.064 A 
ATOM     85  C   UNL A   1      46.498  33.222  29.593  1.00  0.00     0.173 A 
ATOM     86  C   UNL A   1      45.688  33.698  27.380  1.00  0.00     0.173 A 
ATOM     87  F   UNL A   1      46.662  32.386  30.631  1.00  0.00    -0.203 F 
ATOM     88  C   UNL A   1      46.949  34.534  29.709  1.00  0.00     0.198 A 
ATOM     89  C   UNL A   1      46.159  35.002  27.490  1.00  0.00     0.198 A 
ATOM     90  F   UNL A   1      45.076  33.324  26.246  1.00  0.00    -0.203 F 
ATOM     91  F   UNL A   1      47.530  34.944  30.844  1.00  0.00    -0.200 F 
ATOM     92  C   UNL A   1      46.784  35.422  28.655  1.00  0.00     0.200 A 
ATOM     93  F   UNL A   1      46.005  35.858  26.469  1.00  0.00    -0.200 F 
ATOM     94  F   UNL A   1      47.219  36.684  28.768  1.00  0.00    -0.200 F 
ENDBRANCH  61  84
ENDBRANCH  35  36
ENDBRANCH  28  30
ENDBRANCH  27  28
ENDBRANCH  26  27
ENDBRANCH   1  26
TORSDOF 14
ENDMDL
