MODEL 1
REMARK VINA RESULT:     -13.0      0.000      0.000
REMARK SMILES Cc1ccc(-c2c[nH]c(=O)cc2C(=O)OCCOC(=O)c2ccc(-c3c4nc(c(-c5c(F)c(F)c(F)c(F)c5F)c5ccc([nH]5)c(-c5c(F)c(F)c(F)c(F)c5F)c5nc(c(-c6c(F)c(F)c(F)c(F)c6F)c6ccc3[nH]6)C=C5)C=C4)cc2)cc1Cl
REMARK SMILES IDX 17 1 16 2 15 3 13 4 14 5 12 6 6 7 7 8 8 9 11 10 9 11 10 13
REMARK SMILES IDX 5 14 1 15 2 16 3 17 85 18 4 19 84 20 86 21 18 22 19 23 20 24
REMARK SMILES IDX 21 25 22 26 83 27 23 28 82 29 24 30 25 31 26 32 76 33 27 34
REMARK SMILES IDX 81 35 75 36 77 37 28 38 80 39 74 40 73 41 29 43 61 44 41 45
REMARK SMILES IDX 60 46 42 47 45 48 59 49 78 50 43 51 44 52 58 54 79 55 46 56
REMARK SMILES IDX 30 57 31 58 39 59 32 60 33 61 37 62 40 63 34 64 35 65 38 66
REMARK SMILES IDX 36 67 62 68 63 69 71 70 64 71 65 72 69 73 72 74 66 75 67 76
REMARK SMILES IDX 70 77 68 78 47 79 48 80 56 81 49 82 50 83 54 84 57 85 51 86
REMARK SMILES IDX 52 87 55 88 53 89
REMARK H PARENT 8 12 77 42 45 53
REMARK Flexibility Score: inf
ROOT
ATOM      1  C   UNL A   1      31.843  29.382  25.498  1.00  0.00     0.275 C 
ENDROOT
BRANCH   1   2
ATOM      2  C   UNL A   1      32.621  28.272  24.798  1.00  0.00     0.275 C 
BRANCH   2   3
ATOM      3  O   UNL A   1      32.456  28.377  23.367  1.00  0.00    -0.458 OA
BRANCH   3   4
ATOM      4  C   UNL A   1      31.730  27.391  22.781  1.00  0.00     0.339 C 
ATOM      5  O   UNL A   1      32.138  26.605  21.939  1.00  0.00    -0.246 OA
BRANCH   4   6
ATOM      6  C   UNL A   1      30.325  27.408  23.251  1.00  0.00     0.074 A 
ATOM      7  C   UNL A   1      29.722  26.319  24.035  1.00  0.00     0.013 A 
ATOM      8  C   UNL A   1      28.384  26.300  24.154  1.00  0.00     0.095 A 
ATOM      9  N   UNL A   1      27.616  27.294  23.597  1.00  0.00    -0.328 N 
ATOM     10  C   UNL A   1      29.582  28.392  22.719  1.00  0.00     0.087 A 
ATOM     11  C   UNL A   1      28.116  28.362  22.895  1.00  0.00     0.248 A 
ATOM     12  H   UNL A   1      26.640  27.237  23.711  1.00  0.00     0.169 HD
ATOM     13  O   UNL A   1      27.405  29.225  22.397  1.00  0.00    -0.270 OA
BRANCH   7  14
ATOM     14  C   UNL A   1      30.476  25.151  24.518  1.00  0.00    -0.015 A 
ATOM     15  C   UNL A   1      33.891  21.246  25.035  1.00  0.00     0.046 C 
ATOM     16  C   UNL A   1      33.030  22.448  24.820  1.00  0.00    -0.032 A 
ATOM     17  C   UNL A   1      32.910  23.655  26.137  1.00  0.00     0.005 A 
ATOM     18  C   UNL A   1      31.928  22.598  23.470  1.00  0.00     0.044 A 
ATOM     19  C   UNL A   1      31.503  25.107  26.013  1.00  0.00     0.009 A 
ATOM     20  C   UNL A   1      30.717  23.879  23.311  1.00  0.00     0.029 A 
ATOM     21  Cl  UNL A   1      31.904  21.356  22.266  1.00  0.00    -0.084 Cl
ENDBRANCH   7  14
ENDBRANCH   4   6
ENDBRANCH   3   4
ENDBRANCH   2   3
ENDBRANCH   1   2
BRANCH   1  22
ATOM     22  O   UNL A   1      32.689  30.542  25.602  1.00  0.00    -0.458 OA
BRANCH  22  23
ATOM     23  C   UNL A   1      32.416  31.323  26.664  1.00  0.00     0.338 C 
ATOM     24  O   UNL A   1      31.379  31.920  26.908  1.00  0.00    -0.246 OA
BRANCH  23  25
ATOM     25  C   UNL A   1      33.512  31.303  27.631  1.00  0.00     0.060 A 
ATOM     26  C   UNL A   1      34.543  32.755  27.865  1.00  0.00     0.016 A 
ATOM     27  C   UNL A   1      34.213  29.728  27.953  1.00  0.00     0.016 A 
ATOM     28  C   UNL A   1      36.468  32.472  28.421  1.00  0.00     0.010 A 
ATOM     29  C   UNL A   1      35.882  29.495  28.512  1.00  0.00     0.010 A 
ATOM     30  C   UNL A   1      37.054  30.802  28.776  1.00  0.00    -0.014 A 
BRANCH  30  31
ATOM     31  C   UNL A   1      38.335  30.530  29.571  1.00  0.00     0.031 A 
ATOM     32  C   UNL A   1      39.372  29.535  29.064  1.00  0.00     0.074 A 
ATOM     33  C   UNL A   1      38.533  31.007  30.828  1.00  0.00     0.049 A 
ATOM     34  N   UNL A   1      40.310  28.886  29.721  1.00  0.00    -0.248 NA
ATOM     35  C   UNL A   1      39.318  29.182  27.640  1.00  0.00     0.031 C 
ATOM     36  C   UNL A   1      37.692  31.946  31.552  1.00  0.00     0.029 A 
ATOM     37  N   UNL A   1      39.514  30.725  31.766  1.00  0.00    -0.354 N 
ATOM     38  C   UNL A   1      40.881  27.999  28.811  1.00  0.00     0.074 A 
ATOM     39  C   UNL A   1      40.119  28.127  27.587  1.00  0.00     0.031 C 
ATOM     40  C   UNL A   1      38.155  32.174  32.778  1.00  0.00     0.029 A 
ATOM     41  C   UNL A   1      39.309  31.337  32.988  1.00  0.00     0.049 A 
ATOM     42  H   UNL A   1      40.286  30.143  31.580  1.00  0.00     0.167 HD
ATOM     43  C   UNL A   1      41.972  27.198  28.944  1.00  0.00     0.037 A 
ATOM     44  C   UNL A   1      39.921  31.256  34.182  1.00  0.00     0.037 A 
ATOM     45  C   UNL A   1      42.829  27.174  30.107  1.00  0.00     0.049 A 
ATOM     46  C   UNL A   1      41.139  30.412  34.309  1.00  0.00     0.074 A 
ATOM     47  C   UNL A   1      44.028  26.502  30.285  1.00  0.00     0.029 A 
ATOM     48  N   UNL A   1      42.598  27.882  31.278  1.00  0.00    -0.354 N 
ATOM     49  N   UNL A   1      41.663  29.602  33.427  1.00  0.00    -0.248 NA
ATOM     50  C   UNL A   1      41.875  30.506  35.573  1.00  0.00     0.031 C 
ATOM     51  C   UNL A   1      44.510  26.786  31.569  1.00  0.00     0.029 A 
ATOM     52  C   UNL A   1      43.634  27.666  32.178  1.00  0.00     0.049 A 
ATOM     53  H   UNL A   1      41.814  28.454  31.447  1.00  0.00     0.167 HD
ATOM     54  C   UNL A   1      42.826  29.128  34.005  1.00  0.00     0.074 A 
ATOM     55  C   UNL A   1      42.925  29.741  35.316  1.00  0.00     0.031 C 
ATOM     56  C   UNL A   1      43.734  28.273  33.480  1.00  0.00     0.037 A 
BRANCH  43  57
ATOM     57  C   UNL A   1      42.344  26.313  27.777  1.00  0.00     0.064 A 
ATOM     58  C   UNL A   1      41.737  25.063  27.570  1.00  0.00     0.173 A 
ATOM     59  C   UNL A   1      43.306  26.723  26.838  1.00  0.00     0.173 A 
ATOM     60  F   UNL A   1      40.803  24.617  28.423  1.00  0.00    -0.203 F 
ATOM     61  C   UNL A   1      42.130  24.231  26.523  1.00  0.00     0.198 A 
ATOM     62  C   UNL A   1      43.664  25.908  25.765  1.00  0.00     0.198 A 
ATOM     63  F   UNL A   1      43.901  27.920  26.957  1.00  0.00    -0.203 F 
ATOM     64  F   UNL A   1      41.595  23.007  26.406  1.00  0.00    -0.200 F 
ATOM     65  C   UNL A   1      43.090  24.655  25.618  1.00  0.00     0.200 A 
ATOM     66  F   UNL A   1      44.574  26.332  24.875  1.00  0.00    -0.200 F 
ATOM     67  F   UNL A   1      43.469  23.853  24.615  1.00  0.00    -0.200 F 
ENDBRANCH  43  57
BRANCH  44  68
ATOM     68  C   UNL A   1      39.415  32.078  35.318  1.00  0.00     0.064 A 
ATOM     69  C   UNL A   1      38.569  31.513  36.282  1.00  0.00     0.173 A 
ATOM     70  C   UNL A   1      39.841  33.400  35.518  1.00  0.00     0.173 A 
ATOM     71  F   UNL A   1      38.137  30.252  36.136  1.00  0.00    -0.203 F 
ATOM     72  C   UNL A   1      38.158  32.242  37.396  1.00  0.00     0.198 A 
ATOM     73  C   UNL A   1      39.451  34.119  36.648  1.00  0.00     0.198 A 
ATOM     74  F   UNL A   1      40.679  33.976  34.644  1.00  0.00    -0.203 F 
ATOM     75  F   UNL A   1      37.331  31.683  38.290  1.00  0.00    -0.200 F 
ATOM     76  C   UNL A   1      38.606  33.541  37.582  1.00  0.00     0.200 A 
ATOM     77  F   UNL A   1      39.909  35.365  36.840  1.00  0.00    -0.200 F 
ATOM     78  F   UNL A   1      38.227  34.233  38.666  1.00  0.00    -0.200 F 
ENDBRANCH  44  68
BRANCH  56  79
ATOM     79  C   UNL A   1      44.947  27.999  34.313  1.00  0.00     0.064 A 
ATOM     80  C   UNL A   1      44.990  26.935  35.225  1.00  0.00     0.173 A 
ATOM     81  C   UNL A   1      46.069  28.835  34.218  1.00  0.00     0.173 A 
ATOM     82  F   UNL A   1      43.929  26.128  35.373  1.00  0.00    -0.203 F 
ATOM     83  C   UNL A   1      46.102  26.738  36.038  1.00  0.00     0.198 A 
ATOM     84  C   UNL A   1      47.192  28.615  35.010  1.00  0.00     0.198 A 
ATOM     85  F   UNL A   1      46.072  29.870  33.365  1.00  0.00    -0.203 F 
ATOM     86  F   UNL A   1      46.096  25.757  36.952  1.00  0.00    -0.200 F 
ATOM     87  C   UNL A   1      47.203  27.574  35.926  1.00  0.00     0.200 A 
ATOM     88  F   UNL A   1      48.257  29.420  34.897  1.00  0.00    -0.200 F 
ATOM     89  F   UNL A   1      48.271  27.386  36.714  1.00  0.00    -0.200 F 
ENDBRANCH  56  79
ENDBRANCH  30  31
ENDBRANCH  23  25
ENDBRANCH  22  23
ENDBRANCH   1  22
TORSDOF 12
ENDMDL
MODEL 2
REMARK VINA RESULT:     -13.0      0.099      1.623
REMARK SMILES Cc1ccc(-c2c[nH]c(=O)cc2C(=O)OCCOC(=O)c2ccc(-c3c4nc(c(-c5c(F)c(F)c(F)c(F)c5F)c5ccc([nH]5)c(-c5c(F)c(F)c(F)c(F)c5F)c5nc(c(-c6c(F)c(F)c(F)c(F)c6F)c6ccc3[nH]6)C=C5)C=C4)cc2)cc1Cl
REMARK SMILES IDX 17 1 16 2 15 3 13 4 14 5 12 6 6 7 7 8 8 9 11 10 9 11 10 13
REMARK SMILES IDX 5 14 1 15 2 16 3 17 85 18 4 19 84 20 86 21 18 22 19 23 20 24
REMARK SMILES IDX 21 25 22 26 83 27 23 28 82 29 24 30 25 31 26 32 76 33 27 34
REMARK SMILES IDX 81 35 75 36 77 37 28 38 80 39 74 40 73 41 29 43 61 44 41 45
REMARK SMILES IDX 60 46 42 47 45 48 59 49 78 50 43 51 44 52 58 54 79 55 46 56
REMARK SMILES IDX 30 57 31 58 39 59 32 60 33 61 37 62 40 63 34 64 35 65 38 66
REMARK SMILES IDX 36 67 62 68 63 69 71 70 64 71 65 72 69 73 72 74 66 75 67 76
REMARK SMILES IDX 70 77 68 78 47 79 48 80 56 81 49 82 50 83 54 84 57 85 51 86
REMARK SMILES IDX 52 87 55 88 53 89
REMARK H PARENT 8 12 77 42 45 53
REMARK Flexibility Score: inf
ROOT
ATOM      1  C   UNL A   1      31.771  29.450  25.364  1.00  0.00     0.275 C 
ENDROOT
BRANCH   1   2
ATOM      2  C   UNL A   1      32.479  28.205  24.839  1.00  0.00     0.275 C 
BRANCH   2   3
ATOM      3  O   UNL A   1      32.528  28.233  23.395  1.00  0.00    -0.458 OA
BRANCH   3   4
ATOM      4  C   UNL A   1      31.766  27.308  22.759  1.00  0.00     0.339 C 
ATOM      5  O   UNL A   1      32.144  26.557  21.871  1.00  0.00    -0.246 OA
BRANCH   4   6
ATOM      6  C   UNL A   1      30.364  27.345  23.238  1.00  0.00     0.074 A 
ATOM      7  C   UNL A   1      29.747  26.261  24.015  1.00  0.00     0.013 A 
ATOM      8  C   UNL A   1      28.409  26.264  24.142  1.00  0.00     0.095 A 
ATOM      9  N   UNL A   1      27.656  27.278  23.599  1.00  0.00    -0.328 N 
ATOM     10  C   UNL A   1      29.636  28.348  22.719  1.00  0.00     0.087 A 
ATOM     11  C   UNL A   1      28.171  28.343  22.904  1.00  0.00     0.248 A 
ATOM     12  H   UNL A   1      26.680  27.238  23.718  1.00  0.00     0.169 HD
ATOM     13  O   UNL A   1      27.473  29.224  22.418  1.00  0.00    -0.270 OA
BRANCH   7  14
ATOM     14  C   UNL A   1      30.482  25.074  24.482  1.00  0.00    -0.015 A 
ATOM     15  C   UNL A   1      33.849  21.123  24.960  1.00  0.00     0.046 C 
ATOM     16  C   UNL A   1      33.004  22.339  24.759  1.00  0.00    -0.032 A 
ATOM     17  C   UNL A   1      32.878  23.519  26.101  1.00  0.00     0.005 A 
ATOM     18  C   UNL A   1      31.921  22.529  23.399  1.00  0.00     0.044 A 
ATOM     19  C   UNL A   1      31.488  24.988  25.989  1.00  0.00     0.009 A 
ATOM     20  C   UNL A   1      30.725  23.826  23.251  1.00  0.00     0.029 A 
ATOM     21  Cl  UNL A   1      31.899  21.313  22.169  1.00  0.00    -0.084 Cl
ENDBRANCH   7  14
ENDBRANCH   4   6
ENDBRANCH   3   4
ENDBRANCH   2   3
ENDBRANCH   1   2
BRANCH   1  22
ATOM     22  O   UNL A   1      32.754  30.476  25.595  1.00  0.00    -0.458 OA
BRANCH  22  23
ATOM     23  C   UNL A   1      32.478  31.269  26.648  1.00  0.00     0.338 C 
ATOM     24  O   UNL A   1      31.441  31.869  26.881  1.00  0.00    -0.246 OA
BRANCH  23  25
ATOM     25  C   UNL A   1      33.570  31.257  27.620  1.00  0.00     0.060 A 
ATOM     26  C   UNL A   1      34.605  32.709  27.840  1.00  0.00     0.016 A 
ATOM     27  C   UNL A   1      34.265  29.683  27.963  1.00  0.00     0.016 A 
ATOM     28  C   UNL A   1      36.527  32.426  28.408  1.00  0.00     0.010 A 
ATOM     29  C   UNL A   1      35.931  29.452  28.532  1.00  0.00     0.010 A 
ATOM     30  C   UNL A   1      37.106  30.759  28.785  1.00  0.00    -0.014 A 
BRANCH  30  31
ATOM     31  C   UNL A   1      38.383  30.493  29.589  1.00  0.00     0.031 A 
ATOM     32  C   UNL A   1      39.423  29.494  29.094  1.00  0.00     0.074 A 
ATOM     33  C   UNL A   1      38.575  30.980  30.843  1.00  0.00     0.049 A 
ATOM     34  N   UNL A   1      40.357  28.849  29.761  1.00  0.00    -0.248 NA
ATOM     35  C   UNL A   1      39.376  29.130  27.672  1.00  0.00     0.031 C 
ATOM     36  C   UNL A   1      37.731  31.923  31.555  1.00  0.00     0.029 A 
ATOM     37  N   UNL A   1      39.552  30.704  31.788  1.00  0.00    -0.354 N 
ATOM     38  C   UNL A   1      40.932  27.955  28.860  1.00  0.00     0.074 A 
ATOM     39  C   UNL A   1      40.176  28.074  27.631  1.00  0.00     0.031 C 
ATOM     40  C   UNL A   1      38.188  32.161  32.782  1.00  0.00     0.029 A 
ATOM     41  C   UNL A   1      39.341  31.326  33.003  1.00  0.00     0.049 A 
ATOM     42  H   UNL A   1      40.325  30.120  31.609  1.00  0.00     0.167 HD
ATOM     43  C   UNL A   1      42.023  27.155  29.005  1.00  0.00     0.037 A 
ATOM     44  C   UNL A   1      39.947  31.254  34.202  1.00  0.00     0.037 A 
ATOM     45  C   UNL A   1      42.873  27.140  30.172  1.00  0.00     0.049 A 
ATOM     46  C   UNL A   1      41.163  30.410  34.341  1.00  0.00     0.074 A 
ATOM     47  C   UNL A   1      44.072  26.469  30.361  1.00  0.00     0.029 A 
ATOM     48  N   UNL A   1      42.637  27.856  31.336  1.00  0.00    -0.354 N 
ATOM     49  N   UNL A   1      41.692  29.594  33.467  1.00  0.00    -0.248 NA
ATOM     50  C   UNL A   1      41.894  30.514  35.608  1.00  0.00     0.031 C 
ATOM     51  C   UNL A   1      44.548  26.763  31.645  1.00  0.00     0.029 A 
ATOM     52  C   UNL A   1      43.668  27.648  32.243  1.00  0.00     0.049 A 
ATOM     53  H   UNL A   1      41.852  28.430  31.497  1.00  0.00     0.167 HD
ATOM     54  C   UNL A   1      42.852  29.123  34.055  1.00  0.00     0.074 A 
ATOM     55  C   UNL A   1      42.945  29.746  35.361  1.00  0.00     0.031 C 
ATOM     56  C   UNL A   1      43.762  28.264  33.541  1.00  0.00     0.037 A 
BRANCH  43  57
ATOM     57  C   UNL A   1      42.400  26.261  27.846  1.00  0.00     0.064 A 
ATOM     58  C   UNL A   1      43.372  26.636  26.904  1.00  0.00     0.173 A 
ATOM     59  C   UNL A   1      41.796  25.003  27.680  1.00  0.00     0.173 A 
ATOM     60  F   UNL A   1      43.993  27.821  27.011  1.00  0.00    -0.203 F 
ATOM     61  C   UNL A   1      43.668  25.829  25.807  1.00  0.00     0.198 A 
ATOM     62  C   UNL A   1      42.129  24.176  26.607  1.00  0.00     0.198 A 
ATOM     63  F   UNL A   1      40.883  24.568  28.562  1.00  0.00    -0.203 F 
ATOM     64  F   UNL A   1      44.536  26.257  24.878  1.00  0.00    -0.200 F 
ATOM     65  C   UNL A   1      43.050  24.598  25.661  1.00  0.00     0.200 A 
ATOM     66  F   UNL A   1      41.549  22.974  26.481  1.00  0.00    -0.200 F 
ATOM     67  F   UNL A   1      43.334  23.825  24.604  1.00  0.00    -0.200 F 
ENDBRANCH  43  57
BRANCH  44  68
ATOM     68  C   UNL A   1      39.435  32.084  35.329  1.00  0.00     0.064 A 
ATOM     69  C   UNL A   1      38.583  31.527  36.292  1.00  0.00     0.173 A 
ATOM     70  C   UNL A   1      39.861  33.407  35.521  1.00  0.00     0.173 A 
ATOM     71  F   UNL A   1      38.152  30.265  36.153  1.00  0.00    -0.203 F 
ATOM     72  C   UNL A   1      38.168  32.264  37.399  1.00  0.00     0.198 A 
ATOM     73  C   UNL A   1      39.465  34.135  36.643  1.00  0.00     0.198 A 
ATOM     74  F   UNL A   1      40.704  33.976  34.647  1.00  0.00    -0.203 F 
ATOM     75  F   UNL A   1      37.336  31.712  38.292  1.00  0.00    -0.200 F 
ATOM     76  C   UNL A   1      38.615  33.564  37.577  1.00  0.00     0.200 A 
ATOM     77  F   UNL A   1      39.923  35.381  36.829  1.00  0.00    -0.200 F 
ATOM     78  F   UNL A   1      38.231  34.264  38.654  1.00  0.00    -0.200 F 
ENDBRANCH  44  68
BRANCH  56  79
ATOM     79  C   UNL A   1      44.971  27.996  34.382  1.00  0.00     0.064 A 
ATOM     80  C   UNL A   1      46.125  28.784  34.287  1.00  0.00     0.173 A 
ATOM     81  C   UNL A   1      44.981  26.913  35.274  1.00  0.00     0.173 A 
ATOM     82  F   UNL A   1      46.173  29.811  33.425  1.00  0.00    -0.203 F 
ATOM     83  C   UNL A   1      47.262  28.477  35.029  1.00  0.00     0.198 A 
ATOM     84  C   UNL A   1      46.108  26.628  36.039  1.00  0.00     0.198 A 
ATOM     85  F   UNL A   1      43.902  26.125  35.395  1.00  0.00    -0.203 F 
ATOM     86  F   UNL A   1      48.378  29.202  34.872  1.00  0.00    -0.200 F 
ATOM     87  C   UNL A   1      47.250  27.403  35.907  1.00  0.00     0.200 A 
ATOM     88  F   UNL A   1      46.094  25.594  36.891  1.00  0.00    -0.200 F 
ATOM     89  F   UNL A   1      48.348  27.106  36.617  1.00  0.00    -0.200 F 
ENDBRANCH  56  79
ENDBRANCH  30  31
ENDBRANCH  23  25
ENDBRANCH  22  23
ENDBRANCH   1  22
TORSDOF 12
ENDMDL
MODEL 3
REMARK VINA RESULT:     -12.8      1.145      2.117
REMARK SMILES Cc1ccc(-c2c[nH]c(=O)cc2C(=O)OCCOC(=O)c2ccc(-c3c4nc(c(-c5c(F)c(F)c(F)c(F)c5F)c5ccc([nH]5)c(-c5c(F)c(F)c(F)c(F)c5F)c5nc(c(-c6c(F)c(F)c(F)c(F)c6F)c6ccc3[nH]6)C=C5)C=C4)cc2)cc1Cl
REMARK SMILES IDX 17 1 16 2 15 3 13 4 14 5 12 6 6 7 7 8 8 9 11 10 9 11 10 13
REMARK SMILES IDX 5 14 1 15 2 16 3 17 85 18 4 19 84 20 86 21 18 22 19 23 20 24
REMARK SMILES IDX 21 25 22 26 83 27 23 28 82 29 24 30 25 31 26 32 76 33 27 34
REMARK SMILES IDX 81 35 75 36 77 37 28 38 80 39 74 40 73 41 29 43 61 44 41 45
REMARK SMILES IDX 60 46 42 47 45 48 59 49 78 50 43 51 44 52 58 54 79 55 46 56
REMARK SMILES IDX 30 57 31 58 39 59 32 60 33 61 37 62 40 63 34 64 35 65 38 66
REMARK SMILES IDX 36 67 62 68 63 69 71 70 64 71 65 72 69 73 72 74 66 75 67 76
REMARK SMILES IDX 70 77 68 78 47 79 48 80 56 81 49 82 50 83 54 84 57 85 51 86
REMARK SMILES IDX 52 87 55 88 53 89
REMARK H PARENT 8 12 77 42 45 53
REMARK Flexibility Score: inf
ROOT
ATOM      1  C   UNL A   1      31.767  29.544  25.448  1.00  0.00     0.275 C 
ENDROOT
BRANCH   1   2
ATOM      2  C   UNL A   1      32.156  28.125  25.852  1.00  0.00     0.275 C 
BRANCH   2   3
ATOM      3  O   UNL A   1      31.028  27.454  26.456  1.00  0.00    -0.458 OA
BRANCH   3   4
ATOM      4  C   UNL A   1      30.606  26.326  25.830  1.00  0.00     0.339 C 
ATOM      5  O   UNL A   1      30.193  25.314  26.377  1.00  0.00    -0.246 OA
BRANCH   4   6
ATOM      6  C   UNL A   1      30.757  26.440  24.359  1.00  0.00     0.074 A 
ATOM      7  C   UNL A   1      31.783  25.715  23.595  1.00  0.00     0.013 A 
ATOM      8  C   UNL A   1      32.019  26.110  22.332  1.00  0.00     0.095 A 
ATOM      9  N   UNL A   1      31.287  27.128  21.768  1.00  0.00    -0.328 N 
ATOM     10  C   UNL A   1      30.027  27.423  23.809  1.00  0.00     0.087 A 
ATOM     11  C   UNL A   1      30.285  27.813  22.409  1.00  0.00     0.248 A 
ATOM     12  H   UNL A   1      31.495  27.382  20.840  1.00  0.00     0.169 HD
ATOM     13  O   UNL A   1      29.661  28.727  21.884  1.00  0.00    -0.270 OA
BRANCH   7  14
ATOM     14  C   UNL A   1      32.699  24.729  24.192  1.00  0.00    -0.015 A 
ATOM     15  C   UNL A   1      35.880  20.679  25.001  1.00  0.00     0.046 C 
ATOM     16  C   UNL A   1      35.026  21.846  24.621  1.00  0.00    -0.032 A 
ATOM     17  C   UNL A   1      35.647  23.495  24.942  1.00  0.00     0.005 A 
ATOM     18  C   UNL A   1      33.353  21.681  24.139  1.00  0.00     0.044 A 
ATOM     19  C   UNL A   1      34.389  25.071  24.755  1.00  0.00     0.009 A 
ATOM     20  C   UNL A   1      32.240  23.041  23.925  1.00  0.00     0.029 A 
ATOM     21  Cl  UNL A   1      32.677  20.096  23.986  1.00  0.00    -0.084 Cl
ENDBRANCH   7  14
ENDBRANCH   4   6
ENDBRANCH   3   4
ENDBRANCH   2   3
ENDBRANCH   1   2
BRANCH   1  22
ATOM     22  O   UNL A   1      32.885  30.417  25.696  1.00  0.00    -0.458 OA
BRANCH  22  23
ATOM     23  C   UNL A   1      32.687  31.283  26.707  1.00  0.00     0.338 C 
ATOM     24  O   UNL A   1      31.706  31.981  26.914  1.00  0.00    -0.246 OA
BRANCH  23  25
ATOM     25  C   UNL A   1      33.783  31.229  27.672  1.00  0.00     0.060 A 
ATOM     26  C   UNL A   1      34.858  32.649  27.906  1.00  0.00     0.016 A 
ATOM     27  C   UNL A   1      34.436  29.633  27.992  1.00  0.00     0.016 A 
ATOM     28  C   UNL A   1      36.775  32.307  28.459  1.00  0.00     0.010 A 
ATOM     29  C   UNL A   1      36.098  29.348  28.548  1.00  0.00     0.010 A 
ATOM     30  C   UNL A   1      37.310  30.619  28.811  1.00  0.00    -0.014 A 
BRANCH  30  31
ATOM     31  C   UNL A   1      38.583  30.308  29.604  1.00  0.00     0.031 A 
ATOM     32  C   UNL A   1      39.595  29.291  29.088  1.00  0.00     0.074 A 
ATOM     33  C   UNL A   1      38.794  30.769  30.865  1.00  0.00     0.049 A 
ATOM     34  N   UNL A   1      40.516  28.612  29.740  1.00  0.00    -0.248 NA
ATOM     35  C   UNL A   1      39.532  28.951  27.662  1.00  0.00     0.031 C 
ATOM     36  C   UNL A   1      37.977  31.723  31.597  1.00  0.00     0.029 A 
ATOM     37  N   UNL A   1      39.767  30.454  31.800  1.00  0.00    -0.354 N 
ATOM     38  C   UNL A   1      41.064  27.718  28.822  1.00  0.00     0.074 A 
ATOM     39  C   UNL A   1      40.305  27.876  27.600  1.00  0.00     0.031 C 
ATOM     40  C   UNL A   1      38.445  31.929  32.824  1.00  0.00     0.029 A 
ATOM     41  C   UNL A   1      39.578  31.061  33.027  1.00  0.00     0.049 A 
ATOM     42  H   UNL A   1      40.524  29.854  31.609  1.00  0.00     0.167 HD
ATOM     43  C   UNL A   1      42.134  26.888  28.949  1.00  0.00     0.037 A 
ATOM     44  C   UNL A   1      40.187  30.955  34.221  1.00  0.00     0.037 A 
ATOM     45  C   UNL A   1      42.989  26.833  30.112  1.00  0.00     0.049 A 
ATOM     46  C   UNL A   1      41.382  30.079  34.341  1.00  0.00     0.074 A 
ATOM     47  C   UNL A   1      44.171  26.129  30.284  1.00  0.00     0.029 A 
ATOM     48  N   UNL A   1      42.777  27.536  31.289  1.00  0.00    -0.354 N 
ATOM     49  N   UNL A   1      41.886  29.263  33.452  1.00  0.00    -0.248 NA
ATOM     50  C   UNL A   1      42.121  30.143  35.605  1.00  0.00     0.031 C 
ATOM     51  C   UNL A   1      44.660  26.390  31.570  1.00  0.00     0.029 A 
ATOM     52  C   UNL A   1      43.806  27.287  32.187  1.00  0.00     0.049 A 
ATOM     53  H   UNL A   1      42.008  28.127  31.462  1.00  0.00     0.167 HD
ATOM     54  C   UNL A   1      43.036  28.754  34.026  1.00  0.00     0.074 A 
ATOM     55  C   UNL A   1      43.151  29.353  35.342  1.00  0.00     0.031 C 
ATOM     56  C   UNL A   1      43.922  27.880  33.494  1.00  0.00     0.037 A 
BRANCH  43  57
ATOM     57  C   UNL A   1      42.483  26.004  27.774  1.00  0.00     0.064 A 
ATOM     58  C   UNL A   1      41.827  24.783  27.543  1.00  0.00     0.173 A 
ATOM     59  C   UNL A   1      43.473  26.386  26.854  1.00  0.00     0.173 A 
ATOM     60  F   UNL A   1      40.864  24.366  28.379  1.00  0.00    -0.203 F 
ATOM     61  C   UNL A   1      42.198  23.949  26.490  1.00  0.00     0.198 A 
ATOM     62  C   UNL A   1      43.810  25.571  25.773  1.00  0.00     0.198 A 
ATOM     63  F   UNL A   1      44.116  27.555  26.996  1.00  0.00    -0.203 F 
ATOM     64  F   UNL A   1      41.614  22.751  26.351  1.00  0.00    -0.200 F 
ATOM     65  C   UNL A   1      43.186  24.344  25.603  1.00  0.00     0.200 A 
ATOM     66  F   UNL A   1      44.748  25.966  24.901  1.00  0.00    -0.200 F 
ATOM     67  F   UNL A   1      43.544  23.540  24.593  1.00  0.00    -0.200 F 
ENDBRANCH  43  57
BRANCH  44  68
ATOM     68  C   UNL A   1      39.702  31.780  35.364  1.00  0.00     0.064 A 
ATOM     69  C   UNL A   1      40.161  33.092  35.538  1.00  0.00     0.173 A 
ATOM     70  C   UNL A   1      38.704  31.315  36.235  1.00  0.00     0.173 A 
ATOM     71  F   UNL A   1      41.111  33.581  34.728  1.00  0.00    -0.203 F 
ATOM     72  C   UNL A   1      39.652  33.905  36.548  1.00  0.00     0.198 A 
ATOM     73  C   UNL A   1      38.177  32.141  37.229  1.00  0.00     0.198 A 
ATOM     74  F   UNL A   1      38.205  30.080  36.089  1.00  0.00    -0.203 F 
ATOM     75  F   UNL A   1      40.126  35.148  36.706  1.00  0.00    -0.200 F 
ATOM     76  C   UNL A   1      38.655  33.432  37.387  1.00  0.00     0.200 A 
ATOM     77  F   UNL A   1      37.192  31.690  38.019  1.00  0.00    -0.200 F 
ATOM     78  F   UNL A   1      38.151  34.223  38.344  1.00  0.00    -0.200 F 
ENDBRANCH  44  68
BRANCH  56  79
ATOM     79  C   UNL A   1      45.127  27.568  34.325  1.00  0.00     0.064 A 
ATOM     80  C   UNL A   1      46.303  28.324  34.231  1.00  0.00     0.173 A 
ATOM     81  C   UNL A   1      45.111  26.475  35.205  1.00  0.00     0.173 A 
ATOM     82  F   UNL A   1      46.375  29.359  33.381  1.00  0.00    -0.203 F 
ATOM     83  C   UNL A   1      47.435  27.976  34.963  1.00  0.00     0.198 A 
ATOM     84  C   UNL A   1      46.234  26.150  35.959  1.00  0.00     0.198 A 
ATOM     85  F   UNL A   1      44.011  25.717  35.323  1.00  0.00    -0.203 F 
ATOM     86  F   UNL A   1      48.571  28.670  34.807  1.00  0.00    -0.200 F 
ATOM     87  C   UNL A   1      47.397  26.893  35.829  1.00  0.00     0.200 A 
ATOM     88  F   UNL A   1      46.195  25.107  36.800  1.00  0.00    -0.200 F 
ATOM     89  F   UNL A   1      48.490  26.556  36.529  1.00  0.00    -0.200 F 
ENDBRANCH  56  79
ENDBRANCH  30  31
ENDBRANCH  23  25
ENDBRANCH  22  23
ENDBRANCH   1  22
TORSDOF 12
ENDMDL
