MODEL 1
REMARK VINA RESULT:     -13.7      0.000      0.000
REMARK SMILES Cc1c(C(=O)Nc2ccc(C(=O)Nc3ccccc3C(=O)OCCOC(=O)c3ccc(-c4c5nc(c(-c6c(F)c(F)c(F)c(F)c6F)c6ccc([nH]6)c(-c6c(F)c(F)c(F)c(F)c6F)c6nc(c(-c7c(F)c(F)c(F)c(F)c7F)c7ccc4[nH]7)C=C6)C=C5)cc3)cc2)cccc1[N+](=O)[O-]
REMARK SMILES IDX 22 1 20 2 21 3 19 4 14 5 15 6 16 7 18 8 17 9 13 10 11 11
REMARK SMILES IDX 12 12 10 14 7 15 8 16 92 17 9 18 91 19 6 20 4 21 5 22 3 24
REMARK SMILES IDX 1 25 2 26 96 27 93 28 95 29 94 30 97 31 98 32 99 33 23 34
REMARK SMILES IDX 24 35 25 36 26 37 27 38 28 39 29 40 90 41 30 42 89 43 31 44
REMARK SMILES IDX 32 45 33 46 83 47 34 48 88 49 82 50 84 51 35 52 87 53 81 54
REMARK SMILES IDX 80 55 36 57 68 58 48 59 67 60 49 61 52 62 66 63 85 64 50 65
REMARK SMILES IDX 51 66 65 68 86 69 53 70 37 71 38 72 46 73 39 74 40 75 44 76
REMARK SMILES IDX 47 77 41 78 42 79 45 80 43 81 69 82 70 83 78 84 71 85 72 86
REMARK SMILES IDX 76 87 79 88 73 89 74 90 77 91 75 92 54 93 55 94 63 95 56 96
REMARK SMILES IDX 57 97 61 98 64 99 58 100 59 101 62 102 60 103
REMARK H PARENT 13 13 6 23 84 56 52 67
REMARK Flexibility Score: inf
ROOT
ATOM      1  O   UNL A   1      31.520  30.231  25.743  1.00  0.00    -0.458 OA
ENDROOT
BRANCH   1   2
ATOM      2  C   UNL A   1      30.738  31.170  25.140  1.00  0.00     0.340 C 
ATOM      3  O   UNL A   1      30.583  32.285  25.640  1.00  0.00    -0.246 OA
BRANCH   2   4
ATOM      4  C   UNL A   1      29.944  30.813  23.896  1.00  0.00     0.083 A 
ATOM      5  C   UNL A   1      30.261  30.063  22.736  1.00  0.00     0.056 A 
ATOM      6  C   UNL A   1      29.307  30.006  21.684  1.00  0.00     0.027 A 
ATOM      7  C   UNL A   1      28.033  30.557  21.789  1.00  0.00     0.002 A 
ATOM      8  C   UNL A   1      28.632  31.368  23.958  1.00  0.00     0.018 A 
ATOM      9  C   UNL A   1      27.687  31.228  22.942  1.00  0.00     0.001 A 
BRANCH   5  10
ATOM     10  N   UNL A   1      31.378  29.263  22.412  1.00  0.00    -0.321 N 
ATOM     11  C   UNL A   1      31.843  28.029  22.804  1.00  0.00     0.255 C 
ATOM     12  O   UNL A   1      32.810  27.571  22.191  1.00  0.00    -0.269 OA
ATOM     13  H   UNL A   1      31.965  29.691  21.748  1.00  0.00     0.170 HD
BRANCH  11  14
ATOM     14  C   UNL A   1      31.253  27.219  23.879  1.00  0.00     0.040 A 
ATOM     15  C   UNL A   1      30.139  25.737  25.948  1.00  0.00     0.041 A 
ATOM     16  C   UNL A   1      29.386  26.049  24.827  1.00  0.00     0.027 A 
ATOM     17  C   UNL A   1      31.395  26.311  26.129  1.00  0.00     0.027 A 
ATOM     18  C   UNL A   1      30.007  26.631  23.743  1.00  0.00     0.016 A 
ATOM     19  C   UNL A   1      31.953  27.058  25.083  1.00  0.00     0.016 A 
BRANCH  15  20
ATOM     20  N   UNL A   1      29.734  24.686  26.776  1.00  0.00    -0.322 N 
ATOM     21  C   UNL A   1      30.188  23.371  26.729  1.00  0.00     0.256 C 
ATOM     22  O   UNL A   1      29.638  22.509  27.410  1.00  0.00    -0.269 OA
ATOM     23  H   UNL A   1      29.060  24.897  27.462  1.00  0.00     0.170 HD
BRANCH  21  24
ATOM     24  C   UNL A   1      31.337  22.966  25.834  1.00  0.00     0.049 A 
ATOM     25  C   UNL A   1      33.027  22.627  27.717  1.00  0.00     0.053 C 
ATOM     26  C   UNL A   1      32.686  22.798  26.259  1.00  0.00     0.039 A 
ATOM     27  C   UNL A   1      33.692  22.828  25.257  1.00  0.00     0.273 A 
ATOM     28  C   UNL A   1      31.018  22.895  24.467  1.00  0.00     0.014 A 
ATOM     29  C   UNL A   1      33.354  22.776  23.893  1.00  0.00     0.086 A 
ATOM     30  C   UNL A   1      32.018  22.756  23.505  1.00  0.00     0.008 A 
BRANCH  27  31
ATOM     31  N   UNL A   1      35.120  23.060  25.572  1.00  0.00     0.063 N 
ATOM     32  O   UNL A   1      35.486  24.233  25.733  1.00  0.00    -0.258 OA
ATOM     33  O   UNL A   1      35.853  22.078  25.744  1.00  0.00    -0.258 OA
ENDBRANCH  27  31
ENDBRANCH  21  24
ENDBRANCH  15  20
ENDBRANCH  11  14
ENDBRANCH   5  10
ENDBRANCH   2   4
ENDBRANCH   1   2
BRANCH   1  34
ATOM     34  C   UNL A   1      32.257  30.775  26.859  1.00  0.00     0.275 C 
BRANCH  34  35
ATOM     35  C   UNL A   1      33.514  30.033  27.383  1.00  0.00     0.275 C 
BRANCH  35  36
ATOM     36  O   UNL A   1      34.875  30.432  27.067  1.00  0.00    -0.458 OA
BRANCH  36  37
ATOM     37  C   UNL A   1      35.791  31.073  27.826  1.00  0.00     0.338 C 
ATOM     38  O   UNL A   1      35.662  32.215  28.243  1.00  0.00    -0.246 OA
BRANCH  37  39
ATOM     39  C   UNL A   1      36.917  30.255  28.223  1.00  0.00     0.060 A 
ATOM     40  C   UNL A   1      36.841  29.555  29.435  1.00  0.00     0.016 A 
ATOM     41  C   UNL A   1      37.925  30.056  27.287  1.00  0.00     0.016 A 
ATOM     42  C   UNL A   1      37.731  28.529  29.678  1.00  0.00     0.010 A 
ATOM     43  C   UNL A   1      38.759  28.992  27.479  1.00  0.00     0.010 A 
ATOM     44  C   UNL A   1      38.698  28.292  28.706  1.00  0.00    -0.014 A 
BRANCH  44  45
ATOM     45  C   UNL A   1      40.013  27.825  29.093  1.00  0.00     0.031 A 
ATOM     46  C   UNL A   1      40.445  26.459  28.809  1.00  0.00     0.074 A 
ATOM     47  C   UNL A   1      40.780  28.933  29.212  1.00  0.00     0.049 A 
ATOM     48  N   UNL A   1      41.604  25.995  29.105  1.00  0.00    -0.248 NA
ATOM     49  C   UNL A   1      39.580  25.455  28.197  1.00  0.00     0.031 C 
ATOM     50  C   UNL A   1      42.152  29.195  28.832  1.00  0.00     0.029 A 
ATOM     51  N   UNL A   1      40.334  30.171  29.719  1.00  0.00    -0.354 N 
ATOM     52  C   UNL A   1      41.769  24.845  28.359  1.00  0.00     0.074 A 
ATOM     53  C   UNL A   1      40.438  24.454  27.975  1.00  0.00     0.031 C 
ATOM     54  C   UNL A   1      42.526  30.366  29.390  1.00  0.00     0.029 A 
ATOM     55  C   UNL A   1      41.446  30.785  30.284  1.00  0.00     0.049 A 
ATOM     56  H   UNL A   1      39.418  30.530  29.680  1.00  0.00     0.167 HD
ATOM     57  C   UNL A   1      43.034  24.518  27.959  1.00  0.00     0.037 A 
ATOM     58  C   UNL A   1      41.507  30.783  31.650  1.00  0.00     0.037 A 
ATOM     59  C   UNL A   1      43.978  25.504  28.501  1.00  0.00     0.049 A 
ATOM     60  C   UNL A   1      42.625  29.884  32.112  1.00  0.00     0.074 A 
ATOM     61  C   UNL A   1      44.553  26.632  27.937  1.00  0.00     0.029 A 
ATOM     62  N   UNL A   1      44.099  25.651  29.881  1.00  0.00    -0.354 N 
ATOM     63  N   UNL A   1      42.978  28.774  31.519  1.00  0.00    -0.248 NA
ATOM     64  C   UNL A   1      43.497  30.250  33.217  1.00  0.00     0.031 C 
ATOM     65  C   UNL A   1      44.961  27.491  28.993  1.00  0.00     0.029 A 
ATOM     66  C   UNL A   1      44.621  26.893  30.196  1.00  0.00     0.049 A 
ATOM     67  H   UNL A   1      43.846  24.966  30.541  1.00  0.00     0.167 HD
ATOM     68  C   UNL A   1      44.154  28.338  32.064  1.00  0.00     0.074 A 
ATOM     69  C   UNL A   1      44.422  29.280  33.139  1.00  0.00     0.031 C 
ATOM     70  C   UNL A   1      44.858  27.270  31.581  1.00  0.00     0.037 A 
BRANCH  57  71
ATOM     71  C   UNL A   1      43.376  23.576  26.818  1.00  0.00     0.064 A 
ATOM     72  C   UNL A   1      43.111  22.190  26.931  1.00  0.00     0.173 A 
ATOM     73  C   UNL A   1      43.987  23.951  25.606  1.00  0.00     0.173 A 
ATOM     74  F   UNL A   1      42.446  21.685  27.978  1.00  0.00    -0.203 F 
ATOM     75  C   UNL A   1      43.511  21.258  25.968  1.00  0.00     0.198 A 
ATOM     76  C   UNL A   1      44.420  23.014  24.655  1.00  0.00     0.198 A 
ATOM     77  F   UNL A   1      44.138  25.235  25.266  1.00  0.00    -0.203 F 
ATOM     78  F   UNL A   1      43.238  19.958  26.148  1.00  0.00    -0.200 F 
ATOM     79  C   UNL A   1      44.189  21.667  24.840  1.00  0.00     0.200 A 
ATOM     80  F   UNL A   1      45.055  23.432  23.551  1.00  0.00    -0.200 F 
ATOM     81  F   UNL A   1      44.590  20.773  23.926  1.00  0.00    -0.200 F 
ENDBRANCH  57  71
BRANCH  58  82
ATOM     82  C   UNL A   1      40.163  30.913  32.311  1.00  0.00     0.064 A 
ATOM     83  C   UNL A   1      39.506  32.163  32.270  1.00  0.00     0.173 A 
ATOM     84  C   UNL A   1      39.383  29.806  32.678  1.00  0.00     0.173 A 
ATOM     85  F   UNL A   1      40.187  33.263  31.908  1.00  0.00    -0.203 F 
ATOM     86  C   UNL A   1      38.135  32.288  32.506  1.00  0.00     0.198 A 
ATOM     87  C   UNL A   1      38.007  29.935  32.919  1.00  0.00     0.198 A 
ATOM     88  F   UNL A   1      39.919  28.579  32.718  1.00  0.00    -0.203 F 
ATOM     89  F   UNL A   1      37.538  33.482  32.374  1.00  0.00    -0.200 F 
ATOM     90  C   UNL A   1      37.383  31.169  32.815  1.00  0.00     0.200 A 
ATOM     91  F   UNL A   1      37.266  28.845  33.168  1.00  0.00    -0.200 F 
ATOM     92  F   UNL A   1      36.057  31.268  32.979  1.00  0.00    -0.200 F 
ENDBRANCH  58  82
BRANCH  70  93
ATOM     93  C   UNL A   1      45.927  26.529  32.343  1.00  0.00     0.064 A 
ATOM     94  C   UNL A   1      45.646  25.520  33.276  1.00  0.00     0.173 A 
ATOM     95  C   UNL A   1      47.294  26.689  32.008  1.00  0.00     0.173 A 
ATOM     96  F   UNL A   1      44.389  25.168  33.576  1.00  0.00    -0.203 F 
ATOM     97  C   UNL A   1      46.659  24.780  33.887  1.00  0.00     0.198 A 
ATOM     98  C   UNL A   1      48.292  25.891  32.557  1.00  0.00     0.198 A 
ATOM     99  F   UNL A   1      47.704  27.594  31.107  1.00  0.00    -0.203 F 
ATOM    100  F   UNL A   1      46.339  23.869  34.816  1.00  0.00    -0.200 F 
ATOM    101  C   UNL A   1      47.977  24.953  33.515  1.00  0.00     0.200 A 
ATOM    102  F   UNL A   1      49.557  26.023  32.130  1.00  0.00    -0.200 F 
ATOM    103  F   UNL A   1      48.938  24.197  34.059  1.00  0.00    -0.200 F 
ENDBRANCH  70  93
ENDBRANCH  44  45
ENDBRANCH  37  39
ENDBRANCH  36  37
ENDBRANCH  35  36
ENDBRANCH  34  35
ENDBRANCH   1  34
TORSDOF 16
ENDMDL
MODEL 2
REMARK VINA RESULT:     -13.5      3.397      9.537
REMARK SMILES Cc1c(C(=O)Nc2ccc(C(=O)Nc3ccccc3C(=O)OCCOC(=O)c3ccc(-c4c5nc(c(-c6c(F)c(F)c(F)c(F)c6F)c6ccc([nH]6)c(-c6c(F)c(F)c(F)c(F)c6F)c6nc(c(-c7c(F)c(F)c(F)c(F)c7F)c7ccc4[nH]7)C=C6)C=C5)cc3)cc2)cccc1[N+](=O)[O-]
REMARK SMILES IDX 22 1 20 2 21 3 19 4 14 5 15 6 16 7 18 8 17 9 13 10 11 11
REMARK SMILES IDX 12 12 10 14 7 15 8 16 92 17 9 18 91 19 6 20 4 21 5 22 3 24
REMARK SMILES IDX 1 25 2 26 96 27 93 28 95 29 94 30 97 31 98 32 99 33 23 34
REMARK SMILES IDX 24 35 25 36 26 37 27 38 28 39 29 40 90 41 30 42 89 43 31 44
REMARK SMILES IDX 32 45 33 46 83 47 34 48 88 49 82 50 84 51 35 52 87 53 81 54
REMARK SMILES IDX 80 55 36 57 68 58 48 59 67 60 49 61 52 62 66 63 85 64 50 65
REMARK SMILES IDX 51 66 65 68 86 69 53 70 37 71 38 72 46 73 39 74 40 75 44 76
REMARK SMILES IDX 47 77 41 78 42 79 45 80 43 81 69 82 70 83 78 84 71 85 72 86
REMARK SMILES IDX 76 87 79 88 73 89 74 90 77 91 75 92 54 93 55 94 63 95 56 96
REMARK SMILES IDX 57 97 61 98 64 99 58 100 59 101 62 102 60 103
REMARK H PARENT 13 13 6 23 84 56 52 67
REMARK Flexibility Score: inf
ROOT
ATOM      1  O   UNL A   1      36.683  21.652  24.424  1.00  0.00    -0.458 OA
ENDROOT
BRANCH   1   2
ATOM      2  C   UNL A   1      35.803  22.273  23.589  1.00  0.00     0.340 C 
ATOM      3  O   UNL A   1      36.197  23.025  22.697  1.00  0.00    -0.246 OA
BRANCH   2   4
ATOM      4  C   UNL A   1      34.309  22.140  23.823  1.00  0.00     0.083 A 
ATOM      5  C   UNL A   1      33.180  22.678  23.157  1.00  0.00     0.056 A 
ATOM      6  C   UNL A   1      31.891  22.438  23.707  1.00  0.00     0.027 A 
ATOM      7  C   UNL A   1      31.680  21.606  24.803  1.00  0.00     0.002 A 
ATOM      8  C   UNL A   1      34.048  21.301  24.946  1.00  0.00     0.018 A 
ATOM      9  C   UNL A   1      32.765  21.019  25.416  1.00  0.00     0.001 A 
BRANCH   5  10
ATOM     10  N   UNL A   1      33.058  23.402  21.952  1.00  0.00    -0.321 N 
ATOM     11  C   UNL A   1      33.210  24.719  21.584  1.00  0.00     0.255 C 
ATOM     12  O   UNL A   1      33.158  24.976  20.379  1.00  0.00    -0.269 OA
ATOM     13  H   UNL A   1      32.804  22.828  21.193  1.00  0.00     0.170 HD
BRANCH  11  14
ATOM     14  C   UNL A   1      33.451  25.824  22.522  1.00  0.00     0.040 A 
ATOM     15  C   UNL A   1      33.963  27.895  24.302  1.00  0.00     0.041 A 
ATOM     16  C   UNL A   1      33.781  28.161  22.954  1.00  0.00     0.027 A 
ATOM     17  C   UNL A   1      34.069  26.579  24.747  1.00  0.00     0.027 A 
ATOM     18  C   UNL A   1      33.357  27.147  22.121  1.00  0.00     0.016 A 
ATOM     19  C   UNL A   1      33.810  25.538  23.846  1.00  0.00     0.016 A 
BRANCH  15  20
ATOM     20  N   UNL A   1      33.820  28.930  25.231  1.00  0.00    -0.322 N 
ATOM     21  C   UNL A   1      32.660  29.654  25.492  1.00  0.00     0.256 C 
ATOM     22  O   UNL A   1      32.707  30.641  26.221  1.00  0.00    -0.269 OA
ATOM     23  H   UNL A   1      34.619  29.170  25.753  1.00  0.00     0.170 HD
BRANCH  21  24
ATOM     24  C   UNL A   1      31.335  29.268  24.877  1.00  0.00     0.049 A 
ATOM     25  C   UNL A   1      31.025  27.133  26.240  1.00  0.00     0.053 C 
ATOM     26  C   UNL A   1      30.667  28.027  25.081  1.00  0.00     0.039 A 
ATOM     27  C   UNL A   1      29.675  27.659  24.135  1.00  0.00     0.273 A 
ATOM     28  C   UNL A   1      30.837  30.186  23.935  1.00  0.00     0.014 A 
ATOM     29  C   UNL A   1      29.202  28.584  23.188  1.00  0.00     0.086 A 
ATOM     30  C   UNL A   1      29.748  29.862  23.127  1.00  0.00     0.008 A 
BRANCH  27  31
ATOM     31  N   UNL A   1      29.192  26.266  23.992  1.00  0.00     0.063 N 
ATOM     32  O   UNL A   1      28.005  26.042  24.265  1.00  0.00    -0.258 OA
ATOM     33  O   UNL A   1      29.965  25.419  23.527  1.00  0.00    -0.258 OA
ENDBRANCH  27  31
ENDBRANCH  21  24
ENDBRANCH  15  20
ENDBRANCH  11  14
ENDBRANCH   5  10
ENDBRANCH   2   4
ENDBRANCH   1   2
BRANCH   1  34
ATOM     34  C   UNL A   1      37.636  22.575  24.992  1.00  0.00     0.275 C 
BRANCH  34  35
ATOM     35  C   UNL A   1      37.142  23.710  25.927  1.00  0.00     0.275 C 
BRANCH  35  36
ATOM     36  O   UNL A   1      37.904  24.209  27.060  1.00  0.00    -0.458 OA
BRANCH  36  37
ATOM     37  C   UNL A   1      39.227  24.453  27.177  1.00  0.00     0.338 C 
ATOM     38  O   UNL A   1      40.104  23.690  26.795  1.00  0.00    -0.246 OA
BRANCH  37  39
ATOM     39  C   UNL A   1      39.551  25.764  27.695  1.00  0.00     0.060 A 
ATOM     40  C   UNL A   1      39.145  26.087  28.998  1.00  0.00     0.016 A 
ATOM     41  C   UNL A   1      40.414  26.554  26.946  1.00  0.00     0.016 A 
ATOM     42  C   UNL A   1      39.713  27.173  29.632  1.00  0.00     0.010 A 
ATOM     43  C   UNL A   1      41.042  27.582  27.588  1.00  0.00     0.010 A 
ATOM     44  C   UNL A   1      40.627  27.922  28.896  1.00  0.00    -0.014 A 
BRANCH  44  45
ATOM     45  C   UNL A   1      40.727  29.351  29.108  1.00  0.00     0.031 A 
ATOM     46  C   UNL A   1      39.549  30.212  29.036  1.00  0.00     0.074 A 
ATOM     47  C   UNL A   1      41.853  29.541  29.832  1.00  0.00     0.049 A 
ATOM     48  N   UNL A   1      39.571  31.479  29.238  1.00  0.00    -0.248 NA
ATOM     49  C   UNL A   1      38.220  29.725  28.679  1.00  0.00     0.031 C 
ATOM     50  C   UNL A   1      42.146  30.432  30.935  1.00  0.00     0.029 A 
ATOM     51  N   UNL A   1      43.045  28.802  29.677  1.00  0.00    -0.354 N 
ATOM     52  C   UNL A   1      38.264  31.864  29.463  1.00  0.00     0.074 A 
ATOM     53  C   UNL A   1      37.462  30.800  28.918  1.00  0.00     0.031 C 
ATOM     54  C   UNL A   1      43.480  30.419  31.142  1.00  0.00     0.029 A 
ATOM     55  C   UNL A   1      44.081  29.650  30.053  1.00  0.00     0.049 A 
ATOM     56  H   UNL A   1      43.127  27.872  29.366  1.00  0.00     0.167 HD
ATOM     57  C   UNL A   1      38.044  32.918  30.305  1.00  0.00     0.037 A 
ATOM     58  C   UNL A   1      44.831  30.174  29.036  1.00  0.00     0.037 A 
ATOM     59  C   UNL A   1      39.336  33.453  30.750  1.00  0.00     0.049 A 
ATOM     60  C   UNL A   1      44.579  31.655  28.925  1.00  0.00     0.074 A 
ATOM     61  C   UNL A   1      40.071  33.239  31.906  1.00  0.00     0.029 A 
ATOM     62  N   UNL A   1      40.227  33.967  29.810  1.00  0.00    -0.354 N 
ATOM     63  N   UNL A   1      43.426  32.231  29.145  1.00  0.00    -0.248 NA
ATOM     64  C   UNL A   1      45.655  32.599  28.669  1.00  0.00     0.031 C 
ATOM     65  C   UNL A   1      41.426  33.564  31.631  1.00  0.00     0.029 A 
ATOM     66  C   UNL A   1      41.518  33.962  30.307  1.00  0.00     0.049 A 
ATOM     67  H   UNL A   1      39.973  34.287  28.915  1.00  0.00     0.167 HD
ATOM     68  C   UNL A   1      43.609  33.586  29.175  1.00  0.00     0.074 A 
ATOM     69  C   UNL A   1      45.014  33.766  28.844  1.00  0.00     0.031 C 
ATOM     70  C   UNL A   1      42.623  34.471  29.510  1.00  0.00     0.037 A 
BRANCH  57  71
ATOM     71  C   UNL A   1      36.729  33.220  31.003  1.00  0.00     0.064 A 
ATOM     72  C   UNL A   1      35.679  33.861  30.304  1.00  0.00     0.173 A 
ATOM     73  C   UNL A   1      36.440  32.941  32.353  1.00  0.00     0.173 A 
ATOM     74  F   UNL A   1      35.756  34.108  28.990  1.00  0.00    -0.203 F 
ATOM     75  C   UNL A   1      34.494  34.273  30.922  1.00  0.00     0.198 A 
ATOM     76  C   UNL A   1      35.267  33.385  32.982  1.00  0.00     0.198 A 
ATOM     77  F   UNL A   1      37.248  32.182  33.099  1.00  0.00    -0.203 F 
ATOM     78  F   UNL A   1      33.547  34.889  30.200  1.00  0.00    -0.200 F 
ATOM     79  C   UNL A   1      34.298  34.058  32.269  1.00  0.00     0.200 A 
ATOM     80  F   UNL A   1      35.082  33.143  34.288  1.00  0.00    -0.200 F 
ATOM     81  F   UNL A   1      33.172  34.470  32.867  1.00  0.00    -0.200 F 
ENDBRANCH  57  71
BRANCH  58  82
ATOM     82  C   UNL A   1      45.016  29.232  27.879  1.00  0.00     0.064 A 
ATOM     83  C   UNL A   1      45.945  28.175  28.007  1.00  0.00     0.173 A 
ATOM     84  C   UNL A   1      44.102  29.138  26.817  1.00  0.00     0.173 A 
ATOM     85  F   UNL A   1      46.837  28.190  29.012  1.00  0.00    -0.203 F 
ATOM     86  C   UNL A   1      45.915  27.056  27.173  1.00  0.00     0.198 A 
ATOM     87  C   UNL A   1      44.077  28.014  25.978  1.00  0.00     0.198 A 
ATOM     88  F   UNL A   1      43.170  30.082  26.637  1.00  0.00    -0.203 F 
ATOM     89  F   UNL A   1      46.764  26.039  27.384  1.00  0.00    -0.200 F 
ATOM     90  C   UNL A   1      44.969  26.970  26.167  1.00  0.00     0.200 A 
ATOM     91  F   UNL A   1      43.129  27.904  25.036  1.00  0.00    -0.200 F 
ATOM     92  F   UNL A   1      44.890  25.872  25.403  1.00  0.00    -0.200 F 
ENDBRANCH  58  82
BRANCH  70  93
ATOM     93  C   UNL A   1      42.652  35.947  29.203  1.00  0.00     0.064 A 
ATOM     94  C   UNL A   1      43.438  36.866  29.914  1.00  0.00     0.173 A 
ATOM     95  C   UNL A   1      42.018  36.455  28.042  1.00  0.00     0.173 A 
ATOM     96  F   UNL A   1      44.202  36.487  30.947  1.00  0.00    -0.203 F 
ATOM     97  C   UNL A   1      43.524  38.207  29.540  1.00  0.00     0.198 A 
ATOM     98  C   UNL A   1      42.174  37.773  27.625  1.00  0.00     0.198 A 
ATOM     99  F   UNL A   1      41.261  35.681  27.249  1.00  0.00    -0.203 F 
ATOM    100  F   UNL A   1      44.241  39.054  30.289  1.00  0.00    -0.200 F 
ATOM    101  C   UNL A   1      42.908  38.655  28.388  1.00  0.00     0.200 A 
ATOM    102  F   UNL A   1      41.631  38.172  26.467  1.00  0.00    -0.200 F 
ATOM    103  F   UNL A   1      43.044  39.929  28.000  1.00  0.00    -0.200 F 
ENDBRANCH  70  93
ENDBRANCH  44  45
ENDBRANCH  37  39
ENDBRANCH  36  37
ENDBRANCH  35  36
ENDBRANCH  34  35
ENDBRANCH   1  34
TORSDOF 16
ENDMDL
MODEL 3
REMARK VINA RESULT:     -12.8      6.079     11.219
REMARK SMILES Cc1c(C(=O)Nc2ccc(C(=O)Nc3ccccc3C(=O)OCCOC(=O)c3ccc(-c4c5nc(c(-c6c(F)c(F)c(F)c(F)c6F)c6ccc([nH]6)c(-c6c(F)c(F)c(F)c(F)c6F)c6nc(c(-c7c(F)c(F)c(F)c(F)c7F)c7ccc4[nH]7)C=C6)C=C5)cc3)cc2)cccc1[N+](=O)[O-]
REMARK SMILES IDX 22 1 20 2 21 3 19 4 14 5 15 6 16 7 18 8 17 9 13 10 11 11
REMARK SMILES IDX 12 12 10 14 7 15 8 16 92 17 9 18 91 19 6 20 4 21 5 22 3 24
REMARK SMILES IDX 1 25 2 26 96 27 93 28 95 29 94 30 97 31 98 32 99 33 23 34
REMARK SMILES IDX 24 35 25 36 26 37 27 38 28 39 29 40 90 41 30 42 89 43 31 44
REMARK SMILES IDX 32 45 33 46 83 47 34 48 88 49 82 50 84 51 35 52 87 53 81 54
REMARK SMILES IDX 80 55 36 57 68 58 48 59 67 60 49 61 52 62 66 63 85 64 50 65
REMARK SMILES IDX 51 66 65 68 86 69 53 70 37 71 38 72 46 73 39 74 40 75 44 76
REMARK SMILES IDX 47 77 41 78 42 79 45 80 43 81 69 82 70 83 78 84 71 85 72 86
REMARK SMILES IDX 76 87 79 88 73 89 74 90 77 91 75 92 54 93 55 94 63 95 56 96
REMARK SMILES IDX 57 97 61 98 64 99 58 100 59 101 62 102 60 103
REMARK H PARENT 13 13 6 23 84 56 52 67
REMARK Flexibility Score: inf
ROOT
ATOM      1  O   UNL A   1      44.409  27.060  26.639  1.00  0.00    -0.458 OA
ENDROOT
BRANCH   1   2
ATOM      2  C   UNL A   1      45.681  26.793  26.229  1.00  0.00     0.340 C 
ATOM      3  O   UNL A   1      46.002  26.896  25.045  1.00  0.00    -0.246 OA
BRANCH   2   4
ATOM      4  C   UNL A   1      46.699  26.249  27.216  1.00  0.00     0.083 A 
ATOM      5  C   UNL A   1      46.798  26.310  28.628  1.00  0.00     0.056 A 
ATOM      6  C   UNL A   1      47.958  25.776  29.250  1.00  0.00     0.027 A 
ATOM      7  C   UNL A   1      48.947  25.093  28.546  1.00  0.00     0.002 A 
ATOM      8  C   UNL A   1      47.737  25.549  26.533  1.00  0.00     0.018 A 
ATOM      9  C   UNL A   1      48.826  24.964  27.180  1.00  0.00     0.001 A 
BRANCH   5  10
ATOM     10  N   UNL A   1      45.898  26.774  29.612  1.00  0.00    -0.321 N 
ATOM     11  C   UNL A   1      44.712  26.320  30.142  1.00  0.00     0.255 C 
ATOM     12  O   UNL A   1      44.261  26.930  31.114  1.00  0.00    -0.269 OA
ATOM     13  H   UNL A   1      46.187  27.624  30.014  1.00  0.00     0.170 HD
BRANCH  11  14
ATOM     14  C   UNL A   1      43.968  25.155  29.645  1.00  0.00     0.040 A 
ATOM     15  C   UNL A   1      42.568  22.971  28.650  1.00  0.00     0.041 A 
ATOM     16  C   UNL A   1      43.842  22.807  29.168  1.00  0.00     0.027 A 
ATOM     17  C   UNL A   1      42.050  24.251  28.459  1.00  0.00     0.027 A 
ATOM     18  C   UNL A   1      44.447  23.865  29.812  1.00  0.00     0.016 A 
ATOM     19  C   UNL A   1      42.759  25.348  28.962  1.00  0.00     0.016 A 
BRANCH  15  20
ATOM     20  N   UNL A   1      41.727  21.860  28.528  1.00  0.00    -0.322 N 
ATOM     21  C   UNL A   1      41.609  21.029  27.418  1.00  0.00     0.256 C 
ATOM     22  O   UNL A   1      40.721  20.181  27.382  1.00  0.00    -0.269 OA
ATOM     23  H   UNL A   1      41.164  21.644  29.305  1.00  0.00     0.170 HD
BRANCH  21  24
ATOM     24  C   UNL A   1      42.538  21.159  26.233  1.00  0.00     0.049 A 
ATOM     25  C   UNL A   1      43.213  18.699  26.158  1.00  0.00     0.053 C 
ATOM     26  C   UNL A   1      43.413  20.139  25.762  1.00  0.00     0.039 A 
ATOM     27  C   UNL A   1      44.492  20.540  24.930  1.00  0.00     0.273 A 
ATOM     28  C   UNL A   1      42.600  22.449  25.676  1.00  0.00     0.014 A 
ATOM     29  C   UNL A   1      44.548  21.840  24.398  1.00  0.00     0.086 A 
ATOM     30  C   UNL A   1      43.572  22.774  24.731  1.00  0.00     0.008 A 
BRANCH  27  31
ATOM     31  N   UNL A   1      45.676  19.682  24.697  1.00  0.00     0.063 N 
ATOM     32  O   UNL A   1      46.534  19.637  25.590  1.00  0.00    -0.258 OA
ATOM     33  O   UNL A   1      45.710  18.991  23.671  1.00  0.00    -0.258 OA
ENDBRANCH  27  31
ENDBRANCH  21  24
ENDBRANCH  15  20
ENDBRANCH  11  14
ENDBRANCH   5  10
ENDBRANCH   2   4
ENDBRANCH   1   2
BRANCH   1  34
ATOM     34  C   UNL A   1      43.425  26.590  25.693  1.00  0.00     0.275 C 
BRANCH  34  35
ATOM     35  C   UNL A   1      42.361  27.574  25.140  1.00  0.00     0.275 C 
BRANCH  35  36
ATOM     36  O   UNL A   1      41.239  28.069  25.919  1.00  0.00    -0.458 OA
BRANCH  36  37
ATOM     37  C   UNL A   1      40.513  27.458  26.882  1.00  0.00     0.338 C 
ATOM     38  O   UNL A   1      40.044  26.333  26.780  1.00  0.00    -0.246 OA
BRANCH  37  39
ATOM     39  C   UNL A   1      40.421  28.198  28.122  1.00  0.00     0.060 A 
ATOM     40  C   UNL A   1      41.445  29.102  28.439  1.00  0.00     0.016 A 
ATOM     41  C   UNL A   1      39.229  28.115  28.830  1.00  0.00     0.016 A 
ATOM     42  C   UNL A   1      41.230  30.046  29.421  1.00  0.00     0.010 A 
ATOM     43  C   UNL A   1      38.973  29.093  29.747  1.00  0.00     0.010 A 
ATOM     44  C   UNL A   1      40.007  29.998  30.082  1.00  0.00    -0.014 A 
BRANCH  44  45
ATOM     45  C   UNL A   1      39.924  30.372  31.479  1.00  0.00     0.031 A 
ATOM     46  C   UNL A   1      40.482  29.519  32.526  1.00  0.00     0.074 A 
ATOM     47  C   UNL A   1      39.769  31.715  31.495  1.00  0.00     0.049 A 
ATOM     48  N   UNL A   1      40.460  29.808  33.776  1.00  0.00    -0.248 NA
ATOM     49  C   UNL A   1      41.085  28.216  32.262  1.00  0.00     0.031 C 
ATOM     50  C   UNL A   1      40.330  32.736  32.354  1.00  0.00     0.029 A 
ATOM     51  N   UNL A   1      39.010  32.450  30.559  1.00  0.00    -0.354 N 
ATOM     52  C   UNL A   1      41.390  28.988  34.385  1.00  0.00     0.074 A 
ATOM     53  C   UNL A   1      41.598  27.907  33.458  1.00  0.00     0.031 C 
ATOM     54  C   UNL A   1      39.672  33.891  32.120  1.00  0.00     0.029 A 
ATOM     55  C   UNL A   1      38.555  33.581  31.228  1.00  0.00     0.049 A 
ATOM     56  H   UNL A   1      38.839  32.211  29.620  1.00  0.00     0.167 HD
ATOM     57  C   UNL A   1      42.043  29.468  35.484  1.00  0.00     0.037 A 
ATOM     58  C   UNL A   1      37.235  33.578  31.586  1.00  0.00     0.037 A 
ATOM     59  C   UNL A   1      41.524  30.804  35.805  1.00  0.00     0.049 A 
ATOM     60  C   UNL A   1      37.111  33.484  33.084  1.00  0.00     0.074 A 
ATOM     61  C   UNL A   1      41.998  32.071  35.502  1.00  0.00     0.029 A 
ATOM     62  N   UNL A   1      40.178  30.958  36.131  1.00  0.00    -0.354 N 
ATOM     63  N   UNL A   1      37.917  32.802  33.855  1.00  0.00    -0.248 NA
ATOM     64  C   UNL A   1      36.127  34.260  33.823  1.00  0.00     0.031 C 
ATOM     65  C   UNL A   1      40.908  32.978  35.583  1.00  0.00     0.029 A 
ATOM     66  C   UNL A   1      39.770  32.263  35.921  1.00  0.00     0.049 A 
ATOM     67  H   UNL A   1      39.597  30.236  36.463  1.00  0.00     0.167 HD
ATOM     68  C   UNL A   1      37.652  33.117  35.159  1.00  0.00     0.074 A 
ATOM     69  C   UNL A   1      36.506  34.010  35.087  1.00  0.00     0.031 C 
ATOM     70  C   UNL A   1      38.404  32.670  36.210  1.00  0.00     0.037 A 
BRANCH  57  71
ATOM     71  C   UNL A   1      43.355  28.931  36.028  1.00  0.00     0.064 A 
ATOM     72  C   UNL A   1      43.376  27.753  36.812  1.00  0.00     0.173 A 
ATOM     73  C   UNL A   1      44.618  29.528  35.847  1.00  0.00     0.173 A 
ATOM     74  F   UNL A   1      42.276  27.012  36.997  1.00  0.00    -0.203 F 
ATOM     75  C   UNL A   1      44.532  27.277  37.438  1.00  0.00     0.198 A 
ATOM     76  C   UNL A   1      45.771  29.071  36.503  1.00  0.00     0.198 A 
ATOM     77  F   UNL A   1      44.799  30.537  34.989  1.00  0.00    -0.203 F 
ATOM     78  F   UNL A   1      44.475  26.161  38.179  1.00  0.00    -0.200 F 
ATOM     79  C   UNL A   1      45.727  27.950  37.305  1.00  0.00     0.200 A 
ATOM     80  F   UNL A   1      46.931  29.725  36.341  1.00  0.00    -0.200 F 
ATOM     81  F   UNL A   1      46.831  27.506  37.920  1.00  0.00    -0.200 F 
ENDBRANCH  57  71
BRANCH  58  82
ATOM     82  C   UNL A   1      36.344  32.885  30.593  1.00  0.00     0.064 A 
ATOM     83  C   UNL A   1      35.895  33.609  29.466  1.00  0.00     0.173 A 
ATOM     84  C   UNL A   1      36.198  31.490  30.542  1.00  0.00     0.173 A 
ATOM     85  F   UNL A   1      36.021  34.946  29.438  1.00  0.00    -0.203 F 
ATOM     86  C   UNL A   1      35.400  32.973  28.325  1.00  0.00     0.198 A 
ATOM     87  C   UNL A   1      35.696  30.854  29.397  1.00  0.00     0.198 A 
ATOM     88  F   UNL A   1      36.620  30.725  31.556  1.00  0.00    -0.203 F 
ATOM     89  F   UNL A   1      35.062  33.695  27.247  1.00  0.00    -0.200 F 
ATOM     90  C   UNL A   1      35.316  31.593  28.286  1.00  0.00     0.200 A 
ATOM     91  F   UNL A   1      35.662  29.515  29.336  1.00  0.00    -0.200 F 
ATOM     92  F   UNL A   1      34.904  30.970  27.174  1.00  0.00    -0.200 F 
ENDBRANCH  58  82
BRANCH  70  93
ATOM     93  C   UNL A   1      37.956  32.668  37.649  1.00  0.00     0.064 A 
ATOM     94  C   UNL A   1      37.410  31.542  38.283  1.00  0.00     0.173 A 
ATOM     95  C   UNL A   1      38.244  33.767  38.496  1.00  0.00     0.173 A 
ATOM     96  F   UNL A   1      37.221  30.388  37.629  1.00  0.00    -0.203 F 
ATOM     97  C   UNL A   1      37.103  31.540  39.644  1.00  0.00     0.198 A 
ATOM     98  C   UNL A   1      38.013  33.729  39.868  1.00  0.00     0.198 A 
ATOM     99  F   UNL A   1      38.796  34.897  38.031  1.00  0.00    -0.203 F 
ATOM    100  F   UNL A   1      36.527  30.458  40.186  1.00  0.00    -0.200 F 
ATOM    101  C   UNL A   1      37.421  32.624  40.437  1.00  0.00     0.200 A 
ATOM    102  F   UNL A   1      38.396  34.761  40.633  1.00  0.00    -0.200 F 
ATOM    103  F   UNL A   1      37.180  32.592  41.754  1.00  0.00    -0.200 F 
ENDBRANCH  70  93
ENDBRANCH  44  45
ENDBRANCH  37  39
ENDBRANCH  36  37
ENDBRANCH  35  36
ENDBRANCH  34  35
ENDBRANCH   1  34
TORSDOF 16
ENDMDL
