MODEL 1
REMARK VINA RESULT:     -13.2      0.000      0.000
REMARK SMILES C[C@@H](C(=O)OCCOC(=O)c1ccc(-c2c3nc(c(-c4c(F)c(F)c(F)c(F)c4F)c4ccc([nH]4)c(-c4c(F)c(F)c(F)c(F)c4F)c4nc(c(-c5c(F)c(F)c(F)c(F)c5F)c5ccc2[nH]5)C=C4)C=C3)cc1)c1ccc(C[C@H]2CCC[C@H]2O)cc1-c1ccc(O)cc1
REMARK SMILES IDX 6 1 5 2 3 3 4 4 2 5 1 6 74 7 75 8 86 9 76 10 85 11 77 12
REMARK SMILES IDX 87 13 88 14 93 15 89 16 92 17 90 18 91 19 78 21 79 22 80 23
REMARK SMILES IDX 83 24 81 25 82 26 84 27 7 29 8 30 9 31 10 32 11 33 12 34
REMARK SMILES IDX 73 35 13 36 72 37 14 38 15 39 16 40 66 41 17 42 71 43 65 44
REMARK SMILES IDX 67 45 18 46 70 47 64 48 63 49 19 51 51 52 31 53 50 54 32 55
REMARK SMILES IDX 35 56 49 57 68 58 33 59 34 60 48 62 69 63 36 64 20 65 21 66
REMARK SMILES IDX 29 67 22 68 23 69 27 70 30 71 24 72 25 73 28 74 26 75 52 76
REMARK SMILES IDX 53 77 61 78 54 79 55 80 59 81 62 82 56 83 57 84 60 85 58 86
REMARK SMILES IDX 37 87 38 88 46 89 39 90 40 91 44 92 47 93 41 94 42 95 45 96
REMARK SMILES IDX 43 97
REMARK H PARENT 91 20 84 28 67 50 35 61
REMARK Flexibility Score: inf
ROOT
ATOM      1  C   UNL A   1      36.451  20.206  25.003  1.00  0.00     0.274 C 
ENDROOT
BRANCH   1   2
ATOM      2  O   UNL A   1      36.221  21.266  25.949  1.00  0.00    -0.462 OA
BRANCH   2   3
ATOM      3  C   UNL A   1      35.958  22.508  25.433  1.00  0.00     0.313 C 
ATOM      4  O   UNL A   1      36.068  23.552  26.065  1.00  0.00    -0.252 OA
BRANCH   3   5
ATOM      5  C   UNL A   1      35.442  22.422  24.003  1.00  0.00     0.127 C 
ATOM      6  C   UNL A   1      36.479  23.151  23.102  1.00  0.00     0.025 C 
BRANCH   5   7
ATOM      7  C   UNL A   1      34.011  22.875  23.655  1.00  0.00    -0.026 A 
ATOM      8  C   UNL A   1      33.935  24.205  23.159  1.00  0.00     0.005 A 
ATOM      9  C   UNL A   1      32.789  22.168  23.750  1.00  0.00    -0.014 A 
ATOM     10  C   UNL A   1      32.736  24.902  23.016  1.00  0.00     0.004 A 
ATOM     11  C   UNL A   1      31.580  22.924  23.616  1.00  0.00     0.012 A 
ATOM     12  C   UNL A   1      31.542  24.309  23.371  1.00  0.00    -0.047 A 
BRANCH   9  13
ATOM     13  C   UNL A   1      32.623  20.718  24.010  1.00  0.00    -0.018 A 
ATOM     14  C   UNL A   1      32.805  20.159  25.285  1.00  0.00     0.012 A 
ATOM     15  C   UNL A   1      32.394  19.818  22.968  1.00  0.00     0.012 A 
ATOM     16  C   UNL A   1      32.719  18.772  25.492  1.00  0.00     0.047 A 
ATOM     17  C   UNL A   1      32.294  18.438  23.155  1.00  0.00     0.047 A 
ATOM     18  C   UNL A   1      32.448  17.923  24.427  1.00  0.00     0.115 A 
BRANCH  18  19
ATOM     19  O   UNL A   1      32.338  16.586  24.663  1.00  0.00    -0.508 OA
ATOM     20  H   UNL A   1      32.172  16.276  25.530  1.00  0.00     0.293 HD
ENDBRANCH  18  19
ENDBRANCH   9  13
BRANCH  12  21
ATOM     21  C   UNL A   1      30.253  25.104  23.404  1.00  0.00     0.041 C 
BRANCH  21  22
ATOM     22  C   UNL A   1      30.241  26.601  23.827  1.00  0.00     0.022 C 
ATOM     23  C   UNL A   1      31.440  27.109  24.628  1.00  0.00     0.007 C 
ATOM     24  C   UNL A   1      30.063  27.705  22.776  1.00  0.00     0.117 C 
ATOM     25  C   UNL A   1      31.388  28.635  24.577  1.00  0.00     0.003 C 
ATOM     26  C   UNL A   1      30.269  28.980  23.599  1.00  0.00     0.032 C 
BRANCH  24  27
ATOM     27  O   UNL A   1      31.032  27.686  21.739  1.00  0.00    -0.393 OA
ATOM     28  H   UNL A   1      30.585  27.601  20.882  1.00  0.00     0.210 HD
ENDBRANCH  24  27
ENDBRANCH  21  22
ENDBRANCH  12  21
ENDBRANCH   5   7
ENDBRANCH   3   5
ENDBRANCH   2   3
ENDBRANCH   1   2
BRANCH   1  29
ATOM     29  C   UNL A   1      37.934  19.805  25.031  1.00  0.00     0.275 C 
BRANCH  29  30
ATOM     30  O   UNL A   1      38.765  20.920  25.434  1.00  0.00    -0.458 OA
BRANCH  30  31
ATOM     31  C   UNL A   1      39.835  20.607  26.210  1.00  0.00     0.338 C 
ATOM     32  O   UNL A   1      40.440  19.547  26.234  1.00  0.00    -0.246 OA
BRANCH  31  33
ATOM     33  C   UNL A   1      40.351  21.833  26.862  1.00  0.00     0.060 A 
ATOM     34  C   UNL A   1      39.838  23.036  26.387  1.00  0.00     0.016 A 
ATOM     35  C   UNL A   1      41.242  21.842  27.942  1.00  0.00     0.016 A 
ATOM     36  C   UNL A   1      40.181  24.225  27.021  1.00  0.00     0.010 A 
ATOM     37  C   UNL A   1      41.651  23.069  28.515  1.00  0.00     0.010 A 
ATOM     38  C   UNL A   1      41.127  24.281  28.044  1.00  0.00    -0.014 A 
BRANCH  38  39
ATOM     39  C   UNL A   1      41.630  25.641  28.405  1.00  0.00     0.031 A 
ATOM     40  C   UNL A   1      43.013  26.041  27.950  1.00  0.00     0.074 A 
ATOM     41  C   UNL A   1      40.809  26.609  28.864  1.00  0.00     0.049 A 
ATOM     42  N   UNL A   1      43.588  27.219  27.960  1.00  0.00    -0.248 NA
ATOM     43  C   UNL A   1      43.828  24.980  27.337  1.00  0.00     0.031 C 
ATOM     44  C   UNL A   1      39.393  26.444  29.176  1.00  0.00     0.029 A 
ATOM     45  N   UNL A   1      41.050  27.946  29.097  1.00  0.00    -0.354 N 
ATOM     46  C   UNL A   1      44.805  27.052  27.314  1.00  0.00     0.074 A 
ATOM     47  C   UNL A   1      44.903  25.652  26.951  1.00  0.00     0.031 C 
ATOM     48  C   UNL A   1      38.886  27.635  29.544  1.00  0.00     0.029 A 
ATOM     49  C   UNL A   1      39.950  28.641  29.541  1.00  0.00     0.049 A 
ATOM     50  H   UNL A   1      41.930  28.366  28.957  1.00  0.00     0.167 HD
ATOM     51  C   UNL A   1      45.756  27.973  27.029  1.00  0.00     0.037 A 
ATOM     52  C   UNL A   1      39.821  29.929  29.927  1.00  0.00     0.037 A 
ATOM     53  C   UNL A   1      45.725  29.353  27.427  1.00  0.00     0.049 A 
ATOM     54  C   UNL A   1      41.015  30.856  29.882  1.00  0.00     0.074 A 
ATOM     55  C   UNL A   1      46.696  30.324  27.247  1.00  0.00     0.029 A 
ATOM     56  N   UNL A   1      44.681  29.954  28.107  1.00  0.00    -0.354 N 
ATOM     57  N   UNL A   1      42.178  30.685  29.305  1.00  0.00    -0.248 NA
ATOM     58  C   UNL A   1      40.877  32.152  30.568  1.00  0.00     0.031 C 
ATOM     59  C   UNL A   1      46.264  31.498  27.874  1.00  0.00     0.029 A 
ATOM     60  C   UNL A   1      45.006  31.268  28.405  1.00  0.00     0.049 A 
ATOM     61  H   UNL A   1      43.833  29.513  28.345  1.00  0.00     0.167 HD
ATOM     62  C   UNL A   1      42.896  31.854  29.537  1.00  0.00     0.074 A 
ATOM     63  C   UNL A   1      42.034  32.736  30.293  1.00  0.00     0.031 C 
ATOM     64  C   UNL A   1      44.160  32.160  29.156  1.00  0.00     0.037 A 
BRANCH  51  65
ATOM     65  C   UNL A   1      46.958  27.493  26.279  1.00  0.00     0.064 A 
ATOM     66  C   UNL A   1      47.027  27.580  24.882  1.00  0.00     0.173 A 
ATOM     67  C   UNL A   1      48.059  26.964  26.968  1.00  0.00     0.173 A 
ATOM     68  F   UNL A   1      45.992  28.073  24.184  1.00  0.00    -0.203 F 
ATOM     69  C   UNL A   1      48.154  27.137  24.197  1.00  0.00     0.198 A 
ATOM     70  C   UNL A   1      49.189  26.538  26.281  1.00  0.00     0.198 A 
ATOM     71  F   UNL A   1      48.034  26.866  28.305  1.00  0.00    -0.203 F 
ATOM     72  F   UNL A   1      48.191  27.200  22.858  1.00  0.00    -0.200 F 
ATOM     73  C   UNL A   1      49.235  26.620  24.897  1.00  0.00     0.200 A 
ATOM     74  F   UNL A   1      50.235  26.042  26.957  1.00  0.00    -0.200 F 
ATOM     75  F   UNL A   1      50.319  26.191  24.235  1.00  0.00    -0.200 F 
ENDBRANCH  51  65
BRANCH  52  76
ATOM     76  C   UNL A   1      38.532  30.435  30.475  1.00  0.00     0.064 A 
ATOM     77  C   UNL A   1      37.550  30.988  29.640  1.00  0.00     0.173 A 
ATOM     78  C   UNL A   1      38.305  30.475  31.859  1.00  0.00     0.173 A 
ATOM     79  F   UNL A   1      37.740  31.019  28.312  1.00  0.00    -0.203 F 
ATOM     80  C   UNL A   1      36.403  31.578  30.169  1.00  0.00     0.198 A 
ATOM     81  C   UNL A   1      37.144  31.037  32.385  1.00  0.00     0.198 A 
ATOM     82  F   UNL A   1      39.225  29.990  32.705  1.00  0.00    -0.203 F 
ATOM     83  F   UNL A   1      35.513  32.159  29.354  1.00  0.00    -0.200 F 
ATOM     84  C   UNL A   1      36.199  31.598  31.541  1.00  0.00     0.200 A 
ATOM     85  F   UNL A   1      36.956  31.060  33.712  1.00  0.00    -0.200 F 
ATOM     86  F   UNL A   1      35.105  32.180  32.050  1.00  0.00    -0.200 F 
ENDBRANCH  52  76
BRANCH  64  87
ATOM     87  C   UNL A   1      44.708  33.508  29.532  1.00  0.00     0.064 A 
ATOM     88  C   UNL A   1      45.473  33.687  30.694  1.00  0.00     0.173 A 
ATOM     89  C   UNL A   1      44.523  34.619  28.694  1.00  0.00     0.173 A 
ATOM     90  F   UNL A   1      45.668  32.663  31.538  1.00  0.00    -0.203 F 
ATOM     91  C   UNL A   1      46.019  34.930  31.010  1.00  0.00     0.198 A 
ATOM     92  C   UNL A   1      45.093  35.853  28.997  1.00  0.00     0.198 A 
ATOM     93  F   UNL A   1      43.806  34.502  27.565  1.00  0.00    -0.203 F 
ATOM     94  F   UNL A   1      46.717  35.085  32.144  1.00  0.00    -0.200 F 
ATOM     95  C   UNL A   1      45.837  36.008  30.157  1.00  0.00     0.200 A 
ATOM     96  F   UNL A   1      44.929  36.890  28.165  1.00  0.00    -0.200 F 
ATOM     97  F   UNL A   1      46.376  37.199  30.454  1.00  0.00    -0.200 F 
ENDBRANCH  64  87
ENDBRANCH  38  39
ENDBRANCH  31  33
ENDBRANCH  30  31
ENDBRANCH  29  30
ENDBRANCH   1  29
TORSDOF 17
ENDMDL
MODEL 2
REMARK VINA RESULT:     -13.2      4.212     10.198
REMARK SMILES C[C@@H](C(=O)OCCOC(=O)c1ccc(-c2c3nc(c(-c4c(F)c(F)c(F)c(F)c4F)c4ccc([nH]4)c(-c4c(F)c(F)c(F)c(F)c4F)c4nc(c(-c5c(F)c(F)c(F)c(F)c5F)c5ccc2[nH]5)C=C4)C=C3)cc1)c1ccc(C[C@H]2CCC[C@H]2O)cc1-c1ccc(O)cc1
REMARK SMILES IDX 6 1 5 2 3 3 4 4 2 5 1 6 74 7 75 8 86 9 76 10 85 11 77 12
REMARK SMILES IDX 87 13 88 14 93 15 89 16 92 17 90 18 91 19 78 21 79 22 80 23
REMARK SMILES IDX 83 24 81 25 82 26 84 27 7 29 8 30 9 31 10 32 11 33 12 34
REMARK SMILES IDX 73 35 13 36 72 37 14 38 15 39 16 40 66 41 17 42 71 43 65 44
REMARK SMILES IDX 67 45 18 46 70 47 64 48 63 49 19 51 51 52 31 53 50 54 32 55
REMARK SMILES IDX 35 56 49 57 68 58 33 59 34 60 48 62 69 63 36 64 20 65 21 66
REMARK SMILES IDX 29 67 22 68 23 69 27 70 30 71 24 72 25 73 28 74 26 75 52 76
REMARK SMILES IDX 53 77 61 78 54 79 55 80 59 81 62 82 56 83 57 84 60 85 58 86
REMARK SMILES IDX 37 87 38 88 46 89 39 90 40 91 44 92 47 93 41 94 42 95 45 96
REMARK SMILES IDX 43 97
REMARK H PARENT 91 20 84 28 67 50 35 61
REMARK Flexibility Score: inf
ROOT
ATOM      1  C   UNL A   1      31.410  31.489  26.107  1.00  0.00     0.274 C 
ENDROOT
BRANCH   1   2
ATOM      2  O   UNL A   1      32.525  30.598  26.295  1.00  0.00    -0.462 OA
BRANCH   2   3
ATOM      3  C   UNL A   1      32.484  29.407  25.619  1.00  0.00     0.313 C 
ATOM      4  O   UNL A   1      33.199  29.134  24.663  1.00  0.00    -0.252 OA
BRANCH   3   5
ATOM      5  C   UNL A   1      31.390  28.495  26.158  1.00  0.00     0.127 C 
ATOM      6  C   UNL A   1      31.768  28.149  27.626  1.00  0.00     0.025 C 
BRANCH   5   7
ATOM      7  C   UNL A   1      30.979  27.222  25.391  1.00  0.00    -0.026 A 
ATOM      8  C   UNL A   1      31.300  26.015  26.070  1.00  0.00     0.005 A 
ATOM      9  C   UNL A   1      30.335  27.087  24.139  1.00  0.00    -0.014 A 
ATOM     10  C   UNL A   1      31.249  24.760  25.467  1.00  0.00     0.004 A 
ATOM     11  C   UNL A   1      30.320  25.785  23.544  1.00  0.00     0.012 A 
ATOM     12  C   UNL A   1      30.881  24.641  24.142  1.00  0.00    -0.047 A 
BRANCH   9  13
ATOM     13  C   UNL A   1      29.697  28.169  23.351  1.00  0.00    -0.018 A 
ATOM     14  C   UNL A   1      28.304  28.339  23.302  1.00  0.00     0.012 A 
ATOM     15  C   UNL A   1      30.450  29.001  22.523  1.00  0.00     0.012 A 
ATOM     16  C   UNL A   1      27.718  29.323  22.487  1.00  0.00     0.047 A 
ATOM     17  C   UNL A   1      29.888  29.993  21.715  1.00  0.00     0.047 A 
ATOM     18  C   UNL A   1      28.517  30.153  21.712  1.00  0.00     0.115 A 
BRANCH  18  19
ATOM     19  O   UNL A   1      27.924  31.120  20.958  1.00  0.00    -0.508 OA
ATOM     20  H   UNL A   1      28.121  32.022  21.113  1.00  0.00     0.293 HD
ENDBRANCH  18  19
ENDBRANCH   9  13
BRANCH  12  21
ATOM     21  C   UNL A   1      30.998  23.318  23.414  1.00  0.00     0.041 C 
BRANCH  21  22
ATOM     22  C   UNL A   1      32.225  22.388  23.627  1.00  0.00     0.022 C 
ATOM     23  C   UNL A   1      33.469  23.008  24.265  1.00  0.00     0.007 C 
ATOM     24  C   UNL A   1      32.080  21.076  24.411  1.00  0.00     0.117 C 
ATOM     25  C   UNL A   1      34.354  21.849  24.720  1.00  0.00     0.003 C 
ATOM     26  C   UNL A   1      33.528  20.585  24.503  1.00  0.00     0.032 C 
BRANCH  24  27
ATOM     27  O   UNL A   1      31.582  21.236  25.730  1.00  0.00    -0.393 OA
ATOM     28  H   UNL A   1      31.839  22.108  26.069  1.00  0.00     0.210 HD
ENDBRANCH  24  27
ENDBRANCH  21  22
ENDBRANCH  12  21
ENDBRANCH   5   7
ENDBRANCH   3   5
ENDBRANCH   2   3
ENDBRANCH   1   2
BRANCH   1  29
ATOM     29  C   UNL A   1      31.750  32.869  26.690  1.00  0.00     0.275 C 
BRANCH  29  30
ATOM     30  O   UNL A   1      32.460  32.741  27.945  1.00  0.00    -0.458 OA
BRANCH  30  31
ATOM     31  C   UNL A   1      33.294  33.766  28.258  1.00  0.00     0.338 C 
ATOM     32  O   UNL A   1      32.988  34.932  28.446  1.00  0.00    -0.246 OA
BRANCH  31  33
ATOM     33  C   UNL A   1      34.632  33.229  28.601  1.00  0.00     0.060 A 
ATOM     34  C   UNL A   1      34.644  32.015  29.280  1.00  0.00     0.016 A 
ATOM     35  C   UNL A   1      35.844  33.822  28.227  1.00  0.00     0.016 A 
ATOM     36  C   UNL A   1      35.857  31.385  29.537  1.00  0.00     0.010 A 
ATOM     37  C   UNL A   1      37.071  33.212  28.579  1.00  0.00     0.010 A 
ATOM     38  C   UNL A   1      37.084  31.984  29.255  1.00  0.00    -0.014 A 
BRANCH  38  39
ATOM     39  C   UNL A   1      38.287  31.347  29.871  1.00  0.00     0.031 A 
ATOM     40  C   UNL A   1      38.593  31.638  31.320  1.00  0.00     0.074 A 
ATOM     41  C   UNL A   1      38.935  30.320  29.281  1.00  0.00     0.049 A 
ATOM     42  N   UNL A   1      39.447  31.058  32.128  1.00  0.00    -0.248 NA
ATOM     43  C   UNL A   1      37.774  32.680  31.961  1.00  0.00     0.031 C 
ATOM     44  C   UNL A   1      38.643  29.781  27.956  1.00  0.00     0.029 A 
ATOM     45  N   UNL A   1      39.946  29.512  29.756  1.00  0.00    -0.354 N 
ATOM     46  C   UNL A   1      39.234  31.625  33.376  1.00  0.00     0.074 A 
ATOM     47  C   UNL A   1      38.193  32.620  33.217  1.00  0.00     0.031 C 
ATOM     48  C   UNL A   1      39.444  28.723  27.729  1.00  0.00     0.029 A 
ATOM     49  C   UNL A   1      40.341  28.536  28.872  1.00  0.00     0.049 A 
ATOM     50  H   UNL A   1      40.349  29.624  30.647  1.00  0.00     0.167 HD
ATOM     51  C   UNL A   1      39.833  31.343  34.558  1.00  0.00     0.037 A 
ATOM     52  C   UNL A   1      41.327  27.618  28.960  1.00  0.00     0.037 A 
ATOM     53  C   UNL A   1      40.911  30.412  34.744  1.00  0.00     0.049 A 
ATOM     54  C   UNL A   1      42.187  27.547  30.201  1.00  0.00     0.074 A 
ATOM     55  C   UNL A   1      41.624  30.139  35.899  1.00  0.00     0.029 A 
ATOM     56  N   UNL A   1      41.450  29.620  33.746  1.00  0.00    -0.354 N 
ATOM     57  N   UNL A   1      42.008  28.112  31.369  1.00  0.00    -0.248 NA
ATOM     58  C   UNL A   1      43.405  26.721  30.121  1.00  0.00     0.031 C 
ATOM     59  C   UNL A   1      42.637  29.226  35.584  1.00  0.00     0.029 A 
ATOM     60  C   UNL A   1      42.524  28.899  34.243  1.00  0.00     0.049 A 
ATOM     61  H   UNL A   1      41.120  29.576  32.819  1.00  0.00     0.167 HD
ATOM     62  C   UNL A   1      43.071  27.693  32.164  1.00  0.00     0.074 A 
ATOM     63  C   UNL A   1      43.883  26.813  31.354  1.00  0.00     0.031 C 
ATOM     64  C   UNL A   1      43.342  28.018  33.452  1.00  0.00     0.037 A 
BRANCH  51  65
ATOM     65  C   UNL A   1      39.358  32.106  35.754  1.00  0.00     0.064 A 
ATOM     66  C   UNL A   1      38.394  31.572  36.620  1.00  0.00     0.173 A 
ATOM     67  C   UNL A   1      39.892  33.368  36.048  1.00  0.00     0.173 A 
ATOM     68  F   UNL A   1      37.852  30.370  36.371  1.00  0.00    -0.203 F 
ATOM     69  C   UNL A   1      37.966  32.288  37.734  1.00  0.00     0.198 A 
ATOM     70  C   UNL A   1      39.475  34.072  37.171  1.00  0.00     0.198 A 
ATOM     71  F   UNL A   1      40.819  33.911  35.246  1.00  0.00    -0.203 F 
ATOM     72  F   UNL A   1      37.020  31.777  38.535  1.00  0.00    -0.200 F 
ATOM     73  C   UNL A   1      38.509  33.536  38.011  1.00  0.00     0.200 A 
ATOM     74  F   UNL A   1      40.002  35.275  37.440  1.00  0.00    -0.200 F 
ATOM     75  F   UNL A   1      38.095  34.224  39.083  1.00  0.00    -0.200 F 
ENDBRANCH  51  65
BRANCH  52  76
ATOM     76  C   UNL A   1      41.635  26.719  27.813  1.00  0.00     0.064 A 
ATOM     77  C   UNL A   1      41.048  25.450  27.702  1.00  0.00     0.173 A 
ATOM     78  C   UNL A   1      42.609  27.070  26.865  1.00  0.00     0.173 A 
ATOM     79  F   UNL A   1      40.148  25.046  28.611  1.00  0.00    -0.203 F 
ATOM     80  C   UNL A   1      41.438  24.562  26.700  1.00  0.00     0.198 A 
ATOM     81  C   UNL A   1      42.975  26.193  25.847  1.00  0.00     0.198 A 
ATOM     82  F   UNL A   1      43.226  28.257  26.944  1.00  0.00    -0.203 F 
ATOM     83  F   UNL A   1      40.911  23.331  26.656  1.00  0.00    -0.200 F 
ATOM     84  C   UNL A   1      42.398  24.936  25.771  1.00  0.00     0.200 A 
ATOM     85  F   UNL A   1      43.908  26.557  24.956  1.00  0.00    -0.200 F 
ATOM     86  F   UNL A   1      42.784  24.075  24.819  1.00  0.00    -0.200 F 
ENDBRANCH  52  76
BRANCH  64  87
ATOM     87  C   UNL A   1      44.564  27.419  34.091  1.00  0.00     0.064 A 
ATOM     88  C   UNL A   1      44.529  26.151  34.688  1.00  0.00     0.173 A 
ATOM     89  C   UNL A   1      45.798  28.088  34.050  1.00  0.00     0.173 A 
ATOM     90  F   UNL A   1      43.374  25.474  34.767  1.00  0.00    -0.203 F 
ATOM     91  C   UNL A   1      45.678  25.581  35.234  1.00  0.00     0.198 A 
ATOM     92  C   UNL A   1      46.951  27.505  34.572  1.00  0.00     0.198 A 
ATOM     93  F   UNL A   1      45.891  29.301  33.483  1.00  0.00    -0.203 F 
ATOM     94  F   UNL A   1      45.612  24.384  35.832  1.00  0.00    -0.200 F 
ATOM     95  C   UNL A   1      46.889  26.255  35.167  1.00  0.00     0.200 A 
ATOM     96  F   UNL A   1      48.122  28.150  34.492  1.00  0.00    -0.200 F 
ATOM     97  F   UNL A   1      47.996  25.699  35.678  1.00  0.00    -0.200 F 
ENDBRANCH  64  87
ENDBRANCH  38  39
ENDBRANCH  31  33
ENDBRANCH  30  31
ENDBRANCH  29  30
ENDBRANCH   1  29
TORSDOF 17
ENDMDL
MODEL 3
REMARK VINA RESULT:     -13.1      0.206      1.571
REMARK SMILES C[C@@H](C(=O)OCCOC(=O)c1ccc(-c2c3nc(c(-c4c(F)c(F)c(F)c(F)c4F)c4ccc([nH]4)c(-c4c(F)c(F)c(F)c(F)c4F)c4nc(c(-c5c(F)c(F)c(F)c(F)c5F)c5ccc2[nH]5)C=C4)C=C3)cc1)c1ccc(C[C@H]2CCC[C@H]2O)cc1-c1ccc(O)cc1
REMARK SMILES IDX 6 1 5 2 3 3 4 4 2 5 1 6 74 7 75 8 86 9 76 10 85 11 77 12
REMARK SMILES IDX 87 13 88 14 93 15 89 16 92 17 90 18 91 19 78 21 79 22 80 23
REMARK SMILES IDX 83 24 81 25 82 26 84 27 7 29 8 30 9 31 10 32 11 33 12 34
REMARK SMILES IDX 73 35 13 36 72 37 14 38 15 39 16 40 66 41 17 42 71 43 65 44
REMARK SMILES IDX 67 45 18 46 70 47 64 48 63 49 19 51 51 52 31 53 50 54 32 55
REMARK SMILES IDX 35 56 49 57 68 58 33 59 34 60 48 62 69 63 36 64 20 65 21 66
REMARK SMILES IDX 29 67 22 68 23 69 27 70 30 71 24 72 25 73 28 74 26 75 52 76
REMARK SMILES IDX 53 77 61 78 54 79 55 80 59 81 62 82 56 83 57 84 60 85 58 86
REMARK SMILES IDX 37 87 38 88 46 89 39 90 40 91 44 92 47 93 41 94 42 95 45 96
REMARK SMILES IDX 43 97
REMARK H PARENT 91 20 84 28 67 50 35 61
REMARK Flexibility Score: inf
ROOT
ATOM      1  C   UNL A   1      36.626  20.442  25.169  1.00  0.00     0.274 C 
ENDROOT
BRANCH   1   2
ATOM      2  O   UNL A   1      36.580  21.621  25.993  1.00  0.00    -0.462 OA
BRANCH   2   3
ATOM      3  C   UNL A   1      36.010  22.738  25.440  1.00  0.00     0.313 C 
ATOM      4  O   UNL A   1      35.907  23.814  26.016  1.00  0.00    -0.252 OA
BRANCH   3   5
ATOM      5  C   UNL A   1      35.458  22.454  24.049  1.00  0.00     0.127 C 
ATOM      6  C   UNL A   1      36.492  23.007  23.028  1.00  0.00     0.025 C 
BRANCH   5   7
ATOM      7  C   UNL A   1      34.031  22.894  23.666  1.00  0.00    -0.026 A 
ATOM      8  C   UNL A   1      33.955  24.224  23.170  1.00  0.00     0.005 A 
ATOM      9  C   UNL A   1      32.814  22.175  23.728  1.00  0.00    -0.014 A 
ATOM     10  C   UNL A   1      32.754  24.909  22.998  1.00  0.00     0.004 A 
ATOM     11  C   UNL A   1      31.602  22.918  23.564  1.00  0.00     0.012 A 
ATOM     12  C   UNL A   1      31.556  24.304  23.321  1.00  0.00    -0.047 A 
BRANCH   9  13
ATOM     13  C   UNL A   1      32.657  20.722  23.981  1.00  0.00    -0.018 A 
ATOM     14  C   UNL A   1      32.867  20.155  25.248  1.00  0.00     0.012 A 
ATOM     15  C   UNL A   1      32.407  19.830  22.938  1.00  0.00     0.012 A 
ATOM     16  C   UNL A   1      32.787  18.766  25.446  1.00  0.00     0.047 A 
ATOM     17  C   UNL A   1      32.313  18.448  23.116  1.00  0.00     0.047 A 
ATOM     18  C   UNL A   1      32.495  17.924  24.381  1.00  0.00     0.115 A 
BRANCH  18  19
ATOM     19  O   UNL A   1      32.392  16.586  24.609  1.00  0.00    -0.508 OA
ATOM     20  H   UNL A   1      31.945  16.273  25.371  1.00  0.00     0.293 HD
ENDBRANCH  18  19
ENDBRANCH   9  13
BRANCH  12  21
ATOM     21  C   UNL A   1      30.259  25.086  23.322  1.00  0.00     0.041 C 
BRANCH  21  22
ATOM     22  C   UNL A   1      30.213  26.568  23.793  1.00  0.00     0.022 C 
ATOM     23  C   UNL A   1      31.382  27.066  24.644  1.00  0.00     0.007 C 
ATOM     24  C   UNL A   1      30.048  27.703  22.773  1.00  0.00     0.117 C 
ATOM     25  C   UNL A   1      31.309  28.593  24.640  1.00  0.00     0.003 C 
ATOM     26  C   UNL A   1      30.212  28.953  23.642  1.00  0.00     0.032 C 
BRANCH  24  27
ATOM     27  O   UNL A   1      31.045  27.732  21.764  1.00  0.00    -0.393 OA
ATOM     28  H   UNL A   1      31.218  26.829  21.455  1.00  0.00     0.210 HD
ENDBRANCH  24  27
ENDBRANCH  21  22
ENDBRANCH  12  21
ENDBRANCH   5   7
ENDBRANCH   3   5
ENDBRANCH   2   3
ENDBRANCH   1   2
BRANCH   1  29
ATOM     29  C   UNL A   1      38.077  19.949  25.058  1.00  0.00     0.275 C 
BRANCH  29  30
ATOM     30  O   UNL A   1      39.010  21.007  25.383  1.00  0.00    -0.458 OA
BRANCH  30  31
ATOM     31  C   UNL A   1      39.968  20.690  26.292  1.00  0.00     0.338 C 
ATOM     32  O   UNL A   1      40.507  19.606  26.444  1.00  0.00    -0.246 OA
BRANCH  31  33
ATOM     33  C   UNL A   1      40.475  21.927  26.931  1.00  0.00     0.060 A 
ATOM     34  C   UNL A   1      40.003  23.124  26.399  1.00  0.00     0.016 A 
ATOM     35  C   UNL A   1      41.318  21.955  28.048  1.00  0.00     0.016 A 
ATOM     36  C   UNL A   1      40.337  24.325  27.013  1.00  0.00     0.010 A 
ATOM     37  C   UNL A   1      41.722  23.192  28.603  1.00  0.00     0.010 A 
ATOM     38  C   UNL A   1      41.239  24.397  28.074  1.00  0.00    -0.014 A 
BRANCH  38  39
ATOM     39  C   UNL A   1      41.748  25.759  28.417  1.00  0.00     0.031 A 
ATOM     40  C   UNL A   1      43.142  26.139  27.977  1.00  0.00     0.074 A 
ATOM     41  C   UNL A   1      40.929  26.743  28.845  1.00  0.00     0.049 A 
ATOM     42  N   UNL A   1      43.727  27.312  27.974  1.00  0.00    -0.248 NA
ATOM     43  C   UNL A   1      43.957  25.059  27.397  1.00  0.00     0.031 C 
ATOM     44  C   UNL A   1      39.507  26.596  29.138  1.00  0.00     0.029 A 
ATOM     45  N   UNL A   1      41.178  28.082  29.056  1.00  0.00    -0.354 N 
ATOM     46  C   UNL A   1      44.953  27.122  27.350  1.00  0.00     0.074 A 
ATOM     47  C   UNL A   1      45.044  25.715  27.016  1.00  0.00     0.031 C 
ATOM     48  C   UNL A   1      39.004  27.798  29.474  1.00  0.00     0.029 A 
ATOM     49  C   UNL A   1      40.077  28.795  29.469  1.00  0.00     0.049 A 
ATOM     50  H   UNL A   1      42.063  28.492  28.923  1.00  0.00     0.167 HD
ATOM     51  C   UNL A   1      45.916  28.030  27.064  1.00  0.00     0.037 A 
ATOM     52  C   UNL A   1      39.954  30.091  29.829  1.00  0.00     0.037 A 
ATOM     53  C   UNL A   1      45.891  29.417  27.435  1.00  0.00     0.049 A 
ATOM     54  C   UNL A   1      41.156  31.006  29.785  1.00  0.00     0.074 A 
ATOM     55  C   UNL A   1      46.873  30.377  27.252  1.00  0.00     0.029 A 
ATOM     56  N   UNL A   1      44.842  30.040  28.087  1.00  0.00    -0.354 N 
ATOM     57  N   UNL A   1      42.326  30.815  29.231  1.00  0.00    -0.248 NA
ATOM     58  C   UNL A   1      41.018  32.317  30.445  1.00  0.00     0.031 C 
ATOM     59  C   UNL A   1      46.441  31.566  27.850  1.00  0.00     0.029 A 
ATOM     60  C   UNL A   1      45.173  31.357  28.366  1.00  0.00     0.049 A 
ATOM     61  H   UNL A   1      43.986  29.611  28.320  1.00  0.00     0.167 HD
ATOM     62  C   UNL A   1      43.051  31.982  29.452  1.00  0.00     0.074 A 
ATOM     63  C   UNL A   1      42.185  32.885  30.177  1.00  0.00     0.031 C 
ATOM     64  C   UNL A   1      44.323  32.270  29.085  1.00  0.00     0.037 A 
BRANCH  51  65
ATOM     65  C   UNL A   1      47.126  27.525  26.343  1.00  0.00     0.064 A 
ATOM     66  C   UNL A   1      48.208  26.969  27.039  1.00  0.00     0.173 A 
ATOM     67  C   UNL A   1      47.189  27.575  24.944  1.00  0.00     0.173 A 
ATOM     68  F   UNL A   1      48.190  26.909  28.380  1.00  0.00    -0.203 F 
ATOM     69  C   UNL A   1      49.324  26.495  26.356  1.00  0.00     0.198 A 
ATOM     70  C   UNL A   1      48.299  27.085  24.265  1.00  0.00     0.198 A 
ATOM     71  F   UNL A   1      46.174  28.096  24.241  1.00  0.00    -0.203 F 
ATOM     72  F   UNL A   1      50.363  25.995  27.040  1.00  0.00    -0.200 F 
ATOM     73  C   UNL A   1      49.367  26.550  24.970  1.00  0.00     0.200 A 
ATOM     74  F   UNL A   1      48.339  27.135  22.926  1.00  0.00    -0.200 F 
ATOM     75  F   UNL A   1      50.444  26.095  24.314  1.00  0.00    -0.200 F 
ENDBRANCH  51  65
BRANCH  52  76
ATOM     76  C   UNL A   1      38.660  30.618  30.346  1.00  0.00     0.064 A 
ATOM     77  C   UNL A   1      38.362  30.605  31.717  1.00  0.00     0.173 A 
ATOM     78  C   UNL A   1      37.652  31.042  29.466  1.00  0.00     0.173 A 
ATOM     79  F   UNL A   1      39.274  30.162  32.596  1.00  0.00    -0.203 F 
ATOM     80  C   UNL A   1      37.102  30.977  32.183  1.00  0.00     0.198 A 
ATOM     81  C   UNL A   1      36.404  31.442  29.936  1.00  0.00     0.198 A 
ATOM     82  F   UNL A   1      37.872  31.043  28.144  1.00  0.00    -0.203 F 
ATOM     83  F   UNL A   1      36.821  30.891  33.490  1.00  0.00    -0.200 F 
ATOM     84  C   UNL A   1      36.126  31.399  31.293  1.00  0.00     0.200 A 
ATOM     85  F   UNL A   1      35.462  31.843  29.071  1.00  0.00    -0.200 F 
ATOM     86  F   UNL A   1      34.909  31.740  31.741  1.00  0.00    -0.200 F 
ENDBRANCH  52  76
BRANCH  64  87
ATOM     87  C   UNL A   1      44.877  33.620  29.445  1.00  0.00     0.064 A 
ATOM     88  C   UNL A   1      45.624  33.815  30.615  1.00  0.00     0.173 A 
ATOM     89  C   UNL A   1      44.716  34.716  28.582  1.00  0.00     0.173 A 
ATOM     90  F   UNL A   1      45.797  32.806  31.482  1.00  0.00    -0.203 F 
ATOM     91  C   UNL A   1      46.176  35.059  30.916  1.00  0.00     0.198 A 
ATOM     92  C   UNL A   1      45.292  35.951  28.872  1.00  0.00     0.198 A 
ATOM     93  F   UNL A   1      44.017  34.584  27.444  1.00  0.00    -0.203 F 
ATOM     94  F   UNL A   1      46.857  35.230  32.059  1.00  0.00    -0.200 F 
ATOM     95  C   UNL A   1      46.018  36.122  30.040  1.00  0.00     0.200 A 
ATOM     96  F   UNL A   1      45.151  36.973  28.017  1.00  0.00    -0.200 F 
ATOM     97  F   UNL A   1      46.563  37.314  30.324  1.00  0.00    -0.200 F 
ENDBRANCH  64  87
ENDBRANCH  38  39
ENDBRANCH  31  33
ENDBRANCH  30  31
ENDBRANCH  29  30
ENDBRANCH   1  29
TORSDOF 17
ENDMDL
