MODEL 1
REMARK VINA RESULT:     -12.9      0.000      0.000
REMARK SMILES Cc1cc(C)c(S(=O)(=O)Nc2ccc(N3CC[NH+](C)CC3)c(C(=O)OCCOC(=O)c3ccc(-c4c5nc(c(-c6c(F)c(F)c(F)c(F)c6F)c6ccc([nH]6)c(-c6c(F)c(F)c(F)c(F)c6F)c6nc(c(-c7c(F)c(F)c(F)c(F)c7F)c7ccc4[nH]7)C=C6)C=C5)cc3)c2)c(C)c1
REMARK SMILES IDX 26 1 25 2 23 3 24 4 22 5 11 6 12 7 94 8 13 9 14 10 10 11
REMARK SMILES IDX 7 13 8 14 9 15 6 16 1 17 2 18 3 19 97 20 4 21 95 22 5 23
REMARK SMILES IDX 96 24 15 25 16 26 21 27 17 28 20 29 18 30 19 31 27 33 28 34
REMARK SMILES IDX 29 35 30 36 31 37 32 38 93 39 33 40 92 41 34 42 35 43 36 44
REMARK SMILES IDX 86 45 37 46 91 47 85 48 87 49 38 50 90 51 84 52 83 53 39 55
REMARK SMILES IDX 71 56 51 57 70 58 52 59 55 60 69 61 88 62 53 63 54 64 68 66
REMARK SMILES IDX 89 67 56 68 40 69 41 70 49 71 42 72 43 73 47 74 50 75 44 76
REMARK SMILES IDX 45 77 48 78 46 79 72 80 73 81 81 82 74 83 75 84 79 85 82 86
REMARK SMILES IDX 76 87 77 88 80 89 78 90 57 91 58 92 66 93 59 94 60 95 64 96
REMARK SMILES IDX 67 97 61 98 62 99 65 100 63 101
REMARK H PARENT 10 12 18 32 87 54 55 65
REMARK Flexibility Score: inf
ROOT
ATOM      1  C   UNL A   1      47.250  39.284  27.024  1.00  0.00     0.275 C 
ENDROOT
BRANCH   1   2
ATOM      2  O   UNL A   1      47.436  40.555  26.368  1.00  0.00    -0.458 OA
BRANCH   2   3
ATOM      3  C   UNL A   1      46.674  40.743  25.263  1.00  0.00     0.340 C 
ATOM      4  O   UNL A   1      46.450  39.905  24.403  1.00  0.00    -0.246 OA
BRANCH   3   5
ATOM      5  C   UNL A   1      46.305  42.167  25.133  1.00  0.00     0.085 A 
ATOM      6  C   UNL A   1      46.368  43.796  23.364  1.00  0.00     0.050 A 
ATOM      7  C   UNL A   1      45.397  44.545  24.035  1.00  0.00     0.029 A 
ATOM      8  C   UNL A   1      46.944  42.720  24.010  1.00  0.00     0.044 A 
ATOM      9  C   UNL A   1      44.836  44.067  25.230  1.00  0.00     0.029 A 
ATOM     10  C   UNL A   1      45.192  42.809  25.745  1.00  0.00     0.052 A 
BRANCH   6  11
ATOM     11  N   UNL A   1      46.412  43.920  21.944  1.00  0.00    -0.280 N 
ATOM     12  H   UNL A   1      46.939  44.669  21.584  1.00  0.00     0.180 HD
BRANCH  11  13
ATOM     13  S   UNL A   1      45.662  42.924  20.824  1.00  0.00     0.262 S 
ATOM     14  O   UNL A   1      45.424  41.660  21.493  1.00  0.00    -0.201 OA
ATOM     15  O   UNL A   1      46.499  42.992  19.644  1.00  0.00    -0.201 OA
BRANCH  13  16
ATOM     16  C   UNL A   1      44.041  43.564  20.327  1.00  0.00     0.093 A 
ATOM     17  C   UNL A   1      40.344  44.358  18.207  1.00  0.00     0.044 C 
ATOM     18  C   UNL A   1      41.617  44.123  18.963  1.00  0.00    -0.051 A 
ATOM     19  C   UNL A   1      42.806  44.717  18.555  1.00  0.00     0.008 A 
ATOM     20  C   UNL A   1      41.625  43.389  20.149  1.00  0.00     0.008 A 
ATOM     21  C   UNL A   1      44.020  44.457  19.223  1.00  0.00    -0.030 A 
ATOM     22  C   UNL A   1      42.813  43.142  20.877  1.00  0.00    -0.030 A 
ATOM     23  C   UNL A   1      45.199  45.291  18.785  1.00  0.00     0.046 C 
ATOM     24  C   UNL A   1      42.640  42.517  22.230  1.00  0.00     0.046 C 
ENDBRANCH  13  16
ENDBRANCH  11  13
ENDBRANCH   6  11
BRANCH  10  25
ATOM     25  N   UNL A   1      44.255  42.220  26.615  1.00  0.00    -0.360 N 
ATOM     26  C   UNL A   1      44.726  41.741  28.384  1.00  0.00     0.178 C 
ATOM     27  C   UNL A   1      43.020  41.319  25.736  1.00  0.00     0.178 C 
ATOM     28  C   UNL A   1      43.847  39.809  29.021  1.00  0.00     0.283 C 
ATOM     29  C   UNL A   1      42.359  39.688  26.362  1.00  0.00     0.283 C 
ATOM     30  N   UNL A   1      42.771  38.949  27.794  1.00  0.00    -0.334 N 
ATOM     31  C   UNL A   1      42.063  37.774  28.221  1.00  0.00     0.332 C 
ATOM     32  H   UNL A   1      43.537  38.495  27.298  1.00  0.00     0.347 HD
ENDBRANCH  10  25
ENDBRANCH   3   5
ENDBRANCH   2   3
ENDBRANCH   1   2
BRANCH   1  33
ATOM     33  C   UNL A   1      47.997  39.307  28.350  1.00  0.00     0.275 C 
BRANCH  33  34
ATOM     34  O   UNL A   1      47.959  37.977  28.897  1.00  0.00    -0.458 OA
BRANCH  34  35
ATOM     35  C   UNL A   1      47.019  37.794  29.843  1.00  0.00     0.338 C 
ATOM     36  O   UNL A   1      46.634  38.572  30.697  1.00  0.00    -0.246 OA
BRANCH  35  37
ATOM     37  C   UNL A   1      46.411  36.478  29.683  1.00  0.00     0.060 A 
ATOM     38  C   UNL A   1      46.832  35.109  30.688  1.00  0.00     0.016 A 
ATOM     39  C   UNL A   1      45.477  36.154  28.279  1.00  0.00     0.016 A 
ATOM     40  C   UNL A   1      46.250  33.312  30.137  1.00  0.00     0.010 A 
ATOM     41  C   UNL A   1      44.923  34.580  27.829  1.00  0.00     0.010 A 
ATOM     42  C   UNL A   1      45.261  33.117  28.695  1.00  0.00    -0.014 A 
BRANCH  42  43
ATOM     43  C   UNL A   1      44.550  31.833  28.345  1.00  0.00     0.031 A 
ATOM     44  C   UNL A   1      43.215  31.486  28.957  1.00  0.00     0.074 A 
ATOM     45  C   UNL A   1      45.149  30.892  27.578  1.00  0.00     0.049 A 
ATOM     46  N   UNL A   1      42.580  30.336  28.968  1.00  0.00    -0.248 NA
ATOM     47  C   UNL A   1      42.508  32.556  29.673  1.00  0.00     0.031 C 
ATOM     48  C   UNL A   1      46.440  31.037  26.937  1.00  0.00     0.029 A 
ATOM     49  N   UNL A   1      44.789  29.607  27.227  1.00  0.00    -0.354 N 
ATOM     50  C   UNL A   1      41.429  30.537  29.720  1.00  0.00     0.074 A 
ATOM     51  C   UNL A   1      41.477  31.905  30.192  1.00  0.00     0.031 C 
ATOM     52  C   UNL A   1      46.778  29.938  26.266  1.00  0.00     0.029 A 
ATOM     53  C   UNL A   1      45.760  28.941  26.506  1.00  0.00     0.049 A 
ATOM     54  H   UNL A   1      43.923  29.203  27.467  1.00  0.00     0.167 HD
ATOM     55  C   UNL A   1      40.418  29.667  29.973  1.00  0.00     0.037 A 
ATOM     56  C   UNL A   1      45.891  27.664  26.107  1.00  0.00     0.037 A 
ATOM     57  C   UNL A   1      40.352  28.324  29.448  1.00  0.00     0.049 A 
ATOM     58  C   UNL A   1      44.782  26.718  26.405  1.00  0.00     0.074 A 
ATOM     59  C   UNL A   1      39.326  27.402  29.561  1.00  0.00     0.029 A 
ATOM     60  N   UNL A   1      41.357  27.708  28.710  1.00  0.00    -0.354 N 
ATOM     61  N   UNL A   1      43.689  26.942  27.090  1.00  0.00    -0.248 NA
ATOM     62  C   UNL A   1      44.905  25.360  25.871  1.00  0.00     0.031 C 
ATOM     63  C   UNL A   1      39.731  26.213  28.942  1.00  0.00     0.029 A 
ATOM     64  C   UNL A   1      40.988  26.407  28.396  1.00  0.00     0.049 A 
ATOM     65  H   UNL A   1      42.205  28.132  28.449  1.00  0.00     0.167 HD
ATOM     66  C   UNL A   1      42.982  25.756  27.064  1.00  0.00     0.074 A 
ATOM     67  C   UNL A   1      43.763  24.821  26.275  1.00  0.00     0.031 C 
ATOM     68  C   UNL A   1      41.790  25.474  27.642  1.00  0.00     0.037 A 
BRANCH  55  69
ATOM     69  C   UNL A   1      39.301  30.137  30.869  1.00  0.00     0.064 A 
ATOM     70  C   UNL A   1      39.335  29.962  32.262  1.00  0.00     0.173 A 
ATOM     71  C   UNL A   1      38.182  30.789  30.325  1.00  0.00     0.173 A 
ATOM     72  F   UNL A   1      40.375  29.343  32.839  1.00  0.00    -0.203 F 
ATOM     73  C   UNL A   1      38.273  30.376  33.066  1.00  0.00     0.198 A 
ATOM     74  C   UNL A   1      37.139  31.232  31.135  1.00  0.00     0.198 A 
ATOM     75  F   UNL A   1      38.098  30.997  29.002  1.00  0.00    -0.203 F 
ATOM     76  F   UNL A   1      38.301  30.136  34.384  1.00  0.00    -0.200 F 
ATOM     77  C   UNL A   1      37.179  31.014  32.502  1.00  0.00     0.200 A 
ATOM     78  F   UNL A   1      36.090  31.864  30.590  1.00  0.00    -0.200 F 
ATOM     79  F   UNL A   1      36.158  31.408  33.277  1.00  0.00    -0.200 F 
ENDBRANCH  55  69
BRANCH  56  80
ATOM     80  C   UNL A   1      47.133  27.250  25.397  1.00  0.00     0.064 A 
ATOM     81  C   UNL A   1      47.346  27.588  24.054  1.00  0.00     0.173 A 
ATOM     82  C   UNL A   1      48.190  26.631  26.088  1.00  0.00     0.173 A 
ATOM     83  F   UNL A   1      46.368  28.173  23.350  1.00  0.00    -0.203 F 
ATOM     84  C   UNL A   1      48.569  27.334  23.434  1.00  0.00     0.198 A 
ATOM     85  C   UNL A   1      49.421  26.407  25.475  1.00  0.00     0.198 A 
ATOM     86  F   UNL A   1      48.049  26.310  27.383  1.00  0.00    -0.203 F 
ATOM     87  F   UNL A   1      48.746  27.667  22.147  1.00  0.00    -0.200 F 
ATOM     88  C   UNL A   1      49.610  26.759  24.149  1.00  0.00     0.200 A 
ATOM     89  F   UNL A   1      50.435  25.884  26.181  1.00  0.00    -0.200 F 
ATOM     90  F   UNL A   1      50.799  26.559  23.562  1.00  0.00    -0.200 F 
ENDBRANCH  56  80
BRANCH  68  91
ATOM     91  C   UNL A   1      41.272  24.085  27.440  1.00  0.00     0.064 A 
ATOM     92  C   UNL A   1      41.881  22.983  28.058  1.00  0.00     0.173 A 
ATOM     93  C   UNL A   1      40.166  23.852  26.610  1.00  0.00     0.173 A 
ATOM     94  F   UNL A   1      42.959  23.157  28.837  1.00  0.00    -0.203 F 
ATOM     95  C   UNL A   1      41.418  21.692  27.829  1.00  0.00     0.198 A 
ATOM     96  C   UNL A   1      39.688  22.563  26.407  1.00  0.00     0.198 A 
ATOM     97  F   UNL A   1      39.556  24.875  25.992  1.00  0.00    -0.203 F 
ATOM     98  F   UNL A   1      42.050  20.648  28.380  1.00  0.00    -0.200 F 
ATOM     99  C   UNL A   1      40.318  21.483  27.009  1.00  0.00     0.200 A 
ATOM    100  F   UNL A   1      38.622  22.362  25.619  1.00  0.00    -0.200 F 
ATOM    101  F   UNL A   1      39.874  20.239  26.786  1.00  0.00    -0.200 F 
ENDBRANCH  68  91
ENDBRANCH  42  43
ENDBRANCH  35  37
ENDBRANCH  34  35
ENDBRANCH  33  34
ENDBRANCH   1  33
TORSDOF 15
ENDMDL
MODEL 2
REMARK VINA RESULT:     -12.7      1.306      7.280
REMARK SMILES Cc1cc(C)c(S(=O)(=O)Nc2ccc(N3CC[NH+](C)CC3)c(C(=O)OCCOC(=O)c3ccc(-c4c5nc(c(-c6c(F)c(F)c(F)c(F)c6F)c6ccc([nH]6)c(-c6c(F)c(F)c(F)c(F)c6F)c6nc(c(-c7c(F)c(F)c(F)c(F)c7F)c7ccc4[nH]7)C=C6)C=C5)cc3)c2)c(C)c1
REMARK SMILES IDX 26 1 25 2 23 3 24 4 22 5 11 6 12 7 94 8 13 9 14 10 10 11
REMARK SMILES IDX 7 13 8 14 9 15 6 16 1 17 2 18 3 19 97 20 4 21 95 22 5 23
REMARK SMILES IDX 96 24 15 25 16 26 21 27 17 28 20 29 18 30 19 31 27 33 28 34
REMARK SMILES IDX 29 35 30 36 31 37 32 38 93 39 33 40 92 41 34 42 35 43 36 44
REMARK SMILES IDX 86 45 37 46 91 47 85 48 87 49 38 50 90 51 84 52 83 53 39 55
REMARK SMILES IDX 71 56 51 57 70 58 52 59 55 60 69 61 88 62 53 63 54 64 68 66
REMARK SMILES IDX 89 67 56 68 40 69 41 70 49 71 42 72 43 73 47 74 50 75 44 76
REMARK SMILES IDX 45 77 48 78 46 79 72 80 73 81 81 82 74 83 75 84 79 85 82 86
REMARK SMILES IDX 76 87 77 88 80 89 78 90 57 91 58 92 66 93 59 94 60 95 64 96
REMARK SMILES IDX 67 97 61 98 62 99 65 100 63 101
REMARK H PARENT 10 12 18 32 87 54 55 65
REMARK Flexibility Score: inf
ROOT
ATOM      1  C   UNL A   1      47.120  39.364  25.778  1.00  0.00     0.275 C 
ENDROOT
BRANCH   1   2
ATOM      2  O   UNL A   1      47.157  40.744  25.359  1.00  0.00    -0.458 OA
BRANCH   2   3
ATOM      3  C   UNL A   1      46.607  40.985  24.144  1.00  0.00     0.340 C 
ATOM      4  O   UNL A   1      46.907  40.423  23.103  1.00  0.00    -0.246 OA
BRANCH   3   5
ATOM      5  C   UNL A   1      45.724  42.168  24.209  1.00  0.00     0.085 A 
ATOM      6  C   UNL A   1      44.703  43.631  22.595  1.00  0.00     0.050 A 
ATOM      7  C   UNL A   1      43.751  44.000  23.549  1.00  0.00     0.029 A 
ATOM      8  C   UNL A   1      45.785  42.870  22.992  1.00  0.00     0.044 A 
ATOM      9  C   UNL A   1      43.752  43.399  24.819  1.00  0.00     0.029 A 
ATOM     10  C   UNL A   1      44.668  42.382  25.138  1.00  0.00     0.052 A 
BRANCH   6  11
ATOM     11  N   UNL A   1      44.309  43.703  21.227  1.00  0.00    -0.280 N 
ATOM     12  H   UNL A   1      43.519  43.176  20.969  1.00  0.00     0.180 HD
BRANCH  11  13
ATOM     13  S   UNL A   1      45.047  44.591  20.013  1.00  0.00     0.262 S 
ATOM     14  O   UNL A   1      45.573  43.629  19.063  1.00  0.00    -0.201 OA
ATOM     15  O   UNL A   1      45.929  45.509  20.704  1.00  0.00    -0.201 OA
BRANCH  13  16
ATOM     16  C   UNL A   1      43.861  45.620  19.109  1.00  0.00     0.093 A 
ATOM     17  C   UNL A   1      41.834  47.955  16.070  1.00  0.00     0.044 C 
ATOM     18  C   UNL A   1      42.510  47.169  17.153  1.00  0.00    -0.051 A 
ATOM     19  C   UNL A   1      43.568  47.713  17.872  1.00  0.00     0.008 A 
ATOM     20  C   UNL A   1      42.033  45.916  17.537  1.00  0.00     0.008 A 
ATOM     21  C   UNL A   1      44.249  46.962  18.852  1.00  0.00    -0.030 A 
ATOM     22  C   UNL A   1      42.657  45.147  18.548  1.00  0.00    -0.030 A 
ATOM     23  C   UNL A   1      45.263  47.723  19.671  1.00  0.00     0.046 C 
ATOM     24  C   UNL A   1      41.919  43.919  18.993  1.00  0.00     0.046 C 
ENDBRANCH  13  16
ENDBRANCH  11  13
ENDBRANCH   6  11
BRANCH  10  25
ATOM     25  N   UNL A   1      44.286  41.527  26.189  1.00  0.00    -0.360 N 
ATOM     26  C   UNL A   1      42.667  40.552  26.120  1.00  0.00     0.178 C 
ATOM     27  C   UNL A   1      44.962  42.045  27.734  1.00  0.00     0.178 C 
ATOM     28  C   UNL A   1      41.618  40.476  28.071  1.00  0.00     0.283 C 
ATOM     29  C   UNL A   1      43.979  41.947  29.320  1.00  0.00     0.283 C 
ATOM     30  N   UNL A   1      42.447  41.321  29.486  1.00  0.00    -0.334 N 
ATOM     31  C   UNL A   1      41.877  41.166  30.795  1.00  0.00     0.332 C 
ATOM     32  H   UNL A   1      42.083  42.248  29.269  1.00  0.00     0.347 HD
ENDBRANCH  10  25
ENDBRANCH   3   5
ENDBRANCH   2   3
ENDBRANCH   1   2
BRANCH   1  33
ATOM     33  C   UNL A   1      47.580  39.282  27.227  1.00  0.00     0.275 C 
BRANCH  33  34
ATOM     34  O   UNL A   1      47.499  37.906  27.635  1.00  0.00    -0.458 OA
BRANCH  34  35
ATOM     35  C   UNL A   1      46.451  37.625  28.432  1.00  0.00     0.338 C 
ATOM     36  O   UNL A   1      45.846  38.366  29.185  1.00  0.00    -0.246 OA
BRANCH  35  37
ATOM     37  C   UNL A   1      46.040  36.240  28.232  1.00  0.00     0.060 A 
ATOM     38  C   UNL A   1      45.001  35.738  26.918  1.00  0.00     0.016 A 
ATOM     39  C   UNL A   1      46.318  35.097  29.483  1.00  0.00     0.016 A 
ATOM     40  C   UNL A   1      44.202  33.941  26.972  1.00  0.00     0.010 A 
ATOM     41  C   UNL A   1      45.656  33.501  29.498  1.00  0.00     0.010 A 
ATOM     42  C   UNL A   1      44.598  32.847  28.292  1.00  0.00    -0.014 A 
BRANCH  42  43
ATOM     43  C   UNL A   1      44.256  31.378  28.282  1.00  0.00     0.031 A 
ATOM     44  C   UNL A   1      45.097  30.383  27.520  1.00  0.00     0.074 A 
ATOM     45  C   UNL A   1      43.109  30.926  28.842  1.00  0.00     0.049 A 
ATOM     46  N   UNL A   1      44.825  29.140  27.198  1.00  0.00    -0.248 NA
ATOM     47  C   UNL A   1      46.403  30.846  27.033  1.00  0.00     0.031 C 
ATOM     48  C   UNL A   1      42.165  31.740  29.581  1.00  0.00     0.029 A 
ATOM     49  N   UNL A   1      42.502  29.687  28.856  1.00  0.00    -0.354 N 
ATOM     50  C   UNL A   1      45.900  28.692  26.441  1.00  0.00     0.074 A 
ATOM     51  C   UNL A   1      46.809  29.811  26.310  1.00  0.00     0.031 C 
ATOM     52  C   UNL A   1      41.122  31.024  29.993  1.00  0.00     0.029 A 
ATOM     53  C   UNL A   1      41.261  29.688  29.460  1.00  0.00     0.049 A 
ATOM     54  H   UNL A   1      42.915  28.878  28.472  1.00  0.00     0.167 HD
ATOM     55  C   UNL A   1      46.120  27.455  25.926  1.00  0.00     0.037 A 
ATOM     56  C   UNL A   1      40.286  28.767  29.553  1.00  0.00     0.037 A 
ATOM     57  C   UNL A   1      45.236  26.330  26.113  1.00  0.00     0.049 A 
ATOM     58  C   UNL A   1      40.533  27.421  28.969  1.00  0.00     0.074 A 
ATOM     59  C   UNL A   1      45.416  25.015  25.719  1.00  0.00     0.029 A 
ATOM     60  N   UNL A   1      44.000  26.385  26.747  1.00  0.00    -0.354 N 
ATOM     61  N   UNL A   1      41.574  27.013  28.288  1.00  0.00    -0.248 NA
ATOM     62  C   UNL A   1      39.497  26.407  29.175  1.00  0.00     0.031 C 
ATOM     63  C   UNL A   1      44.270  24.289  26.064  1.00  0.00     0.029 A 
ATOM     64  C   UNL A   1      43.393  25.137  26.721  1.00  0.00     0.049 A 
ATOM     65  H   UNL A   1      43.611  27.192  27.155  1.00  0.00     0.167 HD
ATOM     66  C   UNL A   1      41.328  25.688  27.987  1.00  0.00     0.074 A 
ATOM     67  C   UNL A   1      40.046  25.356  28.582  1.00  0.00     0.031 C 
ATOM     68  C   UNL A   1      42.101  24.828  27.283  1.00  0.00     0.037 A 
BRANCH  55  69
ATOM     69  C   UNL A   1      47.362  27.255  25.096  1.00  0.00     0.064 A 
ATOM     70  C   UNL A   1      47.447  27.682  23.761  1.00  0.00     0.173 A 
ATOM     71  C   UNL A   1      48.494  26.637  25.652  1.00  0.00     0.173 A 
ATOM     72  F   UNL A   1      46.397  28.274  23.173  1.00  0.00    -0.203 F 
ATOM     73  C   UNL A   1      48.595  27.455  23.003  1.00  0.00     0.198 A 
ATOM     74  C   UNL A   1      49.652  26.443  24.903  1.00  0.00     0.198 A 
ATOM     75  F   UNL A   1      48.478  26.219  26.927  1.00  0.00    -0.203 F 
ATOM     76  F   UNL A   1      48.626  27.812  21.712  1.00  0.00    -0.200 F 
ATOM     77  C   UNL A   1      49.698  26.839  23.576  1.00  0.00     0.200 A 
ATOM     78  F   UNL A   1      50.723  25.864  25.464  1.00  0.00    -0.200 F 
ATOM     79  F   UNL A   1      50.800  26.620  22.846  1.00  0.00    -0.200 F 
ENDBRANCH  55  69
BRANCH  56  80
ATOM     80  C   UNL A   1      39.007  29.131  30.224  1.00  0.00     0.064 A 
ATOM     81  C   UNL A   1      38.840  28.961  31.604  1.00  0.00     0.173 A 
ATOM     82  C   UNL A   1      37.980  29.785  29.520  1.00  0.00     0.173 A 
ATOM     83  F   UNL A   1      39.786  28.338  32.320  1.00  0.00    -0.203 F 
ATOM     84  C   UNL A   1      37.704  29.441  32.256  1.00  0.00     0.198 A 
ATOM     85  C   UNL A   1      36.861  30.291  30.178  1.00  0.00     0.198 A 
ATOM     86  F   UNL A   1      38.101  29.997  28.200  1.00  0.00    -0.203 F 
ATOM     87  F   UNL A   1      37.568  29.263  33.577  1.00  0.00    -0.200 F 
ATOM     88  C   UNL A   1      36.723  30.118  31.545  1.00  0.00     0.200 A 
ATOM     89  F   UNL A   1      35.934  30.976  29.492  1.00  0.00    -0.200 F 
ATOM     90  F   UNL A   1      35.654  30.617  32.182  1.00  0.00    -0.200 F 
ENDBRANCH  56  80
BRANCH  68  91
ATOM     91  C   UNL A   1      41.561  23.442  27.117  1.00  0.00     0.064 A 
ATOM     92  C   UNL A   1      42.191  22.338  27.711  1.00  0.00     0.173 A 
ATOM     93  C   UNL A   1      40.413  23.213  26.346  1.00  0.00     0.173 A 
ATOM     94  F   UNL A   1      43.309  22.508  28.434  1.00  0.00    -0.203 F 
ATOM     95  C   UNL A   1      41.706  21.050  27.516  1.00  0.00     0.198 A 
ATOM     96  C   UNL A   1      39.914  21.927  26.177  1.00  0.00     0.198 A 
ATOM     97  F   UNL A   1      39.781  24.237  25.753  1.00  0.00    -0.203 F 
ATOM     98  F   UNL A   1      42.356  20.004  28.043  1.00  0.00    -0.200 F 
ATOM     99  C   UNL A   1      40.564  20.845  26.754  1.00  0.00     0.200 A 
ATOM    100  F   UNL A   1      38.807  21.730  25.446  1.00  0.00    -0.200 F 
ATOM    101  F   UNL A   1      40.099  19.604  26.564  1.00  0.00    -0.200 F 
ENDBRANCH  68  91
ENDBRANCH  42  43
ENDBRANCH  35  37
ENDBRANCH  34  35
ENDBRANCH  33  34
ENDBRANCH   1  33
TORSDOF 15
ENDMDL
MODEL 3
REMARK VINA RESULT:     -12.7      1.172      7.118
REMARK SMILES Cc1cc(C)c(S(=O)(=O)Nc2ccc(N3CC[NH+](C)CC3)c(C(=O)OCCOC(=O)c3ccc(-c4c5nc(c(-c6c(F)c(F)c(F)c(F)c6F)c6ccc([nH]6)c(-c6c(F)c(F)c(F)c(F)c6F)c6nc(c(-c7c(F)c(F)c(F)c(F)c7F)c7ccc4[nH]7)C=C6)C=C5)cc3)c2)c(C)c1
REMARK SMILES IDX 26 1 25 2 23 3 24 4 22 5 11 6 12 7 94 8 13 9 14 10 10 11
REMARK SMILES IDX 7 13 8 14 9 15 6 16 1 17 2 18 3 19 97 20 4 21 95 22 5 23
REMARK SMILES IDX 96 24 15 25 16 26 21 27 17 28 20 29 18 30 19 31 27 33 28 34
REMARK SMILES IDX 29 35 30 36 31 37 32 38 93 39 33 40 92 41 34 42 35 43 36 44
REMARK SMILES IDX 86 45 37 46 91 47 85 48 87 49 38 50 90 51 84 52 83 53 39 55
REMARK SMILES IDX 71 56 51 57 70 58 52 59 55 60 69 61 88 62 53 63 54 64 68 66
REMARK SMILES IDX 89 67 56 68 40 69 41 70 49 71 42 72 43 73 47 74 50 75 44 76
REMARK SMILES IDX 45 77 48 78 46 79 72 80 73 81 81 82 74 83 75 84 79 85 82 86
REMARK SMILES IDX 76 87 77 88 80 89 78 90 57 91 58 92 66 93 59 94 60 95 64 96
REMARK SMILES IDX 67 97 61 98 62 99 65 100 63 101
REMARK H PARENT 10 12 18 32 87 54 55 65
REMARK Flexibility Score: inf
ROOT
ATOM      1  C   UNL A   1      46.658  39.765  25.487  1.00  0.00     0.275 C 
ENDROOT
BRANCH   1   2
ATOM      2  O   UNL A   1      47.075  41.113  25.183  1.00  0.00    -0.458 OA
BRANCH   2   3
ATOM      3  C   UNL A   1      46.775  41.533  23.930  1.00  0.00     0.340 C 
ATOM      4  O   UNL A   1      46.630  40.813  22.954  1.00  0.00    -0.246 OA
BRANCH   3   5
ATOM      5  C   UNL A   1      46.838  43.007  23.856  1.00  0.00     0.085 A 
ATOM      6  C   UNL A   1      47.590  44.607  22.225  1.00  0.00     0.050 A 
ATOM      7  C   UNL A   1      46.786  45.580  22.827  1.00  0.00     0.029 A 
ATOM      8  C   UNL A   1      47.751  43.391  22.859  1.00  0.00     0.044 A 
ATOM      9  C   UNL A   1      45.958  45.243  23.910  1.00  0.00     0.029 A 
ATOM     10  C   UNL A   1      45.877  43.919  24.375  1.00  0.00     0.052 A 
BRANCH   6  11
ATOM     11  N   UNL A   1      47.857  44.760  20.833  1.00  0.00    -0.280 N 
ATOM     12  H   UNL A   1      48.585  45.376  20.590  1.00  0.00     0.180 HD
BRANCH  11  13
ATOM     13  S   UNL A   1      47.062  44.001  19.568  1.00  0.00     0.262 S 
ATOM     14  O   UNL A   1      47.078  42.582  19.866  1.00  0.00    -0.201 OA
ATOM     15  O   UNL A   1      47.693  44.514  18.369  1.00  0.00    -0.201 OA
BRANCH  13  16
ATOM     16  C   UNL A   1      45.322  44.493  19.468  1.00  0.00     0.093 A 
ATOM     17  C   UNL A   1      41.309  45.367  18.077  1.00  0.00     0.044 C 
ATOM     18  C   UNL A   1      42.689  45.092  18.594  1.00  0.00    -0.051 A 
ATOM     19  C   UNL A   1      43.728  45.985  18.358  1.00  0.00     0.008 A 
ATOM     20  C   UNL A   1      42.946  43.989  19.410  1.00  0.00     0.008 A 
ATOM     21  C   UNL A   1      45.041  45.709  18.789  1.00  0.00    -0.030 A 
ATOM     22  C   UNL A   1      44.240  43.699  19.903  1.00  0.00    -0.030 A 
ATOM     23  C   UNL A   1      46.035  46.832  18.618  1.00  0.00     0.046 C 
ATOM     24  C   UNL A   1      44.327  42.606  20.926  1.00  0.00     0.046 C 
ENDBRANCH  13  16
ENDBRANCH  11  13
ENDBRANCH   6  11
BRANCH  10  25
ATOM     25  N   UNL A   1      44.705  43.594  25.084  1.00  0.00    -0.360 N 
ATOM     26  C   UNL A   1      44.783  42.913  26.847  1.00  0.00     0.178 C 
ATOM     27  C   UNL A   1      43.388  43.144  24.002  1.00  0.00     0.178 C 
ATOM     28  C   UNL A   1      43.309  41.301  27.219  1.00  0.00     0.283 C 
ATOM     29  C   UNL A   1      42.208  41.754  24.412  1.00  0.00     0.283 C 
ATOM     30  N   UNL A   1      42.199  40.858  25.813  1.00  0.00    -0.334 N 
ATOM     31  C   UNL A   1      41.133  39.928  26.060  1.00  0.00     0.332 C 
ATOM     32  H   UNL A   1      42.860  40.222  25.368  1.00  0.00     0.347 HD
ENDBRANCH  10  25
ENDBRANCH   3   5
ENDBRANCH   2   3
ENDBRANCH   1   2
BRANCH   1  33
ATOM     33  C   UNL A   1      46.775  39.547  26.989  1.00  0.00     0.275 C 
BRANCH  33  34
ATOM     34  O   UNL A   1      46.435  38.176  27.259  1.00  0.00    -0.458 OA
BRANCH  34  35
ATOM     35  C   UNL A   1      45.470  38.016  28.184  1.00  0.00     0.338 C 
ATOM     36  O   UNL A   1      44.831  38.868  28.775  1.00  0.00    -0.246 OA
BRANCH  35  37
ATOM     37  C   UNL A   1      45.199  36.596  28.371  1.00  0.00     0.060 A 
ATOM     38  C   UNL A   1      45.971  35.638  29.615  1.00  0.00     0.016 A 
ATOM     39  C   UNL A   1      44.336  35.742  27.157  1.00  0.00     0.016 A 
ATOM     40  C   UNL A   1      45.833  33.678  29.527  1.00  0.00     0.010 A 
ATOM     41  C   UNL A   1      44.173  34.022  27.115  1.00  0.00     0.010 A 
ATOM     42  C   UNL A   1      44.883  32.924  28.252  1.00  0.00    -0.014 A 
BRANCH  42  43
ATOM     43  C   UNL A   1      44.499  31.465  28.255  1.00  0.00     0.031 A 
ATOM     44  C   UNL A   1      45.305  30.442  27.493  1.00  0.00     0.074 A 
ATOM     45  C   UNL A   1      43.344  31.050  28.828  1.00  0.00     0.049 A 
ATOM     46  N   UNL A   1      44.994  29.204  27.182  1.00  0.00    -0.248 NA
ATOM     47  C   UNL A   1      46.619  30.863  26.992  1.00  0.00     0.031 C 
ATOM     48  C   UNL A   1      42.430  31.895  29.570  1.00  0.00     0.029 A 
ATOM     49  N   UNL A   1      42.703  29.828  28.856  1.00  0.00    -0.354 N 
ATOM     50  C   UNL A   1      46.050  28.720  26.420  1.00  0.00     0.074 A 
ATOM     51  C   UNL A   1      46.989  29.813  26.272  1.00  0.00     0.031 C 
ATOM     52  C   UNL A   1      41.371  31.213  29.996  1.00  0.00     0.029 A 
ATOM     53  C   UNL A   1      41.468  29.870  29.471  1.00  0.00     0.049 A 
ATOM     54  H   UNL A   1      43.089  29.006  28.475  1.00  0.00     0.167 HD
ATOM     55  C   UNL A   1      46.229  27.474  25.911  1.00  0.00     0.037 A 
ATOM     56  C   UNL A   1      40.468  28.977  29.579  1.00  0.00     0.037 A 
ATOM     57  C   UNL A   1      45.315  26.376  26.114  1.00  0.00     0.049 A 
ATOM     58  C   UNL A   1      40.671  27.621  29.003  1.00  0.00     0.074 A 
ATOM     59  C   UNL A   1      45.455  25.053  25.728  1.00  0.00     0.029 A 
ATOM     60  N   UNL A   1      44.087  26.471  26.759  1.00  0.00    -0.354 N 
ATOM     61  N   UNL A   1      41.694  27.179  28.316  1.00  0.00    -0.248 NA
ATOM     62  C   UNL A   1      39.608  26.639  29.225  1.00  0.00     0.031 C 
ATOM     63  C   UNL A   1      44.291  24.364  26.089  1.00  0.00     0.029 A 
ATOM     64  C   UNL A   1      43.445  25.240  26.747  1.00  0.00     0.049 A 
ATOM     65  H   UNL A   1      43.725  27.292  27.165  1.00  0.00     0.167 HD
ATOM     66  C   UNL A   1      41.407  25.859  28.026  1.00  0.00     0.074 A 
ATOM     67  C   UNL A   1      40.122  25.568  28.635  1.00  0.00     0.031 C 
ATOM     68  C   UNL A   1      42.150  24.972  27.322  1.00  0.00     0.037 A 
BRANCH  55  69
ATOM     69  C   UNL A   1      47.458  27.233  25.072  1.00  0.00     0.064 A 
ATOM     70  C   UNL A   1      48.608  26.615  25.589  1.00  0.00     0.173 A 
ATOM     71  C   UNL A   1      47.479  27.615  23.721  1.00  0.00     0.173 A 
ATOM     72  F   UNL A   1      48.649  26.233  26.873  1.00  0.00    -0.203 F 
ATOM     73  C   UNL A   1      49.744  26.434  24.801  1.00  0.00     0.198 A 
ATOM     74  C   UNL A   1      48.604  27.401  22.927  1.00  0.00     0.198 A 
ATOM     75  F   UNL A   1      46.405  28.198  23.166  1.00  0.00    -0.203 F 
ATOM     76  F   UNL A   1      50.852  25.903  25.338  1.00  0.00    -0.200 F 
ATOM     77  C   UNL A   1      49.739  26.823  23.470  1.00  0.00     0.200 A 
ATOM     78  F   UNL A   1      48.590  27.762  21.636  1.00  0.00    -0.200 F 
ATOM     79  F   UNL A   1      50.833  26.651  22.715  1.00  0.00    -0.200 F 
ENDBRANCH  55  69
BRANCH  56  80
ATOM     80  C   UNL A   1      39.206  29.382  30.259  1.00  0.00     0.064 A 
ATOM     81  C   UNL A   1      39.070  29.291  31.650  1.00  0.00     0.173 A 
ATOM     82  C   UNL A   1      38.164  29.999  29.543  1.00  0.00     0.173 A 
ATOM     83  F   UNL A   1      40.032  28.706  32.377  1.00  0.00    -0.203 F 
ATOM     84  C   UNL A   1      37.951  29.810  32.300  1.00  0.00     0.198 A 
ATOM     85  C   UNL A   1      37.061  30.544  30.197  1.00  0.00     0.198 A 
ATOM     86  F   UNL A   1      38.253  30.136  28.211  1.00  0.00    -0.203 F 
ATOM     87  F   UNL A   1      37.846  29.707  33.632  1.00  0.00    -0.200 F 
ATOM     88  C   UNL A   1      36.955  30.449  31.575  1.00  0.00     0.200 A 
ATOM     89  F   UNL A   1      36.120  31.193  29.496  1.00  0.00    -0.200 F 
ATOM     90  F   UNL A   1      35.902  30.987  32.208  1.00  0.00    -0.200 F 
ENDBRANCH  56  80
BRANCH  68  91
ATOM     91  C   UNL A   1      41.569  23.601  27.171  1.00  0.00     0.064 A 
ATOM     92  C   UNL A   1      42.162  22.487  27.784  1.00  0.00     0.173 A 
ATOM     93  C   UNL A   1      40.420  23.397  26.395  1.00  0.00     0.173 A 
ATOM     94  F   UNL A   1      43.280  22.633  28.512  1.00  0.00    -0.203 F 
ATOM     95  C   UNL A   1      41.639  21.212  27.602  1.00  0.00     0.198 A 
ATOM     96  C   UNL A   1      39.882  22.124  26.241  1.00  0.00     0.198 A 
ATOM     97  F   UNL A   1      39.822  24.431  25.784  1.00  0.00    -0.203 F 
ATOM     98  F   UNL A   1      42.254  20.154  28.147  1.00  0.00    -0.200 F 
ATOM     99  C   UNL A   1      40.496  21.031  26.836  1.00  0.00     0.200 A 
ATOM    100  F   UNL A   1      38.775  21.951  25.504  1.00  0.00    -0.200 F 
ATOM    101  F   UNL A   1      39.995  19.802  26.659  1.00  0.00    -0.200 F 
ENDBRANCH  68  91
ENDBRANCH  42  43
ENDBRANCH  35  37
ENDBRANCH  34  35
ENDBRANCH  33  34
ENDBRANCH   1  33
TORSDOF 15
ENDMDL
