MODEL 1
REMARK VINA RESULT:     -10.2      0.000      0.000
REMARK SMILES CC(=O)Oc1ccccc1SCCCCCC(=O)OCCOC(=O)c1ccc(-c2c3nc(c(-c4c(F)c(F)c(F)c(F)c4F)c4ccc([nH]4)c(-c4c(F)c(F)c(F)c(F)c4F)c4nc(c(-c5c(F)c(F)c(F)c(F)c5F)c5ccc2[nH]5)C=C4)C=C3)cc1
REMARK SMILES IDX 16 1 15 2 14 3 13 4 12 5 11 6 10 7 5 8 6 9 7 10 9 11 8 12
REMARK SMILES IDX 4 13 2 14 1 15 3 16 17 17 18 18 19 19 20 20 21 21 22 22
REMARK SMILES IDX 23 23 24 24 25 25 26 26 87 27 27 28 86 29 28 30 29 31 30 32
REMARK SMILES IDX 80 33 31 34 85 35 79 36 81 37 32 38 84 39 78 40 77 41 33 43
REMARK SMILES IDX 65 44 45 45 64 46 46 47 49 48 63 49 82 50 47 51 48 52 62 54
REMARK SMILES IDX 83 55 50 56 34 57 35 58 43 59 36 60 37 61 41 62 44 63 38 64
REMARK SMILES IDX 39 65 42 66 40 67 66 68 67 69 75 70 68 71 69 72 73 73 76 74
REMARK SMILES IDX 70 75 71 76 74 77 72 78 51 79 52 80 60 81 53 82 54 83 58 84
REMARK SMILES IDX 61 85 55 86 56 87 59 88 57 89
REMARK H PARENT 81 42 49 53
REMARK Flexibility Score: inf
ROOT
ATOM      1  C   UNL A   1      31.724  27.136  24.233  1.00  0.00     0.123 C 
ENDROOT
BRANCH   1   2
ATOM      2  C   UNL A   1      32.593  25.921  23.837  1.00  0.00     0.012 C 
BRANCH   2   3
ATOM      3  C   UNL A   1      31.906  24.702  23.178  1.00  0.00     0.001 C 
BRANCH   3   4
ATOM      4  C   UNL A   1      30.819  23.821  23.827  1.00  0.00     0.011 C 
BRANCH   4   5
ATOM      5  C   UNL A   1      30.878  23.008  25.145  1.00  0.00     0.075 C 
BRANCH   5   6
ATOM      6  S   UNL A   1      32.212  22.936  26.415  1.00  0.00    -0.122 SA
BRANCH   6   7
ATOM      7  C   UNL A   1      33.781  22.942  25.576  1.00  0.00     0.050 A 
ATOM      8  C   UNL A   1      34.180  22.181  24.467  1.00  0.00     0.144 A 
ATOM      9  C   UNL A   1      35.386  22.472  23.805  1.00  0.00     0.048 A 
ATOM     10  C   UNL A   1      36.254  23.435  24.324  1.00  0.00     0.004 A 
ATOM     11  C   UNL A   1      34.741  23.785  26.162  1.00  0.00     0.019 A 
ATOM     12  C   UNL A   1      35.967  24.035  25.545  1.00  0.00     0.001 A 
BRANCH   8  13
ATOM     13  O   UNL A   1      33.464  21.035  24.058  1.00  0.00    -0.426 OA
BRANCH  13  14
ATOM     14  C   UNL A   1      33.901  19.943  24.736  1.00  0.00     0.308 C 
ATOM     15  C   UNL A   1      32.878  19.157  25.464  1.00  0.00     0.139 C 
ATOM     16  O   UNL A   1      35.062  19.567  24.763  1.00  0.00    -0.252 OA
ENDBRANCH  13  14
ENDBRANCH   8  13
ENDBRANCH   6   7
ENDBRANCH   5   6
ENDBRANCH   4   5
ENDBRANCH   3   4
ENDBRANCH   2   3
ENDBRANCH   1   2
BRANCH   1  17
ATOM     17  C   UNL A   1      31.489  27.224  25.717  1.00  0.00     0.305 C 
ATOM     18  O   UNL A   1      31.002  26.325  26.390  1.00  0.00    -0.252 OA
BRANCH  17  19
ATOM     19  O   UNL A   1      31.839  28.453  26.172  1.00  0.00    -0.462 OA
BRANCH  19  20
ATOM     20  C   UNL A   1      31.602  29.536  25.262  1.00  0.00     0.274 C 
BRANCH  20  21
ATOM     21  C   UNL A   1      31.568  30.869  26.023  1.00  0.00     0.275 C 
BRANCH  21  22
ATOM     22  O   UNL A   1      32.430  30.804  27.179  1.00  0.00    -0.458 OA
BRANCH  22  23
ATOM     23  C   UNL A   1      33.229  31.874  27.387  1.00  0.00     0.338 C 
ATOM     24  O   UNL A   1      32.943  33.052  27.258  1.00  0.00    -0.246 OA
BRANCH  23  25
ATOM     25  C   UNL A   1      34.575  31.442  27.791  1.00  0.00     0.060 A 
ATOM     26  C   UNL A   1      34.811  30.101  28.100  1.00  0.00     0.016 A 
ATOM     27  C   UNL A   1      35.547  32.408  28.054  1.00  0.00     0.016 A 
ATOM     28  C   UNL A   1      35.993  29.738  28.752  1.00  0.00     0.010 A 
ATOM     29  C   UNL A   1      36.757  32.031  28.645  1.00  0.00     0.010 A 
ATOM     30  C   UNL A   1      36.972  30.700  29.048  1.00  0.00    -0.014 A 
BRANCH  30  31
ATOM     31  C   UNL A   1      38.175  30.345  29.856  1.00  0.00     0.031 A 
ATOM     32  C   UNL A   1      39.213  29.408  29.287  1.00  0.00     0.074 A 
ATOM     33  C   UNL A   1      38.350  30.860  31.090  1.00  0.00     0.049 A 
ATOM     34  N   UNL A   1      40.240  28.841  29.872  1.00  0.00    -0.248 NA
ATOM     35  C   UNL A   1      39.062  29.046  27.868  1.00  0.00     0.031 C 
ATOM     36  C   UNL A   1      37.450  31.807  31.745  1.00  0.00     0.029 A 
ATOM     37  N   UNL A   1      39.343  30.651  32.016  1.00  0.00    -0.354 N 
ATOM     38  C   UNL A   1      40.830  28.030  28.907  1.00  0.00     0.074 A 
ATOM     39  C   UNL A   1      40.028  28.153  27.709  1.00  0.00     0.031 C 
ATOM     40  C   UNL A   1      37.936  32.109  32.959  1.00  0.00     0.029 A 
ATOM     41  C   UNL A   1      39.139  31.319  33.199  1.00  0.00     0.049 A 
ATOM     42  H   UNL A   1      40.126  30.077  31.849  1.00  0.00     0.167 HD
ATOM     43  C   UNL A   1      41.943  27.262  29.009  1.00  0.00     0.037 A 
ATOM     44  C   UNL A   1      39.815  31.267  34.362  1.00  0.00     0.037 A 
ATOM     45  C   UNL A   1      42.752  27.168  30.198  1.00  0.00     0.049 A 
ATOM     46  C   UNL A   1      41.020  30.370  34.466  1.00  0.00     0.074 A 
ATOM     47  C   UNL A   1      43.896  26.419  30.410  1.00  0.00     0.029 A 
ATOM     48  N   UNL A   1      42.503  27.856  31.377  1.00  0.00    -0.354 N 
ATOM     49  N   UNL A   1      41.551  29.584  33.560  1.00  0.00    -0.248 NA
ATOM     50  C   UNL A   1      41.721  30.354  35.757  1.00  0.00     0.031 C 
ATOM     51  C   UNL A   1      44.312  26.616  31.732  1.00  0.00     0.029 A 
ATOM     52  C   UNL A   1      43.466  27.541  32.323  1.00  0.00     0.049 A 
ATOM     53  H   UNL A   1      41.752  28.477  31.521  1.00  0.00     0.167 HD
ATOM     54  C   UNL A   1      42.661  29.004  34.159  1.00  0.00     0.074 A 
ATOM     55  C   UNL A   1      42.740  29.548  35.499  1.00  0.00     0.031 C 
ATOM     56  C   UNL A   1      43.536  28.101  33.649  1.00  0.00     0.037 A 
BRANCH  43  57
ATOM     57  C   UNL A   1      42.337  26.441  27.810  1.00  0.00     0.064 A 
ATOM     58  C   UNL A   1      43.306  26.882  26.893  1.00  0.00     0.173 A 
ATOM     59  C   UNL A   1      41.756  25.183  27.587  1.00  0.00     0.173 A 
ATOM     60  F   UNL A   1      43.887  28.081  27.049  1.00  0.00    -0.203 F 
ATOM     61  C   UNL A   1      43.647  26.112  25.783  1.00  0.00     0.198 A 
ATOM     62  C   UNL A   1      42.126  24.400  26.496  1.00  0.00     0.198 A 
ATOM     63  F   UNL A   1      40.831  24.705  28.434  1.00  0.00    -0.203 F 
ATOM     64  F   UNL A   1      44.531  26.580  24.891  1.00  0.00    -0.200 F 
ATOM     65  C   UNL A   1      43.064  24.869  25.590  1.00  0.00     0.200 A 
ATOM     66  F   UNL A   1      41.573  23.192  26.321  1.00  0.00    -0.200 F 
ATOM     67  F   UNL A   1      43.399  24.128  24.525  1.00  0.00    -0.200 F 
ENDBRANCH  43  57
BRANCH  44  68
ATOM     68  C   UNL A   1      39.353  32.064  35.532  1.00  0.00     0.064 A 
ATOM     69  C   UNL A   1      39.765  33.391  35.716  1.00  0.00     0.173 A 
ATOM     70  C   UNL A   1      38.507  31.507  36.503  1.00  0.00     0.173 A 
ATOM     71  F   UNL A   1      40.594  33.965  34.831  1.00  0.00    -0.203 F 
ATOM     72  C   UNL A   1      39.371  34.120  36.838  1.00  0.00     0.198 A 
ATOM     73  C   UNL A   1      38.082  32.249  37.603  1.00  0.00     0.198 A 
ATOM     74  F   UNL A   1      38.080  30.242  36.377  1.00  0.00    -0.203 F 
ATOM     75  F   UNL A   1      39.830  35.366  37.019  1.00  0.00    -0.200 F 
ATOM     76  C   UNL A   1      38.525  33.551  37.776  1.00  0.00     0.200 A 
ATOM     77  F   UNL A   1      37.248  31.700  38.497  1.00  0.00    -0.200 F 
ATOM     78  F   UNL A   1      38.144  34.253  38.853  1.00  0.00    -0.200 F 
ENDBRANCH  44  68
BRANCH  56  79
ATOM     79  C   UNL A   1      44.688  27.696  34.527  1.00  0.00     0.064 A 
ATOM     80  C   UNL A   1      45.910  28.385  34.517  1.00  0.00     0.173 A 
ATOM     81  C   UNL A   1      44.561  26.599  35.393  1.00  0.00     0.173 A 
ATOM     82  F   UNL A   1      46.089  29.432  33.698  1.00  0.00    -0.203 F 
ATOM     83  C   UNL A   1      46.977  27.962  35.305  1.00  0.00     0.198 A 
ATOM     84  C   UNL A   1      45.617  26.204  36.209  1.00  0.00     0.198 A 
ATOM     85  F   UNL A   1      43.411  25.910  35.450  1.00  0.00    -0.203 F 
ATOM     86  F   UNL A   1      48.158  28.589  35.224  1.00  0.00    -0.200 F 
ATOM     87  C   UNL A   1      46.827  26.875  36.155  1.00  0.00     0.200 A 
ATOM     88  F   UNL A   1      45.464  25.165  37.043  1.00  0.00    -0.200 F 
ATOM     89  F   UNL A   1      47.856  26.469  36.911  1.00  0.00    -0.200 F 
ENDBRANCH  56  79
ENDBRANCH  30  31
ENDBRANCH  23  25
ENDBRANCH  22  23
ENDBRANCH  21  22
ENDBRANCH  20  21
ENDBRANCH  19  20
ENDBRANCH  17  19
ENDBRANCH   1  17
TORSDOF 19
ENDMDL
MODEL 2
REMARK VINA RESULT:     -10.1      1.102      2.138
REMARK SMILES CC(=O)Oc1ccccc1SCCCCCC(=O)OCCOC(=O)c1ccc(-c2c3nc(c(-c4c(F)c(F)c(F)c(F)c4F)c4ccc([nH]4)c(-c4c(F)c(F)c(F)c(F)c4F)c4nc(c(-c5c(F)c(F)c(F)c(F)c5F)c5ccc2[nH]5)C=C4)C=C3)cc1
REMARK SMILES IDX 16 1 15 2 14 3 13 4 12 5 11 6 10 7 5 8 6 9 7 10 9 11 8 12
REMARK SMILES IDX 4 13 2 14 1 15 3 16 17 17 18 18 19 19 20 20 21 21 22 22
REMARK SMILES IDX 23 23 24 24 25 25 26 26 87 27 27 28 86 29 28 30 29 31 30 32
REMARK SMILES IDX 80 33 31 34 85 35 79 36 81 37 32 38 84 39 78 40 77 41 33 43
REMARK SMILES IDX 65 44 45 45 64 46 46 47 49 48 63 49 82 50 47 51 48 52 62 54
REMARK SMILES IDX 83 55 50 56 34 57 35 58 43 59 36 60 37 61 41 62 44 63 38 64
REMARK SMILES IDX 39 65 42 66 40 67 66 68 67 69 75 70 68 71 69 72 73 73 76 74
REMARK SMILES IDX 70 75 71 76 74 77 72 78 51 79 52 80 60 81 53 82 54 83 58 84
REMARK SMILES IDX 61 85 55 86 56 87 59 88 57 89
REMARK H PARENT 81 42 49 53
REMARK Flexibility Score: inf
ROOT
ATOM      1  C   UNL A   1      30.834  27.773  23.525  1.00  0.00     0.123 C 
ENDROOT
BRANCH   1   2
ATOM      2  C   UNL A   1      29.882  26.631  23.947  1.00  0.00     0.012 C 
BRANCH   2   3
ATOM      3  C   UNL A   1      30.226  25.809  25.212  1.00  0.00     0.001 C 
BRANCH   3   4
ATOM      4  C   UNL A   1      31.208  26.233  26.323  1.00  0.00     0.011 C 
BRANCH   4   5
ATOM      5  C   UNL A   1      32.743  26.037  26.398  1.00  0.00     0.075 C 
BRANCH   5   6
ATOM      6  S   UNL A   1      33.980  25.967  25.033  1.00  0.00    -0.122 SA
BRANCH   6   7
ATOM      7  C   UNL A   1      34.517  24.280  24.853  1.00  0.00     0.050 A 
ATOM      8  C   UNL A   1      33.741  23.143  24.584  1.00  0.00     0.144 A 
ATOM      9  C   UNL A   1      34.360  21.922  24.265  1.00  0.00     0.048 A 
ATOM     10  C   UNL A   1      35.751  21.803  24.337  1.00  0.00     0.004 A 
ATOM     11  C   UNL A   1      35.892  24.090  25.074  1.00  0.00     0.019 A 
ATOM     12  C   UNL A   1      36.509  22.865  24.817  1.00  0.00     0.001 A 
BRANCH   8  13
ATOM     13  O   UNL A   1      32.338  23.146  24.747  1.00  0.00    -0.426 OA
BRANCH  13  14
ATOM     14  C   UNL A   1      31.971  22.217  25.666  1.00  0.00     0.308 C 
ATOM     15  C   UNL A   1      32.256  22.533  27.085  1.00  0.00     0.139 C 
ATOM     16  O   UNL A   1      31.410  21.165  25.398  1.00  0.00    -0.252 OA
ENDBRANCH  13  14
ENDBRANCH   8  13
ENDBRANCH   6   7
ENDBRANCH   5   6
ENDBRANCH   4   5
ENDBRANCH   3   4
ENDBRANCH   2   3
ENDBRANCH   1   2
BRANCH   1  17
ATOM     17  C   UNL A   1      30.098  29.011  23.087  1.00  0.00     0.305 C 
ATOM     18  O   UNL A   1      29.484  29.107  22.032  1.00  0.00    -0.252 OA
BRANCH  17  19
ATOM     19  O   UNL A   1      30.271  30.002  23.997  1.00  0.00    -0.462 OA
BRANCH  19  20
ATOM     20  C   UNL A   1      31.377  29.829  24.893  1.00  0.00     0.274 C 
BRANCH  20  21
ATOM     21  C   UNL A   1      31.366  30.926  25.966  1.00  0.00     0.275 C 
BRANCH  21  22
ATOM     22  O   UNL A   1      32.411  30.686  26.934  1.00  0.00    -0.458 OA
BRANCH  22  23
ATOM     23  C   UNL A   1      33.151  31.759  27.288  1.00  0.00     0.338 C 
ATOM     24  O   UNL A   1      32.821  32.933  27.265  1.00  0.00    -0.246 OA
BRANCH  23  25
ATOM     25  C   UNL A   1      34.495  31.340  27.716  1.00  0.00     0.060 A 
ATOM     26  C   UNL A   1      34.744  29.997  28.006  1.00  0.00     0.016 A 
ATOM     27  C   UNL A   1      35.444  32.316  28.020  1.00  0.00     0.016 A 
ATOM     28  C   UNL A   1      35.916  29.640  28.678  1.00  0.00     0.010 A 
ATOM     29  C   UNL A   1      36.646  31.946  28.633  1.00  0.00     0.010 A 
ATOM     30  C   UNL A   1      36.873  30.611  29.015  1.00  0.00    -0.014 A 
BRANCH  30  31
ATOM     31  C   UNL A   1      38.062  30.259  29.845  1.00  0.00     0.031 A 
ATOM     32  C   UNL A   1      39.118  29.334  29.290  1.00  0.00     0.074 A 
ATOM     33  C   UNL A   1      38.208  30.765  31.086  1.00  0.00     0.049 A 
ATOM     34  N   UNL A   1      40.138  28.770  29.891  1.00  0.00    -0.248 NA
ATOM     35  C   UNL A   1      38.999  28.982  27.865  1.00  0.00     0.031 C 
ATOM     36  C   UNL A   1      37.287  31.700  31.730  1.00  0.00     0.029 A 
ATOM     37  N   UNL A   1      39.184  30.556  32.030  1.00  0.00    -0.354 N 
ATOM     38  C   UNL A   1      40.753  27.971  28.932  1.00  0.00     0.074 A 
ATOM     39  C   UNL A   1      39.974  28.098  27.718  1.00  0.00     0.031 C 
ATOM     40  C   UNL A   1      37.747  31.996  32.956  1.00  0.00     0.029 A 
ATOM     41  C   UNL A   1      38.950  31.214  33.214  1.00  0.00     0.049 A 
ATOM     42  H   UNL A   1      39.975  29.990  31.874  1.00  0.00     0.167 HD
ATOM     43  C   UNL A   1      41.870  27.211  29.050  1.00  0.00     0.037 A 
ATOM     44  C   UNL A   1      39.604  31.158  34.390  1.00  0.00     0.037 A 
ATOM     45  C   UNL A   1      42.656  27.114  30.254  1.00  0.00     0.049 A 
ATOM     46  C   UNL A   1      40.813  30.269  34.511  1.00  0.00     0.074 A 
ATOM     47  C   UNL A   1      43.801  26.372  30.484  1.00  0.00     0.029 A 
ATOM     48  N   UNL A   1      42.377  27.791  31.434  1.00  0.00    -0.354 N 
ATOM     49  N   UNL A   1      41.368  29.494  33.610  1.00  0.00    -0.248 NA
ATOM     50  C   UNL A   1      41.488  30.249  35.816  1.00  0.00     0.031 C 
ATOM     51  C   UNL A   1      44.188  26.563  31.815  1.00  0.00     0.029 A 
ATOM     52  C   UNL A   1      43.324  27.476  32.396  1.00  0.00     0.049 A 
ATOM     53  H   UNL A   1      41.620  28.405  31.567  1.00  0.00     0.167 HD
ATOM     54  C   UNL A   1      42.471  28.918  34.227  1.00  0.00     0.074 A 
ATOM     55  C   UNL A   1      42.519  29.453  35.572  1.00  0.00     0.031 C 
ATOM     56  C   UNL A   1      43.363  28.026  33.728  1.00  0.00     0.037 A 
BRANCH  43  57
ATOM     57  C   UNL A   1      42.295  26.403  27.853  1.00  0.00     0.064 A 
ATOM     58  C   UNL A   1      41.742  25.144  27.572  1.00  0.00     0.173 A 
ATOM     59  C   UNL A   1      43.253  26.906  26.959  1.00  0.00     0.173 A 
ATOM     60  F   UNL A   1      40.830  24.607  28.397  1.00  0.00    -0.203 F 
ATOM     61  C   UNL A   1      42.158  24.406  26.465  1.00  0.00     0.198 A 
ATOM     62  C   UNL A   1      43.642  26.182  25.834  1.00  0.00     0.198 A 
ATOM     63  F   UNL A   1      43.811  28.108  27.171  1.00  0.00    -0.203 F 
ATOM     64  F   UNL A   1      41.658  23.181  26.251  1.00  0.00    -0.200 F 
ATOM     65  C   UNL A   1      43.101  24.929  25.594  1.00  0.00     0.200 A 
ATOM     66  F   UNL A   1      44.541  26.697  24.984  1.00  0.00    -0.200 F 
ATOM     67  F   UNL A   1      43.495  24.220  24.526  1.00  0.00    -0.200 F 
ENDBRANCH  43  57
BRANCH  44  68
ATOM     68  C   UNL A   1      39.112  31.942  35.556  1.00  0.00     0.064 A 
ATOM     69  C   UNL A   1      39.483  33.281  35.741  1.00  0.00     0.173 A 
ATOM     70  C   UNL A   1      38.278  31.361  36.524  1.00  0.00     0.173 A 
ATOM     71  F   UNL A   1      40.299  33.878  34.859  1.00  0.00    -0.203 F 
ATOM     72  C   UNL A   1      39.062  33.999  36.859  1.00  0.00     0.198 A 
ATOM     73  C   UNL A   1      37.825  32.092  37.621  1.00  0.00     0.198 A 
ATOM     74  F   UNL A   1      37.890  30.084  36.397  1.00  0.00    -0.203 F 
ATOM     75  F   UNL A   1      39.483  35.259  37.041  1.00  0.00    -0.200 F 
ATOM     76  C   UNL A   1      38.228  33.406  37.794  1.00  0.00     0.200 A 
ATOM     77  F   UNL A   1      37.004  31.518  38.511  1.00  0.00    -0.200 F 
ATOM     78  F   UNL A   1      37.821  34.098  38.868  1.00  0.00    -0.200 F 
ENDBRANCH  44  68
BRANCH  56  79
ATOM     79  C   UNL A   1      44.500  27.623  34.625  1.00  0.00     0.064 A 
ATOM     80  C   UNL A   1      44.425  26.499  35.462  1.00  0.00     0.173 A 
ATOM     81  C   UNL A   1      45.684  28.377  34.644  1.00  0.00     0.173 A 
ATOM     82  F   UNL A   1      43.312  25.752  35.493  1.00  0.00    -0.203 F 
ATOM     83  C   UNL A   1      45.475  26.173  36.318  1.00  0.00     0.198 A 
ATOM     84  C   UNL A   1      46.746  28.024  35.472  1.00  0.00     0.198 A 
ATOM     85  F   UNL A   1      45.813  29.456  33.857  1.00  0.00    -0.203 F 
ATOM     86  F   UNL A   1      45.351  25.140  37.162  1.00  0.00    -0.200 F 
ATOM     87  C   UNL A   1      46.635  26.933  36.318  1.00  0.00     0.200 A 
ATOM     88  F   UNL A   1      47.874  28.749  35.457  1.00  0.00    -0.200 F 
ATOM     89  F   UNL A   1      47.643  26.618  37.144  1.00  0.00    -0.200 F 
ENDBRANCH  56  79
ENDBRANCH  30  31
ENDBRANCH  23  25
ENDBRANCH  22  23
ENDBRANCH  21  22
ENDBRANCH  20  21
ENDBRANCH  19  20
ENDBRANCH  17  19
ENDBRANCH   1  17
TORSDOF 19
ENDMDL
MODEL 3
REMARK VINA RESULT:      -9.8      4.097      7.413
REMARK SMILES CC(=O)Oc1ccccc1SCCCCCC(=O)OCCOC(=O)c1ccc(-c2c3nc(c(-c4c(F)c(F)c(F)c(F)c4F)c4ccc([nH]4)c(-c4c(F)c(F)c(F)c(F)c4F)c4nc(c(-c5c(F)c(F)c(F)c(F)c5F)c5ccc2[nH]5)C=C4)C=C3)cc1
REMARK SMILES IDX 16 1 15 2 14 3 13 4 12 5 11 6 10 7 5 8 6 9 7 10 9 11 8 12
REMARK SMILES IDX 4 13 2 14 1 15 3 16 17 17 18 18 19 19 20 20 21 21 22 22
REMARK SMILES IDX 23 23 24 24 25 25 26 26 87 27 27 28 86 29 28 30 29 31 30 32
REMARK SMILES IDX 80 33 31 34 85 35 79 36 81 37 32 38 84 39 78 40 77 41 33 43
REMARK SMILES IDX 65 44 45 45 64 46 46 47 49 48 63 49 82 50 47 51 48 52 62 54
REMARK SMILES IDX 83 55 50 56 34 57 35 58 43 59 36 60 37 61 41 62 44 63 38 64
REMARK SMILES IDX 39 65 42 66 40 67 66 68 67 69 75 70 68 71 69 72 73 73 76 74
REMARK SMILES IDX 70 75 71 76 74 77 72 78 51 79 52 80 60 81 53 82 54 83 58 84
REMARK SMILES IDX 61 85 55 86 56 87 59 88 57 89
REMARK H PARENT 81 42 49 53
REMARK Flexibility Score: inf
ROOT
ATOM      1  C   UNL A   1      34.273  21.866  24.021  1.00  0.00     0.123 C 
ENDROOT
BRANCH   1   2
ATOM      2  C   UNL A   1      33.106  22.783  23.592  1.00  0.00     0.012 C 
BRANCH   2   3
ATOM      3  C   UNL A   1      31.799  22.756  24.421  1.00  0.00     0.001 C 
BRANCH   3   4
ATOM      4  C   UNL A   1      31.553  23.517  25.740  1.00  0.00     0.011 C 
BRANCH   4   5
ATOM      5  C   UNL A   1      31.964  24.960  26.126  1.00  0.00     0.075 C 
BRANCH   5   6
ATOM      6  S   UNL A   1      32.746  26.270  25.091  1.00  0.00    -0.122 SA
BRANCH   6   7
ATOM      7  C   UNL A   1      31.457  27.315  24.448  1.00  0.00     0.050 A 
ATOM      8  C   UNL A   1      31.476  28.704  24.257  1.00  0.00     0.144 A 
ATOM      9  C   UNL A   1      30.445  29.334  23.538  1.00  0.00     0.048 A 
ATOM     10  C   UNL A   1      29.332  28.599  23.121  1.00  0.00     0.004 A 
ATOM     11  C   UNL A   1      30.260  26.637  24.160  1.00  0.00     0.019 A 
ATOM     12  C   UNL A   1      29.205  27.268  23.500  1.00  0.00     0.001 A 
BRANCH   8  13
ATOM     13  O   UNL A   1      32.444  29.525  24.876  1.00  0.00    -0.426 OA
BRANCH  13  14
ATOM     14  C   UNL A   1      31.933  30.083  26.003  1.00  0.00     0.308 C 
ATOM     15  C   UNL A   1      32.058  29.296  27.252  1.00  0.00     0.139 C 
ATOM     16  O   UNL A   1      31.406  31.184  26.051  1.00  0.00    -0.252 OA
ENDBRANCH  13  14
ENDBRANCH   8  13
ENDBRANCH   6   7
ENDBRANCH   5   6
ENDBRANCH   4   5
ENDBRANCH   3   4
ENDBRANCH   2   3
ENDBRANCH   1   2
BRANCH   1  17
ATOM     17  C   UNL A   1      35.213  22.535  24.988  1.00  0.00     0.305 C 
ATOM     18  O   UNL A   1      35.373  23.746  25.063  1.00  0.00    -0.252 OA
BRANCH  17  19
ATOM     19  O   UNL A   1      35.886  21.601  25.705  1.00  0.00    -0.462 OA
BRANCH  19  20
ATOM     20  C   UNL A   1      36.116  20.356  25.031  1.00  0.00     0.274 C 
BRANCH  20  21
ATOM     21  C   UNL A   1      37.616  20.032  25.014  1.00  0.00     0.275 C 
BRANCH  21  22
ATOM     22  O   UNL A   1      38.387  21.230  25.251  1.00  0.00    -0.458 OA
BRANCH  22  23
ATOM     23  C   UNL A   1      39.412  21.115  26.123  1.00  0.00     0.338 C 
ATOM     24  O   UNL A   1      40.012  20.101  26.439  1.00  0.00    -0.246 OA
BRANCH  23  25
ATOM     25  C   UNL A   1      39.741  22.424  26.708  1.00  0.00     0.060 A 
ATOM     26  C   UNL A   1      39.074  23.569  26.268  1.00  0.00     0.016 A 
ATOM     27  C   UNL A   1      40.851  22.533  27.545  1.00  0.00     0.016 A 
ATOM     28  C   UNL A   1      39.572  24.832  26.601  1.00  0.00     0.010 A 
ATOM     29  C   UNL A   1      41.306  23.797  27.932  1.00  0.00     0.010 A 
ATOM     30  C   UNL A   1      40.702  24.962  27.423  1.00  0.00    -0.014 A 
BRANCH  30  31
ATOM     31  C   UNL A   1      41.315  26.298  27.678  1.00  0.00     0.031 A 
ATOM     32  C   UNL A   1      42.724  26.578  27.216  1.00  0.00     0.074 A 
ATOM     33  C   UNL A   1      40.620  27.263  28.313  1.00  0.00     0.049 A 
ATOM     34  N   UNL A   1      43.503  27.601  27.474  1.00  0.00    -0.248 NA
ATOM     35  C   UNL A   1      43.348  25.558  26.357  1.00  0.00     0.031 C 
ATOM     36  C   UNL A   1      39.239  27.143  28.777  1.00  0.00     0.029 A 
ATOM     37  N   UNL A   1      40.985  28.535  28.684  1.00  0.00    -0.354 N 
ATOM     38  C   UNL A   1      44.714  27.328  26.846  1.00  0.00     0.074 A 
ATOM     39  C   UNL A   1      44.579  26.029  26.220  1.00  0.00     0.031 C 
ATOM     40  C   UNL A   1      38.867  28.295  29.358  1.00  0.00     0.029 A 
ATOM     41  C   UNL A   1      40.006  29.206  29.376  1.00  0.00     0.049 A 
ATOM     42  H   UNL A   1      41.864  28.928  28.475  1.00  0.00     0.167 HD
ATOM     43  C   UNL A   1      45.832  28.093  26.787  1.00  0.00     0.037 A 
ATOM     44  C   UNL A   1      40.035  30.401  29.996  1.00  0.00     0.037 A 
ATOM     45  C   UNL A   1      45.948  29.398  27.389  1.00  0.00     0.049 A 
ATOM     46  C   UNL A   1      41.304  31.212  29.959  1.00  0.00     0.074 A 
ATOM     47  C   UNL A   1      47.034  30.257  27.393  1.00  0.00     0.029 A 
ATOM     48  N   UNL A   1      44.934  30.037  28.088  1.00  0.00    -0.354 N 
ATOM     49  N   UNL A   1      42.452  30.931  29.390  1.00  0.00    -0.248 NA
ATOM     50  C   UNL A   1      41.278  32.507  30.650  1.00  0.00     0.031 C 
ATOM     51  C   UNL A   1      46.692  31.393  28.136  1.00  0.00     0.029 A 
ATOM     52  C   UNL A   1      45.372  31.273  28.537  1.00  0.00     0.049 A 
ATOM     53  H   UNL A   1      44.035  29.666  28.244  1.00  0.00     0.167 HD
ATOM     54  C   UNL A   1      43.274  32.025  29.629  1.00  0.00     0.074 A 
ATOM     55  C   UNL A   1      42.483  32.983  30.374  1.00  0.00     0.031 C 
ATOM     56  C   UNL A   1      44.567  32.219  29.268  1.00  0.00     0.037 A 
BRANCH  43  57
ATOM     57  C   UNL A   1      47.029  27.529  26.069  1.00  0.00     0.064 A 
ATOM     58  C   UNL A   1      47.230  27.722  24.693  1.00  0.00     0.173 A 
ATOM     59  C   UNL A   1      48.004  26.805  26.773  1.00  0.00     0.173 A 
ATOM     60  F   UNL A   1      46.326  28.396  23.967  1.00  0.00    -0.203 F 
ATOM     61  C   UNL A   1      48.339  27.180  24.046  1.00  0.00     0.198 A 
ATOM     62  C   UNL A   1      49.130  26.295  26.130  1.00  0.00     0.198 A 
ATOM     63  F   UNL A   1      47.870  26.595  28.092  1.00  0.00    -0.203 F 
ATOM     64  F   UNL A   1      48.477  27.328  22.721  1.00  0.00    -0.200 F 
ATOM     65  C   UNL A   1      49.291  26.475  24.765  1.00  0.00     0.200 A 
ATOM     66  F   UNL A   1      50.057  25.627  26.831  1.00  0.00    -0.200 F 
ATOM     67  F   UNL A   1      50.359  25.960  24.141  1.00  0.00    -0.200 F 
ENDBRANCH  43  57
BRANCH  44  68
ATOM     68  C   UNL A   1      38.838  30.890  30.733  1.00  0.00     0.064 A 
ATOM     69  C   UNL A   1      38.691  30.669  32.110  1.00  0.00     0.173 A 
ATOM     70  C   UNL A   1      37.803  31.570  30.072  1.00  0.00     0.173 A 
ATOM     71  F   UNL A   1      39.638  30.003  32.786  1.00  0.00    -0.203 F 
ATOM     72  C   UNL A   1      37.546  31.084  32.789  1.00  0.00     0.198 A 
ATOM     73  C   UNL A   1      36.678  32.019  30.760  1.00  0.00     0.198 A 
ATOM     74  F   UNL A   1      37.891  31.811  28.755  1.00  0.00    -0.203 F 
ATOM     75  F   UNL A   1      37.406  30.805  34.093  1.00  0.00    -0.200 F 
ATOM     76  C   UNL A   1      36.544  31.765  32.115  1.00  0.00     0.200 A 
ATOM     77  F   UNL A   1      35.721  32.693  30.106  1.00  0.00    -0.200 F 
ATOM     78  F   UNL A   1      35.446  32.167  32.769  1.00  0.00    -0.200 F 
ENDBRANCH  44  68
BRANCH  56  79
ATOM     79  C   UNL A   1      45.183  33.545  29.622  1.00  0.00     0.064 A 
ATOM     80  C   UNL A   1      45.139  34.643  28.750  1.00  0.00     0.173 A 
ATOM     81  C   UNL A   1      45.827  33.714  30.857  1.00  0.00     0.173 A 
ATOM     82  F   UNL A   1      44.548  34.531  27.551  1.00  0.00    -0.203 F 
ATOM     83  C   UNL A   1      45.757  35.846  29.082  1.00  0.00     0.198 A 
ATOM     84  C   UNL A   1      46.409  34.931  31.202  1.00  0.00     0.198 A 
ATOM     85  F   UNL A   1      45.891  32.700  31.733  1.00  0.00    -0.203 F 
ATOM     86  F   UNL A   1      45.766  36.857  28.203  1.00  0.00    -0.200 F 
ATOM     87  C   UNL A   1      46.386  35.990  30.310  1.00  0.00     0.200 A 
ATOM     88  F   UNL A   1      47.000  35.074  32.397  1.00  0.00    -0.200 F 
ATOM     89  F   UNL A   1      46.981  37.148  30.627  1.00  0.00    -0.200 F 
ENDBRANCH  56  79
ENDBRANCH  30  31
ENDBRANCH  23  25
ENDBRANCH  22  23
ENDBRANCH  21  22
ENDBRANCH  20  21
ENDBRANCH  19  20
ENDBRANCH  17  19
ENDBRANCH   1  17
TORSDOF 19
ENDMDL
