MODEL 1
REMARK VINA RESULT:     -15.0      0.000      0.000
REMARK SMILES O=C(OCCOC(=O)[C@@H](Cc1ccccc1)/N=C1\C(=O)c2ccccc2C(=O)[C@H]1Cl)c1ccc(-c2c3nc(c(-c4c(F)c(F)c(F)c(F)c4F)c4ccc([nH]4)c(-c4c(F)c(F)c(F)c(F)c4F)c4nc(c(-c5c(F)c(F)c(F)c(F)c5F)c5ccc2[nH]5)C=C4)C=C3)cc1
REMARK SMILES IDX 4 1 3 2 2 3 1 4 31 5 32 6 93 7 33 8 92 9 34 10 35 11 36 12
REMARK SMILES IDX 86 13 37 14 91 15 85 16 87 17 38 18 90 19 84 20 83 21 39 23
REMARK SMILES IDX 71 24 51 25 70 26 52 27 55 28 69 29 88 30 53 31 54 32 68 34
REMARK SMILES IDX 89 35 56 36 40 37 41 38 49 39 42 40 43 41 47 42 50 43 44 44
REMARK SMILES IDX 45 45 48 46 46 47 72 48 73 49 81 50 74 51 75 52 79 53 82 54
REMARK SMILES IDX 76 55 77 56 80 57 78 58 57 59 58 60 66 61 59 62 60 63 64 64
REMARK SMILES IDX 67 65 61 66 62 67 65 68 63 69 5 70 6 71 7 72 8 73 9 74 10 75
REMARK SMILES IDX 11 76 12 77 16 78 13 79 15 80 14 81 17 82 18 83 19 84 29 85
REMARK SMILES IDX 20 86 21 87 27 88 30 89 22 90 26 91 28 92 23 93 25 94 24 95
REMARK H PARENT 87 22 55 33
REMARK Flexibility Score: inf
ROOT
ATOM      1  C   UNL A   1      32.234  30.881  26.889  1.00  0.00     0.275 C 
ENDROOT
BRANCH   1   2
ATOM      2  O   UNL A   1      33.278  30.452  27.761  1.00  0.00    -0.458 OA
BRANCH   2   3
ATOM      3  C   UNL A   1      34.273  31.201  28.249  1.00  0.00     0.338 C 
ATOM      4  O   UNL A   1      34.137  32.425  28.268  1.00  0.00    -0.246 OA
BRANCH   3   5
ATOM      5  C   UNL A   1      35.581  30.683  28.748  1.00  0.00     0.060 A 
ATOM      6  C   UNL A   1      36.184  30.294  30.433  1.00  0.00     0.016 A 
ATOM      7  C   UNL A   1      36.640  30.232  27.325  1.00  0.00     0.016 A 
ATOM      8  C   UNL A   1      37.697  29.240  30.635  1.00  0.00     0.010 A 
ATOM      9  C   UNL A   1      38.147  29.321  27.545  1.00  0.00     0.010 A 
ATOM     10  C   UNL A   1      38.713  28.813  29.159  1.00  0.00    -0.014 A 
BRANCH  10  11
ATOM     11  C   UNL A   1      40.103  28.300  29.332  1.00  0.00     0.031 A 
ATOM     12  C   UNL A   1      40.410  26.885  28.901  1.00  0.00     0.074 A 
ATOM     13  C   UNL A   1      41.061  29.226  29.477  1.00  0.00     0.049 A 
ATOM     14  N   UNL A   1      41.496  26.433  28.326  1.00  0.00    -0.248 NA
ATOM     15  C   UNL A   1      39.334  25.883  28.991  1.00  0.00     0.031 C 
ATOM     16  C   UNL A   1      40.822  30.609  29.878  1.00  0.00     0.029 A 
ATOM     17  N   UNL A   1      42.399  29.182  29.185  1.00  0.00    -0.354 N 
ATOM     18  C   UNL A   1      41.202  25.128  27.943  1.00  0.00     0.074 A 
ATOM     19  C   UNL A   1      39.837  24.862  28.314  1.00  0.00     0.031 C 
ATOM     20  C   UNL A   1      41.937  31.320  29.664  1.00  0.00     0.029 A 
ATOM     21  C   UNL A   1      42.977  30.432  29.155  1.00  0.00     0.049 A 
ATOM     22  H   UNL A   1      42.894  28.348  29.013  1.00  0.00     0.167 HD
ATOM     23  C   UNL A   1      42.013  24.218  27.360  1.00  0.00     0.037 A 
ATOM     24  C   UNL A   1      44.199  30.811  28.730  1.00  0.00     0.037 A 
ATOM     25  C   UNL A   1      43.406  24.454  27.127  1.00  0.00     0.049 A 
ATOM     26  C   UNL A   1      45.115  29.731  28.216  1.00  0.00     0.074 A 
ATOM     27  C   UNL A   1      44.385  23.553  26.754  1.00  0.00     0.029 A 
ATOM     28  N   UNL A   1      44.023  25.682  27.305  1.00  0.00    -0.354 N 
ATOM     29  N   UNL A   1      44.838  28.492  27.884  1.00  0.00    -0.248 NA
ATOM     30  C   UNL A   1      46.532  30.091  28.073  1.00  0.00     0.031 C 
ATOM     31  C   UNL A   1      45.613  24.221  26.794  1.00  0.00     0.029 A 
ATOM     32  C   UNL A   1      45.385  25.552  27.115  1.00  0.00     0.049 A 
ATOM     33  H   UNL A   1      43.561  26.522  27.531  1.00  0.00     0.167 HD
ATOM     34  C   UNL A   1      46.052  27.913  27.539  1.00  0.00     0.074 A 
ATOM     35  C   UNL A   1      47.048  28.963  27.609  1.00  0.00     0.031 C 
ATOM     36  C   UNL A   1      46.339  26.621  27.242  1.00  0.00     0.037 A 
BRANCH  23  37
ATOM     37  C   UNL A   1      41.455  22.851  27.106  1.00  0.00     0.064 A 
ATOM     38  C   UNL A   1      41.955  21.706  27.741  1.00  0.00     0.173 A 
ATOM     39  C   UNL A   1      40.382  22.698  26.215  1.00  0.00     0.173 A 
ATOM     40  F   UNL A   1      42.998  21.797  28.580  1.00  0.00    -0.203 F 
ATOM     41  C   UNL A   1      41.392  20.454  27.496  1.00  0.00     0.198 A 
ATOM     42  C   UNL A   1      39.815  21.449  25.983  1.00  0.00     0.198 A 
ATOM     43  F   UNL A   1      39.885  23.764  25.572  1.00  0.00    -0.203 F 
ATOM     44  F   UNL A   1      41.890  19.364  28.097  1.00  0.00    -0.200 F 
ATOM     45  C   UNL A   1      40.318  20.328  26.624  1.00  0.00     0.200 A 
ATOM     46  F   UNL A   1      38.780  21.334  25.139  1.00  0.00    -0.200 F 
ATOM     47  F   UNL A   1      39.774  19.125  26.395  1.00  0.00    -0.200 F 
ENDBRANCH  23  37
BRANCH  24  48
ATOM     48  C   UNL A   1      44.637  32.237  28.791  1.00  0.00     0.064 A 
ATOM     49  C   UNL A   1      45.164  32.795  29.967  1.00  0.00     0.173 A 
ATOM     50  C   UNL A   1      44.498  33.094  27.686  1.00  0.00     0.173 A 
ATOM     51  F   UNL A   1      45.278  32.048  31.076  1.00  0.00    -0.203 F 
ATOM     52  C   UNL A   1      45.520  34.144  30.034  1.00  0.00     0.198 A 
ATOM     53  C   UNL A   1      44.900  34.426  27.739  1.00  0.00     0.198 A 
ATOM     54  F   UNL A   1      43.967  32.638  26.542  1.00  0.00    -0.203 F 
ATOM     55  F   UNL A   1      45.949  34.666  31.191  1.00  0.00    -0.200 F 
ATOM     56  C   UNL A   1      45.399  34.955  28.916  1.00  0.00     0.200 A 
ATOM     57  F   UNL A   1      44.790  35.197  26.649  1.00  0.00    -0.200 F 
ATOM     58  F   UNL A   1      45.739  36.249  28.980  1.00  0.00    -0.200 F 
ENDBRANCH  24  48
BRANCH  36  59
ATOM     59  C   UNL A   1      47.786  26.274  27.073  1.00  0.00     0.064 A 
ATOM     60  C   UNL A   1      48.505  25.673  28.119  1.00  0.00     0.173 A 
ATOM     61  C   UNL A   1      48.443  26.484  25.854  1.00  0.00     0.173 A 
ATOM     62  F   UNL A   1      47.916  25.457  29.305  1.00  0.00    -0.203 F 
ATOM     63  C   UNL A   1      49.840  25.325  27.959  1.00  0.00     0.198 A 
ATOM     64  C   UNL A   1      49.769  26.101  25.686  1.00  0.00     0.198 A 
ATOM     65  F   UNL A   1      47.792  27.039  24.820  1.00  0.00    -0.203 F 
ATOM     66  F   UNL A   1      50.520  24.799  28.986  1.00  0.00    -0.200 F 
ATOM     67  C   UNL A   1      50.468  25.531  26.740  1.00  0.00     0.200 A 
ATOM     68  F   UNL A   1      50.371  26.279  24.502  1.00  0.00    -0.200 F 
ATOM     69  F   UNL A   1      51.754  25.184  26.583  1.00  0.00    -0.200 F 
ENDBRANCH  36  59
ENDBRANCH  10  11
ENDBRANCH   3   5
ENDBRANCH   2   3
ENDBRANCH   1   2
BRANCH   1  70
ATOM     70  C   UNL A   1      32.277  30.088  25.582  1.00  0.00     0.274 C 
BRANCH  70  71
ATOM     71  O   UNL A   1      33.419  29.211  25.558  1.00  0.00    -0.460 OA
BRANCH  71  72
ATOM     72  C   UNL A   1      33.483  28.163  24.709  1.00  0.00     0.331 C 
ATOM     73  O   UNL A   1      34.124  28.160  23.666  1.00  0.00    -0.250 OA
BRANCH  72  74
ATOM     74  C   UNL A   1      32.823  26.902  25.327  1.00  0.00     0.219 C 
BRANCH  74  75
ATOM     75  C   UNL A   1      31.100  26.475  24.727  1.00  0.00     0.074 C 
BRANCH  75  76
ATOM     76  C   UNL A   1      29.662  27.517  23.486  1.00  0.00    -0.045 A 
ATOM     77  C   UNL A   1      29.888  28.825  22.644  1.00  0.00     0.004 A 
ATOM     78  C   UNL A   1      28.158  27.489  23.500  1.00  0.00     0.004 A 
ATOM     79  C   UNL A   1      29.007  29.862  22.274  1.00  0.00     0.000 A 
ATOM     80  C   UNL A   1      27.269  28.573  23.177  1.00  0.00     0.000 A 
ATOM     81  C   UNL A   1      27.699  29.771  22.635  1.00  0.00     0.000 A 
ENDBRANCH  75  76
ENDBRANCH  74  75
BRANCH  74  82
ATOM     82  N   UNL A   1      33.727  25.780  25.737  1.00  0.00    -0.268 NA
ATOM     83  C   UNL A   1      34.276  24.758  25.177  1.00  0.00     0.110 C 
ATOM     84  C   UNL A   1      34.153  24.227  23.764  1.00  0.00     0.209 C 
ATOM     85  C   UNL A   1      34.969  23.739  26.049  1.00  0.00     0.205 C 
ATOM     86  O   UNL A   1      34.649  24.779  22.800  1.00  0.00    -0.287 OA
ATOM     87  C   UNL A   1      33.518  22.899  23.643  1.00  0.00     0.035 A 
ATOM     88  C   UNL A   1      34.292  22.379  25.978  1.00  0.00     0.187 C 
ATOM     89  Cl  UNL A   1      36.657  23.542  25.531  1.00  0.00    -0.107 Cl
ATOM     90  C   UNL A   1      32.855  22.549  22.459  1.00  0.00     0.013 A 
ATOM     91  C   UNL A   1      33.549  22.021  24.732  1.00  0.00     0.031 A 
ATOM     92  O   UNL A   1      34.370  21.565  26.894  1.00  0.00    -0.292 OA
ATOM     93  C   UNL A   1      32.186  21.327  22.377  1.00  0.00     0.001 A 
ATOM     94  C   UNL A   1      32.868  20.800  24.644  1.00  0.00     0.012 A 
ATOM     95  C   UNL A   1      32.188  20.458  23.469  1.00  0.00     0.001 A 
ENDBRANCH  74  82
ENDBRANCH  72  74
ENDBRANCH  71  72
ENDBRANCH  70  71
ENDBRANCH   1  70
TORSDOF 14
ENDMDL
MODEL 2
REMARK VINA RESULT:     -14.8      4.833     10.202
REMARK SMILES O=C(OCCOC(=O)[C@@H](Cc1ccccc1)/N=C1\C(=O)c2ccccc2C(=O)[C@H]1Cl)c1ccc(-c2c3nc(c(-c4c(F)c(F)c(F)c(F)c4F)c4ccc([nH]4)c(-c4c(F)c(F)c(F)c(F)c4F)c4nc(c(-c5c(F)c(F)c(F)c(F)c5F)c5ccc2[nH]5)C=C4)C=C3)cc1
REMARK SMILES IDX 4 1 3 2 2 3 1 4 31 5 32 6 93 7 33 8 92 9 34 10 35 11 36 12
REMARK SMILES IDX 86 13 37 14 91 15 85 16 87 17 38 18 90 19 84 20 83 21 39 23
REMARK SMILES IDX 71 24 51 25 70 26 52 27 55 28 69 29 88 30 53 31 54 32 68 34
REMARK SMILES IDX 89 35 56 36 40 37 41 38 49 39 42 40 43 41 47 42 50 43 44 44
REMARK SMILES IDX 45 45 48 46 46 47 72 48 73 49 81 50 74 51 75 52 79 53 82 54
REMARK SMILES IDX 76 55 77 56 80 57 78 58 57 59 58 60 66 61 59 62 60 63 64 64
REMARK SMILES IDX 67 65 61 66 62 67 65 68 63 69 5 70 6 71 7 72 8 73 9 74 10 75
REMARK SMILES IDX 11 76 12 77 16 78 13 79 15 80 14 81 17 82 18 83 19 84 29 85
REMARK SMILES IDX 20 86 21 87 27 88 30 89 22 90 26 91 28 92 23 93 25 94 24 95
REMARK H PARENT 87 22 55 33
REMARK Flexibility Score: inf
ROOT
ATOM      1  C   UNL A   1      37.912  21.104  25.199  1.00  0.00     0.275 C 
ENDROOT
BRANCH   1   2
ATOM      2  O   UNL A   1      38.620  22.330  25.371  1.00  0.00    -0.458 OA
BRANCH   2   3
ATOM      3  C   UNL A   1      39.700  22.533  26.134  1.00  0.00     0.338 C 
ATOM      4  O   UNL A   1      40.378  21.560  26.469  1.00  0.00    -0.246 OA
BRANCH   3   5
ATOM      5  C   UNL A   1      40.148  23.853  26.666  1.00  0.00     0.060 A 
ATOM      6  C   UNL A   1      41.414  25.043  26.084  1.00  0.00     0.016 A 
ATOM      7  C   UNL A   1      39.060  24.356  28.048  1.00  0.00     0.016 A 
ATOM      8  C   UNL A   1      41.384  26.784  26.722  1.00  0.00     0.010 A 
ATOM      9  C   UNL A   1      39.122  25.994  28.727  1.00  0.00     0.010 A 
ATOM     10  C   UNL A   1      40.256  27.226  28.110  1.00  0.00    -0.014 A 
BRANCH  10  11
ATOM     11  C   UNL A   1      40.473  28.487  28.877  1.00  0.00     0.031 A 
ATOM     12  C   UNL A   1      39.394  29.543  28.853  1.00  0.00     0.074 A 
ATOM     13  C   UNL A   1      41.404  28.440  29.841  1.00  0.00     0.049 A 
ATOM     14  N   UNL A   1      38.998  30.318  29.832  1.00  0.00    -0.248 NA
ATOM     15  C   UNL A   1      38.560  29.657  27.643  1.00  0.00     0.031 C 
ATOM     16  C   UNL A   1      42.462  27.437  29.921  1.00  0.00     0.029 A 
ATOM     17  N   UNL A   1      41.536  29.168  30.993  1.00  0.00    -0.354 N 
ATOM     18  C   UNL A   1      37.851  30.953  29.367  1.00  0.00     0.074 A 
ATOM     19  C   UNL A   1      37.586  30.460  28.042  1.00  0.00     0.031 C 
ATOM     20  C   UNL A   1      43.039  27.513  31.128  1.00  0.00     0.029 A 
ATOM     21  C   UNL A   1      42.421  28.599  31.883  1.00  0.00     0.049 A 
ATOM     22  H   UNL A   1      41.050  30.007  31.168  1.00  0.00     0.167 HD
ATOM     23  C   UNL A   1      37.099  31.892  29.984  1.00  0.00     0.037 A 
ATOM     24  C   UNL A   1      42.672  28.907  33.170  1.00  0.00     0.037 A 
ATOM     25  C   UNL A   1      37.459  32.472  31.244  1.00  0.00     0.049 A 
ATOM     26  C   UNL A   1      41.902  30.055  33.768  1.00  0.00     0.074 A 
ATOM     27  C   UNL A   1      36.919  33.577  31.871  1.00  0.00     0.029 A 
ATOM     28  N   UNL A   1      38.498  32.014  32.038  1.00  0.00    -0.354 N 
ATOM     29  N   UNL A   1      40.836  30.670  33.311  1.00  0.00    -0.248 NA
ATOM     30  C   UNL A   1      42.409  30.590  35.038  1.00  0.00     0.031 C 
ATOM     31  C   UNL A   1      37.693  33.841  33.005  1.00  0.00     0.029 A 
ATOM     32  C   UNL A   1      38.662  32.855  33.121  1.00  0.00     0.049 A 
ATOM     33  H   UNL A   1      39.037  31.210  31.859  1.00  0.00     0.167 HD
ATOM     34  C   UNL A   1      40.575  31.693  34.212  1.00  0.00     0.074 A 
ATOM     35  C   UNL A   1      41.535  31.553  35.289  1.00  0.00     0.031 C 
ATOM     36  C   UNL A   1      39.664  32.695  34.141  1.00  0.00     0.037 A 
BRANCH  23  37
ATOM     37  C   UNL A   1      35.937  32.459  29.228  1.00  0.00     0.064 A 
ATOM     38  C   UNL A   1      34.831  31.682  28.857  1.00  0.00     0.173 A 
ATOM     39  C   UNL A   1      35.935  33.820  28.885  1.00  0.00     0.173 A 
ATOM     40  F   UNL A   1      34.799  30.371  29.137  1.00  0.00    -0.203 F 
ATOM     41  C   UNL A   1      33.758  32.254  28.174  1.00  0.00     0.198 A 
ATOM     42  C   UNL A   1      34.856  34.388  28.215  1.00  0.00     0.198 A 
ATOM     43  F   UNL A   1      36.981  34.595  29.203  1.00  0.00    -0.203 F 
ATOM     44  F   UNL A   1      32.713  31.496  27.810  1.00  0.00    -0.200 F 
ATOM     45  C   UNL A   1      33.769  33.607  27.861  1.00  0.00     0.200 A 
ATOM     46  F   UNL A   1      34.874  35.694  27.914  1.00  0.00    -0.200 F 
ATOM     47  F   UNL A   1      32.733  34.156  27.211  1.00  0.00    -0.200 F 
ENDBRANCH  23  37
BRANCH  24  48
ATOM     48  C   UNL A   1      43.691  28.159  33.965  1.00  0.00     0.064 A 
ATOM     49  C   UNL A   1      45.046  28.528  33.959  1.00  0.00     0.173 A 
ATOM     50  C   UNL A   1      43.344  27.025  34.719  1.00  0.00     0.173 A 
ATOM     51  F   UNL A   1      45.457  29.570  33.220  1.00  0.00    -0.203 F 
ATOM     52  C   UNL A   1      46.003  27.790  34.660  1.00  0.00     0.198 A 
ATOM     53  C   UNL A   1      44.291  26.319  35.458  1.00  0.00     0.198 A 
ATOM     54  F   UNL A   1      42.074  26.592  34.741  1.00  0.00    -0.203 F 
ATOM     55  F   UNL A   1      47.298  28.121  34.572  1.00  0.00    -0.200 F 
ATOM     56  C   UNL A   1      45.622  26.694  35.418  1.00  0.00     0.200 A 
ATOM     57  F   UNL A   1      43.910  25.270  36.197  1.00  0.00    -0.200 F 
ATOM     58  F   UNL A   1      46.540  25.986  36.090  1.00  0.00    -0.200 F 
ENDBRANCH  24  48
BRANCH  36  59
ATOM     59  C   UNL A   1      39.739  33.751  35.200  1.00  0.00     0.064 A 
ATOM     60  C   UNL A   1      40.444  34.943  34.974  1.00  0.00     0.173 A 
ATOM     61  C   UNL A   1      39.063  33.604  36.418  1.00  0.00     0.173 A 
ATOM     62  F   UNL A   1      41.110  35.126  33.823  1.00  0.00    -0.203 F 
ATOM     63  C   UNL A   1      40.495  35.938  35.943  1.00  0.00     0.198 A 
ATOM     64  C   UNL A   1      39.086  34.617  37.371  1.00  0.00     0.198 A 
ATOM     65  F   UNL A   1      38.361  32.489  36.673  1.00  0.00    -0.203 F 
ATOM     66  F   UNL A   1      41.215  37.046  35.725  1.00  0.00    -0.200 F 
ATOM     67  C   UNL A   1      39.809  35.777  37.137  1.00  0.00     0.200 A 
ATOM     68  F   UNL A   1      38.405  34.471  38.516  1.00  0.00    -0.200 F 
ATOM     69  F   UNL A   1      39.849  36.742  38.067  1.00  0.00    -0.200 F 
ENDBRANCH  36  59
ENDBRANCH  10  11
ENDBRANCH   3   5
ENDBRANCH   2   3
ENDBRANCH   1   2
BRANCH   1  70
ATOM     70  C   UNL A   1      36.421  21.310  25.471  1.00  0.00     0.274 C 
BRANCH  70  71
ATOM     71  O   UNL A   1      36.188  22.606  26.054  1.00  0.00    -0.460 OA
BRANCH  71  72
ATOM     72  C   UNL A   1      34.936  23.062  26.274  1.00  0.00     0.331 C 
ATOM     73  O   UNL A   1      34.328  22.925  27.327  1.00  0.00    -0.250 OA
BRANCH  72  74
ATOM     74  C   UNL A   1      34.457  23.963  25.105  1.00  0.00     0.219 C 
BRANCH  74  75
ATOM     75  C   UNL A   1      33.340  23.164  23.831  1.00  0.00     0.074 C 
BRANCH  75  76
ATOM     76  C   UNL A   1      32.515  21.171  23.624  1.00  0.00    -0.045 A 
ATOM     77  C   UNL A   1      32.562  19.998  24.670  1.00  0.00     0.004 A 
ATOM     78  C   UNL A   1      32.143  20.390  22.394  1.00  0.00     0.004 A 
ATOM     79  C   UNL A   1      32.583  18.598  24.503  1.00  0.00     0.000 A 
ATOM     80  C   UNL A   1      32.226  18.965  22.216  1.00  0.00     0.000 A 
ATOM     81  C   UNL A   1      32.511  18.086  23.246  1.00  0.00     0.000 A 
ENDBRANCH  75  76
ENDBRANCH  74  75
BRANCH  74  82
ATOM     82  N   UNL A   1      34.275  25.424  25.388  1.00  0.00    -0.268 NA
ATOM     83  C   UNL A   1      33.318  26.199  25.762  1.00  0.00     0.110 C 
ATOM     84  C   UNL A   1      31.857  25.901  26.028  1.00  0.00     0.209 C 
ATOM     85  C   UNL A   1      33.535  27.693  25.717  1.00  0.00     0.205 C 
ATOM     86  O   UNL A   1      31.471  25.277  26.998  1.00  0.00    -0.287 OA
ATOM     87  C   UNL A   1      30.902  26.554  25.108  1.00  0.00     0.035 A 
ATOM     88  C   UNL A   1      32.597  28.372  24.731  1.00  0.00     0.187 C 
ATOM     89  Cl  UNL A   1      33.253  28.398  27.323  1.00  0.00    -0.107 Cl
ATOM     90  C   UNL A   1      29.650  25.969  24.874  1.00  0.00     0.013 A 
ATOM     91  C   UNL A   1      31.279  27.728  24.448  1.00  0.00     0.031 A 
ATOM     92  O   UNL A   1      32.878  29.443  24.198  1.00  0.00    -0.292 OA
ATOM     93  C   UNL A   1      28.784  26.544  23.943  1.00  0.00     0.001 A 
ATOM     94  C   UNL A   1      30.406  28.293  23.509  1.00  0.00     0.012 A 
ATOM     95  C   UNL A   1      29.163  27.699  23.258  1.00  0.00     0.001 A 
ENDBRANCH  74  82
ENDBRANCH  72  74
ENDBRANCH  71  72
ENDBRANCH  70  71
ENDBRANCH   1  70
TORSDOF 14
ENDMDL
MODEL 3
REMARK VINA RESULT:     -14.7      5.086     10.470
REMARK SMILES O=C(OCCOC(=O)[C@@H](Cc1ccccc1)/N=C1\C(=O)c2ccccc2C(=O)[C@H]1Cl)c1ccc(-c2c3nc(c(-c4c(F)c(F)c(F)c(F)c4F)c4ccc([nH]4)c(-c4c(F)c(F)c(F)c(F)c4F)c4nc(c(-c5c(F)c(F)c(F)c(F)c5F)c5ccc2[nH]5)C=C4)C=C3)cc1
REMARK SMILES IDX 4 1 3 2 2 3 1 4 31 5 32 6 93 7 33 8 92 9 34 10 35 11 36 12
REMARK SMILES IDX 86 13 37 14 91 15 85 16 87 17 38 18 90 19 84 20 83 21 39 23
REMARK SMILES IDX 71 24 51 25 70 26 52 27 55 28 69 29 88 30 53 31 54 32 68 34
REMARK SMILES IDX 89 35 56 36 40 37 41 38 49 39 42 40 43 41 47 42 50 43 44 44
REMARK SMILES IDX 45 45 48 46 46 47 72 48 73 49 81 50 74 51 75 52 79 53 82 54
REMARK SMILES IDX 76 55 77 56 80 57 78 58 57 59 58 60 66 61 59 62 60 63 64 64
REMARK SMILES IDX 67 65 61 66 62 67 65 68 63 69 5 70 6 71 7 72 8 73 9 74 10 75
REMARK SMILES IDX 11 76 12 77 16 78 13 79 15 80 14 81 17 82 18 83 19 84 29 85
REMARK SMILES IDX 20 86 21 87 27 88 30 89 22 90 26 91 28 92 23 93 25 94 24 95
REMARK H PARENT 87 22 55 33
REMARK Flexibility Score: inf
ROOT
ATOM      1  C   UNL A   1      38.160  20.994  25.381  1.00  0.00     0.275 C 
ENDROOT
BRANCH   1   2
ATOM      2  O   UNL A   1      38.701  22.301  25.562  1.00  0.00    -0.458 OA
BRANCH   2   3
ATOM      3  C   UNL A   1      39.903  22.609  26.064  1.00  0.00     0.338 C 
ATOM      4  O   UNL A   1      40.772  21.737  26.092  1.00  0.00    -0.246 OA
BRANCH   3   5
ATOM      5  C   UNL A   1      40.285  23.930  26.643  1.00  0.00     0.060 A 
ATOM      6  C   UNL A   1      41.487  25.204  26.106  1.00  0.00     0.016 A 
ATOM      7  C   UNL A   1      39.176  24.325  28.044  1.00  0.00     0.016 A 
ATOM      8  C   UNL A   1      41.370  26.916  26.809  1.00  0.00     0.010 A 
ATOM      9  C   UNL A   1      39.157  25.938  28.784  1.00  0.00     0.010 A 
ATOM     10  C   UNL A   1      40.225  27.248  28.213  1.00  0.00    -0.014 A 
BRANCH  10  11
ATOM     11  C   UNL A   1      40.380  28.489  29.026  1.00  0.00     0.031 A 
ATOM     12  C   UNL A   1      39.289  29.532  28.967  1.00  0.00     0.074 A 
ATOM     13  C   UNL A   1      41.253  28.425  30.042  1.00  0.00     0.049 A 
ATOM     14  N   UNL A   1      38.827  30.275  29.942  1.00  0.00    -0.248 NA
ATOM     15  C   UNL A   1      38.528  29.671  27.713  1.00  0.00     0.031 C 
ATOM     16  C   UNL A   1      42.317  27.432  30.157  1.00  0.00     0.029 A 
ATOM     17  N   UNL A   1      41.306  29.121  31.219  1.00  0.00    -0.354 N 
ATOM     18  C   UNL A   1      37.701  30.909  29.428  1.00  0.00     0.074 A 
ATOM     19  C   UNL A   1      37.521  30.451  28.076  1.00  0.00     0.031 C 
ATOM     20  C   UNL A   1      42.821  27.481  31.398  1.00  0.00     0.029 A 
ATOM     21  C   UNL A   1      42.145  28.537  32.144  1.00  0.00     0.049 A 
ATOM     22  H   UNL A   1      40.800  29.949  31.389  1.00  0.00     0.167 HD
ATOM     23  C   UNL A   1      36.902  31.821  30.025  1.00  0.00     0.037 A 
ATOM     24  C   UNL A   1      42.315  28.811  33.452  1.00  0.00     0.037 A 
ATOM     25  C   UNL A   1      37.178  32.369  31.319  1.00  0.00     0.049 A 
ATOM     26  C   UNL A   1      41.497  29.933  34.035  1.00  0.00     0.074 A 
ATOM     27  C   UNL A   1      36.588  33.450  31.944  1.00  0.00     0.029 A 
ATOM     28  N   UNL A   1      38.175  31.901  32.161  1.00  0.00    -0.354 N 
ATOM     29  N   UNL A   1      40.451  30.549  33.532  1.00  0.00    -0.248 NA
ATOM     30  C   UNL A   1      41.920  30.437  35.347  1.00  0.00     0.031 C 
ATOM     31  C   UNL A   1      37.290  33.691  33.129  1.00  0.00     0.029 A 
ATOM     32  C   UNL A   1      38.264  32.713  33.275  1.00  0.00     0.049 A 
ATOM     33  H   UNL A   1      38.734  31.109  31.992  1.00  0.00     0.167 HD
ATOM     34  C   UNL A   1      40.124  31.542  34.445  1.00  0.00     0.074 A 
ATOM     35  C   UNL A   1      41.020  31.382  35.573  1.00  0.00     0.031 C 
ATOM     36  C   UNL A   1      39.205  32.535  34.348  1.00  0.00     0.037 A 
BRANCH  23  37
ATOM     37  C   UNL A   1      35.779  32.397  29.217  1.00  0.00     0.064 A 
ATOM     38  C   UNL A   1      34.695  31.624  28.780  1.00  0.00     0.173 A 
ATOM     39  C   UNL A   1      35.792  33.762  28.891  1.00  0.00     0.173 A 
ATOM     40  F   UNL A   1      34.651  30.309  29.042  1.00  0.00    -0.203 F 
ATOM     41  C   UNL A   1      33.657  32.203  28.050  1.00  0.00     0.198 A 
ATOM     42  C   UNL A   1      34.748  34.338  28.174  1.00  0.00     0.198 A 
ATOM     43  F   UNL A   1      36.819  34.534  29.272  1.00  0.00    -0.203 F 
ATOM     44  F   UNL A   1      32.634  31.448  27.624  1.00  0.00    -0.200 F 
ATOM     45  C   UNL A   1      33.681  33.559  27.755  1.00  0.00     0.200 A 
ATOM     46  F   UNL A   1      34.779  35.647  27.890  1.00  0.00    -0.200 F 
ATOM     47  F   UNL A   1      32.680  34.115  27.059  1.00  0.00    -0.200 F 
ENDBRANCH  23  37
BRANCH  24  48
ATOM     48  C   UNL A   1      43.296  28.052  34.286  1.00  0.00     0.064 A 
ATOM     49  C   UNL A   1      44.639  28.449  34.387  1.00  0.00     0.173 A 
ATOM     50  C   UNL A   1      42.925  26.881  34.968  1.00  0.00     0.173 A 
ATOM     51  F   UNL A   1      45.074  29.529  33.720  1.00  0.00    -0.203 F 
ATOM     52  C   UNL A   1      45.563  27.704  35.122  1.00  0.00     0.198 A 
ATOM     53  C   UNL A   1      43.835  26.166  35.741  1.00  0.00     0.198 A 
ATOM     54  F   UNL A   1      41.667  26.422  34.885  1.00  0.00    -0.203 F 
ATOM     55  F   UNL A   1      46.853  28.065  35.137  1.00  0.00    -0.200 F 
ATOM     56  C   UNL A   1      45.157  26.570  35.808  1.00  0.00     0.200 A 
ATOM     57  F   UNL A   1      43.430  25.079  36.411  1.00  0.00    -0.200 F 
ATOM     58  F   UNL A   1      46.043  25.853  36.513  1.00  0.00    -0.200 F 
ENDBRANCH  24  48
BRANCH  36  59
ATOM     59  C   UNL A   1      39.204  33.561  35.439  1.00  0.00     0.064 A 
ATOM     60  C   UNL A   1      38.558  33.308  36.659  1.00  0.00     0.173 A 
ATOM     61  C   UNL A   1      39.897  34.770  35.296  1.00  0.00     0.173 A 
ATOM     62  F   UNL A   1      37.879  32.165  36.839  1.00  0.00    -0.203 F 
ATOM     63  C   UNL A   1      38.577  34.246  37.685  1.00  0.00     0.198 A 
ATOM     64  C   UNL A   1      39.945  35.690  36.338  1.00  0.00     0.198 A 
ATOM     65  F   UNL A   1      40.546  35.048  34.154  1.00  0.00    -0.203 F 
ATOM     66  F   UNL A   1      37.910  34.005  38.821  1.00  0.00    -0.200 F 
ATOM     67  C   UNL A   1      39.278  35.431  37.526  1.00  0.00     0.200 A 
ATOM     68  F   UNL A   1      40.640  36.826  36.193  1.00  0.00    -0.200 F 
ATOM     69  F   UNL A   1      39.305  36.330  38.520  1.00  0.00    -0.200 F 
ENDBRANCH  36  59
ENDBRANCH  10  11
ENDBRANCH   3   5
ENDBRANCH   2   3
ENDBRANCH   1   2
BRANCH   1  70
ATOM     70  C   UNL A   1      36.772  21.079  24.745  1.00  0.00     0.274 C 
BRANCH  70  71
ATOM     71  O   UNL A   1      36.004  22.140  25.345  1.00  0.00    -0.460 OA
BRANCH  71  72
ATOM     72  C   UNL A   1      34.832  21.893  25.967  1.00  0.00     0.331 C 
ATOM     73  O   UNL A   1      34.734  21.506  27.124  1.00  0.00    -0.250 OA
BRANCH  72  74
ATOM     74  C   UNL A   1      33.631  22.366  25.105  1.00  0.00     0.219 C 
BRANCH  74  75
ATOM     75  C   UNL A   1      32.781  21.065  24.059  1.00  0.00     0.074 C 
BRANCH  75  76
ATOM     76  C   UNL A   1      32.735  18.900  24.136  1.00  0.00    -0.045 A 
ATOM     77  C   UNL A   1      32.533  17.987  25.400  1.00  0.00     0.004 A 
ATOM     78  C   UNL A   1      33.277  17.877  23.176  1.00  0.00     0.004 A 
ATOM     79  C   UNL A   1      33.000  16.691  25.700  1.00  0.00     0.000 A 
ATOM     80  C   UNL A   1      33.806  16.579  23.502  1.00  0.00     0.000 A 
ATOM     81  C   UNL A   1      33.729  16.024  24.766  1.00  0.00     0.000 A 
ENDBRANCH  75  76
ENDBRANCH  74  75
BRANCH  74  82
ATOM     82  N   UNL A   1      32.804  23.499  25.635  1.00  0.00    -0.268 NA
ATOM     83  C   UNL A   1      32.195  24.526  25.154  1.00  0.00     0.110 C 
ATOM     84  C   UNL A   1      32.128  25.057  23.736  1.00  0.00     0.209 C 
ATOM     85  C   UNL A   1      31.640  25.554  26.112  1.00  0.00     0.205 C 
ATOM     86  O   UNL A   1      31.499  24.511  22.851  1.00  0.00    -0.287 OA
ATOM     87  C   UNL A   1      32.756  26.378  23.527  1.00  0.00     0.035 A 
ATOM     88  C   UNL A   1      32.316  26.906  25.946  1.00  0.00     0.187 C 
ATOM     89  Cl  UNL A   1      29.899  25.769  25.830  1.00  0.00    -0.107 Cl
ATOM     90  C   UNL A   1      33.253  26.720  22.263  1.00  0.00     0.013 A 
ATOM     91  C   UNL A   1      32.885  27.255  24.609  1.00  0.00     0.031 A 
ATOM     92  O   UNL A   1      32.373  27.721  26.863  1.00  0.00    -0.292 OA
ATOM     93  C   UNL A   1      33.918  27.935  22.088  1.00  0.00     0.001 A 
ATOM     94  C   UNL A   1      33.560  28.469  24.427  1.00  0.00     0.012 A 
ATOM     95  C   UNL A   1      34.076  28.804  23.169  1.00  0.00     0.001 A 
ENDBRANCH  74  82
ENDBRANCH  72  74
ENDBRANCH  71  72
ENDBRANCH  70  71
ENDBRANCH   1  70
TORSDOF 14
ENDMDL
