MODEL 1
REMARK VINA RESULT:     -13.4      0.000      0.000
REMARK SMILES COc1cc2ccccc2cc1C(=O)Nc1cc(C(=O)OCCOC(=O)c2ccc(-c3c4nc(c(-c5c(F)c(F)c(F)c(F)c5F)c5ccc([nH]5)c(-c5c(F)c(F)c(F)c(F)c5F)c5nc(c(-c6c(F)c(F)c(F)c(F)c6F)c6ccc3[nH]6)C=C5)C=C4)cc2)ccc1C
REMARK SMILES IDX 22 1 21 2 19 3 20 4 18 5 16 6 17 7 92 8 91 9 93 10 90 11
REMARK SMILES IDX 15 12 13 13 14 14 12 16 3 17 4 18 5 19 11 20 6 21 10 22 7 23
REMARK SMILES IDX 9 24 8 25 2 26 1 27 23 28 24 29 25 30 26 31 27 32 28 33
REMARK SMILES IDX 89 34 29 35 88 36 30 37 31 38 32 39 82 40 33 41 87 42 81 43
REMARK SMILES IDX 83 44 34 45 86 46 80 47 79 48 35 50 67 51 47 52 66 53 48 54
REMARK SMILES IDX 51 55 65 56 84 57 49 58 50 59 64 61 85 62 52 63 36 64 37 65
REMARK SMILES IDX 45 66 38 67 39 68 43 69 46 70 40 71 41 72 44 73 42 74 68 75
REMARK SMILES IDX 69 76 77 77 70 78 71 79 75 80 78 81 72 82 73 83 76 84 74 85
REMARK SMILES IDX 53 86 54 87 62 88 55 89 56 90 60 91 63 92 57 93 58 94 61 95
REMARK SMILES IDX 59 96
REMARK H PARENT 15 15 83 49 51 60
REMARK Flexibility Score: inf
ROOT
ATOM      1  C   UNL A   1      36.139  21.136  25.605  1.00  0.00     0.275 C 
ENDROOT
BRANCH   1   2
ATOM      2  O   UNL A   1      35.608  22.367  26.123  1.00  0.00    -0.458 OA
BRANCH   2   3
ATOM      3  C   UNL A   1      34.406  22.189  26.709  1.00  0.00     0.338 C 
ATOM      4  O   UNL A   1      34.194  21.448  27.668  1.00  0.00    -0.246 OA
BRANCH   3   5
ATOM      5  C   UNL A   1      33.296  22.904  26.072  1.00  0.00     0.062 A 
ATOM      6  C   UNL A   1      32.792  24.343  24.184  1.00  0.00     0.045 A 
ATOM      7  C   UNL A   1      33.676  23.897  25.164  1.00  0.00     0.042 A 
ATOM      8  C   UNL A   1      31.445  23.928  24.234  1.00  0.00    -0.027 A 
ATOM      9  C   UNL A   1      31.058  22.978  25.208  1.00  0.00     0.006 A 
ATOM     10  C   UNL A   1      30.442  24.281  23.166  1.00  0.00     0.046 C 
ATOM     11  C   UNL A   1      31.984  22.444  26.113  1.00  0.00     0.016 A 
BRANCH   6  12
ATOM     12  N   UNL A   1      33.264  25.113  23.099  1.00  0.00    -0.322 N 
ATOM     13  C   UNL A   1      33.240  26.484  22.885  1.00  0.00     0.259 C 
ATOM     14  O   UNL A   1      33.547  26.910  21.769  1.00  0.00    -0.269 OA
ATOM     15  H   UNL A   1      33.678  24.590  22.375  1.00  0.00     0.170 HD
BRANCH  13  16
ATOM     16  C   UNL A   1      32.937  27.477  23.957  1.00  0.00     0.082 A 
ATOM     17  C   UNL A   1      31.719  28.144  24.083  1.00  0.00     0.132 A 
ATOM     18  C   UNL A   1      31.658  29.280  24.886  1.00  0.00     0.056 A 
ATOM     19  C   UNL A   1      32.694  29.639  25.752  1.00  0.00    -0.015 A 
ATOM     20  C   UNL A   1      33.962  27.773  24.882  1.00  0.00     0.026 A 
ATOM     21  C   UNL A   1      32.592  30.771  26.575  1.00  0.00     0.009 A 
ATOM     22  C   UNL A   1      33.831  28.820  25.822  1.00  0.00    -0.017 A 
ATOM     23  C   UNL A   1      33.536  31.026  27.563  1.00  0.00     0.001 A 
ATOM     24  C   UNL A   1      34.791  29.102  26.814  1.00  0.00     0.009 A 
ATOM     25  C   UNL A   1      34.628  30.178  27.695  1.00  0.00     0.001 A 
BRANCH  17  26
ATOM     26  O   UNL A   1      30.568  27.868  23.392  1.00  0.00    -0.496 OA
ATOM     27  C   UNL A   1      30.248  28.863  22.425  1.00  0.00     0.278 C 
ENDBRANCH  17  26
ENDBRANCH  13  16
ENDBRANCH   6  12
ENDBRANCH   3   5
ENDBRANCH   2   3
ENDBRANCH   1   2
BRANCH   1  28
ATOM     28  C   UNL A   1      37.546  21.293  25.035  1.00  0.00     0.275 C 
BRANCH  28  29
ATOM     29  O   UNL A   1      38.407  22.364  25.504  1.00  0.00    -0.458 OA
BRANCH  29  30
ATOM     30  C   UNL A   1      39.373  22.179  26.433  1.00  0.00     0.338 C 
ATOM     31  O   UNL A   1      39.686  21.076  26.866  1.00  0.00    -0.246 OA
BRANCH  30  32
ATOM     32  C   UNL A   1      39.901  23.434  27.025  1.00  0.00     0.060 A 
ATOM     33  C   UNL A   1      41.094  23.409  27.772  1.00  0.00     0.016 A 
ATOM     34  C   UNL A   1      39.245  24.645  26.810  1.00  0.00     0.016 A 
ATOM     35  C   UNL A   1      41.640  24.593  28.285  1.00  0.00     0.010 A 
ATOM     36  C   UNL A   1      39.827  25.819  27.243  1.00  0.00     0.010 A 
ATOM     37  C   UNL A   1      40.996  25.802  28.025  1.00  0.00    -0.014 A 
BRANCH  37  38
ATOM     38  C   UNL A   1      41.266  27.082  28.688  1.00  0.00     0.031 A 
ATOM     39  C   UNL A   1      40.345  28.233  28.697  1.00  0.00     0.074 A 
ATOM     40  C   UNL A   1      42.361  27.055  29.468  1.00  0.00     0.049 A 
ATOM     41  N   UNL A   1      39.788  28.748  29.750  1.00  0.00    -0.248 NA
ATOM     42  C   UNL A   1      40.003  28.903  27.439  1.00  0.00     0.031 C 
ATOM     43  C   UNL A   1      42.763  27.953  30.530  1.00  0.00     0.029 A 
ATOM     44  N   UNL A   1      43.492  26.258  29.221  1.00  0.00    -0.354 N 
ATOM     45  C   UNL A   1      39.029  29.834  29.326  1.00  0.00     0.074 A 
ATOM     46  C   UNL A   1      39.164  29.849  27.869  1.00  0.00     0.031 C 
ATOM     47  C   UNL A   1      44.104  27.894  30.636  1.00  0.00     0.029 A 
ATOM     48  C   UNL A   1      44.580  27.094  29.509  1.00  0.00     0.049 A 
ATOM     49  H   UNL A   1      43.514  25.322  28.915  1.00  0.00     0.167 HD
ATOM     50  C   UNL A   1      39.114  31.030  29.972  1.00  0.00     0.037 A 
ATOM     51  C   UNL A   1      45.324  27.586  28.472  1.00  0.00     0.037 A 
ATOM     52  C   UNL A   1      40.456  31.322  30.397  1.00  0.00     0.049 A 
ATOM     53  C   UNL A   1      45.289  29.090  28.425  1.00  0.00     0.074 A 
ATOM     54  C   UNL A   1      41.166  31.113  31.563  1.00  0.00     0.029 A 
ATOM     55  N   UNL A   1      41.367  31.696  29.428  1.00  0.00    -0.354 N 
ATOM     56  N   UNL A   1      44.241  29.808  28.727  1.00  0.00    -0.248 NA
ATOM     57  C   UNL A   1      46.455  29.893  28.079  1.00  0.00     0.031 C 
ATOM     58  C   UNL A   1      42.538  31.318  31.271  1.00  0.00     0.029 A 
ATOM     59  C   UNL A   1      42.642  31.682  29.939  1.00  0.00     0.049 A 
ATOM     60  H   UNL A   1      41.136  31.936  28.501  1.00  0.00     0.167 HD
ATOM     61  C   UNL A   1      44.603  31.130  28.723  1.00  0.00     0.074 A 
ATOM     62  C   UNL A   1      45.983  31.136  28.275  1.00  0.00     0.031 C 
ATOM     63  C   UNL A   1      43.758  32.120  29.128  1.00  0.00     0.037 A 
BRANCH  50  64
ATOM     64  C   UNL A   1      37.837  31.533  30.582  1.00  0.00     0.064 A 
ATOM     65  C   UNL A   1      37.523  31.341  31.941  1.00  0.00     0.173 A 
ATOM     66  C   UNL A   1      36.867  32.215  29.818  1.00  0.00     0.173 A 
ATOM     67  F   UNL A   1      38.385  30.753  32.781  1.00  0.00    -0.203 F 
ATOM     68  C   UNL A   1      36.298  31.741  32.480  1.00  0.00     0.198 A 
ATOM     69  C   UNL A   1      35.639  32.609  30.358  1.00  0.00     0.198 A 
ATOM     70  F   UNL A   1      37.105  32.533  28.536  1.00  0.00    -0.203 F 
ATOM     71  F   UNL A   1      36.035  31.518  33.776  1.00  0.00    -0.200 F 
ATOM     72  C   UNL A   1      35.351  32.361  31.686  1.00  0.00     0.200 A 
ATOM     73  F   UNL A   1      34.737  33.232  29.587  1.00  0.00    -0.200 F 
ATOM     74  F   UNL A   1      34.170  32.730  32.204  1.00  0.00    -0.200 F 
ENDBRANCH  50  64
BRANCH  51  75
ATOM     75  C   UNL A   1      45.363  26.708  27.263  1.00  0.00     0.064 A 
ATOM     76  C   UNL A   1      46.340  25.693  27.183  1.00  0.00     0.173 A 
ATOM     77  C   UNL A   1      44.316  26.654  26.333  1.00  0.00     0.173 A 
ATOM     78  F   UNL A   1      47.369  25.685  28.047  1.00  0.00    -0.203 F 
ATOM     79  C   UNL A   1      46.229  24.635  26.282  1.00  0.00     0.198 A 
ATOM     80  C   UNL A   1      44.216  25.600  25.417  1.00  0.00     0.198 A 
ATOM     81  F   UNL A   1      43.341  27.574  26.349  1.00  0.00    -0.203 F 
ATOM     82  F   UNL A   1      47.134  23.645  26.295  1.00  0.00    -0.200 F 
ATOM     83  C   UNL A   1      45.157  24.581  25.409  1.00  0.00     0.200 A 
ATOM     84  F   UNL A   1      43.169  25.539  24.582  1.00  0.00    -0.200 F 
ATOM     85  F   UNL A   1      45.017  23.540  24.576  1.00  0.00    -0.200 F 
ENDBRANCH  51  75
BRANCH  63  86
ATOM     86  C   UNL A   1      43.924  33.600  28.888  1.00  0.00     0.064 A 
ATOM     87  C   UNL A   1      43.774  34.197  27.627  1.00  0.00     0.173 A 
ATOM     88  C   UNL A   1      44.045  34.499  29.979  1.00  0.00     0.173 A 
ATOM     89  F   UNL A   1      43.532  33.464  26.533  1.00  0.00    -0.203 F 
ATOM     90  C   UNL A   1      43.796  35.584  27.461  1.00  0.00     0.198 A 
ATOM     91  C   UNL A   1      44.004  35.881  29.815  1.00  0.00     0.198 A 
ATOM     92  F   UNL A   1      44.161  34.065  31.242  1.00  0.00    -0.203 F 
ATOM     93  F   UNL A   1      43.679  36.103  26.231  1.00  0.00    -0.200 F 
ATOM     94  C   UNL A   1      43.894  36.425  28.555  1.00  0.00     0.200 A 
ATOM     95  F   UNL A   1      44.040  36.679  30.892  1.00  0.00    -0.200 F 
ATOM     96  F   UNL A   1      43.852  37.754  28.393  1.00  0.00    -0.200 F 
ENDBRANCH  63  86
ENDBRANCH  37  38
ENDBRANCH  30  32
ENDBRANCH  29  30
ENDBRANCH  28  29
ENDBRANCH   1  28
TORSDOF 14
ENDMDL
MODEL 2
REMARK VINA RESULT:     -13.4      5.423     10.163
REMARK SMILES COc1cc2ccccc2cc1C(=O)Nc1cc(C(=O)OCCOC(=O)c2ccc(-c3c4nc(c(-c5c(F)c(F)c(F)c(F)c5F)c5ccc([nH]5)c(-c5c(F)c(F)c(F)c(F)c5F)c5nc(c(-c6c(F)c(F)c(F)c(F)c6F)c6ccc3[nH]6)C=C5)C=C4)cc2)ccc1C
REMARK SMILES IDX 22 1 21 2 19 3 20 4 18 5 16 6 17 7 92 8 91 9 93 10 90 11
REMARK SMILES IDX 15 12 13 13 14 14 12 16 3 17 4 18 5 19 11 20 6 21 10 22 7 23
REMARK SMILES IDX 9 24 8 25 2 26 1 27 23 28 24 29 25 30 26 31 27 32 28 33
REMARK SMILES IDX 89 34 29 35 88 36 30 37 31 38 32 39 82 40 33 41 87 42 81 43
REMARK SMILES IDX 83 44 34 45 86 46 80 47 79 48 35 50 67 51 47 52 66 53 48 54
REMARK SMILES IDX 51 55 65 56 84 57 49 58 50 59 64 61 85 62 52 63 36 64 37 65
REMARK SMILES IDX 45 66 38 67 39 68 43 69 46 70 40 71 41 72 44 73 42 74 68 75
REMARK SMILES IDX 69 76 77 77 70 78 71 79 75 80 78 81 72 82 73 83 76 84 74 85
REMARK SMILES IDX 53 86 54 87 62 88 55 89 56 90 60 91 63 92 57 93 58 94 61 95
REMARK SMILES IDX 59 96
REMARK H PARENT 15 15 83 49 51 60
REMARK Flexibility Score: inf
ROOT
ATOM      1  C   UNL A   1      38.235  33.083  35.869  1.00  0.00     0.275 C 
ENDROOT
BRANCH   1   2
ATOM      2  O   UNL A   1      39.557  33.471  35.459  1.00  0.00    -0.458 OA
BRANCH   2   3
ATOM      3  C   UNL A   1      39.538  34.569  34.674  1.00  0.00     0.338 C 
ATOM      4  O   UNL A   1      39.250  35.702  35.056  1.00  0.00    -0.246 OA
BRANCH   3   5
ATOM      5  C   UNL A   1      39.825  34.320  33.258  1.00  0.00     0.062 A 
ATOM      6  C   UNL A   1      38.793  34.405  31.063  1.00  0.00     0.045 A 
ATOM      7  C   UNL A   1      38.698  34.203  32.438  1.00  0.00     0.042 A 
ATOM      8  C   UNL A   1      40.068  34.534  30.475  1.00  0.00    -0.027 A 
ATOM      9  C   UNL A   1      41.207  34.575  31.312  1.00  0.00     0.006 A 
ATOM     10  C   UNL A   1      40.265  34.849  29.014  1.00  0.00     0.046 C 
ATOM     11  C   UNL A   1      41.090  34.494  32.705  1.00  0.00     0.016 A 
BRANCH   6  12
ATOM     12  N   UNL A   1      37.627  34.581  30.288  1.00  0.00    -0.322 N 
ATOM     13  C   UNL A   1      36.850  33.660  29.599  1.00  0.00     0.259 C 
ATOM     14  O   UNL A   1      35.978  34.080  28.836  1.00  0.00    -0.269 OA
ATOM     15  H   UNL A   1      37.312  35.512  30.228  1.00  0.00     0.170 HD
BRANCH  13  16
ATOM     16  C   UNL A   1      36.963  32.184  29.792  1.00  0.00     0.082 A 
ATOM     17  C   UNL A   1      36.218  31.457  30.718  1.00  0.00     0.132 A 
ATOM     18  C   UNL A   1      36.637  30.173  31.056  1.00  0.00     0.056 A 
ATOM     19  C   UNL A   1      37.625  29.497  30.334  1.00  0.00    -0.015 A 
ATOM     20  C   UNL A   1      37.905  31.493  28.999  1.00  0.00     0.026 A 
ATOM     21  C   UNL A   1      38.005  28.189  30.675  1.00  0.00     0.009 A 
ATOM     22  C   UNL A   1      38.207  30.131  29.227  1.00  0.00    -0.017 A 
ATOM     23  C   UNL A   1      38.850  27.451  29.854  1.00  0.00     0.001 A 
ATOM     24  C   UNL A   1      39.078  29.378  28.414  1.00  0.00     0.009 A 
ATOM     25  C   UNL A   1      39.373  28.042  28.711  1.00  0.00     0.001 A 
BRANCH  17  26
ATOM     26  O   UNL A   1      35.153  31.921  31.446  1.00  0.00    -0.496 OA
ATOM     27  C   UNL A   1      35.534  32.458  32.709  1.00  0.00     0.278 C 
ENDBRANCH  17  26
ENDBRANCH  13  16
ENDBRANCH   6  12
ENDBRANCH   3   5
ENDBRANCH   2   3
ENDBRANCH   1   2
BRANCH   1  28
ATOM     28  C   UNL A   1      37.779  31.774  35.231  1.00  0.00     0.275 C 
BRANCH  28  29
ATOM     29  O   UNL A   1      38.543  31.188  34.143  1.00  0.00    -0.458 OA
BRANCH  29  30
ATOM     30  C   UNL A   1      39.453  30.205  34.329  1.00  0.00     0.338 C 
ATOM     31  O   UNL A   1      39.686  29.702  35.422  1.00  0.00    -0.246 OA
BRANCH  30  32
ATOM     32  C   UNL A   1      40.283  29.907  33.134  1.00  0.00     0.060 A 
ATOM     33  C   UNL A   1      40.483  30.899  32.154  1.00  0.00     0.016 A 
ATOM     34  C   UNL A   1      40.903  28.666  32.999  1.00  0.00     0.016 A 
ATOM     35  C   UNL A   1      41.314  30.656  31.053  1.00  0.00     0.010 A 
ATOM     36  C   UNL A   1      41.786  28.458  31.959  1.00  0.00     0.010 A 
ATOM     37  C   UNL A   1      41.961  29.425  30.953  1.00  0.00    -0.014 A 
BRANCH  37  38
ATOM     38  C   UNL A   1      42.642  28.904  29.763  1.00  0.00     0.031 A 
ATOM     39  C   UNL A   1      42.922  27.478  29.514  1.00  0.00     0.074 A 
ATOM     40  C   UNL A   1      42.822  29.831  28.806  1.00  0.00     0.049 A 
ATOM     41  N   UNL A   1      42.445  26.773  28.535  1.00  0.00    -0.248 NA
ATOM     42  C   UNL A   1      43.823  26.745  30.409  1.00  0.00     0.031 C 
ATOM     43  C   UNL A   1      43.115  29.663  27.398  1.00  0.00     0.029 A 
ATOM     44  N   UNL A   1      43.013  31.201  29.054  1.00  0.00    -0.354 N 
ATOM     45  C   UNL A   1      42.985  25.496  28.643  1.00  0.00     0.074 A 
ATOM     46  C   UNL A   1      43.798  25.527  29.861  1.00  0.00     0.031 C 
ATOM     47  C   UNL A   1      43.744  30.774  26.971  1.00  0.00     0.029 A 
ATOM     48  C   UNL A   1      44.021  31.582  28.157  1.00  0.00     0.049 A 
ATOM     49  H   UNL A   1      42.544  31.766  29.710  1.00  0.00     0.167 HD
ATOM     50  C   UNL A   1      43.519  24.876  27.555  1.00  0.00     0.037 A 
ATOM     51  C   UNL A   1      45.275  31.834  28.644  1.00  0.00     0.037 A 
ATOM     52  C   UNL A   1      44.225  25.793  26.702  1.00  0.00     0.049 A 
ATOM     53  C   UNL A   1      46.300  30.901  28.055  1.00  0.00     0.074 A 
ATOM     54  C   UNL A   1      43.882  26.540  25.592  1.00  0.00     0.029 A 
ATOM     55  N   UNL A   1      45.455  26.253  27.136  1.00  0.00    -0.354 N 
ATOM     56  N   UNL A   1      46.071  29.648  27.771  1.00  0.00    -0.248 NA
ATOM     57  C   UNL A   1      47.644  31.336  27.698  1.00  0.00     0.031 C 
ATOM     58  C   UNL A   1      44.905  27.499  25.388  1.00  0.00     0.029 A 
ATOM     59  C   UNL A   1      45.875  27.302  26.357  1.00  0.00     0.049 A 
ATOM     60  H   UNL A   1      45.958  25.881  27.897  1.00  0.00     0.167 HD
ATOM     61  C   UNL A   1      47.165  29.144  27.115  1.00  0.00     0.074 A 
ATOM     62  C   UNL A   1      48.135  30.223  27.129  1.00  0.00     0.031 C 
ATOM     63  C   UNL A   1      47.178  27.895  26.571  1.00  0.00     0.037 A 
BRANCH  50  64
ATOM     64  C   UNL A   1      42.868  23.583  27.157  1.00  0.00     0.064 A 
ATOM     65  C   UNL A   1      43.603  22.491  26.656  1.00  0.00     0.173 A 
ATOM     66  C   UNL A   1      41.473  23.395  27.246  1.00  0.00     0.173 A 
ATOM     67  F   UNL A   1      44.939  22.527  26.573  1.00  0.00    -0.203 F 
ATOM     68  C   UNL A   1      42.978  21.322  26.213  1.00  0.00     0.198 A 
ATOM     69  C   UNL A   1      40.850  22.227  26.795  1.00  0.00     0.198 A 
ATOM     70  F   UNL A   1      40.690  24.337  27.795  1.00  0.00    -0.203 F 
ATOM     71  F   UNL A   1      43.719  20.316  25.725  1.00  0.00    -0.200 F 
ATOM     72  C   UNL A   1      41.603  21.196  26.269  1.00  0.00     0.200 A 
ATOM     73  F   UNL A   1      39.518  22.104  26.877  1.00  0.00    -0.200 F 
ATOM     74  F   UNL A   1      41.008  20.078  25.828  1.00  0.00    -0.200 F 
ENDBRANCH  50  64
BRANCH  51  75
ATOM     75  C   UNL A   1      45.306  32.335  30.052  1.00  0.00     0.064 A 
ATOM     76  C   UNL A   1      45.124  33.714  30.293  1.00  0.00     0.173 A 
ATOM     77  C   UNL A   1      45.228  31.482  31.161  1.00  0.00     0.173 A 
ATOM     78  F   UNL A   1      45.184  34.585  29.272  1.00  0.00    -0.203 F 
ATOM     79  C   UNL A   1      44.796  34.202  31.557  1.00  0.00     0.198 A 
ATOM     80  C   UNL A   1      44.916  31.977  32.433  1.00  0.00     0.198 A 
ATOM     81  F   UNL A   1      45.378  30.158  31.015  1.00  0.00    -0.203 F 
ATOM     82  F   UNL A   1      44.548  35.509  31.728  1.00  0.00    -0.200 F 
ATOM     83  C   UNL A   1      44.677  33.330  32.624  1.00  0.00     0.200 A 
ATOM     84  F   UNL A   1      44.785  31.130  33.464  1.00  0.00    -0.200 F 
ATOM     85  F   UNL A   1      44.311  33.786  33.831  1.00  0.00    -0.200 F 
ENDBRANCH  51  75
BRANCH  63  86
ATOM     86  C   UNL A   1      48.391  27.128  26.105  1.00  0.00     0.064 A 
ATOM     87  C   UNL A   1      48.877  27.181  24.789  1.00  0.00     0.173 A 
ATOM     88  C   UNL A   1      49.228  26.465  27.039  1.00  0.00     0.173 A 
ATOM     89  F   UNL A   1      48.242  27.879  23.840  1.00  0.00    -0.203 F 
ATOM     90  C   UNL A   1      50.079  26.572  24.423  1.00  0.00     0.198 A 
ATOM     91  C   UNL A   1      50.456  25.913  26.681  1.00  0.00     0.198 A 
ATOM     92  F   UNL A   1      48.902  26.369  28.336  1.00  0.00    -0.203 F 
ATOM     93  F   UNL A   1      50.484  26.626  23.147  1.00  0.00    -0.200 F 
ATOM     94  C   UNL A   1      50.876  25.954  25.370  1.00  0.00     0.200 A 
ATOM     95  F   UNL A   1      51.241  25.371  27.623  1.00  0.00    -0.200 F 
ATOM     96  F   UNL A   1      52.057  25.427  25.022  1.00  0.00    -0.200 F 
ENDBRANCH  63  86
ENDBRANCH  37  38
ENDBRANCH  30  32
ENDBRANCH  29  30
ENDBRANCH  28  29
ENDBRANCH   1  28
TORSDOF 14
ENDMDL
MODEL 3
REMARK VINA RESULT:     -13.3      3.265      9.392
REMARK SMILES COc1cc2ccccc2cc1C(=O)Nc1cc(C(=O)OCCOC(=O)c2ccc(-c3c4nc(c(-c5c(F)c(F)c(F)c(F)c5F)c5ccc([nH]5)c(-c5c(F)c(F)c(F)c(F)c5F)c5nc(c(-c6c(F)c(F)c(F)c(F)c6F)c6ccc3[nH]6)C=C5)C=C4)cc2)ccc1C
REMARK SMILES IDX 22 1 21 2 19 3 20 4 18 5 16 6 17 7 92 8 91 9 93 10 90 11
REMARK SMILES IDX 15 12 13 13 14 14 12 16 3 17 4 18 5 19 11 20 6 21 10 22 7 23
REMARK SMILES IDX 9 24 8 25 2 26 1 27 23 28 24 29 25 30 26 31 27 32 28 33
REMARK SMILES IDX 89 34 29 35 88 36 30 37 31 38 32 39 82 40 33 41 87 42 81 43
REMARK SMILES IDX 83 44 34 45 86 46 80 47 79 48 35 50 67 51 47 52 66 53 48 54
REMARK SMILES IDX 51 55 65 56 84 57 49 58 50 59 64 61 85 62 52 63 36 64 37 65
REMARK SMILES IDX 45 66 38 67 39 68 43 69 46 70 40 71 41 72 44 73 42 74 68 75
REMARK SMILES IDX 69 76 77 77 70 78 71 79 75 80 78 81 72 82 73 83 76 84 74 85
REMARK SMILES IDX 53 86 54 87 62 88 55 89 56 90 60 91 63 92 57 93 58 94 61 95
REMARK SMILES IDX 59 96
REMARK H PARENT 15 15 83 49 51 60
REMARK Flexibility Score: inf
ROOT
ATOM      1  C   UNL A   1      31.648  31.796  26.865  1.00  0.00     0.275 C 
ENDROOT
BRANCH   1   2
ATOM      2  O   UNL A   1      32.624  31.028  26.143  1.00  0.00    -0.458 OA
BRANCH   2   3
ATOM      3  C   UNL A   1      32.605  29.726  26.501  1.00  0.00     0.338 C 
ATOM      4  O   UNL A   1      33.185  29.257  27.479  1.00  0.00    -0.246 OA
BRANCH   3   5
ATOM      5  C   UNL A   1      31.880  28.845  25.582  1.00  0.00     0.062 A 
ATOM      6  C   UNL A   1      30.791  26.678  25.482  1.00  0.00     0.045 A 
ATOM      7  C   UNL A   1      31.784  27.512  25.993  1.00  0.00     0.042 A 
ATOM      8  C   UNL A   1      30.004  27.129  24.402  1.00  0.00    -0.027 A 
ATOM      9  C   UNL A   1      30.165  28.458  23.946  1.00  0.00     0.006 A 
ATOM     10  C   UNL A   1      28.847  26.337  23.848  1.00  0.00     0.046 C 
ATOM     11  C   UNL A   1      31.083  29.328  24.548  1.00  0.00     0.016 A 
BRANCH   6  12
ATOM     12  N   UNL A   1      30.509  25.444  26.107  1.00  0.00    -0.322 N 
ATOM     13  C   UNL A   1      31.102  24.198  25.957  1.00  0.00     0.259 C 
ATOM     14  O   UNL A   1      30.558  23.222  26.476  1.00  0.00    -0.269 OA
ATOM     15  H   UNL A   1      29.769  25.473  26.755  1.00  0.00     0.170 HD
BRANCH  13  16
ATOM     16  C   UNL A   1      32.408  23.989  25.265  1.00  0.00     0.082 A 
ATOM     17  C   UNL A   1      32.553  23.892  23.882  1.00  0.00     0.132 A 
ATOM     18  C   UNL A   1      33.732  23.359  23.368  1.00  0.00     0.056 A 
ATOM     19  C   UNL A   1      34.862  23.144  24.162  1.00  0.00    -0.015 A 
ATOM     20  C   UNL A   1      33.560  23.857  26.070  1.00  0.00     0.026 A 
ATOM     21  C   UNL A   1      36.050  22.638  23.611  1.00  0.00     0.009 A 
ATOM     22  C   UNL A   1      34.808  23.485  25.521  1.00  0.00    -0.017 A 
ATOM     23  C   UNL A   1      37.224  22.595  24.355  1.00  0.00     0.001 A 
ATOM     24  C   UNL A   1      36.001  23.417  26.270  1.00  0.00     0.009 A 
ATOM     25  C   UNL A   1      37.202  23.004  25.682  1.00  0.00     0.001 A 
BRANCH  17  26
ATOM     26  O   UNL A   1      31.589  24.159  22.945  1.00  0.00    -0.496 OA
ATOM     27  C   UNL A   1      31.935  25.240  22.084  1.00  0.00     0.278 C 
ENDBRANCH  17  26
ENDBRANCH  13  16
ENDBRANCH   6  12
ENDBRANCH   3   5
ENDBRANCH   2   3
ENDBRANCH   1   2
BRANCH   1  28
ATOM     28  C   UNL A   1      32.167  33.168  27.284  1.00  0.00     0.275 C 
BRANCH  28  29
ATOM     29  O   UNL A   1      33.176  33.279  28.323  1.00  0.00    -0.458 OA
BRANCH  29  30
ATOM     30  C   UNL A   1      34.345  33.935  28.146  1.00  0.00     0.338 C 
ATOM     31  O   UNL A   1      34.429  35.017  27.575  1.00  0.00    -0.246 OA
BRANCH  30  32
ATOM     32  C   UNL A   1      35.549  33.158  28.537  1.00  0.00     0.060 A 
ATOM     33  C   UNL A   1      35.479  31.754  28.625  1.00  0.00     0.016 A 
ATOM     34  C   UNL A   1      36.759  33.806  28.775  1.00  0.00     0.016 A 
ATOM     35  C   UNL A   1      36.620  31.001  28.931  1.00  0.00     0.010 A 
ATOM     36  C   UNL A   1      37.898  33.059  28.993  1.00  0.00     0.010 A 
ATOM     37  C   UNL A   1      37.833  31.660  29.124  1.00  0.00    -0.014 A 
BRANCH  37  38
ATOM     38  C   UNL A   1      39.048  31.076  29.701  1.00  0.00     0.031 A 
ATOM     39  C   UNL A   1      39.597  29.756  29.340  1.00  0.00     0.074 A 
ATOM     40  C   UNL A   1      39.745  31.942  30.459  1.00  0.00     0.049 A 
ATOM     41  N   UNL A   1      40.750  29.542  28.785  1.00  0.00    -0.248 NA
ATOM     42  C   UNL A   1      38.824  28.544  29.623  1.00  0.00     0.031 C 
ATOM     43  C   UNL A   1      41.123  31.885  30.900  1.00  0.00     0.029 A 
ATOM     44  N   UNL A   1      39.170  32.984  31.204  1.00  0.00    -0.354 N 
ATOM     45  C   UNL A   1      40.896  28.166  28.653  1.00  0.00     0.074 A 
ATOM     46  C   UNL A   1      39.640  27.599  29.147  1.00  0.00     0.031 C 
ATOM     47  C   UNL A   1      41.224  32.604  32.034  1.00  0.00     0.029 A 
ATOM     48  C   UNL A   1      39.864  32.969  32.423  1.00  0.00     0.049 A 
ATOM     49  H   UNL A   1      38.443  33.590  30.932  1.00  0.00     0.167 HD
ATOM     50  C   UNL A   1      42.050  27.552  29.037  1.00  0.00     0.037 A 
ATOM     51  C   UNL A   1      39.227  32.497  33.537  1.00  0.00     0.037 A 
ATOM     52  C   UNL A   1      42.602  28.136  30.229  1.00  0.00     0.049 A 
ATOM     53  C   UNL A   1      39.926  31.294  34.113  1.00  0.00     0.074 A 
ATOM     54  C   UNL A   1      43.533  29.125  30.478  1.00  0.00     0.029 A 
ATOM     55  N   UNL A   1      41.970  27.863  31.427  1.00  0.00    -0.354 N 
ATOM     56  N   UNL A   1      40.512  30.376  33.395  1.00  0.00    -0.248 NA
ATOM     57  C   UNL A   1      40.055  31.073  35.548  1.00  0.00     0.031 C 
ATOM     58  C   UNL A   1      43.421  29.485  31.844  1.00  0.00     0.029 A 
ATOM     59  C   UNL A   1      42.445  28.687  32.417  1.00  0.00     0.049 A 
ATOM     60  H   UNL A   1      41.276  27.175  31.553  1.00  0.00     0.167 HD
ATOM     61  C   UNL A   1      41.171  29.519  34.239  1.00  0.00     0.074 A 
ATOM     62  C   UNL A   1      40.824  29.972  35.573  1.00  0.00     0.031 C 
ATOM     63  C   UNL A   1      41.988  28.528  33.782  1.00  0.00     0.037 A 
BRANCH  50  64
ATOM     64  C   UNL A   1      42.792  26.822  27.954  1.00  0.00     0.064 A 
ATOM     65  C   UNL A   1      43.614  27.486  27.023  1.00  0.00     0.173 A 
ATOM     66  C   UNL A   1      42.691  25.424  27.797  1.00  0.00     0.173 A 
ATOM     67  F   UNL A   1      43.831  28.805  27.099  1.00  0.00    -0.203 F 
ATOM     68  C   UNL A   1      44.234  26.808  25.971  1.00  0.00     0.198 A 
ATOM     69  C   UNL A   1      43.307  24.749  26.739  1.00  0.00     0.198 A 
ATOM     70  F   UNL A   1      42.009  24.684  28.684  1.00  0.00    -0.203 F 
ATOM     71  F   UNL A   1      44.992  27.487  25.097  1.00  0.00    -0.200 F 
ATOM     72  C   UNL A   1      44.070  25.444  25.820  1.00  0.00     0.200 A 
ATOM     73  F   UNL A   1      43.163  23.422  26.616  1.00  0.00    -0.200 F 
ATOM     74  F   UNL A   1      44.655  24.800  24.800  1.00  0.00    -0.200 F 
ENDBRANCH  50  64
BRANCH  51  75
ATOM     75  C   UNL A   1      37.743  32.682  33.531  1.00  0.00     0.064 A 
ATOM     76  C   UNL A   1      37.200  33.884  34.037  1.00  0.00     0.173 A 
ATOM     77  C   UNL A   1      36.880  31.855  32.801  1.00  0.00     0.173 A 
ATOM     78  F   UNL A   1      37.975  34.723  34.742  1.00  0.00    -0.203 F 
ATOM     79  C   UNL A   1      35.892  34.275  33.753  1.00  0.00     0.198 A 
ATOM     80  C   UNL A   1      35.562  32.242  32.534  1.00  0.00     0.198 A 
ATOM     81  F   UNL A   1      37.321  30.702  32.278  1.00  0.00    -0.203 F 
ATOM     82  F   UNL A   1      35.441  35.463  34.181  1.00  0.00    -0.200 F 
ATOM     83  C   UNL A   1      35.078  33.459  32.987  1.00  0.00     0.200 A 
ATOM     84  F   UNL A   1      34.777  31.459  31.778  1.00  0.00    -0.200 F 
ATOM     85  F   UNL A   1      33.837  33.854  32.668  1.00  0.00    -0.200 F 
ENDBRANCH  51  75
BRANCH  63  86
ATOM     86  C   UNL A   1      42.514  27.357  34.574  1.00  0.00     0.064 A 
ATOM     87  C   UNL A   1      41.741  26.227  34.884  1.00  0.00     0.173 A 
ATOM     88  C   UNL A   1      43.896  27.253  34.877  1.00  0.00     0.173 A 
ATOM     89  F   UNL A   1      40.449  26.151  34.541  1.00  0.00    -0.203 F 
ATOM     90  C   UNL A   1      42.294  25.101  35.497  1.00  0.00     0.198 A 
ATOM     91  C   UNL A   1      44.454  26.104  35.432  1.00  0.00     0.198 A 
ATOM     92  F   UNL A   1      44.755  28.245  34.603  1.00  0.00    -0.203 F 
ATOM     93  F   UNL A   1      41.507  24.061  35.800  1.00  0.00    -0.200 F 
ATOM     94  C   UNL A   1      43.652  25.033  35.756  1.00  0.00     0.200 A 
ATOM     95  F   UNL A   1      45.780  26.034  35.619  1.00  0.00    -0.200 F 
ATOM     96  F   UNL A   1      44.186  23.925  36.287  1.00  0.00    -0.200 F 
ENDBRANCH  63  86
ENDBRANCH  37  38
ENDBRANCH  30  32
ENDBRANCH  29  30
ENDBRANCH  28  29
ENDBRANCH   1  28
TORSDOF 14
ENDMDL
