MODEL 1
REMARK VINA RESULT:     -12.7      0.000      0.000
REMARK SMILES O=C(NC(=S)Nc1ccc(Cl)c(C(=O)OCCOC(=O)c2ccc(-c3c4nc(c(-c5c(F)c(F)c(F)c(F)c5F)c5ccc([nH]5)c(-c5c(F)c(F)c(F)c(F)c5F)c5nc(c(-c6c(F)c(F)c(F)c(F)c6F)c6ccc3[nH]6)C=C5)C=C4)cc2)c1)c1ccc(N2CCCC2)c([N+](=O)[O-])c1
REMARK SMILES IDX 15 1 13 2 14 3 12 4 7 5 8 6 84 7 9 8 10 9 11 10 6 11 4 13
REMARK SMILES IDX 5 14 3 15 1 16 2 17 85 19 86 20 98 21 87 22 94 23 88 24
REMARK SMILES IDX 95 25 96 26 97 27 89 28 90 29 93 30 91 31 92 32 16 33 17 34
REMARK SMILES IDX 18 35 19 36 20 37 21 38 22 39 83 40 23 41 82 42 24 43 25 44
REMARK SMILES IDX 26 45 76 46 27 47 81 48 75 49 77 50 28 51 80 52 74 53 73 54
REMARK SMILES IDX 29 56 61 57 41 58 60 59 42 60 45 61 59 62 78 63 43 64 44 65
REMARK SMILES IDX 58 67 79 68 46 69 30 70 31 71 39 72 32 73 33 74 37 75 40 76
REMARK SMILES IDX 34 77 35 78 38 79 36 80 62 81 63 82 71 83 64 84 65 85 69 86
REMARK SMILES IDX 72 87 66 88 67 89 70 90 68 91 47 92 48 93 56 94 49 95 50 96
REMARK SMILES IDX 54 97 57 98 51 99 52 100 55 101 53 102
REMARK H PARENT 6 12 3 18 77 55 45 66
REMARK Flexibility Score: inf
ROOT
ATOM      1  O   UNL A   1      33.530  34.520  28.843  1.00  0.00    -0.458 OA
ENDROOT
BRANCH   1   2
ATOM      2  C   UNL A   1      34.314  34.130  27.804  1.00  0.00     0.339 C 
ATOM      3  O   UNL A   1      34.851  34.835  26.969  1.00  0.00    -0.246 OA
BRANCH   2   4
ATOM      4  C   UNL A   1      34.616  32.698  28.008  1.00  0.00     0.080 A 
ATOM      5  C   UNL A   1      33.835  29.881  26.882  1.00  0.00     0.041 A 
ATOM      6  C   UNL A   1      35.527  29.347  27.064  1.00  0.00     0.028 A 
ATOM      7  C   UNL A   1      33.429  31.543  27.332  1.00  0.00     0.043 A 
ATOM      8  C   UNL A   1      36.836  30.612  27.950  1.00  0.00     0.023 A 
ATOM      9  C   UNL A   1      36.278  32.264  28.362  1.00  0.00     0.055 A 
ATOM     10  Cl  UNL A   1      37.400  33.376  29.032  1.00  0.00    -0.083 Cl
BRANCH   5  11
ATOM     11  N   UNL A   1      32.842  28.927  27.128  1.00  0.00    -0.332 N 
ATOM     12  H   UNL A   1      32.728  28.673  28.073  1.00  0.00     0.169 HD
BRANCH  11  13
ATOM     13  C   UNL A   1      32.012  28.301  26.257  1.00  0.00     0.177 C 
ATOM     14  S   UNL A   1      31.362  26.837  26.767  1.00  0.00    -0.040 S 
BRANCH  13  15
ATOM     15  N   UNL A   1      31.722  28.679  24.949  1.00  0.00    -0.299 N 
ATOM     16  O   UNL A   1      31.251  29.141  22.736  1.00  0.00    -0.269 OA
ATOM     17  C   UNL A   1      31.525  28.301  23.586  1.00  0.00     0.257 C 
ATOM     18  H   UNL A   1      31.592  29.654  24.976  1.00  0.00     0.172 HD
BRANCH  17  19
ATOM     19  C   UNL A   1      31.741  26.916  23.155  1.00  0.00     0.047 A 
ATOM     20  C   UNL A   1      30.321  25.869  23.374  1.00  0.00     0.016 A 
ATOM     21  C   UNL A   1      33.341  26.238  23.483  1.00  0.00     0.101 A 
ATOM     22  C   UNL A   1      30.604  24.020  24.151  1.00  0.00     0.034 A 
ATOM     23  C   UNL A   1      33.599  24.566  24.080  1.00  0.00     0.293 A 
ATOM     24  C   UNL A   1      32.287  23.433  24.435  1.00  0.00     0.116 A 
BRANCH  23  25
ATOM     25  N   UNL A   1      34.972  24.093  23.927  1.00  0.00     0.065 N 
ATOM     26  O   UNL A   1      35.748  24.155  24.882  1.00  0.00    -0.258 OA
ATOM     27  O   UNL A   1      35.269  23.631  22.818  1.00  0.00    -0.258 OA
ENDBRANCH  23  25
BRANCH  24  28
ATOM     28  N   UNL A   1      32.454  22.064  24.573  1.00  0.00    -0.366 N 
ATOM     29  C   UNL A   1      32.596  21.100  23.493  1.00  0.00     0.117 C 
ATOM     30  C   UNL A   1      33.184  21.557  25.728  1.00  0.00     0.117 C 
ATOM     31  C   UNL A   1      32.521  19.771  24.254  1.00  0.00     0.023 C 
ATOM     32  C   UNL A   1      33.242  20.045  25.567  1.00  0.00     0.023 C 
ENDBRANCH  24  28
ENDBRANCH  17  19
ENDBRANCH  13  15
ENDBRANCH  11  13
ENDBRANCH   5  11
ENDBRANCH   2   4
ENDBRANCH   1   2
BRANCH   1  33
ATOM     33  C   UNL A   1      32.915  35.827  28.817  1.00  0.00     0.275 C 
BRANCH  33  34
ATOM     34  C   UNL A   1      32.955  36.521  30.184  1.00  0.00     0.275 C 
BRANCH  34  35
ATOM     35  O   UNL A   1      32.413  35.662  31.212  1.00  0.00    -0.458 OA
BRANCH  35  36
ATOM     36  C   UNL A   1      32.763  36.057  32.449  1.00  0.00     0.338 C 
ATOM     37  O   UNL A   1      32.255  36.952  33.100  1.00  0.00    -0.246 OA
BRANCH  36  38
ATOM     38  C   UNL A   1      33.737  35.225  33.135  1.00  0.00     0.060 A 
ATOM     39  C   UNL A   1      35.021  35.743  33.137  1.00  0.00     0.016 A 
ATOM     40  C   UNL A   1      33.528  33.858  33.290  1.00  0.00     0.016 A 
ATOM     41  C   UNL A   1      36.110  34.891  33.181  1.00  0.00     0.010 A 
ATOM     42  C   UNL A   1      34.625  33.026  33.546  1.00  0.00     0.010 A 
ATOM     43  C   UNL A   1      35.930  33.545  33.511  1.00  0.00    -0.014 A 
BRANCH  43  44
ATOM     44  C   UNL A   1      37.116  32.767  33.954  1.00  0.00     0.031 A 
ATOM     45  C   UNL A   1      37.779  33.021  35.274  1.00  0.00     0.074 A 
ATOM     46  C   UNL A   1      37.594  31.818  33.119  1.00  0.00     0.049 A 
ATOM     47  N   UNL A   1      38.941  32.597  35.701  1.00  0.00    -0.248 NA
ATOM     48  C   UNL A   1      37.056  33.865  36.238  1.00  0.00     0.031 C 
ATOM     49  C   UNL A   1      37.004  31.449  31.823  1.00  0.00     0.029 A 
ATOM     50  N   UNL A   1      38.671  30.976  33.223  1.00  0.00    -0.354 N 
ATOM     51  C   UNL A   1      39.116  33.163  36.957  1.00  0.00     0.074 A 
ATOM     52  C   UNL A   1      37.937  33.958  37.228  1.00  0.00     0.031 C 
ATOM     53  C   UNL A   1      37.672  30.421  31.297  1.00  0.00     0.029 A 
ATOM     54  C   UNL A   1      38.839  30.170  32.120  1.00  0.00     0.049 A 
ATOM     55  H   UNL A   1      39.266  30.951  34.007  1.00  0.00     0.167 HD
ATOM     56  C   UNL A   1      40.179  33.030  37.788  1.00  0.00     0.037 A 
ATOM     57  C   UNL A   1      39.862  29.380  31.754  1.00  0.00     0.037 A 
ATOM     58  C   UNL A   1      41.328  32.209  37.492  1.00  0.00     0.049 A 
ATOM     59  C   UNL A   1      41.056  29.325  32.654  1.00  0.00     0.074 A 
ATOM     60  C   UNL A   1      42.468  32.009  38.251  1.00  0.00     0.029 A 
ATOM     61  N   UNL A   1      41.478  31.441  36.343  1.00  0.00    -0.354 N 
ATOM     62  N   UNL A   1      41.246  29.916  33.807  1.00  0.00    -0.248 NA
ATOM     63  C   UNL A   1      42.186  28.513  32.193  1.00  0.00     0.031 C 
ATOM     64  C   UNL A   1      43.328  31.166  37.538  1.00  0.00     0.029 A 
ATOM     65  C   UNL A   1      42.698  30.784  36.366  1.00  0.00     0.049 A 
ATOM     66  H   UNL A   1      40.813  31.375  35.619  1.00  0.00     0.167 HD
ATOM     67  C   UNL A   1      42.507  29.528  34.227  1.00  0.00     0.074 A 
ATOM     68  C   UNL A   1      43.025  28.632  33.211  1.00  0.00     0.031 C 
ATOM     69  C   UNL A   1      43.180  29.886  35.347  1.00  0.00     0.037 A 
BRANCH  56  70
ATOM     70  C   UNL A   1      40.178  33.819  39.068  1.00  0.00     0.064 A 
ATOM     71  C   UNL A   1      39.598  33.331  40.247  1.00  0.00     0.173 A 
ATOM     72  C   UNL A   1      40.815  35.071  39.125  1.00  0.00     0.173 A 
ATOM     73  F   UNL A   1      38.967  32.148  40.248  1.00  0.00    -0.203 F 
ATOM     74  C   UNL A   1      39.634  34.073  41.426  1.00  0.00     0.198 A 
ATOM     75  C   UNL A   1      40.877  35.796  40.313  1.00  0.00     0.198 A 
ATOM     76  F   UNL A   1      41.393  35.587  38.030  1.00  0.00    -0.203 F 
ATOM     77  F   UNL A   1      39.032  33.606  42.528  1.00  0.00    -0.200 F 
ATOM     78  C   UNL A   1      40.280  35.301  41.461  1.00  0.00     0.200 A 
ATOM     79  F   UNL A   1      41.514  36.974  40.345  1.00  0.00    -0.200 F 
ATOM     80  F   UNL A   1      40.320  36.008  42.599  1.00  0.00    -0.200 F 
ENDBRANCH  56  70
BRANCH  57  81
ATOM     81  C   UNL A   1      39.831  28.662  30.450  1.00  0.00     0.064 A 
ATOM     82  C   UNL A   1      39.303  27.368  30.354  1.00  0.00     0.173 A 
ATOM     83  C   UNL A   1      40.331  29.248  29.274  1.00  0.00     0.173 A 
ATOM     84  F   UNL A   1      38.827  26.758  31.449  1.00  0.00    -0.203 F 
ATOM     85  C   UNL A   1      39.305  26.677  29.144  1.00  0.00     0.198 A 
ATOM     86  C   UNL A   1      40.290  28.574  28.056  1.00  0.00     0.198 A 
ATOM     87  F   UNL A   1      40.837  30.490  29.302  1.00  0.00    -0.203 F 
ATOM     88  F   UNL A   1      38.853  25.417  29.096  1.00  0.00    -0.200 F 
ATOM     89  C   UNL A   1      39.791  27.283  27.995  1.00  0.00     0.200 A 
ATOM     90  F   UNL A   1      40.734  29.176  26.945  1.00  0.00    -0.200 F 
ATOM     91  F   UNL A   1      39.788  26.619  26.832  1.00  0.00    -0.200 F 
ENDBRANCH  57  81
BRANCH  69  92
ATOM     92  C   UNL A   1      44.523  29.251  35.551  1.00  0.00     0.064 A 
ATOM     93  C   UNL A   1      44.669  28.020  36.207  1.00  0.00     0.173 A 
ATOM     94  C   UNL A   1      45.680  29.884  35.072  1.00  0.00     0.173 A 
ATOM     95  F   UNL A   1      43.594  27.388  36.704  1.00  0.00    -0.203 F 
ATOM     96  C   UNL A   1      45.927  27.462  36.406  1.00  0.00     0.198 A 
ATOM     97  C   UNL A   1      46.933  29.304  35.238  1.00  0.00     0.198 A 
ATOM     98  F   UNL A   1      45.593  31.063  34.437  1.00  0.00    -0.203 F 
ATOM     99  F   UNL A   1      46.049  26.318  37.093  1.00  0.00    -0.200 F 
ATOM    100  C   UNL A   1      47.057  28.100  35.914  1.00  0.00     0.200 A 
ATOM    101  F   UNL A   1      48.021  29.914  34.749  1.00  0.00    -0.200 F 
ATOM    102  F   UNL A   1      48.268  27.558  36.100  1.00  0.00    -0.200 F 
ENDBRANCH  69  92
ENDBRANCH  43  44
ENDBRANCH  36  38
ENDBRANCH  35  36
ENDBRANCH  34  35
ENDBRANCH  33  34
ENDBRANCH   1  33
TORSDOF 17
ENDMDL
MODEL 2
REMARK VINA RESULT:     -11.9      1.436      7.124
REMARK SMILES O=C(NC(=S)Nc1ccc(Cl)c(C(=O)OCCOC(=O)c2ccc(-c3c4nc(c(-c5c(F)c(F)c(F)c(F)c5F)c5ccc([nH]5)c(-c5c(F)c(F)c(F)c(F)c5F)c5nc(c(-c6c(F)c(F)c(F)c(F)c6F)c6ccc3[nH]6)C=C5)C=C4)cc2)c1)c1ccc(N2CCCC2)c([N+](=O)[O-])c1
REMARK SMILES IDX 15 1 13 2 14 3 12 4 7 5 8 6 84 7 9 8 10 9 11 10 6 11 4 13
REMARK SMILES IDX 5 14 3 15 1 16 2 17 85 19 86 20 98 21 87 22 94 23 88 24
REMARK SMILES IDX 95 25 96 26 97 27 89 28 90 29 93 30 91 31 92 32 16 33 17 34
REMARK SMILES IDX 18 35 19 36 20 37 21 38 22 39 83 40 23 41 82 42 24 43 25 44
REMARK SMILES IDX 26 45 76 46 27 47 81 48 75 49 77 50 28 51 80 52 74 53 73 54
REMARK SMILES IDX 29 56 61 57 41 58 60 59 42 60 45 61 59 62 78 63 43 64 44 65
REMARK SMILES IDX 58 67 79 68 46 69 30 70 31 71 39 72 32 73 33 74 37 75 40 76
REMARK SMILES IDX 34 77 35 78 38 79 36 80 62 81 63 82 71 83 64 84 65 85 69 86
REMARK SMILES IDX 72 87 66 88 67 89 70 90 68 91 47 92 48 93 56 94 49 95 50 96
REMARK SMILES IDX 54 97 57 98 51 99 52 100 55 101 53 102
REMARK H PARENT 6 12 3 18 77 55 45 66
REMARK Flexibility Score: inf
ROOT
ATOM      1  O   UNL A   1      32.838  34.407  28.771  1.00  0.00    -0.458 OA
ENDROOT
BRANCH   1   2
ATOM      2  C   UNL A   1      33.722  33.909  27.868  1.00  0.00     0.339 C 
ATOM      3  O   UNL A   1      34.577  34.515  27.249  1.00  0.00    -0.246 OA
BRANCH   2   4
ATOM      4  C   UNL A   1      33.635  32.436  27.949  1.00  0.00     0.080 A 
ATOM      5  C   UNL A   1      32.942  29.956  26.165  1.00  0.00     0.041 A 
ATOM      6  C   UNL A   1      34.244  29.031  26.959  1.00  0.00     0.028 A 
ATOM      7  C   UNL A   1      32.687  31.635  26.660  1.00  0.00     0.043 A 
ATOM      8  C   UNL A   1      35.224  29.897  28.504  1.00  0.00     0.023 A 
ATOM      9  C   UNL A   1      34.852  31.604  28.899  1.00  0.00     0.055 A 
ATOM     10  Cl  UNL A   1      35.737  32.380  30.148  1.00  0.00    -0.083 Cl
BRANCH   5  11
ATOM     11  N   UNL A   1      31.788  29.246  25.814  1.00  0.00    -0.332 N 
ATOM     12  H   UNL A   1      31.101  29.185  26.516  1.00  0.00     0.169 HD
BRANCH  11  13
ATOM     13  C   UNL A   1      31.478  28.630  24.646  1.00  0.00     0.177 C 
ATOM     14  S   UNL A   1      32.571  28.829  23.385  1.00  0.00    -0.040 S 
BRANCH  13  15
ATOM     15  N   UNL A   1      30.307  27.941  24.341  1.00  0.00    -0.299 N 
ATOM     16  O   UNL A   1      28.447  26.653  23.881  1.00  0.00    -0.269 OA
ATOM     17  C   UNL A   1      29.614  26.695  24.254  1.00  0.00     0.257 C 
ATOM     18  H   UNL A   1      29.661  28.625  24.053  1.00  0.00     0.172 HD
BRANCH  17  19
ATOM     19  C   UNL A   1      30.311  25.432  24.517  1.00  0.00     0.047 A 
ATOM     20  C   UNL A   1      31.182  25.404  26.067  1.00  0.00     0.016 A 
ATOM     21  C   UNL A   1      31.059  24.650  23.120  1.00  0.00     0.101 A 
ATOM     22  C   UNL A   1      33.055  24.632  26.099  1.00  0.00     0.034 A 
ATOM     23  C   UNL A   1      32.679  23.880  23.172  1.00  0.00     0.293 A 
ATOM     24  C   UNL A   1      33.710  23.849  24.611  1.00  0.00     0.116 A 
BRANCH  23  25
ATOM     25  N   UNL A   1      32.942  22.986  22.049  1.00  0.00     0.065 N 
ATOM     26  O   UNL A   1      33.562  23.403  21.070  1.00  0.00    -0.258 OA
ATOM     27  O   UNL A   1      32.524  21.826  22.164  1.00  0.00    -0.258 OA
ENDBRANCH  23  25
BRANCH  24  28
ATOM     28  N   UNL A   1      34.791  22.998  24.779  1.00  0.00    -0.366 N 
ATOM     29  C   UNL A   1      34.728  21.578  25.090  1.00  0.00     0.117 C 
ATOM     30  C   UNL A   1      36.002  23.237  24.005  1.00  0.00     0.117 C 
ATOM     31  C   UNL A   1      36.202  21.258  25.363  1.00  0.00     0.023 C 
ATOM     32  C   UNL A   1      36.968  22.120  24.369  1.00  0.00     0.023 C 
ENDBRANCH  24  28
ENDBRANCH  17  19
ENDBRANCH  13  15
ENDBRANCH  11  13
ENDBRANCH   5  11
ENDBRANCH   2   4
ENDBRANCH   1   2
BRANCH   1  33
ATOM     33  C   UNL A   1      32.900  35.806  29.129  1.00  0.00     0.275 C 
BRANCH  33  34
ATOM     34  C   UNL A   1      32.341  36.077  30.531  1.00  0.00     0.275 C 
BRANCH  34  35
ATOM     35  O   UNL A   1      32.808  35.085  31.472  1.00  0.00    -0.458 OA
BRANCH  35  36
ATOM     36  C   UNL A   1      33.300  35.633  32.596  1.00  0.00     0.338 C 
ATOM     37  O   UNL A   1      32.797  36.527  33.252  1.00  0.00    -0.246 OA
BRANCH  36  38
ATOM     38  C   UNL A   1      34.466  34.981  33.170  1.00  0.00     0.060 A 
ATOM     39  C   UNL A   1      35.671  35.553  32.801  1.00  0.00     0.016 A 
ATOM     40  C   UNL A   1      34.412  33.653  33.584  1.00  0.00     0.016 A 
ATOM     41  C   UNL A   1      36.813  34.775  32.733  1.00  0.00     0.010 A 
ATOM     42  C   UNL A   1      35.606  32.933  33.716  1.00  0.00     0.010 A 
ATOM     43  C   UNL A   1      36.824  33.500  33.306  1.00  0.00    -0.014 A 
BRANCH  43  44
ATOM     44  C   UNL A   1      38.139  32.869  33.590  1.00  0.00     0.031 A 
ATOM     45  C   UNL A   1      38.757  31.875  32.653  1.00  0.00     0.074 A 
ATOM     46  C   UNL A   1      38.768  33.213  34.736  1.00  0.00     0.049 A 
ATOM     47  N   UNL A   1      39.769  31.073  32.863  1.00  0.00    -0.248 NA
ATOM     48  C   UNL A   1      38.161  31.753  31.314  1.00  0.00     0.031 C 
ATOM     49  C   UNL A   1      38.283  34.205  35.707  1.00  0.00     0.029 A 
ATOM     50  N   UNL A   1      39.949  32.787  35.286  1.00  0.00    -0.354 N 
ATOM     51  C   UNL A   1      39.901  30.313  31.708  1.00  0.00     0.074 A 
ATOM     52  C   UNL A   1      38.866  30.754  30.795  1.00  0.00     0.031 C 
ATOM     53  C   UNL A   1      39.183  34.364  36.680  1.00  0.00     0.029 A 
ATOM     54  C   UNL A   1      40.220  33.366  36.504  1.00  0.00     0.049 A 
ATOM     55  H   UNL A   1      40.544  32.132  34.853  1.00  0.00     0.167 HD
ATOM     56  C   UNL A   1      40.801  29.332  31.456  1.00  0.00     0.037 A 
ATOM     57  C   UNL A   1      41.144  33.070  37.434  1.00  0.00     0.037 A 
ATOM     58  C   UNL A   1      41.833  28.936  32.384  1.00  0.00     0.049 A 
ATOM     59  C   UNL A   1      42.067  31.925  37.160  1.00  0.00     0.074 A 
ATOM     60  C   UNL A   1      42.791  27.947  32.243  1.00  0.00     0.029 A 
ATOM     61  N   UNL A   1      42.046  29.519  33.627  1.00  0.00    -0.354 N 
ATOM     62  N   UNL A   1      42.142  31.165  36.095  1.00  0.00    -0.248 NA
ATOM     63  C   UNL A   1      43.016  31.579  38.222  1.00  0.00     0.031 C 
ATOM     64  C   UNL A   1      43.546  27.897  33.419  1.00  0.00     0.029 A 
ATOM     65  C   UNL A   1      43.107  28.899  34.268  1.00  0.00     0.049 A 
ATOM     66  H   UNL A   1      41.520  30.265  33.997  1.00  0.00     0.167 HD
ATOM     67  C   UNL A   1      43.164  30.266  36.346  1.00  0.00     0.074 A 
ATOM     68  C   UNL A   1      43.693  30.593  37.655  1.00  0.00     0.031 C 
ATOM     69  C   UNL A   1      43.621  29.255  35.566  1.00  0.00     0.037 A 
BRANCH  56  70
ATOM     70  C   UNL A   1      40.687  28.585  30.156  1.00  0.00     0.064 A 
ATOM     71  C   UNL A   1      39.816  27.498  29.992  1.00  0.00     0.173 A 
ATOM     72  C   UNL A   1      41.432  28.996  29.038  1.00  0.00     0.173 A 
ATOM     73  F   UNL A   1      39.089  27.055  31.028  1.00  0.00    -0.203 F 
ATOM     74  C   UNL A   1      39.712  26.839  28.769  1.00  0.00     0.198 A 
ATOM     75  C   UNL A   1      41.303  28.355  27.808  1.00  0.00     0.198 A 
ATOM     76  F   UNL A   1      42.279  30.033  29.133  1.00  0.00    -0.203 F 
ATOM     77  F   UNL A   1      38.907  25.774  28.650  1.00  0.00    -0.200 F 
ATOM     78  C   UNL A   1      40.449  27.272  27.676  1.00  0.00     0.200 A 
ATOM     79  F   UNL A   1      42.005  28.786  26.752  1.00  0.00    -0.200 F 
ATOM     80  F   UNL A   1      40.340  26.641  26.498  1.00  0.00    -0.200 F 
ENDBRANCH  56  70
BRANCH  57  81
ATOM     81  C   UNL A   1      41.178  33.810  38.726  1.00  0.00     0.064 A 
ATOM     82  C   UNL A   1      40.324  33.458  39.778  1.00  0.00     0.173 A 
ATOM     83  C   UNL A   1      42.058  34.887  38.936  1.00  0.00     0.173 A 
ATOM     84  F   UNL A   1      39.456  32.447  39.625  1.00  0.00    -0.203 F 
ATOM     85  C   UNL A   1      40.325  34.170  40.976  1.00  0.00     0.198 A 
ATOM     86  C   UNL A   1      42.089  35.568  40.149  1.00  0.00     0.198 A 
ATOM     87  F   UNL A   1      42.907  35.262  37.968  1.00  0.00    -0.203 F 
ATOM     88  F   UNL A   1      39.453  33.851  41.942  1.00  0.00    -0.200 F 
ATOM     89  C   UNL A   1      41.213  35.219  41.164  1.00  0.00     0.200 A 
ATOM     90  F   UNL A   1      42.970  36.562  40.334  1.00  0.00    -0.200 F 
ATOM     91  F   UNL A   1      41.216  35.900  42.317  1.00  0.00    -0.200 F 
ENDBRANCH  57  81
BRANCH  69  92
ATOM     92  C   UNL A   1      44.790  28.479  36.095  1.00  0.00     0.064 A 
ATOM     93  C   UNL A   1      44.621  27.327  36.878  1.00  0.00     0.173 A 
ATOM     94  C   UNL A   1      46.098  28.893  35.804  1.00  0.00     0.173 A 
ATOM     95  F   UNL A   1      43.389  26.906  37.204  1.00  0.00    -0.203 F 
ATOM     96  C   UNL A   1      45.721  26.638  37.378  1.00  0.00     0.198 A 
ATOM     97  C   UNL A   1      47.195  28.179  36.273  1.00  0.00     0.198 A 
ATOM     98  F   UNL A   1      46.311  29.989  35.059  1.00  0.00    -0.203 F 
ATOM     99  F   UNL A   1      45.537  25.578  38.177  1.00  0.00    -0.200 F 
ATOM    100  C   UNL A   1      47.006  27.058  37.067  1.00  0.00     0.200 A 
ATOM    101  F   UNL A   1      48.434  28.578  35.959  1.00  0.00    -0.200 F 
ATOM    102  F   UNL A   1      48.064  26.389  37.544  1.00  0.00    -0.200 F 
ENDBRANCH  69  92
ENDBRANCH  43  44
ENDBRANCH  36  38
ENDBRANCH  35  36
ENDBRANCH  34  35
ENDBRANCH  33  34
ENDBRANCH   1  33
TORSDOF 17
ENDMDL
MODEL 3
REMARK VINA RESULT:     -11.4      5.428     10.343
REMARK SMILES O=C(NC(=S)Nc1ccc(Cl)c(C(=O)OCCOC(=O)c2ccc(-c3c4nc(c(-c5c(F)c(F)c(F)c(F)c5F)c5ccc([nH]5)c(-c5c(F)c(F)c(F)c(F)c5F)c5nc(c(-c6c(F)c(F)c(F)c(F)c6F)c6ccc3[nH]6)C=C5)C=C4)cc2)c1)c1ccc(N2CCCC2)c([N+](=O)[O-])c1
REMARK SMILES IDX 15 1 13 2 14 3 12 4 7 5 8 6 84 7 9 8 10 9 11 10 6 11 4 13
REMARK SMILES IDX 5 14 3 15 1 16 2 17 85 19 86 20 98 21 87 22 94 23 88 24
REMARK SMILES IDX 95 25 96 26 97 27 89 28 90 29 93 30 91 31 92 32 16 33 17 34
REMARK SMILES IDX 18 35 19 36 20 37 21 38 22 39 83 40 23 41 82 42 24 43 25 44
REMARK SMILES IDX 26 45 76 46 27 47 81 48 75 49 77 50 28 51 80 52 74 53 73 54
REMARK SMILES IDX 29 56 61 57 41 58 60 59 42 60 45 61 59 62 78 63 43 64 44 65
REMARK SMILES IDX 58 67 79 68 46 69 30 70 31 71 39 72 32 73 33 74 37 75 40 76
REMARK SMILES IDX 34 77 35 78 38 79 36 80 62 81 63 82 71 83 64 84 65 85 69 86
REMARK SMILES IDX 72 87 66 88 67 89 70 90 68 91 47 92 48 93 56 94 49 95 50 96
REMARK SMILES IDX 54 97 57 98 51 99 52 100 55 101 53 102
REMARK H PARENT 6 12 3 18 77 55 45 66
REMARK Flexibility Score: inf
ROOT
ATOM      1  O   UNL A   1      36.257  19.804  24.617  1.00  0.00    -0.458 OA
ENDROOT
BRANCH   1   2
ATOM      2  C   UNL A   1      35.350  20.462  25.384  1.00  0.00     0.339 C 
ATOM      3  O   UNL A   1      35.564  21.168  26.351  1.00  0.00    -0.246 OA
BRANCH   2   4
ATOM      4  C   UNL A   1      34.052  20.375  24.683  1.00  0.00     0.080 A 
ATOM      5  C   UNL A   1      32.368  21.895  22.522  1.00  0.00     0.041 A 
ATOM      6  C   UNL A   1      31.817  20.332  21.863  1.00  0.00     0.028 A 
ATOM      7  C   UNL A   1      33.486  21.877  23.893  1.00  0.00     0.043 A 
ATOM      8  C   UNL A   1      32.355  18.642  22.840  1.00  0.00     0.023 A 
ATOM      9  C   UNL A   1      33.486  18.780  24.222  1.00  0.00     0.055 A 
ATOM     10  Cl  UNL A   1      34.020  17.349  25.004  1.00  0.00    -0.083 Cl
BRANCH   5  11
ATOM     11  N   UNL A   1      31.446  22.946  22.506  1.00  0.00    -0.332 N 
ATOM     12  H   UNL A   1      30.783  22.914  21.779  1.00  0.00     0.169 HD
BRANCH  11  13
ATOM     13  C   UNL A   1      31.330  24.004  23.348  1.00  0.00     0.177 C 
ATOM     14  S   UNL A   1      31.649  25.518  22.691  1.00  0.00    -0.040 S 
BRANCH  13  15
ATOM     15  N   UNL A   1      31.079  23.969  24.717  1.00  0.00    -0.299 N 
ATOM     16  O   UNL A   1      30.585  24.063  26.970  1.00  0.00    -0.269 OA
ATOM     17  C   UNL A   1      30.528  24.604  25.871  1.00  0.00     0.257 C 
ATOM     18  H   UNL A   1      31.453  23.116  25.035  1.00  0.00     0.172 HD
BRANCH  17  19
ATOM     19  C   UNL A   1      29.967  25.956  25.785  1.00  0.00     0.047 A 
ATOM     20  C   UNL A   1      28.550  26.076  24.717  1.00  0.00     0.016 A 
ATOM     21  C   UNL A   1      31.132  27.285  25.785  1.00  0.00     0.101 A 
ATOM     22  C   UNL A   1      28.445  27.643  23.437  1.00  0.00     0.034 A 
ATOM     23  C   UNL A   1      30.988  28.722  24.719  1.00  0.00     0.293 A 
ATOM     24  C   UNL A   1      29.690  28.946  23.538  1.00  0.00     0.116 A 
BRANCH  23  25
ATOM     25  N   UNL A   1      31.821  29.846  25.134  1.00  0.00     0.065 N 
ATOM     26  O   UNL A   1      33.003  29.889  24.789  1.00  0.00    -0.258 OA
ATOM     27  O   UNL A   1      31.263  30.718  25.812  1.00  0.00    -0.258 OA
ENDBRANCH  23  25
BRANCH  24  28
ATOM     28  N   UNL A   1      29.369  30.161  22.952  1.00  0.00    -0.366 N 
ATOM     29  C   UNL A   1      29.075  30.387  21.545  1.00  0.00     0.117 C 
ATOM     30  C   UNL A   1      28.630  31.145  23.731  1.00  0.00     0.117 C 
ATOM     31  C   UNL A   1      29.023  31.917  21.484  1.00  0.00     0.023 C 
ATOM     32  C   UNL A   1      28.391  32.329  22.806  1.00  0.00     0.023 C 
ENDBRANCH  24  28
ENDBRANCH  17  19
ENDBRANCH  13  15
ENDBRANCH  11  13
ENDBRANCH   5  11
ENDBRANCH   2   4
ENDBRANCH   1   2
BRANCH   1  33
ATOM     33  C   UNL A   1      37.579  19.548  25.141  1.00  0.00     0.275 C 
BRANCH  33  34
ATOM     34  C   UNL A   1      38.504  20.766  25.020  1.00  0.00     0.275 C 
BRANCH  34  35
ATOM     35  O   UNL A   1      38.642  21.435  26.294  1.00  0.00    -0.458 OA
BRANCH  35  36
ATOM     36  C   UNL A   1      39.908  21.421  26.747  1.00  0.00     0.338 C 
ATOM     37  O   UNL A   1      40.591  20.438  26.971  1.00  0.00    -0.246 OA
BRANCH  36  38
ATOM     38  C   UNL A   1      40.575  22.710  26.821  1.00  0.00     0.060 A 
ATOM     39  C   UNL A   1      41.459  22.827  27.880  1.00  0.00     0.016 A 
ATOM     40  C   UNL A   1      40.010  23.843  26.245  1.00  0.00     0.016 A 
ATOM     41  C   UNL A   1      41.699  24.067  28.445  1.00  0.00     0.010 A 
ATOM     42  C   UNL A   1      40.421  25.108  26.684  1.00  0.00     0.010 A 
ATOM     43  C   UNL A   1      41.288  25.227  27.783  1.00  0.00    -0.014 A 
BRANCH  43  44
ATOM     44  C   UNL A   1      41.907  26.518  28.180  1.00  0.00     0.031 A 
ATOM     45  C   UNL A   1      41.147  27.555  28.952  1.00  0.00     0.074 A 
ATOM     46  C   UNL A   1      43.189  26.741  27.814  1.00  0.00     0.049 A 
ATOM     47  N   UNL A   1      41.461  28.806  29.170  1.00  0.00    -0.248 NA
ATOM     48  C   UNL A   1      39.866  27.144  29.547  1.00  0.00     0.031 C 
ATOM     49  C   UNL A   1      44.047  25.785  27.097  1.00  0.00     0.029 A 
ATOM     50  N   UNL A   1      44.009  27.825  27.993  1.00  0.00    -0.354 N 
ATOM     51  C   UNL A   1      40.398  29.349  29.879  1.00  0.00     0.074 A 
ATOM     52  C   UNL A   1      39.429  28.288  30.061  1.00  0.00     0.031 C 
ATOM     53  C   UNL A   1      45.276  26.289  26.967  1.00  0.00     0.029 A 
ATOM     54  C   UNL A   1      45.253  27.664  27.427  1.00  0.00     0.049 A 
ATOM     55  H   UNL A   1      43.736  28.637  28.479  1.00  0.00     0.167 HD
ATOM     56  C   UNL A   1      40.256  30.623  30.318  1.00  0.00     0.037 A 
ATOM     57  C   UNL A   1      46.243  28.546  27.209  1.00  0.00     0.037 A 
ATOM     58  C   UNL A   1      41.255  31.649  30.138  1.00  0.00     0.049 A 
ATOM     59  C   UNL A   1      46.017  29.964  27.630  1.00  0.00     0.074 A 
ATOM     60  C   UNL A   1      41.214  32.976  30.527  1.00  0.00     0.029 A 
ATOM     61  N   UNL A   1      42.485  31.455  29.519  1.00  0.00    -0.354 N 
ATOM     62  N   UNL A   1      44.982  30.488  28.238  1.00  0.00    -0.248 NA
ATOM     63  C   UNL A   1      47.084  30.919  27.314  1.00  0.00     0.031 C 
ATOM     64  C   UNL A   1      42.393  33.595  30.098  1.00  0.00     0.029 A 
ATOM     65  C   UNL A   1      43.200  32.641  29.501  1.00  0.00     0.049 A 
ATOM     66  H   UNL A   1      42.800  30.598  29.149  1.00  0.00     0.167 HD
ATOM     67  C   UNL A   1      45.280  31.829  28.404  1.00  0.00     0.074 A 
ATOM     68  C   UNL A   1      46.605  32.031  27.850  1.00  0.00     0.031 C 
ATOM     69  C   UNL A   1      44.524  32.808  28.956  1.00  0.00     0.037 A 
BRANCH  56  70
ATOM     70  C   UNL A   1      38.964  30.999  30.990  1.00  0.00     0.064 A 
ATOM     71  C   UNL A   1      38.795  30.926  32.380  1.00  0.00     0.173 A 
ATOM     72  C   UNL A   1      37.888  31.488  30.229  1.00  0.00     0.173 A 
ATOM     73  F   UNL A   1      39.783  30.457  33.156  1.00  0.00    -0.203 F 
ATOM     74  C   UNL A   1      37.595  31.305  32.979  1.00  0.00     0.198 A 
ATOM     75  C   UNL A   1      36.702  31.895  30.833  1.00  0.00     0.198 A 
ATOM     76  F   UNL A   1      37.993  31.585  28.894  1.00  0.00    -0.203 F 
ATOM     77  F   UNL A   1      37.442  31.183  34.305  1.00  0.00    -0.200 F 
ATOM     78  C   UNL A   1      36.552  31.797  32.207  1.00  0.00     0.200 A 
ATOM     79  F   UNL A   1      35.703  32.383  30.085  1.00  0.00    -0.200 F 
ATOM     80  F   UNL A   1      35.403  32.168  32.787  1.00  0.00    -0.200 F 
ENDBRANCH  56  70
BRANCH  57  81
ATOM     81  C   UNL A   1      47.480  28.130  26.493  1.00  0.00     0.064 A 
ATOM     82  C   UNL A   1      47.495  28.003  25.099  1.00  0.00     0.173 A 
ATOM     83  C   UNL A   1      48.671  27.845  27.184  1.00  0.00     0.173 A 
ATOM     84  F   UNL A   1      46.381  28.249  24.393  1.00  0.00    -0.203 F 
ATOM     85  C   UNL A   1      48.639  27.578  24.426  1.00  0.00     0.198 A 
ATOM     86  C   UNL A   1      49.826  27.465  26.506  1.00  0.00     0.198 A 
ATOM     87  F   UNL A   1      48.720  27.961  28.519  1.00  0.00    -0.203 F 
ATOM     88  F   UNL A   1      48.605  27.404  23.098  1.00  0.00    -0.200 F 
ATOM     89  C   UNL A   1      49.806  27.317  25.129  1.00  0.00     0.200 A 
ATOM     90  F   UNL A   1      50.958  27.243  27.189  1.00  0.00    -0.200 F 
ATOM     91  F   UNL A   1      50.906  26.913  24.481  1.00  0.00    -0.200 F 
ENDBRANCH  57  81
BRANCH  69  92
ATOM     92  C   UNL A   1      45.150  34.168  29.041  1.00  0.00     0.064 A 
ATOM     93  C   UNL A   1      45.937  34.555  30.136  1.00  0.00     0.173 A 
ATOM     94  C   UNL A   1      44.965  35.094  28.003  1.00  0.00     0.173 A 
ATOM     95  F   UNL A   1      46.123  33.714  31.165  1.00  0.00    -0.203 F 
ATOM     96  C   UNL A   1      46.488  35.831  30.203  1.00  0.00     0.198 A 
ATOM     97  C   UNL A   1      45.549  36.354  28.055  1.00  0.00     0.198 A 
ATOM     98  F   UNL A   1      44.220  34.770  26.934  1.00  0.00    -0.203 F 
ATOM     99  F   UNL A   1      47.181  36.202  31.288  1.00  0.00    -0.200 F 
ATOM    100  C   UNL A   1      46.301  36.725  29.159  1.00  0.00     0.200 A 
ATOM    101  F   UNL A   1      45.379  37.211  27.040  1.00  0.00    -0.200 F 
ATOM    102  F   UNL A   1      46.837  37.952  29.223  1.00  0.00    -0.200 F 
ENDBRANCH  69  92
ENDBRANCH  43  44
ENDBRANCH  36  38
ENDBRANCH  35  36
ENDBRANCH  34  35
ENDBRANCH  33  34
ENDBRANCH   1  33
TORSDOF 17
ENDMDL
