MODEL 1
REMARK VINA RESULT:     -12.8      0.000      0.000
REMARK SMILES CSc1ccc(C=C2C(C)=C(CC(=O)OCCOC(=O)c3ccc(-c4c5nc(c(-c6c(F)c(F)c(F)c(F)c6F)c6ccc([nH]6)c(-c6c(F)c(F)c(F)c(F)c6F)c6nc(c(-c7c(F)c(F)c(F)c(F)c7F)c7ccc4[nH]7)C=C6)C=C5)cc3)c3cc(F)ccc32)cc1
REMARK SMILES IDX 16 1 15 2 13 3 14 4 12 5 11 6 7 7 8 8 9 9 90 10 10 11 84 12
REMARK SMILES IDX 89 13 85 14 88 15 86 16 87 17 6 18 3 19 4 20 92 21 5 22
REMARK SMILES IDX 91 23 2 24 1 25 17 26 18 27 19 28 20 29 21 30 22 31 83 32
REMARK SMILES IDX 23 33 82 34 24 35 25 36 26 37 76 38 27 39 81 40 75 41 77 42
REMARK SMILES IDX 28 43 80 44 74 45 73 46 29 48 61 49 41 50 60 51 42 52 45 53
REMARK SMILES IDX 59 54 78 55 43 56 44 57 58 59 79 60 46 61 30 62 31 63 39 64
REMARK SMILES IDX 32 65 33 66 37 67 40 68 34 69 35 70 38 71 36 72 62 73 63 74
REMARK SMILES IDX 71 75 64 76 65 77 69 78 72 79 66 80 67 81 70 82 68 83 47 84
REMARK SMILES IDX 48 85 56 86 49 87 50 88 54 89 57 90 51 91 52 92 55 93 53 94
REMARK H PARENT 77 47 45 58
REMARK Flexibility Score: inf
ROOT
ATOM      1  C   UNL A   1      32.185  30.960  26.851  1.00  0.00     0.274 C 
ENDROOT
BRANCH   1   2
ATOM      2  O   UNL A   1      32.741  29.808  27.525  1.00  0.00    -0.462 OA
BRANCH   2   3
ATOM      3  C   UNL A   1      33.997  29.415  27.169  1.00  0.00     0.310 C 
ATOM      4  O   UNL A   1      34.996  29.529  27.878  1.00  0.00    -0.252 OA
BRANCH   3   5
ATOM      5  C   UNL A   1      33.993  28.657  25.832  1.00  0.00     0.159 C 
BRANCH   5   6
ATOM      6  C   UNL A   1      32.883  27.538  25.626  1.00  0.00    -0.025 C 
ATOM      7  C   UNL A   1      31.951  28.890  23.071  1.00  0.00     0.017 C 
ATOM      8  C   UNL A   1      32.770  27.784  23.378  1.00  0.00    -0.014 C 
ATOM      9  C   UNL A   1      31.985  27.433  24.602  1.00  0.00    -0.039 C 
ATOM     10  C   UNL A   1      33.669  26.436  23.781  1.00  0.00    -0.010 A 
ATOM     11  C   UNL A   1      31.074  26.221  24.052  1.00  0.00     0.045 C 
ATOM     12  C   UNL A   1      33.533  26.326  25.196  1.00  0.00    -0.011 A 
ATOM     13  C   UNL A   1      33.871  25.174  23.185  1.00  0.00     0.012 A 
ATOM     14  C   UNL A   1      33.556  25.173  25.991  1.00  0.00     0.048 A 
ATOM     15  C   UNL A   1      34.035  23.982  24.003  1.00  0.00     0.040 A 
ATOM     16  C   UNL A   1      33.923  24.007  25.396  1.00  0.00     0.123 A 
ATOM     17  F   UNL A   1      34.062  22.906  26.147  1.00  0.00    -0.207 F 
BRANCH   7  18
ATOM     18  C   UNL A   1      30.386  29.242  23.301  1.00  0.00    -0.025 A 
ATOM     19  C   UNL A   1      28.640  31.245  22.438  1.00  0.00     0.007 A 
ATOM     20  C   UNL A   1      28.755  30.063  21.745  1.00  0.00     0.015 A 
ATOM     21  C   UNL A   1      29.072  31.232  23.761  1.00  0.00     0.015 A 
ATOM     22  C   UNL A   1      29.392  28.980  22.358  1.00  0.00     0.009 A 
ATOM     23  C   UNL A   1      29.988  30.241  24.189  1.00  0.00     0.009 A 
BRANCH  19  24
ATOM     24  S   UNL A   1      28.044  32.715  21.645  1.00  0.00    -0.130 SA
ATOM     25  C   UNL A   1      27.962  32.120  19.944  1.00  0.00     0.091 C 
ENDBRANCH  19  24
ENDBRANCH   7  18
ENDBRANCH   5   6
ENDBRANCH   3   5
ENDBRANCH   2   3
ENDBRANCH   1   2
BRANCH   1  26
ATOM     26  C   UNL A   1      33.023  32.253  27.060  1.00  0.00     0.275 C 
BRANCH  26  27
ATOM     27  O   UNL A   1      32.295  33.450  27.476  1.00  0.00    -0.458 OA
BRANCH  27  28
ATOM     28  C   UNL A   1      33.005  34.196  28.334  1.00  0.00     0.338 C 
ATOM     29  O   UNL A   1      32.666  35.301  28.687  1.00  0.00    -0.246 OA
BRANCH  28  30
ATOM     30  C   UNL A   1      34.254  33.786  28.932  1.00  0.00     0.060 A 
ATOM     31  C   UNL A   1      34.132  32.916  30.036  1.00  0.00     0.016 A 
ATOM     32  C   UNL A   1      35.441  34.449  28.668  1.00  0.00     0.016 A 
ATOM     33  C   UNL A   1      35.224  32.636  30.830  1.00  0.00     0.010 A 
ATOM     34  C   UNL A   1      36.562  34.089  29.405  1.00  0.00     0.010 A 
ATOM     35  C   UNL A   1      36.464  33.143  30.446  1.00  0.00    -0.014 A 
BRANCH  35  36
ATOM     36  C   UNL A   1      37.687  32.581  31.040  1.00  0.00     0.031 A 
ATOM     37  C   UNL A   1      38.406  31.467  30.369  1.00  0.00     0.074 A 
ATOM     38  C   UNL A   1      38.068  33.032  32.250  1.00  0.00     0.049 A 
ATOM     39  N   UNL A   1      39.384  30.738  30.833  1.00  0.00    -0.248 NA
ATOM     40  C   UNL A   1      37.954  31.109  29.018  1.00  0.00     0.031 C 
ATOM     41  C   UNL A   1      37.427  34.125  32.985  1.00  0.00     0.029 A 
ATOM     42  N   UNL A   1      39.070  32.615  33.088  1.00  0.00    -0.354 N 
ATOM     43  C   UNL A   1      39.661  29.822  29.836  1.00  0.00     0.074 A 
ATOM     44  C   UNL A   1      38.711  30.051  28.767  1.00  0.00     0.031 C 
ATOM     45  C   UNL A   1      38.058  34.303  34.152  1.00  0.00     0.029 A 
ATOM     46  C   UNL A   1      39.090  33.286  34.286  1.00  0.00     0.049 A 
ATOM     47  H   UNL A   1      39.712  31.905  32.854  1.00  0.00     0.167 HD
ATOM     48  C   UNL A   1      40.636  28.886  29.824  1.00  0.00     0.037 A 
ATOM     49  C   UNL A   1      39.824  33.076  35.393  1.00  0.00     0.037 A 
ATOM     50  C   UNL A   1      41.543  28.660  30.915  1.00  0.00     0.049 A 
ATOM     51  C   UNL A   1      40.825  31.958  35.391  1.00  0.00     0.074 A 
ATOM     52  C   UNL A   1      42.573  27.742  30.992  1.00  0.00     0.029 A 
ATOM     53  N   UNL A   1      41.515  29.336  32.128  1.00  0.00    -0.354 N 
ATOM     54  N   UNL A   1      41.107  31.111  34.432  1.00  0.00    -0.248 NA
ATOM     55  C   UNL A   1      41.609  31.760  36.617  1.00  0.00     0.031 C 
ATOM     56  C   UNL A   1      43.099  27.787  32.282  1.00  0.00     0.029 A 
ATOM     57  C   UNL A   1      42.481  28.817  32.973  1.00  0.00     0.049 A 
ATOM     58  H   UNL A   1      40.901  30.073  32.352  1.00  0.00     0.167 HD
ATOM     59  C   UNL A   1      42.126  30.308  34.922  1.00  0.00     0.074 A 
ATOM     60  C   UNL A   1      42.415  30.771  36.261  1.00  0.00     0.031 C 
ATOM     61  C   UNL A   1      42.767  29.288  34.304  1.00  0.00     0.037 A 
BRANCH  48  62
ATOM     62  C   UNL A   1      40.728  28.009  28.616  1.00  0.00     0.064 A 
ATOM     63  C   UNL A   1      41.499  28.368  27.501  1.00  0.00     0.173 A 
ATOM     64  C   UNL A   1      40.034  26.791  28.571  1.00  0.00     0.173 A 
ATOM     65  F   UNL A   1      42.193  29.517  27.497  1.00  0.00    -0.203 F 
ATOM     66  C   UNL A   1      41.508  27.578  26.357  1.00  0.00     0.198 A 
ATOM     67  C   UNL A   1      40.100  25.971  27.451  1.00  0.00     0.198 A 
ATOM     68  F   UNL A   1      39.295  26.389  29.617  1.00  0.00    -0.203 F 
ATOM     69  F   UNL A   1      42.161  27.997  25.264  1.00  0.00    -0.200 F 
ATOM     70  C   UNL A   1      40.816  26.378  26.336  1.00  0.00     0.200 A 
ATOM     71  F   UNL A   1      39.460  24.794  27.448  1.00  0.00    -0.200 F 
ATOM     72  F   UNL A   1      40.830  25.615  25.235  1.00  0.00    -0.200 F 
ENDBRANCH  48  62
BRANCH  49  73
ATOM     73  C   UNL A   1      39.608  33.913  36.600  1.00  0.00     0.064 A 
ATOM     74  C   UNL A   1      40.210  35.172  36.727  1.00  0.00     0.173 A 
ATOM     75  C   UNL A   1      38.810  33.462  37.661  1.00  0.00     0.173 A 
ATOM     76  F   UNL A   1      40.989  35.646  35.742  1.00  0.00    -0.203 F 
ATOM     77  C   UNL A   1      40.058  35.925  37.888  1.00  0.00     0.198 A 
ATOM     78  C   UNL A   1      38.613  34.240  38.797  1.00  0.00     0.198 A 
ATOM     79  F   UNL A   1      38.206  32.266  37.590  1.00  0.00    -0.203 F 
ATOM     80  F   UNL A   1      40.718  37.084  38.021  1.00  0.00    -0.200 F 
ATOM     81  C   UNL A   1      39.252  35.464  38.918  1.00  0.00     0.200 A 
ATOM     82  F   UNL A   1      37.812  33.800  39.777  1.00  0.00    -0.200 F 
ATOM     83  F   UNL A   1      39.101  36.192  40.032  1.00  0.00    -0.200 F 
ENDBRANCH  49  73
BRANCH  61  84
ATOM     84  C   UNL A   1      43.903  28.633  35.033  1.00  0.00     0.064 A 
ATOM     85  C   UNL A   1      45.216  29.117  34.963  1.00  0.00     0.173 A 
ATOM     86  C   UNL A   1      43.649  27.540  35.879  1.00  0.00     0.173 A 
ATOM     87  F   UNL A   1      45.512  30.162  34.178  1.00  0.00    -0.203 F 
ATOM     88  C   UNL A   1      46.240  28.504  35.681  1.00  0.00     0.198 A 
ATOM     89  C   UNL A   1      44.661  26.971  36.641  1.00  0.00     0.198 A 
ATOM     90  F   UNL A   1      42.405  27.048  35.997  1.00  0.00    -0.203 F 
ATOM     91  F   UNL A   1      47.501  28.936  35.543  1.00  0.00    -0.200 F 
ATOM     92  C   UNL A   1      45.959  27.443  36.529  1.00  0.00     0.200 A 
ATOM     93  F   UNL A   1      44.378  25.973  37.489  1.00  0.00    -0.200 F 
ATOM     94  F   UNL A   1      46.942  26.873  37.239  1.00  0.00    -0.200 F 
ENDBRANCH  61  84
ENDBRANCH  35  36
ENDBRANCH  28  30
ENDBRANCH  27  28
ENDBRANCH  26  27
ENDBRANCH   1  26
TORSDOF 14
ENDMDL
MODEL 2
REMARK VINA RESULT:     -12.7      2.134      4.051
REMARK SMILES CSc1ccc(C=C2C(C)=C(CC(=O)OCCOC(=O)c3ccc(-c4c5nc(c(-c6c(F)c(F)c(F)c(F)c6F)c6ccc([nH]6)c(-c6c(F)c(F)c(F)c(F)c6F)c6nc(c(-c7c(F)c(F)c(F)c(F)c7F)c7ccc4[nH]7)C=C6)C=C5)cc3)c3cc(F)ccc32)cc1
REMARK SMILES IDX 16 1 15 2 13 3 14 4 12 5 11 6 7 7 8 8 9 9 90 10 10 11 84 12
REMARK SMILES IDX 89 13 85 14 88 15 86 16 87 17 6 18 3 19 4 20 92 21 5 22
REMARK SMILES IDX 91 23 2 24 1 25 17 26 18 27 19 28 20 29 21 30 22 31 83 32
REMARK SMILES IDX 23 33 82 34 24 35 25 36 26 37 76 38 27 39 81 40 75 41 77 42
REMARK SMILES IDX 28 43 80 44 74 45 73 46 29 48 61 49 41 50 60 51 42 52 45 53
REMARK SMILES IDX 59 54 78 55 43 56 44 57 58 59 79 60 46 61 30 62 31 63 39 64
REMARK SMILES IDX 32 65 33 66 37 67 40 68 34 69 35 70 38 71 36 72 62 73 63 74
REMARK SMILES IDX 71 75 64 76 65 77 69 78 72 79 66 80 67 81 70 82 68 83 47 84
REMARK SMILES IDX 48 85 56 86 49 87 50 88 54 89 57 90 51 91 52 92 55 93 53 94
REMARK H PARENT 77 47 45 58
REMARK Flexibility Score: inf
ROOT
ATOM      1  C   UNL A   1      31.784  30.773  26.575  1.00  0.00     0.274 C 
ENDROOT
BRANCH   1   2
ATOM      2  O   UNL A   1      31.864  29.554  27.346  1.00  0.00    -0.462 OA
BRANCH   2   3
ATOM      3  C   UNL A   1      32.734  28.594  26.922  1.00  0.00     0.310 C 
ATOM      4  O   UNL A   1      33.948  28.610  27.123  1.00  0.00    -0.252 OA
BRANCH   3   5
ATOM      5  C   UNL A   1      31.997  27.397  26.301  1.00  0.00     0.159 C 
BRANCH   5   6
ATOM      6  C   UNL A   1      31.959  27.302  24.715  1.00  0.00    -0.025 C 
ATOM      7  C   UNL A   1      31.223  24.361  24.877  1.00  0.00     0.017 C 
ATOM      8  C   UNL A   1      30.515  25.559  24.656  1.00  0.00    -0.014 C 
ATOM      9  C   UNL A   1      31.663  26.209  23.951  1.00  0.00    -0.039 C 
ATOM     10  C   UNL A   1      29.726  26.992  24.321  1.00  0.00    -0.010 A 
ATOM     11  C   UNL A   1      31.229  26.023  22.410  1.00  0.00     0.045 C 
ATOM     12  C   UNL A   1      30.767  27.964  24.249  1.00  0.00    -0.011 A 
ATOM     13  C   UNL A   1      28.635  27.347  23.501  1.00  0.00     0.012 A 
ATOM     14  C   UNL A   1      30.818  29.137  23.484  1.00  0.00     0.048 A 
ATOM     15  C   UNL A   1      28.610  28.625  22.806  1.00  0.00     0.040 A 
ATOM     16  C   UNL A   1      29.681  29.522  22.847  1.00  0.00     0.123 A 
ATOM     17  F   UNL A   1      29.662  30.693  22.196  1.00  0.00    -0.207 F 
BRANCH   7  18
ATOM     18  C   UNL A   1      32.388  23.567  24.079  1.00  0.00    -0.025 A 
ATOM     19  C   UNL A   1      33.564  21.039  24.252  1.00  0.00     0.007 A 
ATOM     20  C   UNL A   1      32.496  21.264  23.415  1.00  0.00     0.015 A 
ATOM     21  C   UNL A   1      34.282  22.160  24.656  1.00  0.00     0.015 A 
ATOM     22  C   UNL A   1      32.133  22.582  23.124  1.00  0.00     0.009 A 
ATOM     23  C   UNL A   1      33.673  23.438  24.606  1.00  0.00     0.009 A 
BRANCH  19  24
ATOM     24  S   UNL A   1      33.941  19.407  24.834  1.00  0.00    -0.130 SA
ATOM     25  C   UNL A   1      32.545  18.511  24.124  1.00  0.00     0.091 C 
ENDBRANCH  19  24
ENDBRANCH   7  18
ENDBRANCH   5   6
ENDBRANCH   3   5
ENDBRANCH   2   3
ENDBRANCH   1   2
BRANCH   1  26
ATOM     26  C   UNL A   1      32.746  31.883  27.087  1.00  0.00     0.275 C 
BRANCH  26  27
ATOM     27  O   UNL A   1      32.183  33.224  27.238  1.00  0.00    -0.458 OA
BRANCH  27  28
ATOM     28  C   UNL A   1      32.901  33.976  28.083  1.00  0.00     0.338 C 
ATOM     29  O   UNL A   1      32.570  35.088  28.424  1.00  0.00    -0.246 OA
BRANCH  28  30
ATOM     30  C   UNL A   1      34.151  33.567  28.681  1.00  0.00     0.060 A 
ATOM     31  C   UNL A   1      34.028  32.730  29.811  1.00  0.00     0.016 A 
ATOM     32  C   UNL A   1      35.343  34.206  28.387  1.00  0.00     0.016 A 
ATOM     33  C   UNL A   1      35.124  32.458  30.602  1.00  0.00     0.010 A 
ATOM     34  C   UNL A   1      36.467  33.853  29.124  1.00  0.00     0.010 A 
ATOM     35  C   UNL A   1      36.366  32.937  30.192  1.00  0.00    -0.014 A 
BRANCH  35  36
ATOM     36  C   UNL A   1      37.588  32.376  30.791  1.00  0.00     0.031 A 
ATOM     37  C   UNL A   1      38.320  31.275  30.113  1.00  0.00     0.074 A 
ATOM     38  C   UNL A   1      37.956  32.815  32.009  1.00  0.00     0.049 A 
ATOM     39  N   UNL A   1      39.298  30.547  30.577  1.00  0.00    -0.248 NA
ATOM     40  C   UNL A   1      37.882  30.929  28.754  1.00  0.00     0.031 C 
ATOM     41  C   UNL A   1      37.301  33.897  32.750  1.00  0.00     0.029 A 
ATOM     42  N   UNL A   1      38.953  32.395  32.851  1.00  0.00    -0.354 N 
ATOM     43  C   UNL A   1      39.590  29.644  29.572  1.00  0.00     0.074 A 
ATOM     44  C   UNL A   1      38.647  29.879  28.497  1.00  0.00     0.031 C 
ATOM     45  C   UNL A   1      37.921  34.065  33.925  1.00  0.00     0.029 A 
ATOM     46  C   UNL A   1      38.958  33.053  34.056  1.00  0.00     0.049 A 
ATOM     47  H   UNL A   1      39.601  31.692  32.614  1.00  0.00     0.167 HD
ATOM     48  C   UNL A   1      40.570  28.714  29.558  1.00  0.00     0.037 A 
ATOM     49  C   UNL A   1      39.684  32.834  35.167  1.00  0.00     0.037 A 
ATOM     50  C   UNL A   1      41.469  28.481  30.655  1.00  0.00     0.049 A 
ATOM     51  C   UNL A   1      40.692  31.722  35.161  1.00  0.00     0.074 A 
ATOM     52  C   UNL A   1      42.504  27.569  30.730  1.00  0.00     0.029 A 
ATOM     53  N   UNL A   1      41.426  29.143  31.875  1.00  0.00    -0.354 N 
ATOM     54  N   UNL A   1      40.988  30.888  34.195  1.00  0.00    -0.248 NA
ATOM     55  C   UNL A   1      41.466  31.515  36.391  1.00  0.00     0.031 C 
ATOM     56  C   UNL A   1      43.019  27.602  32.024  1.00  0.00     0.029 A 
ATOM     57  C   UNL A   1      42.388  28.620  32.722  1.00  0.00     0.049 A 
ATOM     58  H   UNL A   1      40.806  29.873  32.102  1.00  0.00     0.167 HD
ATOM     59  C   UNL A   1      42.007  30.086  34.684  1.00  0.00     0.074 A 
ATOM     60  C   UNL A   1      42.281  30.536  36.032  1.00  0.00     0.031 C 
ATOM     61  C   UNL A   1      42.660  29.078  34.061  1.00  0.00     0.037 A 
BRANCH  48  62
ATOM     62  C   UNL A   1      40.679  27.851  28.341  1.00  0.00     0.064 A 
ATOM     63  C   UNL A   1      40.032  26.610  28.256  1.00  0.00     0.173 A 
ATOM     64  C   UNL A   1      41.442  28.272  27.242  1.00  0.00     0.173 A 
ATOM     65  F   UNL A   1      39.279  26.166  29.275  1.00  0.00    -0.203 F 
ATOM     66  C   UNL A   1      40.211  25.788  27.149  1.00  0.00     0.198 A 
ATOM     67  C   UNL A   1      41.563  27.476  26.109  1.00  0.00     0.198 A 
ATOM     68  F   UNL A   1      42.068  29.459  27.261  1.00  0.00    -0.203 F 
ATOM     69  F   UNL A   1      39.675  24.559  27.139  1.00  0.00    -0.200 F 
ATOM     70  C   UNL A   1      40.968  26.225  26.074  1.00  0.00     0.200 A 
ATOM     71  F   UNL A   1      42.266  27.917  25.057  1.00  0.00    -0.200 F 
ATOM     72  F   UNL A   1      41.135  25.434  25.006  1.00  0.00    -0.200 F 
ENDBRANCH  48  62
BRANCH  49  73
ATOM     73  C   UNL A   1      39.452  33.657  36.381  1.00  0.00     0.064 A 
ATOM     74  C   UNL A   1      40.035  34.923  36.523  1.00  0.00     0.173 A 
ATOM     75  C   UNL A   1      38.657  33.183  37.436  1.00  0.00     0.173 A 
ATOM     76  F   UNL A   1      40.809  35.417  35.546  1.00  0.00    -0.203 F 
ATOM     77  C   UNL A   1      39.869  35.661  37.691  1.00  0.00     0.198 A 
ATOM     78  C   UNL A   1      38.446  33.947  38.579  1.00  0.00     0.198 A 
ATOM     79  F   UNL A   1      38.071  31.979  37.351  1.00  0.00    -0.203 F 
ATOM     80  F   UNL A   1      40.511  36.829  37.838  1.00  0.00    -0.200 F 
ATOM     81  C   UNL A   1      39.067  35.178  38.714  1.00  0.00     0.200 A 
ATOM     82  F   UNL A   1      37.649  33.485  39.552  1.00  0.00    -0.200 F 
ATOM     83  F   UNL A   1      38.902  35.893  39.835  1.00  0.00    -0.200 F 
ENDBRANCH  49  73
BRANCH  61  84
ATOM     84  C   UNL A   1      43.794  28.421  34.792  1.00  0.00     0.064 A 
ATOM     85  C   UNL A   1      43.613  27.281  35.587  1.00  0.00     0.173 A 
ATOM     86  C   UNL A   1      45.102  28.908  34.628  1.00  0.00     0.173 A 
ATOM     87  F   UNL A   1      42.387  26.771  35.769  1.00  0.00    -0.203 F 
ATOM     88  C   UNL A   1      44.694  26.679  36.224  1.00  0.00     0.198 A 
ATOM     89  C   UNL A   1      46.186  28.267  35.215  1.00  0.00     0.198 A 
ATOM     90  F   UNL A   1      45.334  29.986  33.863  1.00  0.00    -0.203 F 
ATOM     91  F   UNL A   1      44.490  25.634  37.037  1.00  0.00    -0.200 F 
ATOM     92  C   UNL A   1      45.979  27.162  36.025  1.00  0.00     0.200 A 
ATOM     93  F   UNL A   1      47.429  28.713  34.988  1.00  0.00    -0.200 F 
ATOM     94  F   UNL A   1      47.020  26.563  36.618  1.00  0.00    -0.200 F 
ENDBRANCH  61  84
ENDBRANCH  35  36
ENDBRANCH  28  30
ENDBRANCH  27  28
ENDBRANCH  26  27
ENDBRANCH   1  26
TORSDOF 14
ENDMDL
MODEL 3
REMARK VINA RESULT:     -12.7      5.994     10.956
REMARK SMILES CSc1ccc(C=C2C(C)=C(CC(=O)OCCOC(=O)c3ccc(-c4c5nc(c(-c6c(F)c(F)c(F)c(F)c6F)c6ccc([nH]6)c(-c6c(F)c(F)c(F)c(F)c6F)c6nc(c(-c7c(F)c(F)c(F)c(F)c7F)c7ccc4[nH]7)C=C6)C=C5)cc3)c3cc(F)ccc32)cc1
REMARK SMILES IDX 16 1 15 2 13 3 14 4 12 5 11 6 7 7 8 8 9 9 90 10 10 11 84 12
REMARK SMILES IDX 89 13 85 14 88 15 86 16 87 17 6 18 3 19 4 20 92 21 5 22
REMARK SMILES IDX 91 23 2 24 1 25 17 26 18 27 19 28 20 29 21 30 22 31 83 32
REMARK SMILES IDX 23 33 82 34 24 35 25 36 26 37 76 38 27 39 81 40 75 41 77 42
REMARK SMILES IDX 28 43 80 44 74 45 73 46 29 48 61 49 41 50 60 51 42 52 45 53
REMARK SMILES IDX 59 54 78 55 43 56 44 57 58 59 79 60 46 61 30 62 31 63 39 64
REMARK SMILES IDX 32 65 33 66 37 67 40 68 34 69 35 70 38 71 36 72 62 73 63 74
REMARK SMILES IDX 71 75 64 76 65 77 69 78 72 79 66 80 67 81 70 82 68 83 47 84
REMARK SMILES IDX 48 85 56 86 49 87 50 88 54 89 57 90 51 91 52 92 55 93 53 94
REMARK H PARENT 77 47 45 58
REMARK Flexibility Score: inf
ROOT
ATOM      1  C   UNL A   1      37.760  20.919  25.075  1.00  0.00     0.274 C 
ENDROOT
BRANCH   1   2
ATOM      2  O   UNL A   1      37.566  22.299  24.690  1.00  0.00    -0.462 OA
BRANCH   2   3
ATOM      3  C   UNL A   1      37.548  23.233  25.682  1.00  0.00     0.310 C 
ATOM      4  O   UNL A   1      38.523  23.889  26.047  1.00  0.00    -0.252 OA
BRANCH   3   5
ATOM      5  C   UNL A   1      36.120  23.494  26.188  1.00  0.00     0.159 C 
BRANCH   5   6
ATOM      6  C   UNL A   1      34.962  23.577  25.103  1.00  0.00    -0.025 C 
ATOM      7  C   UNL A   1      33.643  21.106  26.275  1.00  0.00     0.017 C 
ATOM      8  C   UNL A   1      33.427  22.495  26.368  1.00  0.00    -0.014 C 
ATOM      9  C   UNL A   1      33.884  22.748  24.967  1.00  0.00    -0.039 C 
ATOM     10  C   UNL A   1      33.157  24.143  26.390  1.00  0.00    -0.010 A 
ATOM     11  C   UNL A   1      32.474  22.887  24.198  1.00  0.00     0.045 C 
ATOM     12  C   UNL A   1      34.090  24.670  25.450  1.00  0.00    -0.011 A 
ATOM     13  C   UNL A   1      32.003  24.950  26.477  1.00  0.00     0.012 A 
ATOM     14  C   UNL A   1      33.974  25.813  24.648  1.00  0.00     0.048 A 
ATOM     15  C   UNL A   1      31.921  26.211  25.756  1.00  0.00     0.040 A 
ATOM     16  C   UNL A   1      32.928  26.647  24.890  1.00  0.00     0.123 A 
ATOM     17  F   UNL A   1      32.845  27.802  24.217  1.00  0.00    -0.207 F 
BRANCH   7  18
ATOM     18  C   UNL A   1      33.575  20.025  25.070  1.00  0.00    -0.025 A 
ATOM     19  C   UNL A   1      33.713  17.241  24.870  1.00  0.00     0.007 A 
ATOM     20  C   UNL A   1      32.501  17.881  24.992  1.00  0.00     0.015 A 
ATOM     21  C   UNL A   1      34.781  18.016  24.427  1.00  0.00     0.015 A 
ATOM     22  C   UNL A   1      32.443  19.262  24.783  1.00  0.00     0.009 A 
ATOM     23  C   UNL A   1      34.729  19.425  24.565  1.00  0.00     0.009 A 
BRANCH  19  24
ATOM     24  S   UNL A   1      33.899  15.540  25.333  1.00  0.00    -0.130 SA
ATOM     25  C   UNL A   1      32.167  15.117  25.604  1.00  0.00     0.091 C 
ENDBRANCH  19  24
ENDBRANCH   7  18
ENDBRANCH   5   6
ENDBRANCH   3   5
ENDBRANCH   2   3
ENDBRANCH   1   2
BRANCH   1  26
ATOM     26  C   UNL A   1      39.032  20.701  25.943  1.00  0.00     0.275 C 
BRANCH  26  27
ATOM     27  O   UNL A   1      39.879  19.562  25.595  1.00  0.00    -0.458 OA
BRANCH  27  28
ATOM     28  C   UNL A   1      41.152  19.753  25.967  1.00  0.00     0.338 C 
ATOM     29  O   UNL A   1      42.005  18.901  25.871  1.00  0.00    -0.246 OA
BRANCH  28  30
ATOM     30  C   UNL A   1      41.663  20.981  26.532  1.00  0.00     0.060 A 
ATOM     31  C   UNL A   1      42.076  21.946  25.590  1.00  0.00     0.016 A 
ATOM     32  C   UNL A   1      42.031  21.072  27.864  1.00  0.00     0.016 A 
ATOM     33  C   UNL A   1      42.787  23.057  25.993  1.00  0.00     0.010 A 
ATOM     34  C   UNL A   1      42.659  22.238  28.283  1.00  0.00     0.010 A 
ATOM     35  C   UNL A   1      42.984  23.252  27.358  1.00  0.00    -0.014 A 
BRANCH  35  36
ATOM     36  C   UNL A   1      43.404  24.576  27.843  1.00  0.00     0.031 A 
ATOM     37  C   UNL A   1      42.393  25.615  28.166  1.00  0.00     0.074 A 
ATOM     38  C   UNL A   1      44.722  24.847  27.883  1.00  0.00     0.049 A 
ATOM     39  N   UNL A   1      42.584  26.879  28.428  1.00  0.00    -0.248 NA
ATOM     40  C   UNL A   1      40.986  25.190  28.167  1.00  0.00     0.031 C 
ATOM     41  C   UNL A   1      45.791  23.888  27.589  1.00  0.00     0.029 A 
ATOM     42  N   UNL A   1      45.391  26.011  28.164  1.00  0.00    -0.354 N 
ATOM     43  C   UNL A   1      41.321  27.408  28.616  1.00  0.00     0.074 A 
ATOM     44  C   UNL A   1      40.369  26.342  28.381  1.00  0.00     0.031 C 
ATOM     45  C   UNL A   1      46.977  24.495  27.719  1.00  0.00     0.029 A 
ATOM     46  C   UNL A   1      46.753  25.901  28.021  1.00  0.00     0.049 A 
ATOM     47  H   UNL A   1      44.940  26.841  28.439  1.00  0.00     0.167 HD
ATOM     48  C   UNL A   1      41.002  28.674  28.966  1.00  0.00     0.037 A 
ATOM     49  C   UNL A   1      47.715  26.839  28.078  1.00  0.00     0.037 A 
ATOM     50  C   UNL A   1      41.968  29.720  29.161  1.00  0.00     0.049 A 
ATOM     51  C   UNL A   1      47.320  28.259  28.362  1.00  0.00     0.074 A 
ATOM     52  C   UNL A   1      41.741  31.032  29.529  1.00  0.00     0.029 A 
ATOM     53  N   UNL A   1      43.337  29.583  28.977  1.00  0.00    -0.354 N 
ATOM     54  N   UNL A   1      46.124  28.752  28.571  1.00  0.00    -0.248 NA
ATOM     55  C   UNL A   1      48.398  29.254  28.418  1.00  0.00     0.031 C 
ATOM     56  C   UNL A   1      42.954  31.715  29.467  1.00  0.00     0.029 A 
ATOM     57  C   UNL A   1      43.957  30.805  29.179  1.00  0.00     0.049 A 
ATOM     58  H   UNL A   1      43.797  28.745  28.739  1.00  0.00     0.167 HD
ATOM     59  C   UNL A   1      46.309  30.102  28.823  1.00  0.00     0.074 A 
ATOM     60  C   UNL A   1      47.732  30.351  28.744  1.00  0.00     0.031 C 
ATOM     61  C   UNL A   1      45.377  31.043  29.105  1.00  0.00     0.037 A 
BRANCH  48  62
ATOM     62  C   UNL A   1      39.548  28.999  29.107  1.00  0.00     0.064 A 
ATOM     63  C   UNL A   1      38.891  28.921  30.344  1.00  0.00     0.173 A 
ATOM     64  C   UNL A   1      38.800  29.394  27.988  1.00  0.00     0.173 A 
ATOM     65  F   UNL A   1      39.563  28.559  31.448  1.00  0.00    -0.203 F 
ATOM     66  C   UNL A   1      37.523  29.149  30.439  1.00  0.00     0.198 A 
ATOM     67  C   UNL A   1      37.446  29.688  28.101  1.00  0.00     0.198 A 
ATOM     68  F   UNL A   1      39.382  29.504  26.784  1.00  0.00    -0.203 F 
ATOM     69  F   UNL A   1      36.896  28.959  31.608  1.00  0.00    -0.200 F 
ATOM     70  C   UNL A   1      36.804  29.540  29.320  1.00  0.00     0.200 A 
ATOM     71  F   UNL A   1      36.763  30.101  27.026  1.00  0.00    -0.200 F 
ATOM     72  F   UNL A   1      35.487  29.765  29.415  1.00  0.00    -0.200 F 
ENDBRANCH  48  62
BRANCH  49  73
ATOM     73  C   UNL A   1      49.130  26.470  27.822  1.00  0.00     0.064 A 
ATOM     74  C   UNL A   1      50.023  26.238  28.876  1.00  0.00     0.173 A 
ATOM     75  C   UNL A   1      49.624  26.362  26.513  1.00  0.00     0.173 A 
ATOM     76  F   UNL A   1      49.601  26.337  30.146  1.00  0.00    -0.203 F 
ATOM     77  C   UNL A   1      51.364  25.959  28.631  1.00  0.00     0.198 A 
ATOM     78  C   UNL A   1      50.952  26.026  26.269  1.00  0.00     0.198 A 
ATOM     79  F   UNL A   1      48.811  26.569  25.466  1.00  0.00    -0.203 F 
ATOM     80  F   UNL A   1      52.216  25.831  29.658  1.00  0.00    -0.200 F 
ATOM     81  C   UNL A   1      51.825  25.842  27.329  1.00  0.00     0.200 A 
ATOM     82  F   UNL A   1      51.384  25.890  25.008  1.00  0.00    -0.200 F 
ATOM     83  F   UNL A   1      53.115  25.566  27.094  1.00  0.00    -0.200 F 
ENDBRANCH  49  73
BRANCH  61  84
ATOM     84  C   UNL A   1      45.856  32.428  29.425  1.00  0.00     0.064 A 
ATOM     85  C   UNL A   1      45.973  33.425  28.448  1.00  0.00     0.173 A 
ATOM     86  C   UNL A   1      46.132  32.778  30.758  1.00  0.00     0.173 A 
ATOM     87  F   UNL A   1      45.713  33.147  27.162  1.00  0.00    -0.203 F 
ATOM     88  C   UNL A   1      46.389  34.710  28.787  1.00  0.00     0.198 A 
ATOM     89  C   UNL A   1      46.487  34.077  31.101  1.00  0.00     0.198 A 
ATOM     90  F   UNL A   1      46.019  31.866  31.737  1.00  0.00    -0.203 F 
ATOM     91  F   UNL A   1      46.564  35.628  27.827  1.00  0.00    -0.200 F 
ATOM     92  C   UNL A   1      46.630  35.038  30.113  1.00  0.00     0.200 A 
ATOM     93  F   UNL A   1      46.680  34.399  32.387  1.00  0.00    -0.200 F 
ATOM     94  F   UNL A   1      47.003  36.282  30.439  1.00  0.00    -0.200 F 
ENDBRANCH  61  84
ENDBRANCH  35  36
ENDBRANCH  28  30
ENDBRANCH  27  28
ENDBRANCH  26  27
ENDBRANCH   1  26
TORSDOF 14
ENDMDL
