MODEL 1
REMARK VINA RESULT:     -12.8      0.000      0.000
REMARK SMILES COc1cccc(C(=O)N2[C@@H](C(=O)OCCOC(=O)c3ccc(-c4c5nc(c(-c6c(F)c(F)c(F)c(F)c6F)c6ccc([nH]6)c(-c6c(F)c(F)c(F)c(F)c6F)c6nc(c(-c7c(F)c(F)c(F)c(F)c7F)c7ccc4[nH]7)C=C6)C=C5)cc3)CS[C@@H]2c2ccccc2Cl)c1
REMARK SMILES IDX 15 1 14 2 12 3 13 4 11 5 10 6 85 7 83 8 84 9 8 10 9 11 7 12
REMARK SMILES IDX 3 13 4 14 93 15 5 16 6 17 2 18 1 19 86 20 87 21 91 22 88 23
REMARK SMILES IDX 90 24 92 25 89 26 16 27 17 28 18 29 19 30 20 31 21 32 82 33
REMARK SMILES IDX 22 34 81 35 23 36 24 37 25 38 75 39 26 40 80 41 74 42 76 43
REMARK SMILES IDX 27 44 79 45 73 46 72 47 28 49 60 50 40 51 59 52 41 53 44 54
REMARK SMILES IDX 58 55 77 56 42 57 43 58 57 60 78 61 45 62 29 63 30 64 38 65
REMARK SMILES IDX 31 66 32 67 36 68 39 69 33 70 34 71 37 72 35 73 61 74 62 75
REMARK SMILES IDX 70 76 63 77 64 78 68 79 71 80 65 81 66 82 69 83 67 84 46 85
REMARK SMILES IDX 47 86 55 87 48 88 49 89 53 90 56 91 50 92 51 93 54 94 52 95
REMARK H PARENT 76 48 44 59
REMARK Flexibility Score: inf
ROOT
ATOM      1  C   UNL A   1      35.911  20.701  25.276  1.00  0.00     0.274 C 
ENDROOT
BRANCH   1   2
ATOM      2  O   UNL A   1      35.710  21.887  26.067  1.00  0.00    -0.461 OA
BRANCH   2   3
ATOM      3  C   UNL A   1      34.482  22.061  26.611  1.00  0.00     0.329 C 
ATOM      4  O   UNL A   1      34.090  21.488  27.626  1.00  0.00    -0.250 OA
BRANCH   3   5
ATOM      5  C   UNL A   1      33.576  23.026  25.822  1.00  0.00     0.206 C 
ATOM      6  N   UNL A   1      32.693  22.491  24.756  1.00  0.00    -0.308 N 
ATOM      7  C   UNL A   1      32.623  23.321  23.555  1.00  0.00     0.176 C 
ATOM      8  C   UNL A   1      34.507  24.076  25.184  1.00  0.00     0.109 C 
ATOM      9  S   UNL A   1      34.426  23.717  23.406  1.00  0.00    -0.129 SA
BRANCH   6  10
ATOM     10  C   UNL A   1      31.905  21.378  25.019  1.00  0.00     0.255 C 
ATOM     11  O   UNL A   1      30.911  21.454  25.741  1.00  0.00    -0.269 OA
BRANCH  10  12
ATOM     12  C   UNL A   1      32.346  20.021  24.567  1.00  0.00     0.043 A 
ATOM     13  C   UNL A   1      32.984  17.709  24.996  1.00  0.00     0.119 A 
ATOM     14  C   UNL A   1      32.907  17.445  23.626  1.00  0.00     0.046 A 
ATOM     15  C   UNL A   1      32.673  18.989  25.466  1.00  0.00     0.060 A 
ATOM     16  C   UNL A   1      32.528  18.443  22.730  1.00  0.00     0.005 A 
ATOM     17  C   UNL A   1      32.256  19.729  23.199  1.00  0.00     0.014 A 
BRANCH  13  18
ATOM     18  O   UNL A   1      33.371  16.636  25.751  1.00  0.00    -0.497 OA
ATOM     19  C   UNL A   1      32.883  15.356  25.374  1.00  0.00     0.278 C 
ENDBRANCH  13  18
ENDBRANCH  10  12
ENDBRANCH   6  10
BRANCH   7  20
ATOM     20  C   UNL A   1      31.851  24.658  23.627  1.00  0.00     0.003 A 
ATOM     21  C   UNL A   1      31.044  24.860  24.780  1.00  0.00     0.008 A 
ATOM     22  C   UNL A   1      31.801  25.674  22.656  1.00  0.00     0.047 A 
ATOM     23  C   UNL A   1      30.125  25.909  24.881  1.00  0.00     0.001 A 
ATOM     24  C   UNL A   1      30.862  26.717  22.753  1.00  0.00     0.021 A 
ATOM     25  Cl  UNL A   1      32.866  25.799  21.309  1.00  0.00    -0.084 Cl
ATOM     26  C   UNL A   1      30.007  26.820  23.845  1.00  0.00     0.002 A 
ENDBRANCH   7  20
ENDBRANCH   3   5
ENDBRANCH   2   3
ENDBRANCH   1   2
BRANCH   1  27
ATOM     27  C   UNL A   1      37.383  20.564  24.918  1.00  0.00     0.275 C 
BRANCH  27  28
ATOM     28  O   UNL A   1      38.094  21.707  25.426  1.00  0.00    -0.458 OA
BRANCH  28  29
ATOM     29  C   UNL A   1      39.208  21.406  26.126  1.00  0.00     0.338 C 
ATOM     30  O   UNL A   1      39.728  20.317  26.284  1.00  0.00    -0.246 OA
BRANCH  29  31
ATOM     31  C   UNL A   1      39.779  22.633  26.685  1.00  0.00     0.060 A 
ATOM     32  C   UNL A   1      39.355  23.868  26.194  1.00  0.00     0.016 A 
ATOM     33  C   UNL A   1      40.837  22.547  27.585  1.00  0.00     0.016 A 
ATOM     34  C   UNL A   1      40.043  25.026  26.550  1.00  0.00     0.010 A 
ATOM     35  C   UNL A   1      41.470  23.717  28.004  1.00  0.00     0.010 A 
ATOM     36  C   UNL A   1      41.101  24.966  27.467  1.00  0.00    -0.014 A 
BRANCH  36  37
ATOM     37  C   UNL A   1      41.869  26.178  27.856  1.00  0.00     0.031 A 
ATOM     38  C   UNL A   1      41.209  27.233  28.700  1.00  0.00     0.074 A 
ATOM     39  C   UNL A   1      43.129  26.368  27.423  1.00  0.00     0.049 A 
ATOM     40  N   UNL A   1      41.549  28.483  28.885  1.00  0.00    -0.248 NA
ATOM     41  C   UNL A   1      39.988  26.829  29.416  1.00  0.00     0.031 C 
ATOM     42  C   UNL A   1      43.919  25.409  26.654  1.00  0.00     0.029 A 
ATOM     43  N   UNL A   1      43.962  27.454  27.557  1.00  0.00    -0.354 N 
ATOM     44  C   UNL A   1      40.546  29.034  29.671  1.00  0.00     0.074 A 
ATOM     45  C   UNL A   1      39.595  27.978  29.950  1.00  0.00     0.031 C 
ATOM     46  C   UNL A   1      45.123  25.939  26.395  1.00  0.00     0.029 A 
ATOM     47  C   UNL A   1      45.158  27.307  26.899  1.00  0.00     0.049 A 
ATOM     48  H   UNL A   1      43.723  28.257  28.075  1.00  0.00     0.167 HD
ATOM     49  C   UNL A   1      40.425  30.312  30.102  1.00  0.00     0.037 A 
ATOM     50  C   UNL A   1      46.146  28.193  26.676  1.00  0.00     0.037 A 
ATOM     51  C   UNL A   1      41.409  31.338  29.876  1.00  0.00     0.049 A 
ATOM     52  C   UNL A   1      45.996  29.606  27.166  1.00  0.00     0.074 A 
ATOM     53  C   UNL A   1      41.382  32.666  30.267  1.00  0.00     0.029 A 
ATOM     54  N   UNL A   1      42.614  31.140  29.219  1.00  0.00    -0.354 N 
ATOM     55  N   UNL A   1      44.999  30.152  27.819  1.00  0.00    -0.248 NA
ATOM     56  C   UNL A   1      47.096  30.533  26.865  1.00  0.00     0.031 C 
ATOM     57  C   UNL A   1      42.566  33.275  29.834  1.00  0.00     0.029 A 
ATOM     58  C   UNL A   1      43.341  32.318  29.200  1.00  0.00     0.049 A 
ATOM     59  H   UNL A   1      42.908  30.287  28.825  1.00  0.00     0.167 HD
ATOM     60  C   UNL A   1      45.352  31.479  28.014  1.00  0.00     0.074 A 
ATOM     61  C   UNL A   1      46.663  31.655  27.423  1.00  0.00     0.031 C 
ATOM     62  C   UNL A   1      44.649  32.467  28.620  1.00  0.00     0.037 A 
BRANCH  49  63
ATOM     63  C   UNL A   1      39.167  30.687  30.825  1.00  0.00     0.064 A 
ATOM     64  C   UNL A   1      39.053  30.591  32.219  1.00  0.00     0.173 A 
ATOM     65  C   UNL A   1      38.070  31.192  30.108  1.00  0.00     0.173 A 
ATOM     66  F   UNL A   1      40.066  30.099  32.946  1.00  0.00    -0.203 F 
ATOM     67  C   UNL A   1      37.880  30.969  32.868  1.00  0.00     0.198 A 
ATOM     68  C   UNL A   1      36.907  31.592  30.762  1.00  0.00     0.198 A 
ATOM     69  F   UNL A   1      38.131  31.306  28.773  1.00  0.00    -0.203 F 
ATOM     70  F   UNL A   1      37.778  30.834  34.197  1.00  0.00    -0.200 F 
ATOM     71  C   UNL A   1      36.811  31.475  32.140  1.00  0.00     0.200 A 
ATOM     72  F   UNL A   1      35.881  32.088  30.058  1.00  0.00    -0.200 F 
ATOM     73  F   UNL A   1      35.687  31.846  32.768  1.00  0.00    -0.200 F 
ENDBRANCH  49  63
BRANCH  50  74
ATOM     74  C   UNL A   1      47.346  27.774  25.910  1.00  0.00     0.064 A 
ATOM     75  C   UNL A   1      47.352  27.812  24.509  1.00  0.00     0.173 A 
ATOM     76  C   UNL A   1      48.516  27.355  26.560  1.00  0.00     0.173 A 
ATOM     77  F   UNL A   1      46.247  28.181  23.845  1.00  0.00    -0.203 F 
ATOM     78  C   UNL A   1      48.485  27.444  23.786  1.00  0.00     0.198 A 
ATOM     79  C   UNL A   1      49.656  27.012  25.837  1.00  0.00     0.198 A 
ATOM     80  F   UNL A   1      48.559  27.301  27.899  1.00  0.00    -0.203 F 
ATOM     81  F   UNL A   1      48.457  27.461  22.447  1.00  0.00    -0.200 F 
ATOM     82  C   UNL A   1      49.638  27.054  24.451  1.00  0.00     0.200 A 
ATOM     83  F   UNL A   1      50.773  26.649  26.482  1.00  0.00    -0.200 F 
ATOM     84  F   UNL A   1      50.732  26.713  23.755  1.00  0.00    -0.200 F 
ENDBRANCH  50  74
BRANCH  62  85
ATOM     85  C   UNL A   1      45.300  33.811  28.709  1.00  0.00     0.064 A 
ATOM     86  C   UNL A   1      46.158  34.140  29.767  1.00  0.00     0.173 A 
ATOM     87  C   UNL A   1      45.095  34.765  27.701  1.00  0.00     0.173 A 
ATOM     88  F   UNL A   1      46.371  33.263  30.760  1.00  0.00    -0.203 F 
ATOM     89  C   UNL A   1      46.780  35.384  29.821  1.00  0.00     0.198 A 
ATOM     90  C   UNL A   1      45.733  36.001  27.748  1.00  0.00     0.198 A 
ATOM     91  F   UNL A   1      44.284  34.492  26.668  1.00  0.00    -0.203 F 
ATOM     92  F   UNL A   1      47.574  35.691  30.855  1.00  0.00    -0.200 F 
ATOM     93  C   UNL A   1      46.572  36.310  28.809  1.00  0.00     0.200 A 
ATOM     94  F   UNL A   1      45.535  36.894  26.768  1.00  0.00    -0.200 F 
ATOM     95  F   UNL A   1      47.175  37.506  28.859  1.00  0.00    -0.200 F 
ENDBRANCH  62  85
ENDBRANCH  36  37
ENDBRANCH  29  31
ENDBRANCH  28  29
ENDBRANCH  27  28
ENDBRANCH   1  27
TORSDOF 15
ENDMDL
MODEL 2
REMARK VINA RESULT:     -12.8      0.140      1.563
REMARK SMILES COc1cccc(C(=O)N2[C@@H](C(=O)OCCOC(=O)c3ccc(-c4c5nc(c(-c6c(F)c(F)c(F)c(F)c6F)c6ccc([nH]6)c(-c6c(F)c(F)c(F)c(F)c6F)c6nc(c(-c7c(F)c(F)c(F)c(F)c7F)c7ccc4[nH]7)C=C6)C=C5)cc3)CS[C@@H]2c2ccccc2Cl)c1
REMARK SMILES IDX 15 1 14 2 12 3 13 4 11 5 10 6 85 7 83 8 84 9 8 10 9 11 7 12
REMARK SMILES IDX 3 13 4 14 93 15 5 16 6 17 2 18 1 19 86 20 87 21 91 22 88 23
REMARK SMILES IDX 90 24 92 25 89 26 16 27 17 28 18 29 19 30 20 31 21 32 82 33
REMARK SMILES IDX 22 34 81 35 23 36 24 37 25 38 75 39 26 40 80 41 74 42 76 43
REMARK SMILES IDX 27 44 79 45 73 46 72 47 28 49 60 50 40 51 59 52 41 53 44 54
REMARK SMILES IDX 58 55 77 56 42 57 43 58 57 60 78 61 45 62 29 63 30 64 38 65
REMARK SMILES IDX 31 66 32 67 36 68 39 69 33 70 34 71 37 72 35 73 61 74 62 75
REMARK SMILES IDX 70 76 63 77 64 78 68 79 71 80 65 81 66 82 69 83 67 84 46 85
REMARK SMILES IDX 47 86 55 87 48 88 49 89 53 90 56 91 50 92 51 93 54 94 52 95
REMARK H PARENT 76 48 44 59
REMARK Flexibility Score: inf
ROOT
ATOM      1  C   UNL A   1      35.886  20.801  25.215  1.00  0.00     0.274 C 
ENDROOT
BRANCH   1   2
ATOM      2  O   UNL A   1      35.701  21.945  26.069  1.00  0.00    -0.461 OA
BRANCH   2   3
ATOM      3  C   UNL A   1      34.470  22.115  26.609  1.00  0.00     0.329 C 
ATOM      4  O   UNL A   1      34.076  21.539  27.621  1.00  0.00    -0.250 OA
BRANCH   3   5
ATOM      5  C   UNL A   1      33.565  23.080  25.819  1.00  0.00     0.206 C 
ATOM      6  N   UNL A   1      32.681  22.544  24.753  1.00  0.00    -0.308 N 
ATOM      7  C   UNL A   1      32.612  23.373  23.551  1.00  0.00     0.176 C 
ATOM      8  C   UNL A   1      34.497  24.129  25.180  1.00  0.00     0.109 C 
ATOM      9  S   UNL A   1      34.416  23.768  23.402  1.00  0.00    -0.129 SA
BRANCH   6  10
ATOM     10  C   UNL A   1      31.893  21.432  25.017  1.00  0.00     0.255 C 
ATOM     11  O   UNL A   1      30.897  21.509  25.737  1.00  0.00    -0.269 OA
BRANCH  10  12
ATOM     12  C   UNL A   1      32.335  20.074  24.569  1.00  0.00     0.043 A 
ATOM     13  C   UNL A   1      32.984  17.767  25.005  1.00  0.00     0.119 A 
ATOM     14  C   UNL A   1      32.897  17.494  23.637  1.00  0.00     0.046 A 
ATOM     15  C   UNL A   1      32.673  19.048  25.471  1.00  0.00     0.060 A 
ATOM     16  C   UNL A   1      32.507  18.486  22.740  1.00  0.00     0.005 A 
ATOM     17  C   UNL A   1      32.234  19.774  23.203  1.00  0.00     0.014 A 
BRANCH  13  18
ATOM     18  O   UNL A   1      33.382  16.699  25.763  1.00  0.00    -0.497 OA
ATOM     19  C   UNL A   1      33.053  15.400  25.292  1.00  0.00     0.278 C 
ENDBRANCH  13  18
ENDBRANCH  10  12
ENDBRANCH   6  10
BRANCH   7  20
ATOM     20  C   UNL A   1      31.841  24.710  23.622  1.00  0.00     0.003 A 
ATOM     21  C   UNL A   1      30.995  24.893  24.750  1.00  0.00     0.008 A 
ATOM     22  C   UNL A   1      31.828  25.744  22.669  1.00  0.00     0.047 A 
ATOM     23  C   UNL A   1      30.075  25.942  24.839  1.00  0.00     0.001 A 
ATOM     24  C   UNL A   1      30.888  26.788  22.753  1.00  0.00     0.021 A 
ATOM     25  Cl  UNL A   1      32.939  25.893  21.363  1.00  0.00    -0.084 Cl
ATOM     26  C   UNL A   1      29.995  26.873  23.817  1.00  0.00     0.002 A 
ENDBRANCH   7  20
ENDBRANCH   3   5
ENDBRANCH   2   3
ENDBRANCH   1   2
BRANCH   1  27
ATOM     27  C   UNL A   1      37.366  20.619  24.912  1.00  0.00     0.275 C 
BRANCH  27  28
ATOM     28  O   UNL A   1      38.087  21.760  25.410  1.00  0.00    -0.458 OA
BRANCH  28  29
ATOM     29  C   UNL A   1      39.200  21.456  26.110  1.00  0.00     0.338 C 
ATOM     30  O   UNL A   1      39.723  20.367  26.259  1.00  0.00    -0.246 OA
BRANCH  29  31
ATOM     31  C   UNL A   1      39.765  22.679  26.683  1.00  0.00     0.060 A 
ATOM     32  C   UNL A   1      39.353  23.917  26.190  1.00  0.00     0.016 A 
ATOM     33  C   UNL A   1      40.808  22.586  27.600  1.00  0.00     0.016 A 
ATOM     34  C   UNL A   1      40.037  25.072  26.562  1.00  0.00     0.010 A 
ATOM     35  C   UNL A   1      41.438  23.753  28.034  1.00  0.00     0.010 A 
ATOM     36  C   UNL A   1      41.081  25.005  27.495  1.00  0.00    -0.014 A 
BRANCH  36  37
ATOM     37  C   UNL A   1      41.846  26.214  27.901  1.00  0.00     0.031 A 
ATOM     38  C   UNL A   1      41.183  27.256  28.759  1.00  0.00     0.074 A 
ATOM     39  C   UNL A   1      43.105  26.413  27.472  1.00  0.00     0.049 A 
ATOM     40  N   UNL A   1      41.520  28.504  28.962  1.00  0.00    -0.248 NA
ATOM     41  C   UNL A   1      39.963  26.839  29.468  1.00  0.00     0.031 C 
ATOM     42  C   UNL A   1      43.899  25.465  26.690  1.00  0.00     0.029 A 
ATOM     43  N   UNL A   1      43.936  27.498  27.621  1.00  0.00    -0.354 N 
ATOM     44  C   UNL A   1      40.515  29.042  29.754  1.00  0.00     0.074 A 
ATOM     45  C   UNL A   1      39.567  27.979  30.018  1.00  0.00     0.031 C 
ATOM     46  C   UNL A   1      45.102  26.002  26.439  1.00  0.00     0.029 A 
ATOM     47  C   UNL A   1      45.133  27.363  26.962  1.00  0.00     0.049 A 
ATOM     48  H   UNL A   1      43.695  28.293  28.149  1.00  0.00     0.167 HD
ATOM     49  C   UNL A   1      40.391  30.314  30.202  1.00  0.00     0.037 A 
ATOM     50  C   UNL A   1      46.119  28.254  26.751  1.00  0.00     0.037 A 
ATOM     51  C   UNL A   1      41.373  31.344  29.991  1.00  0.00     0.049 A 
ATOM     52  C   UNL A   1      45.966  29.660  27.261  1.00  0.00     0.074 A 
ATOM     53  C   UNL A   1      41.342  32.667  30.400  1.00  0.00     0.029 A 
ATOM     54  N   UNL A   1      42.579  31.158  29.332  1.00  0.00    -0.354 N 
ATOM     55  N   UNL A   1      44.967  30.195  27.920  1.00  0.00    -0.248 NA
ATOM     56  C   UNL A   1      47.064  30.593  26.973  1.00  0.00     0.031 C 
ATOM     57  C   UNL A   1      42.525  33.284  29.976  1.00  0.00     0.029 A 
ATOM     58  C   UNL A   1      43.303  32.338  29.330  1.00  0.00     0.049 A 
ATOM     59  H   UNL A   1      42.875  30.312  28.927  1.00  0.00     0.167 HD
ATOM     60  C   UNL A   1      45.317  31.520  28.133  1.00  0.00     0.074 A 
ATOM     61  C   UNL A   1      46.628  31.706  27.546  1.00  0.00     0.031 C 
ATOM     62  C   UNL A   1      44.612  32.497  28.752  1.00  0.00     0.037 A 
BRANCH  49  63
ATOM     63  C   UNL A   1      39.132  30.675  30.930  1.00  0.00     0.064 A 
ATOM     64  C   UNL A   1      39.022  30.574  32.324  1.00  0.00     0.173 A 
ATOM     65  C   UNL A   1      38.029  31.174  30.217  1.00  0.00     0.173 A 
ATOM     66  F   UNL A   1      40.041  30.088  33.047  1.00  0.00    -0.203 F 
ATOM     67  C   UNL A   1      37.848  30.940  32.976  1.00  0.00     0.198 A 
ATOM     68  C   UNL A   1      36.865  31.562  30.875  1.00  0.00     0.198 A 
ATOM     69  F   UNL A   1      38.086  31.293  28.883  1.00  0.00    -0.203 F 
ATOM     70  F   UNL A   1      37.750  30.800  34.305  1.00  0.00    -0.200 F 
ATOM     71  C   UNL A   1      36.773  31.440  32.253  1.00  0.00     0.200 A 
ATOM     72  F   UNL A   1      35.833  32.052  30.175  1.00  0.00    -0.200 F 
ATOM     73  F   UNL A   1      35.647  31.799  32.885  1.00  0.00    -0.200 F 
ENDBRANCH  49  63
BRANCH  50  74
ATOM     74  C   UNL A   1      47.320  27.848  25.980  1.00  0.00     0.064 A 
ATOM     75  C   UNL A   1      48.504  27.482  26.636  1.00  0.00     0.173 A 
ATOM     76  C   UNL A   1      47.302  27.791  24.579  1.00  0.00     0.173 A 
ATOM     77  F   UNL A   1      48.575  27.547  27.973  1.00  0.00    -0.203 F 
ATOM     78  C   UNL A   1      49.626  27.076  25.917  1.00  0.00     0.198 A 
ATOM     79  C   UNL A   1      48.416  27.360  23.863  1.00  0.00     0.198 A 
ATOM     80  F   UNL A   1      46.193  28.132  23.907  1.00  0.00    -0.203 F 
ATOM     81  F   UNL A   1      50.754  26.759  26.565  1.00  0.00    -0.200 F 
ATOM     82  C   UNL A   1      49.578  27.005  24.532  1.00  0.00     0.200 A 
ATOM     83  F   UNL A   1      48.362  27.280  22.527  1.00  0.00    -0.200 F 
ATOM     84  F   UNL A   1      50.653  26.602  23.843  1.00  0.00    -0.200 F 
ENDBRANCH  50  74
BRANCH  62  85
ATOM     85  C   UNL A   1      45.259  33.842  28.860  1.00  0.00     0.064 A 
ATOM     86  C   UNL A   1      45.026  34.844  27.908  1.00  0.00     0.173 A 
ATOM     87  C   UNL A   1      46.086  34.145  29.951  1.00  0.00     0.173 A 
ATOM     88  F   UNL A   1      44.254  34.593  26.839  1.00  0.00    -0.203 F 
ATOM     89  C   UNL A   1      45.611  36.101  28.037  1.00  0.00     0.198 A 
ATOM     90  C   UNL A   1      46.654  35.408  30.087  1.00  0.00     0.198 A 
ATOM     91  F   UNL A   1      46.333  33.218  30.888  1.00  0.00    -0.203 F 
ATOM     92  F   UNL A   1      45.400  37.036  27.101  1.00  0.00    -0.200 F 
ATOM     93  C   UNL A   1      46.418  36.384  29.129  1.00  0.00     0.200 A 
ATOM     94  F   UNL A   1      47.430  35.682  31.145  1.00  0.00    -0.200 F 
ATOM     95  F   UNL A   1      46.978  37.595  29.255  1.00  0.00    -0.200 F 
ENDBRANCH  62  85
ENDBRANCH  36  37
ENDBRANCH  29  31
ENDBRANCH  28  29
ENDBRANCH  27  28
ENDBRANCH   1  27
TORSDOF 15
ENDMDL
MODEL 3
REMARK VINA RESULT:     -12.8      4.920     10.305
REMARK SMILES COc1cccc(C(=O)N2[C@@H](C(=O)OCCOC(=O)c3ccc(-c4c5nc(c(-c6c(F)c(F)c(F)c(F)c6F)c6ccc([nH]6)c(-c6c(F)c(F)c(F)c(F)c6F)c6nc(c(-c7c(F)c(F)c(F)c(F)c7F)c7ccc4[nH]7)C=C6)C=C5)cc3)CS[C@@H]2c2ccccc2Cl)c1
REMARK SMILES IDX 15 1 14 2 12 3 13 4 11 5 10 6 85 7 83 8 84 9 8 10 9 11 7 12
REMARK SMILES IDX 3 13 4 14 93 15 5 16 6 17 2 18 1 19 86 20 87 21 91 22 88 23
REMARK SMILES IDX 90 24 92 25 89 26 16 27 17 28 18 29 19 30 20 31 21 32 82 33
REMARK SMILES IDX 22 34 81 35 23 36 24 37 25 38 75 39 26 40 80 41 74 42 76 43
REMARK SMILES IDX 27 44 79 45 73 46 72 47 28 49 60 50 40 51 59 52 41 53 44 54
REMARK SMILES IDX 58 55 77 56 42 57 43 58 57 60 78 61 45 62 29 63 30 64 38 65
REMARK SMILES IDX 31 66 32 67 36 68 39 69 33 70 34 71 37 72 35 73 61 74 62 75
REMARK SMILES IDX 70 76 63 77 64 78 68 79 71 80 65 81 66 82 69 83 67 84 46 85
REMARK SMILES IDX 47 86 55 87 48 88 49 89 53 90 56 91 50 92 51 93 54 94 52 95
REMARK H PARENT 76 48 44 59
REMARK Flexibility Score: inf
ROOT
ATOM      1  C   UNL A   1      31.553  30.070  25.377  1.00  0.00     0.274 C 
ENDROOT
BRANCH   1   2
ATOM      2  O   UNL A   1      32.714  29.222  25.315  1.00  0.00    -0.461 OA
BRANCH   2   3
ATOM      3  C   UNL A   1      32.978  28.630  24.125  1.00  0.00     0.329 C 
ATOM      4  O   UNL A   1      33.388  29.229  23.133  1.00  0.00    -0.250 OA
BRANCH   3   5
ATOM      5  C   UNL A   1      32.684  27.118  24.098  1.00  0.00     0.206 C 
ATOM      6  N   UNL A   1      31.329  26.645  23.718  1.00  0.00    -0.308 N 
ATOM      7  C   UNL A   1      30.831  25.529  24.520  1.00  0.00     0.176 C 
ATOM      8  C   UNL A   1      32.994  26.586  25.511  1.00  0.00     0.109 C 
ATOM      9  S   UNL A   1      31.366  26.143  26.184  1.00  0.00    -0.129 SA
BRANCH   6  10
ATOM     10  C   UNL A   1      30.722  27.160  22.581  1.00  0.00     0.255 C 
ATOM     11  O   UNL A   1      31.092  26.832  21.453  1.00  0.00    -0.269 OA
BRANCH  10  12
ATOM     12  C   UNL A   1      29.712  28.259  22.699  1.00  0.00     0.043 A 
ATOM     13  C   UNL A   1      28.936  30.527  22.266  1.00  0.00     0.119 A 
ATOM     14  C   UNL A   1      27.669  30.171  22.733  1.00  0.00     0.046 A 
ATOM     15  C   UNL A   1      29.946  29.561  22.221  1.00  0.00     0.060 A 
ATOM     16  C   UNL A   1      27.407  28.869  23.155  1.00  0.00     0.005 A 
ATOM     17  C   UNL A   1      28.428  27.918  23.145  1.00  0.00     0.014 A 
BRANCH  13  18
ATOM     18  O   UNL A   1      29.046  31.838  21.889  1.00  0.00    -0.497 OA
ATOM     19  C   UNL A   1      28.060  32.352  21.004  1.00  0.00     0.278 C 
ENDBRANCH  13  18
ENDBRANCH  10  12
ENDBRANCH   6  10
BRANCH   7  20
ATOM     20  C   UNL A   1      31.459  24.132  24.309  1.00  0.00     0.003 A 
ATOM     21  C   UNL A   1      32.227  23.957  23.125  1.00  0.00     0.008 A 
ATOM     22  C   UNL A   1      31.309  22.993  25.119  1.00  0.00     0.047 A 
ATOM     23  C   UNL A   1      32.665  22.702  22.692  1.00  0.00     0.001 A 
ATOM     24  C   UNL A   1      31.735  21.729  24.670  1.00  0.00     0.021 A 
ATOM     25  Cl  UNL A   1      30.660  22.998  26.713  1.00  0.00    -0.084 Cl
ATOM     26  C   UNL A   1      32.386  21.578  23.450  1.00  0.00     0.002 A 
ENDBRANCH   7  20
ENDBRANCH   3   5
ENDBRANCH   2   3
ENDBRANCH   1   2
BRANCH   1  27
ATOM     27  C   UNL A   1      31.788  31.194  26.376  1.00  0.00     0.275 C 
BRANCH  27  28
ATOM     28  O   UNL A   1      32.985  30.910  27.122  1.00  0.00    -0.458 OA
BRANCH  28  29
ATOM     29  C   UNL A   1      33.644  32.004  27.557  1.00  0.00     0.338 C 
ATOM     30  O   UNL A   1      33.259  33.159  27.577  1.00  0.00    -0.246 OA
BRANCH  29  31
ATOM     31  C   UNL A   1      34.957  31.610  28.072  1.00  0.00     0.060 A 
ATOM     32  C   UNL A   1      35.164  30.291  28.474  1.00  0.00     0.016 A 
ATOM     33  C   UNL A   1      35.927  32.585  28.291  1.00  0.00     0.016 A 
ATOM     34  C   UNL A   1      36.324  29.954  29.169  1.00  0.00     0.010 A 
ATOM     35  C   UNL A   1      37.122  32.226  28.913  1.00  0.00     0.010 A 
ATOM     36  C   UNL A   1      37.321  30.915  29.388  1.00  0.00    -0.014 A 
BRANCH  36  37
ATOM     37  C   UNL A   1      38.562  30.596  30.141  1.00  0.00     0.031 A 
ATOM     38  C   UNL A   1      39.589  29.685  29.525  1.00  0.00     0.074 A 
ATOM     39  C   UNL A   1      38.759  31.071  31.385  1.00  0.00     0.049 A 
ATOM     40  N   UNL A   1      40.560  29.020  30.097  1.00  0.00    -0.248 NA
ATOM     41  C   UNL A   1      39.492  29.480  28.071  1.00  0.00     0.031 C 
ATOM     42  C   UNL A   1      37.887  32.013  32.085  1.00  0.00     0.029 A 
ATOM     43  N   UNL A   1      39.758  30.806  32.291  1.00  0.00    -0.354 N 
ATOM     44  C   UNL A   1      41.139  28.259  29.090  1.00  0.00     0.074 A 
ATOM     45  C   UNL A   1      40.427  28.562  27.866  1.00  0.00     0.031 C 
ATOM     46  C   UNL A   1      38.391  32.256  33.303  1.00  0.00     0.029 A 
ATOM     47  C   UNL A   1      39.571  31.422  33.503  1.00  0.00     0.049 A 
ATOM     48  H   UNL A   1      40.531  30.230  32.090  1.00  0.00     0.167 HD
ATOM     49  C   UNL A   1      42.160  27.375  29.190  1.00  0.00     0.037 A 
ATOM     50  C   UNL A   1      40.237  31.284  34.665  1.00  0.00     0.037 A 
ATOM     51  C   UNL A   1      42.904  27.132  30.397  1.00  0.00     0.049 A 
ATOM     52  C   UNL A   1      41.371  30.303  34.754  1.00  0.00     0.074 A 
ATOM     53  C   UNL A   1      43.955  26.255  30.605  1.00  0.00     0.029 A 
ATOM     54  N   UNL A   1      42.691  27.792  31.598  1.00  0.00    -0.354 N 
ATOM     55  N   UNL A   1      41.850  29.507  33.828  1.00  0.00    -0.248 NA
ATOM     56  C   UNL A   1      42.040  30.178  36.057  1.00  0.00     0.031 C 
ATOM     57  C   UNL A   1      44.368  26.374  31.938  1.00  0.00     0.029 A 
ATOM     58  C   UNL A   1      43.594  27.346  32.549  1.00  0.00     0.049 A 
ATOM     59  H   UNL A   1      41.999  28.475  31.751  1.00  0.00     0.167 HD
ATOM     60  C   UNL A   1      42.877  28.796  34.430  1.00  0.00     0.074 A 
ATOM     61  C   UNL A   1      42.964  29.263  35.799  1.00  0.00     0.031 C 
ATOM     62  C   UNL A   1      43.672  27.835  33.900  1.00  0.00     0.037 A 
BRANCH  49  63
ATOM     63  C   UNL A   1      42.508  26.574  27.972  1.00  0.00     0.064 A 
ATOM     64  C   UNL A   1      41.897  25.345  27.689  1.00  0.00     0.173 A 
ATOM     65  C   UNL A   1      43.443  27.072  27.050  1.00  0.00     0.173 A 
ATOM     66  F   UNL A   1      41.010  24.820  28.546  1.00  0.00    -0.203 F 
ATOM     67  C   UNL A   1      42.222  24.634  26.536  1.00  0.00     0.198 A 
ATOM     68  C   UNL A   1      43.748  26.370  25.886  1.00  0.00     0.198 A 
ATOM     69  F   UNL A   1      44.053  28.245  27.273  1.00  0.00    -0.203 F 
ATOM     70  F   UNL A   1      41.654  23.443  26.303  1.00  0.00    -0.200 F 
ATOM     71  C   UNL A   1      43.142  25.149  25.633  1.00  0.00     0.200 A 
ATOM     72  F   UNL A   1      44.630  26.875  25.013  1.00  0.00    -0.200 F 
ATOM     73  F   UNL A   1      43.447  24.466  24.522  1.00  0.00    -0.200 F 
ENDBRANCH  49  63
BRANCH  50  74
ATOM     74  C   UNL A   1      39.813  32.071  35.850  1.00  0.00     0.064 A 
ATOM     75  C   UNL A   1      40.467  33.262  36.192  1.00  0.00     0.173 A 
ATOM     76  C   UNL A   1      38.732  31.664  36.645  1.00  0.00     0.173 A 
ATOM     77  F   UNL A   1      41.522  33.675  35.475  1.00  0.00    -0.203 F 
ATOM     78  C   UNL A   1      40.056  34.017  37.288  1.00  0.00     0.198 A 
ATOM     79  C   UNL A   1      38.305  32.433  37.726  1.00  0.00     0.198 A 
ATOM     80  F   UNL A   1      38.075  30.531  36.358  1.00  0.00    -0.203 F 
ATOM     81  F   UNL A   1      40.715  35.137  37.613  1.00  0.00    -0.200 F 
ATOM     82  C   UNL A   1      38.970  33.607  38.048  1.00  0.00     0.200 A 
ATOM     83  F   UNL A   1      37.248  32.042  38.449  1.00  0.00    -0.200 F 
ATOM     84  F   UNL A   1      38.567  34.341  39.094  1.00  0.00    -0.200 F 
ENDBRANCH  50  74
BRANCH  62  85
ATOM     85  C   UNL A   1      44.727  27.255  34.788  1.00  0.00     0.064 A 
ATOM     86  C   UNL A   1      44.492  26.098  35.543  1.00  0.00     0.173 A 
ATOM     87  C   UNL A   1      46.001  27.838  34.849  1.00  0.00     0.173 A 
ATOM     88  F   UNL A   1      43.283  25.516  35.527  1.00  0.00    -0.203 F 
ATOM     89  C   UNL A   1      45.493  25.552  36.342  1.00  0.00     0.198 A 
ATOM     90  C   UNL A   1      47.005  27.280  35.634  1.00  0.00     0.198 A 
ATOM     91  F   UNL A   1      46.272  28.945  34.140  1.00  0.00    -0.203 F 
ATOM     92  F   UNL A   1      45.240  24.463  37.080  1.00  0.00    -0.200 F 
ATOM     93  C   UNL A   1      46.749  26.139  36.382  1.00  0.00     0.200 A 
ATOM     94  F   UNL A   1      48.220  27.845  35.669  1.00  0.00    -0.200 F 
ATOM     95  F   UNL A   1      47.713  25.610  37.148  1.00  0.00    -0.200 F 
ENDBRANCH  62  85
ENDBRANCH  36  37
ENDBRANCH  29  31
ENDBRANCH  28  29
ENDBRANCH  27  28
ENDBRANCH   1  27
TORSDOF 15
ENDMDL
