MODEL 1
REMARK VINA RESULT:     -14.1      0.000      0.000
REMARK SMILES Cc1ccc(C(=O)Nc2cccc(F)c2C(=O)OCCOC(=O)c2ccc(-c3c4nc(c(-c5c(F)c(F)c(F)c(F)c5F)c5ccc([nH]5)c(-c5c(F)c(F)c(F)c(F)c5F)c5nc(c(-c6c(F)c(F)c(F)c(F)c6F)c6ccc3[nH]6)C=C5)C=C4)cc2)c(F)c1
REMARK SMILES IDX 19 1 18 2 16 3 17 4 15 5 9 6 10 7 11 8 13 9 12 10 14 11 8 12
REMARK SMILES IDX 6 13 7 14 5 16 1 17 2 18 3 19 89 20 4 21 87 22 88 23 20 24
REMARK SMILES IDX 21 25 22 26 23 27 24 28 25 29 86 30 26 31 85 32 27 33 28 34
REMARK SMILES IDX 29 35 79 36 30 37 84 38 78 39 80 40 31 41 83 42 77 43 76 44
REMARK SMILES IDX 32 46 64 47 44 48 63 49 45 50 48 51 62 52 81 53 46 54 47 55
REMARK SMILES IDX 61 57 82 58 49 59 33 60 34 61 42 62 35 63 36 64 40 65 43 66
REMARK SMILES IDX 37 67 38 68 41 69 39 70 65 71 66 72 74 73 67 74 68 75 72 76
REMARK SMILES IDX 75 77 69 78 70 79 73 80 71 81 50 82 51 83 59 84 52 85 53 86
REMARK SMILES IDX 57 87 60 88 54 89 55 90 58 91 56 92
REMARK H PARENT 8 15 80 45 48 56
REMARK Flexibility Score: inf
ROOT
ATOM      1  C   UNL A   1      33.131  30.307  27.519  1.00  0.00     0.275 C 
ENDROOT
BRANCH   1   2
ATOM      2  O   UNL A   1      33.036  29.053  26.808  1.00  0.00    -0.458 OA
BRANCH   2   3
ATOM      3  C   UNL A   1      31.925  28.306  27.031  1.00  0.00     0.343 C 
ATOM      4  O   UNL A   1      31.399  28.129  28.124  1.00  0.00    -0.246 OA
BRANCH   3   5
ATOM      5  C   UNL A   1      31.298  27.863  25.760  1.00  0.00     0.119 A 
ATOM      6  C   UNL A   1      30.922  26.511  25.570  1.00  0.00     0.059 A 
ATOM      7  C   UNL A   1      30.296  26.131  24.374  1.00  0.00     0.027 A 
ATOM      8  C   UNL A   1      30.117  27.056  23.343  1.00  0.00     0.005 A 
ATOM      9  C   UNL A   1      31.130  28.767  24.712  1.00  0.00     0.139 A 
ATOM     10  C   UNL A   1      30.552  28.368  23.506  1.00  0.00     0.040 A 
ATOM     11  F   UNL A   1      31.556  30.034  24.814  1.00  0.00    -0.206 F 
BRANCH   6  12
ATOM     12  N   UNL A   1      31.153  25.573  26.599  1.00  0.00    -0.321 N 
ATOM     13  C   UNL A   1      31.816  24.367  26.646  1.00  0.00     0.258 C 
ATOM     14  O   UNL A   1      31.555  23.594  27.567  1.00  0.00    -0.269 OA
ATOM     15  H   UNL A   1      30.757  25.835  27.462  1.00  0.00     0.170 HD
BRANCH  13  16
ATOM     16  C   UNL A   1      32.947  24.063  25.731  1.00  0.00     0.075 A 
ATOM     17  C   UNL A   1      36.239  22.991  23.146  1.00  0.00     0.044 C 
ATOM     18  C   UNL A   1      35.092  23.368  24.032  1.00  0.00    -0.048 A 
ATOM     19  C   UNL A   1      35.303  24.197  25.135  1.00  0.00     0.004 A 
ATOM     20  C   UNL A   1      33.815  22.840  23.817  1.00  0.00     0.043 A 
ATOM     21  C   UNL A   1      34.248  24.511  25.993  1.00  0.00     0.017 A 
ATOM     22  C   UNL A   1      32.753  23.198  24.651  1.00  0.00     0.136 A 
ATOM     23  F   UNL A   1      31.549  22.672  24.379  1.00  0.00    -0.206 F 
ENDBRANCH  13  16
ENDBRANCH   6  12
ENDBRANCH   3   5
ENDBRANCH   2   3
ENDBRANCH   1   2
BRANCH   1  24
ATOM     24  C   UNL A   1      34.548  30.882  27.460  1.00  0.00     0.275 C 
BRANCH  24  25
ATOM     25  O   UNL A   1      35.037  31.254  28.760  1.00  0.00    -0.458 OA
BRANCH  25  26
ATOM     26  C   UNL A   1      36.373  31.124  28.873  1.00  0.00     0.338 C 
ATOM     27  O   UNL A   1      37.187  32.028  28.994  1.00  0.00    -0.246 OA
BRANCH  26  28
ATOM     28  C   UNL A   1      36.845  29.780  28.513  1.00  0.00     0.060 A 
ATOM     29  C   UNL A   1      37.043  28.966  29.637  1.00  0.00     0.016 A 
ATOM     30  C   UNL A   1      37.726  29.760  27.430  1.00  0.00     0.016 A 
ATOM     31  C   UNL A   1      38.298  28.449  29.859  1.00  0.00     0.010 A 
ATOM     32  C   UNL A   1      38.963  29.194  27.628  1.00  0.00     0.010 A 
ATOM     33  C   UNL A   1      39.267  28.638  28.877  1.00  0.00    -0.014 A 
BRANCH  33  34
ATOM     34  C   UNL A   1      40.615  28.162  29.075  1.00  0.00     0.031 A 
ATOM     35  C   UNL A   1      40.928  26.810  28.588  1.00  0.00     0.074 A 
ATOM     36  C   UNL A   1      41.517  28.941  29.703  1.00  0.00     0.049 A 
ATOM     37  N   UNL A   1      41.849  26.050  29.065  1.00  0.00    -0.248 NA
ATOM     38  C   UNL A   1      40.118  26.168  27.549  1.00  0.00     0.031 C 
ATOM     39  C   UNL A   1      42.960  28.760  29.741  1.00  0.00     0.029 A 
ATOM     40  N   UNL A   1      41.261  29.994  30.600  1.00  0.00    -0.354 N 
ATOM     41  C   UNL A   1      41.957  24.980  28.209  1.00  0.00     0.074 A 
ATOM     42  C   UNL A   1      40.788  25.030  27.364  1.00  0.00     0.031 C 
ATOM     43  C   UNL A   1      43.460  29.478  30.758  1.00  0.00     0.029 A 
ATOM     44  C   UNL A   1      42.330  29.988  31.519  1.00  0.00     0.049 A 
ATOM     45  H   UNL A   1      40.493  30.608  30.588  1.00  0.00     0.167 HD
ATOM     46  C   UNL A   1      43.124  24.282  28.161  1.00  0.00     0.037 A 
ATOM     47  C   UNL A   1      42.127  29.727  32.842  1.00  0.00     0.037 A 
ATOM     48  C   UNL A   1      44.063  24.766  29.163  1.00  0.00     0.049 A 
ATOM     49  C   UNL A   1      42.876  28.510  33.322  1.00  0.00     0.074 A 
ATOM     50  C   UNL A   1      45.047  25.741  29.102  1.00  0.00     0.029 A 
ATOM     51  N   UNL A   1      43.789  24.568  30.515  1.00  0.00    -0.354 N 
ATOM     52  N   UNL A   1      43.167  27.488  32.565  1.00  0.00    -0.248 NA
ATOM     53  C   UNL A   1      43.379  28.372  34.684  1.00  0.00     0.031 C 
ATOM     54  C   UNL A   1      45.316  26.179  30.420  1.00  0.00     0.029 A 
ATOM     55  C   UNL A   1      44.518  25.453  31.287  1.00  0.00     0.049 A 
ATOM     56  H   UNL A   1      43.164  23.894  30.869  1.00  0.00     0.167 HD
ATOM     57  C   UNL A   1      43.917  26.596  33.287  1.00  0.00     0.074 A 
ATOM     58  C   UNL A   1      44.016  27.190  34.608  1.00  0.00     0.031 C 
ATOM     59  C   UNL A   1      44.434  25.456  32.737  1.00  0.00     0.037 A 
BRANCH  46  60
ATOM     60  C   UNL A   1      43.476  23.503  26.921  1.00  0.00     0.064 A 
ATOM     61  C   UNL A   1      43.090  22.157  26.777  1.00  0.00     0.173 A 
ATOM     62  C   UNL A   1      44.299  24.012  25.899  1.00  0.00     0.173 A 
ATOM     63  F   UNL A   1      42.255  21.571  27.642  1.00  0.00    -0.203 F 
ATOM     64  C   UNL A   1      43.577  21.350  25.747  1.00  0.00     0.198 A 
ATOM     65  C   UNL A   1      44.825  23.191  24.896  1.00  0.00     0.198 A 
ATOM     66  F   UNL A   1      44.618  25.315  25.862  1.00  0.00    -0.203 F 
ATOM     67  F   UNL A   1      43.195  20.068  25.672  1.00  0.00    -0.200 F 
ATOM     68  C   UNL A   1      44.472  21.857  24.828  1.00  0.00     0.200 A 
ATOM     69  F   UNL A   1      45.696  23.696  24.010  1.00  0.00    -0.200 F 
ATOM     70  F   UNL A   1      44.985  21.064  23.876  1.00  0.00    -0.200 F 
ENDBRANCH  46  60
BRANCH  47  71
ATOM     71  C   UNL A   1      40.800  30.162  33.346  1.00  0.00     0.064 A 
ATOM     72  C   UNL A   1      40.616  31.521  33.662  1.00  0.00     0.173 A 
ATOM     73  C   UNL A   1      39.656  29.371  33.193  1.00  0.00     0.173 A 
ATOM     74  F   UNL A   1      41.682  32.321  33.827  1.00  0.00    -0.203 F 
ATOM     75  C   UNL A   1      39.345  32.085  33.725  1.00  0.00     0.198 A 
ATOM     76  C   UNL A   1      38.382  29.939  33.258  1.00  0.00     0.198 A 
ATOM     77  F   UNL A   1      39.765  28.066  32.909  1.00  0.00    -0.203 F 
ATOM     78  F   UNL A   1      39.205  33.400  33.949  1.00  0.00    -0.200 F 
ATOM     79  C   UNL A   1      38.228  31.298  33.500  1.00  0.00     0.200 A 
ATOM     80  F   UNL A   1      37.304  29.172  33.047  1.00  0.00    -0.200 F 
ATOM     81  F   UNL A   1      37.011  31.855  33.518  1.00  0.00    -0.200 F 
ENDBRANCH  47  71
BRANCH  59  82
ATOM     82  C   UNL A   1      45.069  24.321  33.501  1.00  0.00     0.064 A 
ATOM     83  C   UNL A   1      44.430  23.099  33.757  1.00  0.00     0.173 A 
ATOM     84  C   UNL A   1      46.428  24.392  33.899  1.00  0.00     0.173 A 
ATOM     85  F   UNL A   1      43.195  22.849  33.301  1.00  0.00    -0.203 F 
ATOM     86  C   UNL A   1      45.064  22.063  34.446  1.00  0.00     0.198 A 
ATOM     87  C   UNL A   1      47.077  23.333  34.530  1.00  0.00     0.198 A 
ATOM     88  F   UNL A   1      47.178  25.479  33.668  1.00  0.00    -0.203 F 
ATOM     89  F   UNL A   1      44.388  20.939  34.720  1.00  0.00    -0.200 F 
ATOM     90  C   UNL A   1      46.387  22.176  34.827  1.00  0.00     0.200 A 
ATOM     91  F   UNL A   1      48.379  23.436  34.833  1.00  0.00    -0.200 F 
ATOM     92  F   UNL A   1      47.002  21.167  35.455  1.00  0.00    -0.200 F 
ENDBRANCH  59  82
ENDBRANCH  33  34
ENDBRANCH  26  28
ENDBRANCH  25  26
ENDBRANCH  24  25
ENDBRANCH   1  24
TORSDOF 13
ENDMDL
MODEL 2
REMARK VINA RESULT:     -13.4      4.076     10.023
REMARK SMILES Cc1ccc(C(=O)Nc2cccc(F)c2C(=O)OCCOC(=O)c2ccc(-c3c4nc(c(-c5c(F)c(F)c(F)c(F)c5F)c5ccc([nH]5)c(-c5c(F)c(F)c(F)c(F)c5F)c5nc(c(-c6c(F)c(F)c(F)c(F)c6F)c6ccc3[nH]6)C=C5)C=C4)cc2)c(F)c1
REMARK SMILES IDX 19 1 18 2 16 3 17 4 15 5 9 6 10 7 11 8 13 9 12 10 14 11 8 12
REMARK SMILES IDX 6 13 7 14 5 16 1 17 2 18 3 19 89 20 4 21 87 22 88 23 20 24
REMARK SMILES IDX 21 25 22 26 23 27 24 28 25 29 86 30 26 31 85 32 27 33 28 34
REMARK SMILES IDX 29 35 79 36 30 37 84 38 78 39 80 40 31 41 83 42 77 43 76 44
REMARK SMILES IDX 32 46 64 47 44 48 63 49 45 50 48 51 62 52 81 53 46 54 47 55
REMARK SMILES IDX 61 57 82 58 49 59 33 60 34 61 42 62 35 63 36 64 40 65 43 66
REMARK SMILES IDX 37 67 38 68 41 69 39 70 65 71 66 72 74 73 67 74 68 75 72 76
REMARK SMILES IDX 75 77 69 78 70 79 73 80 71 81 50 82 51 83 59 84 52 85 53 86
REMARK SMILES IDX 57 87 60 88 54 89 55 90 58 91 56 92
REMARK H PARENT 8 15 80 45 48 56
REMARK Flexibility Score: inf
ROOT
ATOM      1  C   UNL A   1      37.822  22.006  25.766  1.00  0.00     0.275 C 
ENDROOT
BRANCH   1   2
ATOM      2  O   UNL A   1      36.912  22.491  24.755  1.00  0.00    -0.458 OA
BRANCH   2   3
ATOM      3  C   UNL A   1      35.829  23.184  25.188  1.00  0.00     0.343 C 
ATOM      4  O   UNL A   1      35.851  24.329  25.625  1.00  0.00    -0.246 OA
BRANCH   3   5
ATOM      5  C   UNL A   1      34.564  22.461  24.901  1.00  0.00     0.119 A 
ATOM      6  C   UNL A   1      33.732  22.855  23.826  1.00  0.00     0.059 A 
ATOM      7  C   UNL A   1      32.563  22.128  23.556  1.00  0.00     0.027 A 
ATOM      8  C   UNL A   1      32.176  21.075  24.388  1.00  0.00     0.005 A 
ATOM      9  C   UNL A   1      34.150  21.420  25.733  1.00  0.00     0.139 A 
ATOM     10  C   UNL A   1      32.961  20.735  25.486  1.00  0.00     0.040 A 
ATOM     11  F   UNL A   1      34.860  21.075  26.816  1.00  0.00    -0.206 F 
BRANCH   6  12
ATOM     12  N   UNL A   1      34.107  23.952  23.021  1.00  0.00    -0.321 N 
ATOM     13  C   UNL A   1      33.694  25.265  22.963  1.00  0.00     0.258 C 
ATOM     14  O   UNL A   1      33.925  25.902  21.936  1.00  0.00    -0.269 OA
ATOM     15  H   UNL A   1      34.809  23.733  22.366  1.00  0.00     0.170 HD
BRANCH  13  16
ATOM     16  C   UNL A   1      33.149  25.965  24.155  1.00  0.00     0.075 A 
ATOM     17  C   UNL A   1      31.466  28.125  27.497  1.00  0.00     0.044 C 
ATOM     18  C   UNL A   1      32.047  27.365  26.344  1.00  0.00    -0.048 A 
ATOM     19  C   UNL A   1      33.390  27.532  26.002  1.00  0.00     0.004 A 
ATOM     20  C   UNL A   1      31.244  26.541  25.550  1.00  0.00     0.043 A 
ATOM     21  C   UNL A   1      33.924  26.866  24.898  1.00  0.00     0.017 A 
ATOM     22  C   UNL A   1      31.796  25.838  24.477  1.00  0.00     0.136 A 
ATOM     23  F   UNL A   1      30.976  25.049  23.767  1.00  0.00    -0.206 F 
ENDBRANCH  13  16
ENDBRANCH   6  12
ENDBRANCH   3   5
ENDBRANCH   2   3
ENDBRANCH   1   2
BRANCH   1  24
ATOM     24  C   UNL A   1      39.165  22.737  25.713  1.00  0.00     0.275 C 
BRANCH  24  25
ATOM     25  O   UNL A   1      39.841  22.724  26.982  1.00  0.00    -0.458 OA
BRANCH  25  26
ATOM     26  C   UNL A   1      40.533  23.856  27.217  1.00  0.00     0.338 C 
ATOM     27  O   UNL A   1      41.685  23.937  27.619  1.00  0.00    -0.246 OA
BRANCH  26  28
ATOM     28  C   UNL A   1      39.676  25.047  27.257  1.00  0.00     0.060 A 
ATOM     29  C   UNL A   1      40.215  26.117  26.529  1.00  0.00     0.016 A 
ATOM     30  C   UNL A   1      39.036  25.245  28.483  1.00  0.00     0.016 A 
ATOM     31  C   UNL A   1      40.475  27.295  27.189  1.00  0.00     0.010 A 
ATOM     32  C   UNL A   1      39.247  26.444  29.123  1.00  0.00     0.010 A 
ATOM     33  C   UNL A   1      40.050  27.412  28.510  1.00  0.00    -0.014 A 
BRANCH  33  34
ATOM     34  C   UNL A   1      40.339  28.605  29.270  1.00  0.00     0.031 A 
ATOM     35  C   UNL A   1      39.280  29.623  29.349  1.00  0.00     0.074 A 
ATOM     36  C   UNL A   1      41.545  28.756  29.851  1.00  0.00     0.049 A 
ATOM     37  N   UNL A   1      39.479  30.880  29.536  1.00  0.00    -0.248 NA
ATOM     38  C   UNL A   1      37.875  29.280  29.115  1.00  0.00     0.031 C 
ATOM     39  C   UNL A   1      41.915  29.728  30.868  1.00  0.00     0.029 A 
ATOM     40  N   UNL A   1      42.753  28.136  29.488  1.00  0.00    -0.354 N 
ATOM     41  C   UNL A   1      38.245  31.443  29.758  1.00  0.00     0.074 A 
ATOM     42  C   UNL A   1      37.279  30.448  29.363  1.00  0.00     0.031 C 
ATOM     43  C   UNL A   1      43.253  29.830  30.903  1.00  0.00     0.029 A 
ATOM     44  C   UNL A   1      43.770  29.067  29.778  1.00  0.00     0.049 A 
ATOM     45  H   UNL A   1      42.865  27.235  29.107  1.00  0.00     0.167 HD
ATOM     46  C   UNL A   1      38.163  32.613  30.449  1.00  0.00     0.037 A 
ATOM     47  C   UNL A   1      44.547  29.602  28.793  1.00  0.00     0.037 A 
ATOM     48  C   UNL A   1      39.489  33.134  30.751  1.00  0.00     0.049 A 
ATOM     49  C   UNL A   1      44.427  31.102  28.700  1.00  0.00     0.074 A 
ATOM     50  C   UNL A   1      40.319  32.949  31.846  1.00  0.00     0.029 A 
ATOM     51  N   UNL A   1      40.301  33.592  29.715  1.00  0.00    -0.354 N 
ATOM     52  N   UNL A   1      43.352  31.768  29.021  1.00  0.00    -0.248 NA
ATOM     53  C   UNL A   1      45.523  31.962  28.269  1.00  0.00     0.031 C 
ATOM     54  C   UNL A   1      41.646  33.231  31.446  1.00  0.00     0.029 A 
ATOM     55  C   UNL A   1      41.623  33.615  30.117  1.00  0.00     0.049 A 
ATOM     56  H   UNL A   1      39.979  33.859  28.824  1.00  0.00     0.167 HD
ATOM     57  C   UNL A   1      43.604  33.110  28.897  1.00  0.00     0.074 A 
ATOM     58  C   UNL A   1      44.973  33.180  28.416  1.00  0.00     0.031 C 
ATOM     59  C   UNL A   1      42.686  34.065  29.235  1.00  0.00     0.037 A 
BRANCH  46  60
ATOM     60  C   UNL A   1      36.888  32.967  31.167  1.00  0.00     0.064 A 
ATOM     61  C   UNL A   1      35.872  33.697  30.522  1.00  0.00     0.173 A 
ATOM     62  C   UNL A   1      36.676  32.708  32.533  1.00  0.00     0.173 A 
ATOM     63  F   UNL A   1      35.917  33.952  29.209  1.00  0.00    -0.203 F 
ATOM     64  C   UNL A   1      34.779  34.221  31.214  1.00  0.00     0.198 A 
ATOM     65  C   UNL A   1      35.607  33.274  33.236  1.00  0.00     0.198 A 
ATOM     66  F   UNL A   1      37.511  31.909  33.216  1.00  0.00    -0.203 F 
ATOM     67  F   UNL A   1      33.853  34.930  30.553  1.00  0.00    -0.200 F 
ATOM     68  C   UNL A   1      34.665  34.040  32.577  1.00  0.00     0.200 A 
ATOM     69  F   UNL A   1      35.509  33.092  34.562  1.00  0.00    -0.200 F 
ATOM     70  F   UNL A   1      33.647  34.595  33.250  1.00  0.00    -0.200 F 
ENDBRANCH  46  60
BRANCH  47  71
ATOM     71  C   UNL A   1      44.767  28.694  27.639  1.00  0.00     0.064 A 
ATOM     72  C   UNL A   1      45.704  27.653  27.775  1.00  0.00     0.173 A 
ATOM     73  C   UNL A   1      43.859  28.614  26.578  1.00  0.00     0.173 A 
ATOM     74  F   UNL A   1      46.603  27.687  28.772  1.00  0.00    -0.203 F 
ATOM     75  C   UNL A   1      45.671  26.535  26.946  1.00  0.00     0.198 A 
ATOM     76  C   UNL A   1      43.828  27.492  25.747  1.00  0.00     0.198 A 
ATOM     77  F   UNL A   1      42.953  29.582  26.384  1.00  0.00    -0.203 F 
ATOM     78  F   UNL A   1      46.527  25.523  27.152  1.00  0.00    -0.200 F 
ATOM     79  C   UNL A   1      44.718  26.445  25.946  1.00  0.00     0.200 A 
ATOM     80  F   UNL A   1      42.909  27.412  24.777  1.00  0.00    -0.200 F 
ATOM     81  F   UNL A   1      44.663  25.347  25.182  1.00  0.00    -0.200 F 
ENDBRANCH  47  71
BRANCH  59  82
ATOM     82  C   UNL A   1      42.793  35.537  28.922  1.00  0.00     0.064 A 
ATOM     83  C   UNL A   1      42.143  36.153  27.841  1.00  0.00     0.173 A 
ATOM     84  C   UNL A   1      43.471  36.414  29.804  1.00  0.00     0.173 A 
ATOM     85  F   UNL A   1      41.347  35.458  27.018  1.00  0.00    -0.203 F 
ATOM     86  C   UNL A   1      42.247  37.525  27.602  1.00  0.00     0.198 A 
ATOM     87  C   UNL A   1      43.519  37.791  29.598  1.00  0.00     0.198 A 
ATOM     88  F   UNL A   1      44.088  35.970  30.908  1.00  0.00    -0.203 F 
ATOM     89  F   UNL A   1      41.659  38.054  26.520  1.00  0.00    -0.200 F 
ATOM     90  C   UNL A   1      42.928  38.344  28.481  1.00  0.00     0.200 A 
ATOM     91  F   UNL A   1      44.128  38.577  30.496  1.00  0.00    -0.200 F 
ATOM     92  F   UNL A   1      42.993  39.664  28.268  1.00  0.00    -0.200 F 
ENDBRANCH  59  82
ENDBRANCH  33  34
ENDBRANCH  26  28
ENDBRANCH  25  26
ENDBRANCH  24  25
ENDBRANCH   1  24
TORSDOF 13
ENDMDL
MODEL 3
REMARK VINA RESULT:     -13.3      5.335     12.129
REMARK SMILES Cc1ccc(C(=O)Nc2cccc(F)c2C(=O)OCCOC(=O)c2ccc(-c3c4nc(c(-c5c(F)c(F)c(F)c(F)c5F)c5ccc([nH]5)c(-c5c(F)c(F)c(F)c(F)c5F)c5nc(c(-c6c(F)c(F)c(F)c(F)c6F)c6ccc3[nH]6)C=C5)C=C4)cc2)c(F)c1
REMARK SMILES IDX 19 1 18 2 16 3 17 4 15 5 9 6 10 7 11 8 13 9 12 10 14 11 8 12
REMARK SMILES IDX 6 13 7 14 5 16 1 17 2 18 3 19 89 20 4 21 87 22 88 23 20 24
REMARK SMILES IDX 21 25 22 26 23 27 24 28 25 29 86 30 26 31 85 32 27 33 28 34
REMARK SMILES IDX 29 35 79 36 30 37 84 38 78 39 80 40 31 41 83 42 77 43 76 44
REMARK SMILES IDX 32 46 64 47 44 48 63 49 45 50 48 51 62 52 81 53 46 54 47 55
REMARK SMILES IDX 61 57 82 58 49 59 33 60 34 61 42 62 35 63 36 64 40 65 43 66
REMARK SMILES IDX 37 67 38 68 41 69 39 70 65 71 66 72 74 73 67 74 68 75 72 76
REMARK SMILES IDX 75 77 69 78 70 79 73 80 71 81 50 82 51 83 59 84 52 85 53 86
REMARK SMILES IDX 57 87 60 88 54 89 55 90 58 91 56 92
REMARK H PARENT 8 15 80 45 48 56
REMARK Flexibility Score: inf
ROOT
ATOM      1  C   UNL A   1      40.925  21.128  27.399  1.00  0.00     0.275 C 
ENDROOT
BRANCH   1   2
ATOM      2  O   UNL A   1      42.267  20.893  26.920  1.00  0.00    -0.458 OA
BRANCH   2   3
ATOM      3  C   UNL A   1      42.418  19.942  25.963  1.00  0.00     0.343 C 
ATOM      4  O   UNL A   1      41.502  19.378  25.376  1.00  0.00    -0.246 OA
BRANCH   3   5
ATOM      5  C   UNL A   1      43.841  19.785  25.566  1.00  0.00     0.119 A 
ATOM      6  C   UNL A   1      44.539  20.845  24.940  1.00  0.00     0.059 A 
ATOM      7  C   UNL A   1      45.893  20.680  24.613  1.00  0.00     0.027 A 
ATOM      8  C   UNL A   1      46.529  19.454  24.824  1.00  0.00     0.005 A 
ATOM      9  C   UNL A   1      44.486  18.563  25.751  1.00  0.00     0.139 A 
ATOM     10  C   UNL A   1      45.819  18.392  25.376  1.00  0.00     0.040 A 
ATOM     11  F   UNL A   1      43.836  17.504  26.255  1.00  0.00    -0.206 F 
BRANCH   6  12
ATOM     12  N   UNL A   1      43.873  22.063  24.685  1.00  0.00    -0.321 N 
ATOM     13  C   UNL A   1      44.061  23.353  25.131  1.00  0.00     0.258 C 
ATOM     14  O   UNL A   1      43.123  24.144  25.034  1.00  0.00    -0.269 OA
ATOM     15  H   UNL A   1      43.119  21.972  24.059  1.00  0.00     0.170 HD
BRANCH  13  16
ATOM     16  C   UNL A   1      45.398  23.846  25.550  1.00  0.00     0.075 A 
ATOM     17  C   UNL A   1      49.198  25.450  26.837  1.00  0.00     0.044 C 
ATOM     18  C   UNL A   1      47.884  24.883  26.395  1.00  0.00    -0.048 A 
ATOM     19  C   UNL A   1      47.557  24.848  25.039  1.00  0.00     0.004 A 
ATOM     20  C   UNL A   1      46.938  24.453  27.331  1.00  0.00     0.043 A 
ATOM     21  C   UNL A   1      46.314  24.367  24.626  1.00  0.00     0.017 A 
ATOM     22  C   UNL A   1      45.715  23.927  26.909  1.00  0.00     0.136 A 
ATOM     23  F   UNL A   1      44.859  23.513  27.855  1.00  0.00    -0.206 F 
ENDBRANCH  13  16
ENDBRANCH   6  12
ENDBRANCH   3   5
ENDBRANCH   2   3
ENDBRANCH   1   2
BRANCH   1  24
ATOM     24  C   UNL A   1      40.410  22.506  26.979  1.00  0.00     0.275 C 
BRANCH  24  25
ATOM     25  O   UNL A   1      40.186  23.369  28.107  1.00  0.00    -0.458 OA
BRANCH  25  26
ATOM     26  C   UNL A   1      40.700  24.602  27.931  1.00  0.00     0.338 C 
ATOM     27  O   UNL A   1      41.874  24.926  28.038  1.00  0.00    -0.246 OA
BRANCH  26  28
ATOM     28  C   UNL A   1      39.669  25.648  27.904  1.00  0.00     0.060 A 
ATOM     29  C   UNL A   1      40.028  26.730  27.089  1.00  0.00     0.016 A 
ATOM     30  C   UNL A   1      39.020  25.836  29.127  1.00  0.00     0.016 A 
ATOM     31  C   UNL A   1      40.110  27.980  27.656  1.00  0.00     0.010 A 
ATOM     32  C   UNL A   1      39.051  27.097  29.674  1.00  0.00     0.010 A 
ATOM     33  C   UNL A   1      39.688  28.129  28.974  1.00  0.00    -0.014 A 
BRANCH  33  34
ATOM     34  C   UNL A   1      39.797  29.406  29.640  1.00  0.00     0.031 A 
ATOM     35  C   UNL A   1      38.770  30.413  29.331  1.00  0.00     0.074 A 
ATOM     36  C   UNL A   1      40.820  29.637  30.484  1.00  0.00     0.049 A 
ATOM     37  N   UNL A   1      38.939  31.686  29.415  1.00  0.00    -0.248 NA
ATOM     38  C   UNL A   1      37.464  30.028  28.792  1.00  0.00     0.031 C 
ATOM     39  C   UNL A   1      40.940  30.725  31.442  1.00  0.00     0.029 A 
ATOM     40  N   UNL A   1      42.070  28.994  30.511  1.00  0.00    -0.354 N 
ATOM     41  C   UNL A   1      37.698  32.256  29.254  1.00  0.00     0.074 A 
ATOM     42  C   UNL A   1      36.845  31.210  28.745  1.00  0.00     0.031 C 
ATOM     43  C   UNL A   1      42.227  30.847  31.801  1.00  0.00     0.029 A 
ATOM     44  C   UNL A   1      42.998  29.964  30.939  1.00  0.00     0.049 A 
ATOM     45  H   UNL A   1      42.258  28.056  30.277  1.00  0.00     0.167 HD
ATOM     46  C   UNL A   1      37.466  33.496  29.761  1.00  0.00     0.037 A 
ATOM     47  C   UNL A   1      44.006  30.390  30.126  1.00  0.00     0.037 A 
ATOM     48  C   UNL A   1      38.682  34.065  30.325  1.00  0.00     0.049 A 
ATOM     49  C   UNL A   1      43.941  31.868  29.834  1.00  0.00     0.074 A 
ATOM     50  C   UNL A   1      39.206  34.018  31.608  1.00  0.00     0.029 A 
ATOM     51  N   UNL A   1      39.736  34.409  29.482  1.00  0.00    -0.354 N 
ATOM     52  N   UNL A   1      42.831  32.554  29.794  1.00  0.00    -0.248 NA
ATOM     53  C   UNL A   1      45.125  32.685  29.596  1.00  0.00     0.031 C 
ATOM     54  C   UNL A   1      40.596  34.268  31.526  1.00  0.00     0.029 A 
ATOM     55  C   UNL A   1      40.916  34.495  30.198  1.00  0.00     0.049 A 
ATOM     56  H   UNL A   1      39.654  34.567  28.514  1.00  0.00     0.167 HD
ATOM     57  C   UNL A   1      43.130  33.875  29.584  1.00  0.00     0.074 A 
ATOM     58  C   UNL A   1      44.577  33.905  29.458  1.00  0.00     0.031 C 
ATOM     59  C   UNL A   1      42.174  34.852  29.567  1.00  0.00     0.037 A 
BRANCH  46  60
ATOM     60  C   UNL A   1      36.058  33.916  30.089  1.00  0.00     0.064 A 
ATOM     61  C   UNL A   1      35.181  34.362  29.082  1.00  0.00     0.173 A 
ATOM     62  C   UNL A   1      35.567  34.007  31.405  1.00  0.00     0.173 A 
ATOM     63  F   UNL A   1      35.497  34.268  27.785  1.00  0.00    -0.203 F 
ATOM     64  C   UNL A   1      33.951  34.954  29.374  1.00  0.00     0.198 A 
ATOM     65  C   UNL A   1      34.358  34.644  31.701  1.00  0.00     0.198 A 
ATOM     66  F   UNL A   1      36.260  33.490  32.431  1.00  0.00    -0.203 F 
ATOM     67  F   UNL A   1      33.167  35.383  28.376  1.00  0.00    -0.200 F 
ATOM     68  C   UNL A   1      33.555  35.128  30.685  1.00  0.00     0.200 A 
ATOM     69  F   UNL A   1      33.986  34.808  32.979  1.00  0.00    -0.200 F 
ATOM     70  F   UNL A   1      32.402  35.751  30.966  1.00  0.00    -0.200 F 
ENDBRANCH  46  60
BRANCH  47  71
ATOM     71  C   UNL A   1      44.493  29.357  29.177  1.00  0.00     0.064 A 
ATOM     72  C   UNL A   1      43.883  29.268  27.912  1.00  0.00     0.173 A 
ATOM     73  C   UNL A   1      45.727  28.721  29.347  1.00  0.00     0.173 A 
ATOM     74  F   UNL A   1      42.693  29.855  27.700  1.00  0.00    -0.203 F 
ATOM     75  C   UNL A   1      44.523  28.654  26.840  1.00  0.00     0.198 A 
ATOM     76  C   UNL A   1      46.367  28.105  28.270  1.00  0.00     0.198 A 
ATOM     77  F   UNL A   1      46.352  28.754  30.533  1.00  0.00    -0.203 F 
ATOM     78  F   UNL A   1      43.950  28.655  25.627  1.00  0.00    -0.200 F 
ATOM     79  C   UNL A   1      45.776  28.092  27.014  1.00  0.00     0.200 A 
ATOM     80  F   UNL A   1      47.576  27.556  28.445  1.00  0.00    -0.200 F 
ATOM     81  F   UNL A   1      46.406  27.542  25.968  1.00  0.00    -0.200 F 
ENDBRANCH  47  71
BRANCH  59  82
ATOM     82  C   UNL A   1      42.382  36.279  29.123  1.00  0.00     0.064 A 
ATOM     83  C   UNL A   1      43.148  37.213  29.836  1.00  0.00     0.173 A 
ATOM     84  C   UNL A   1      41.903  36.719  27.863  1.00  0.00     0.173 A 
ATOM     85  F   UNL A   1      43.780  36.878  30.969  1.00  0.00    -0.203 F 
ATOM     86  C   UNL A   1      43.337  38.518  29.377  1.00  0.00     0.198 A 
ATOM     87  C   UNL A   1      42.148  38.002  27.378  1.00  0.00     0.198 A 
ATOM     88  F   UNL A   1      41.205  35.913  27.051  1.00  0.00    -0.203 F 
ATOM     89  F   UNL A   1      44.025  39.390  30.126  1.00  0.00    -0.200 F 
ATOM     90  C   UNL A   1      42.844  38.911  28.147  1.00  0.00     0.200 A 
ATOM     91  F   UNL A   1      41.718  38.344  26.156  1.00  0.00    -0.200 F 
ATOM     92  F   UNL A   1      43.060  40.152  27.694  1.00  0.00    -0.200 F 
ENDBRANCH  59  82
ENDBRANCH  33  34
ENDBRANCH  26  28
ENDBRANCH  25  26
ENDBRANCH  24  25
ENDBRANCH   1  24
TORSDOF 13
ENDMDL
