MODEL 1
REMARK VINA RESULT:     -12.0      0.000      0.000
REMARK SMILES C[C@@H]1[C@H](C(=O)OCCOC(=O)c2ccc(-c3c4nc(c(-c5c(F)c(F)c(F)c(F)c5F)c5ccc([nH]5)c(-c5c(F)c(F)c(F)c(F)c5F)c5nc(c(-c6c(F)c(F)c(F)c(F)c6F)c6ccc3[nH]6)C=C5)C=C4)cc2)CCN1S(=O)(=O)c1cc(F)cc(F)c1
REMARK SMILES IDX 7 1 6 2 4 3 5 4 3 5 1 6 2 7 77 8 75 9 76 10 78 11 79 12
REMARK SMILES IDX 80 13 81 14 82 15 88 16 83 17 86 18 84 19 85 20 87 21 8 22
REMARK SMILES IDX 9 23 10 24 11 25 12 26 13 27 74 28 14 29 73 30 15 31 16 32
REMARK SMILES IDX 17 33 67 34 18 35 72 36 66 37 68 38 19 39 71 40 65 41 64 42
REMARK SMILES IDX 20 44 52 45 32 46 51 47 33 48 36 49 50 50 69 51 34 52 35 53
REMARK SMILES IDX 49 55 70 56 37 57 21 58 22 59 30 60 23 61 24 62 28 63 31 64
REMARK SMILES IDX 25 65 26 66 29 67 27 68 53 69 54 70 62 71 55 72 56 73 60 74
REMARK SMILES IDX 63 75 57 76 58 77 61 78 59 79 38 80 39 81 47 82 40 83 41 84
REMARK SMILES IDX 45 85 48 86 42 87 43 88 46 89 44 90
REMARK H PARENT 68 43 36 54
REMARK Flexibility Score: inf
ROOT
ATOM      1  C   UNL A   1      31.449  28.582  25.404  1.00  0.00     0.274 C 
ENDROOT
BRANCH   1   2
ATOM      2  O   UNL A   1      32.243  27.752  26.272  1.00  0.00    -0.462 OA
BRANCH   2   3
ATOM      3  C   UNL A   1      32.170  26.415  26.119  1.00  0.00     0.310 C 
ATOM      4  O   UNL A   1      31.342  25.698  26.672  1.00  0.00    -0.252 OA
BRANCH   3   5
ATOM      5  C   UNL A   1      33.179  25.859  25.142  1.00  0.00     0.118 C 
ATOM      6  C   UNL A   1      33.806  23.701  26.453  1.00  0.00     0.027 C 
ATOM      7  C   UNL A   1      34.268  24.864  25.579  1.00  0.00     0.084 C 
ATOM      8  N   UNL A   1      34.843  24.425  24.258  1.00  0.00    -0.194 NA
ATOM      9  C   UNL A   1      32.563  25.179  23.941  1.00  0.00     0.034 C 
ATOM     10  C   UNL A   1      33.797  24.678  23.203  1.00  0.00     0.104 C 
BRANCH   8  11
ATOM     11  S   UNL A   1      35.718  23.001  23.984  1.00  0.00     0.243 S 
ATOM     12  O   UNL A   1      34.885  21.877  24.357  1.00  0.00    -0.207 OA
ATOM     13  O   UNL A   1      36.217  23.112  22.627  1.00  0.00    -0.207 OA
BRANCH  11  14
ATOM     14  C   UNL A   1      37.165  22.944  25.017  1.00  0.00     0.088 A 
ATOM     15  C   UNL A   1      37.872  21.733  25.030  1.00  0.00     0.061 A 
ATOM     16  C   UNL A   1      37.586  23.989  25.836  1.00  0.00     0.061 A 
ATOM     17  C   UNL A   1      38.962  21.575  25.878  1.00  0.00     0.127 A 
ATOM     18  C   UNL A   1      38.682  23.802  26.679  1.00  0.00     0.127 A 
ATOM     19  F   UNL A   1      39.614  20.406  25.902  1.00  0.00    -0.207 F 
ATOM     20  C   UNL A   1      39.373  22.601  26.715  1.00  0.00     0.078 A 
ATOM     21  F   UNL A   1      39.060  24.802  27.486  1.00  0.00    -0.207 F 
ENDBRANCH  11  14
ENDBRANCH   8  11
ENDBRANCH   3   5
ENDBRANCH   2   3
ENDBRANCH   1   2
BRANCH   1  22
ATOM     22  C   UNL A   1      31.935  30.032  25.489  1.00  0.00     0.275 C 
BRANCH  22  23
ATOM     23  O   UNL A   1      33.265  30.107  26.041  1.00  0.00    -0.458 OA
BRANCH  23  24
ATOM     24  C   UNL A   1      33.480  31.123  26.909  1.00  0.00     0.338 C 
ATOM     25  O   UNL A   1      32.723  32.038  27.180  1.00  0.00    -0.246 OA
BRANCH  24  26
ATOM     26  C   UNL A   1      34.738  30.885  27.637  1.00  0.00     0.060 A 
ATOM     27  C   UNL A   1      34.984  29.593  28.110  1.00  0.00     0.016 A 
ATOM     28  C   UNL A   1      35.643  31.915  27.894  1.00  0.00     0.016 A 
ATOM     29  C   UNL A   1      36.137  29.318  28.837  1.00  0.00     0.010 A 
ATOM     30  C   UNL A   1      36.804  31.641  28.625  1.00  0.00     0.010 A 
ATOM     31  C   UNL A   1      37.054  30.343  29.101  1.00  0.00    -0.014 A 
BRANCH  31  32
ATOM     32  C   UNL A   1      38.258  30.046  29.909  1.00  0.00     0.031 A 
ATOM     33  C   UNL A   1      39.335  29.168  29.346  1.00  0.00     0.074 A 
ATOM     34  C   UNL A   1      38.394  30.596  31.130  1.00  0.00     0.049 A 
ATOM     35  N   UNL A   1      40.428  28.730  29.915  1.00  0.00    -0.248 NA
ATOM     36  C   UNL A   1      39.160  28.728  27.953  1.00  0.00     0.031 C 
ATOM     37  C   UNL A   1      37.439  31.512  31.752  1.00  0.00     0.029 A 
ATOM     38  N   UNL A   1      39.392  30.466  32.061  1.00  0.00    -0.354 N 
ATOM     39  C   UNL A   1      41.066  27.953  28.958  1.00  0.00     0.074 A 
ATOM     40  C   UNL A   1      40.230  27.965  27.776  1.00  0.00     0.031 C 
ATOM     41  C   UNL A   1      37.899  31.866  32.963  1.00  0.00     0.029 A 
ATOM     42  C   UNL A   1      39.154  31.165  33.218  1.00  0.00     0.049 A 
ATOM     43  H   UNL A   1      40.200  29.923  31.914  1.00  0.00     0.167 HD
ATOM     44  C   UNL A   1      42.244  27.294  29.061  1.00  0.00     0.037 A 
ATOM     45  C   UNL A   1      39.860  31.210  34.364  1.00  0.00     0.037 A 
ATOM     46  C   UNL A   1      43.073  27.292  30.237  1.00  0.00     0.049 A 
ATOM     47  C   UNL A   1      41.127  30.408  34.476  1.00  0.00     0.074 A 
ATOM     48  C   UNL A   1      44.278  26.645  30.446  1.00  0.00     0.029 A 
ATOM     49  N   UNL A   1      42.779  27.978  31.408  1.00  0.00    -0.354 N 
ATOM     50  N   UNL A   1      41.712  29.655  33.576  1.00  0.00    -0.248 NA
ATOM     51  C   UNL A   1      41.828  30.454  35.767  1.00  0.00     0.031 C 
ATOM     52  C   UNL A   1      44.696  26.910  31.755  1.00  0.00     0.029 A 
ATOM     53  C   UNL A   1      43.773  27.757  32.348  1.00  0.00     0.049 A 
ATOM     54  H   UNL A   1      41.983  28.539  31.549  1.00  0.00     0.167 HD
ATOM     55  C   UNL A   1      42.856  29.155  34.181  1.00  0.00     0.074 A 
ATOM     56  C   UNL A   1      42.892  29.702  35.522  1.00  0.00     0.031 C 
ATOM     57  C   UNL A   1      43.793  28.318  33.673  1.00  0.00     0.037 A 
BRANCH  44  58
ATOM     58  C   UNL A   1      42.693  26.495  27.874  1.00  0.00     0.064 A 
ATOM     59  C   UNL A   1      42.367  25.138  27.735  1.00  0.00     0.173 A 
ATOM     60  C   UNL A   1      43.432  27.103  26.849  1.00  0.00     0.173 A 
ATOM     61  F   UNL A   1      41.677  24.507  28.697  1.00  0.00    -0.203 F 
ATOM     62  C   UNL A   1      42.781  24.413  26.620  1.00  0.00     0.198 A 
ATOM     63  C   UNL A   1      43.825  26.382  25.724  1.00  0.00     0.198 A 
ATOM     64  F   UNL A   1      43.768  28.399  26.935  1.00  0.00    -0.203 F 
ATOM     65  F   UNL A   1      42.493  23.108  26.525  1.00  0.00    -0.200 F 
ATOM     66  C   UNL A   1      43.504  25.038  25.613  1.00  0.00     0.200 A 
ATOM     67  F   UNL A   1      44.516  26.988  24.749  1.00  0.00    -0.200 F 
ATOM     68  F   UNL A   1      43.898  24.340  24.539  1.00  0.00    -0.200 F 
ENDBRANCH  44  58
BRANCH  45  69
ATOM     69  C   UNL A   1      39.371  32.026  35.505  1.00  0.00     0.064 A 
ATOM     70  C   UNL A   1      38.522  31.477  36.475  1.00  0.00     0.173 A 
ATOM     71  C   UNL A   1      39.733  33.375  35.642  1.00  0.00     0.173 A 
ATOM     72  F   UNL A   1      38.127  30.200  36.372  1.00  0.00    -0.203 F 
ATOM     73  C   UNL A   1      38.041  32.250  37.531  1.00  0.00     0.198 A 
ATOM     74  C   UNL A   1      39.273  34.139  36.712  1.00  0.00     0.198 A 
ATOM     75  F   UNL A   1      40.542  33.949  34.738  1.00  0.00    -0.203 F 
ATOM     76  F   UNL A   1      37.195  31.712  38.419  1.00  0.00    -0.200 F 
ATOM     77  C   UNL A   1      38.422  33.578  37.651  1.00  0.00     0.200 A 
ATOM     78  F   UNL A   1      39.652  35.419  36.830  1.00  0.00    -0.200 F 
ATOM     79  F   UNL A   1      37.960  34.320  38.667  1.00  0.00    -0.200 F 
ENDBRANCH  45  69
BRANCH  57  80
ATOM     80  C   UNL A   1      44.950  27.968  34.561  1.00  0.00     0.064 A 
ATOM     81  C   UNL A   1      44.930  26.826  35.375  1.00  0.00     0.173 A 
ATOM     82  C   UNL A   1      46.103  28.766  34.569  1.00  0.00     0.173 A 
ATOM     83  F   UNL A   1      43.842  26.043  35.413  1.00  0.00    -0.203 F 
ATOM     84  C   UNL A   1      46.018  26.507  36.183  1.00  0.00     0.198 A 
ATOM     85  C   UNL A   1      47.199  28.430  35.359  1.00  0.00     0.198 A 
ATOM     86  F   UNL A   1      46.171  29.866  33.804  1.00  0.00    -0.203 F 
ATOM     87  F   UNL A   1      45.963  25.435  36.985  1.00  0.00    -0.200 F 
ATOM     88  C   UNL A   1      47.153  27.304  36.169  1.00  0.00     0.200 A 
ATOM     89  F   UNL A   1      48.298  29.196  35.339  1.00  0.00    -0.200 F 
ATOM     90  F   UNL A   1      48.202  26.993  36.944  1.00  0.00    -0.200 F 
ENDBRANCH  57  80
ENDBRANCH  31  32
ENDBRANCH  24  26
ENDBRANCH  23  24
ENDBRANCH  22  23
ENDBRANCH   1  22
TORSDOF 13
ENDMDL
MODEL 2
REMARK VINA RESULT:     -11.7      1.077      2.075
REMARK SMILES C[C@@H]1[C@H](C(=O)OCCOC(=O)c2ccc(-c3c4nc(c(-c5c(F)c(F)c(F)c(F)c5F)c5ccc([nH]5)c(-c5c(F)c(F)c(F)c(F)c5F)c5nc(c(-c6c(F)c(F)c(F)c(F)c6F)c6ccc3[nH]6)C=C5)C=C4)cc2)CCN1S(=O)(=O)c1cc(F)cc(F)c1
REMARK SMILES IDX 7 1 6 2 4 3 5 4 3 5 1 6 2 7 77 8 75 9 76 10 78 11 79 12
REMARK SMILES IDX 80 13 81 14 82 15 88 16 83 17 86 18 84 19 85 20 87 21 8 22
REMARK SMILES IDX 9 23 10 24 11 25 12 26 13 27 74 28 14 29 73 30 15 31 16 32
REMARK SMILES IDX 17 33 67 34 18 35 72 36 66 37 68 38 19 39 71 40 65 41 64 42
REMARK SMILES IDX 20 44 52 45 32 46 51 47 33 48 36 49 50 50 69 51 34 52 35 53
REMARK SMILES IDX 49 55 70 56 37 57 21 58 22 59 30 60 23 61 24 62 28 63 31 64
REMARK SMILES IDX 25 65 26 66 29 67 27 68 53 69 54 70 62 71 55 72 56 73 60 74
REMARK SMILES IDX 63 75 57 76 58 77 61 78 59 79 38 80 39 81 47 82 40 83 41 84
REMARK SMILES IDX 45 85 48 86 42 87 43 88 46 89 44 90
REMARK H PARENT 68 43 36 54
REMARK Flexibility Score: inf
ROOT
ATOM      1  C   UNL A   1      31.561  28.704  25.190  1.00  0.00     0.274 C 
ENDROOT
BRANCH   1   2
ATOM      2  O   UNL A   1      30.702  28.708  24.034  1.00  0.00    -0.462 OA
BRANCH   2   3
ATOM      3  C   UNL A   1      30.933  27.800  23.065  1.00  0.00     0.310 C 
ATOM      4  O   UNL A   1      30.333  27.759  21.995  1.00  0.00    -0.252 OA
BRANCH   3   5
ATOM      5  C   UNL A   1      32.057  26.844  23.384  1.00  0.00     0.118 C 
ATOM      6  C   UNL A   1      30.635  24.678  23.635  1.00  0.00     0.027 C 
ATOM      7  C   UNL A   1      31.809  25.520  24.128  1.00  0.00     0.084 C 
ATOM      8  N   UNL A   1      33.140  24.826  23.990  1.00  0.00    -0.194 NA
ATOM      9  C   UNL A   1      32.855  26.407  22.177  1.00  0.00     0.034 C 
ATOM     10  C   UNL A   1      33.839  25.423  22.796  1.00  0.00     0.104 C 
BRANCH   8  11
ATOM     11  S   UNL A   1      33.407  23.160  24.139  1.00  0.00     0.243 S 
ATOM     12  O   UNL A   1      32.559  22.656  25.198  1.00  0.00    -0.207 OA
ATOM     13  O   UNL A   1      33.279  22.629  22.795  1.00  0.00    -0.207 OA
BRANCH  11  14
ATOM     14  C   UNL A   1      35.089  22.835  24.618  1.00  0.00     0.088 A 
ATOM     15  C   UNL A   1      35.517  21.503  24.519  1.00  0.00     0.061 A 
ATOM     16  C   UNL A   1      35.960  23.795  25.128  1.00  0.00     0.061 A 
ATOM     17  C   UNL A   1      36.787  21.147  24.957  1.00  0.00     0.127 A 
ATOM     18  C   UNL A   1      37.228  23.410  25.563  1.00  0.00     0.127 A 
ATOM     19  F   UNL A   1      37.176  19.869  24.882  1.00  0.00    -0.207 F 
ATOM     20  C   UNL A   1      37.651  22.091  25.489  1.00  0.00     0.078 A 
ATOM     21  F   UNL A   1      38.047  24.334  26.081  1.00  0.00    -0.207 F 
ENDBRANCH  11  14
ENDBRANCH   8  11
ENDBRANCH   3   5
ENDBRANCH   2   3
ENDBRANCH   1   2
BRANCH   1  22
ATOM     22  C   UNL A   1      31.732  30.135  25.711  1.00  0.00     0.275 C 
BRANCH  22  23
ATOM     23  O   UNL A   1      33.116  30.427  25.993  1.00  0.00    -0.458 OA
BRANCH  23  24
ATOM     24  C   UNL A   1      33.333  31.390  26.919  1.00  0.00     0.338 C 
ATOM     25  O   UNL A   1      32.578  32.292  27.239  1.00  0.00    -0.246 OA
BRANCH  24  26
ATOM     26  C   UNL A   1      34.586  31.104  27.637  1.00  0.00     0.060 A 
ATOM     27  C   UNL A   1      34.804  29.795  28.075  1.00  0.00     0.016 A 
ATOM     28  C   UNL A   1      35.514  32.107  27.919  1.00  0.00     0.016 A 
ATOM     29  C   UNL A   1      35.952  29.475  28.790  1.00  0.00     0.010 A 
ATOM     30  C   UNL A   1      36.670  31.786  28.640  1.00  0.00     0.010 A 
ATOM     31  C   UNL A   1      36.892  30.471  29.080  1.00  0.00    -0.014 A 
BRANCH  31  32
ATOM     32  C   UNL A   1      38.090  30.125  29.877  1.00  0.00     0.031 A 
ATOM     33  C   UNL A   1      39.126  29.206  29.303  1.00  0.00     0.074 A 
ATOM     34  C   UNL A   1      38.260  30.668  31.097  1.00  0.00     0.049 A 
ATOM     35  N   UNL A   1      40.207  28.724  29.862  1.00  0.00    -0.248 NA
ATOM     36  C   UNL A   1      38.921  28.774  27.912  1.00  0.00     0.031 C 
ATOM     37  C   UNL A   1      37.348  31.622  31.728  1.00  0.00     0.029 A 
ATOM     38  N   UNL A   1      39.260  30.498  32.019  1.00  0.00    -0.354 N 
ATOM     39  C   UNL A   1      40.804  27.923  28.899  1.00  0.00     0.074 A 
ATOM     40  C   UNL A   1      39.958  27.970  27.724  1.00  0.00     0.031 C 
ATOM     41  C   UNL A   1      37.833  31.956  32.935  1.00  0.00     0.029 A 
ATOM     42  C   UNL A   1      39.062  31.205  33.178  1.00  0.00     0.049 A 
ATOM     43  H   UNL A   1      40.045  29.924  31.863  1.00  0.00     0.167 HD
ATOM     44  C   UNL A   1      41.956  27.217  28.990  1.00  0.00     0.037 A 
ATOM     45  C   UNL A   1      39.779  31.220  34.317  1.00  0.00     0.037 A 
ATOM     46  C   UNL A   1      42.795  27.182  30.159  1.00  0.00     0.049 A 
ATOM     47  C   UNL A   1      41.014  30.369  34.417  1.00  0.00     0.074 A 
ATOM     48  C   UNL A   1      43.975  26.486  30.356  1.00  0.00     0.029 A 
ATOM     49  N   UNL A   1      42.539  27.878  31.332  1.00  0.00    -0.354 N 
ATOM     50  N   UNL A   1      41.560  29.594  33.511  1.00  0.00    -0.248 NA
ATOM     51  C   UNL A   1      41.728  30.385  35.701  1.00  0.00     0.031 C 
ATOM     52  C   UNL A   1      44.415  26.734  31.660  1.00  0.00     0.029 A 
ATOM     53  C   UNL A   1      43.532  27.616  32.262  1.00  0.00     0.049 A 
ATOM     54  H   UNL A   1      41.768  28.470  31.481  1.00  0.00     0.167 HD
ATOM     55  C   UNL A   1      42.689  29.048  34.105  1.00  0.00     0.074 A 
ATOM     56  C   UNL A   1      42.759  29.591  35.446  1.00  0.00     0.031 C 
ATOM     57  C   UNL A   1      43.587  28.174  33.588  1.00  0.00     0.037 A 
BRANCH  44  58
ATOM     58  C   UNL A   1      42.362  26.402  27.799  1.00  0.00     0.064 A 
ATOM     59  C   UNL A   1      43.287  26.882  26.860  1.00  0.00     0.173 A 
ATOM     60  C   UNL A   1      41.843  25.113  27.612  1.00  0.00     0.173 A 
ATOM     61  F   UNL A   1      43.800  28.116  26.987  1.00  0.00    -0.203 F 
ATOM     62  C   UNL A   1      43.665  26.106  25.766  1.00  0.00     0.198 A 
ATOM     63  C   UNL A   1      42.239  24.331  26.530  1.00  0.00     0.198 A 
ATOM     64  F   UNL A   1      40.955  24.609  28.482  1.00  0.00    -0.203 F 
ATOM     65  F   UNL A   1      44.520  26.599  24.860  1.00  0.00    -0.200 F 
ATOM     66  C   UNL A   1      43.145  24.830  25.606  1.00  0.00     0.200 A 
ATOM     67  F   UNL A   1      41.743  23.096  26.380  1.00  0.00    -0.200 F 
ATOM     68  F   UNL A   1      43.511  24.083  24.555  1.00  0.00    -0.200 F 
ENDBRANCH  44  58
BRANCH  45  69
ATOM     69  C   UNL A   1      39.334  32.054  35.464  1.00  0.00     0.064 A 
ATOM     70  C   UNL A   1      39.763  33.381  35.601  1.00  0.00     0.173 A 
ATOM     71  C   UNL A   1      38.482  31.537  36.451  1.00  0.00     0.173 A 
ATOM     72  F   UNL A   1      40.600  33.911  34.697  1.00  0.00    -0.203 F 
ATOM     73  C   UNL A   1      39.369  34.155  36.691  1.00  0.00     0.198 A 
ATOM     74  C   UNL A   1      38.067  32.321  37.526  1.00  0.00     0.198 A 
ATOM     75  F   UNL A   1      38.046  30.272  36.367  1.00  0.00    -0.203 F 
ATOM     76  F   UNL A   1      39.829  35.406  36.822  1.00  0.00    -0.200 F 
ATOM     77  C   UNL A   1      38.517  33.626  37.649  1.00  0.00     0.200 A 
ATOM     78  F   UNL A   1      37.236  31.808  38.443  1.00  0.00    -0.200 F 
ATOM     79  F   UNL A   1      38.137  34.371  38.696  1.00  0.00    -0.200 F 
ENDBRANCH  45  69
BRANCH  57  80
ATOM     80  C   UNL A   1      44.737  27.778  34.465  1.00  0.00     0.064 A 
ATOM     81  C   UNL A   1      44.649  26.686  35.340  1.00  0.00     0.173 A 
ATOM     82  C   UNL A   1      45.951  28.479  34.402  1.00  0.00     0.173 A 
ATOM     83  F   UNL A   1      43.503  25.997  35.447  1.00  0.00    -0.203 F 
ATOM     84  C   UNL A   1      45.731  26.321  36.137  1.00  0.00     0.198 A 
ATOM     85  C   UNL A   1      47.038  28.096  35.181  1.00  0.00     0.198 A 
ATOM     86  F   UNL A   1      46.085  29.528  33.577  1.00  0.00    -0.203 F 
ATOM     87  F   UNL A   1      45.613  25.300  36.997  1.00  0.00    -0.200 F 
ATOM     88  C   UNL A   1      46.926  27.021  36.052  1.00  0.00     0.200 A 
ATOM     89  F   UNL A   1      48.194  28.767  35.093  1.00  0.00    -0.200 F 
ATOM     90  F   UNL A   1      47.967  26.666  36.817  1.00  0.00    -0.200 F 
ENDBRANCH  57  80
ENDBRANCH  31  32
ENDBRANCH  24  26
ENDBRANCH  23  24
ENDBRANCH  22  23
ENDBRANCH   1  22
TORSDOF 13
ENDMDL
MODEL 3
REMARK VINA RESULT:     -11.5      4.202      9.507
REMARK SMILES C[C@@H]1[C@H](C(=O)OCCOC(=O)c2ccc(-c3c4nc(c(-c5c(F)c(F)c(F)c(F)c5F)c5ccc([nH]5)c(-c5c(F)c(F)c(F)c(F)c5F)c5nc(c(-c6c(F)c(F)c(F)c(F)c6F)c6ccc3[nH]6)C=C5)C=C4)cc2)CCN1S(=O)(=O)c1cc(F)cc(F)c1
REMARK SMILES IDX 7 1 6 2 4 3 5 4 3 5 1 6 2 7 77 8 75 9 76 10 78 11 79 12
REMARK SMILES IDX 80 13 81 14 82 15 88 16 83 17 86 18 84 19 85 20 87 21 8 22
REMARK SMILES IDX 9 23 10 24 11 25 12 26 13 27 74 28 14 29 73 30 15 31 16 32
REMARK SMILES IDX 17 33 67 34 18 35 72 36 66 37 68 38 19 39 71 40 65 41 64 42
REMARK SMILES IDX 20 44 52 45 32 46 51 47 33 48 36 49 50 50 69 51 34 52 35 53
REMARK SMILES IDX 49 55 70 56 37 57 21 58 22 59 30 60 23 61 24 62 28 63 31 64
REMARK SMILES IDX 25 65 26 66 29 67 27 68 53 69 54 70 62 71 55 72 56 73 60 74
REMARK SMILES IDX 63 75 57 76 58 77 61 78 59 79 38 80 39 81 47 82 40 83 41 84
REMARK SMILES IDX 45 85 48 86 42 87 43 88 46 89 44 90
REMARK H PARENT 68 43 36 54
REMARK Flexibility Score: inf
ROOT
ATOM      1  C   UNL A   1      34.677  20.848  25.301  1.00  0.00     0.274 C 
ENDROOT
BRANCH   1   2
ATOM      2  O   UNL A   1      33.635  21.385  24.465  1.00  0.00    -0.462 OA
BRANCH   2   3
ATOM      3  C   UNL A   1      32.531  21.880  25.059  1.00  0.00     0.310 C 
ATOM      4  O   UNL A   1      31.554  21.209  25.376  1.00  0.00    -0.252 OA
BRANCH   3   5
ATOM      5  C   UNL A   1      32.615  23.357  25.363  1.00  0.00     0.118 C 
ATOM      6  C   UNL A   1      32.523  24.240  22.916  1.00  0.00     0.027 C 
ATOM      7  C   UNL A   1      33.110  24.373  24.318  1.00  0.00     0.084 C 
ATOM      8  N   UNL A   1      32.786  25.688  24.979  1.00  0.00    -0.194 NA
ATOM      9  C   UNL A   1      31.313  23.964  25.832  1.00  0.00     0.034 C 
ATOM     10  C   UNL A   1      31.694  25.431  25.985  1.00  0.00     0.104 C 
BRANCH   8  11
ATOM     11  S   UNL A   1      32.611  27.175  24.188  1.00  0.00     0.243 S 
ATOM     12  O   UNL A   1      33.633  27.272  23.168  1.00  0.00    -0.207 OA
ATOM     13  O   UNL A   1      31.210  27.249  23.817  1.00  0.00    -0.207 OA
BRANCH  11  14
ATOM     14  C   UNL A   1      32.872  28.522  25.319  1.00  0.00     0.088 A 
ATOM     15  C   UNL A   1      34.022  28.448  26.118  1.00  0.00     0.061 A 
ATOM     16  C   UNL A   1      31.988  29.586  25.492  1.00  0.00     0.061 A 
ATOM     17  C   UNL A   1      34.255  29.414  27.091  1.00  0.00     0.127 A 
ATOM     18  C   UNL A   1      32.245  30.539  26.478  1.00  0.00     0.127 A 
ATOM     19  F   UNL A   1      35.342  29.320  27.866  1.00  0.00    -0.207 F 
ATOM     20  C   UNL A   1      33.369  30.461  27.287  1.00  0.00     0.078 A 
ATOM     21  F   UNL A   1      31.374  31.539  26.658  1.00  0.00    -0.207 F 
ENDBRANCH  11  14
ENDBRANCH   8  11
ENDBRANCH   3   5
ENDBRANCH   2   3
ENDBRANCH   1   2
BRANCH   1  22
ATOM     22  C   UNL A   1      36.042  21.328  24.798  1.00  0.00     0.275 C 
BRANCH  22  23
ATOM     23  O   UNL A   1      36.822  21.899  25.868  1.00  0.00    -0.458 OA
BRANCH  23  24
ATOM     24  C   UNL A   1      38.144  21.606  25.847  1.00  0.00     0.338 C 
ATOM     25  O   UNL A   1      38.674  20.610  25.387  1.00  0.00    -0.246 OA
BRANCH  24  26
ATOM     26  C   UNL A   1      38.909  22.769  26.327  1.00  0.00     0.060 A 
ATOM     27  C   UNL A   1      38.512  24.037  25.894  1.00  0.00     0.016 A 
ATOM     28  C   UNL A   1      40.026  22.622  27.152  1.00  0.00     0.016 A 
ATOM     29  C   UNL A   1      39.220  25.167  26.285  1.00  0.00     0.010 A 
ATOM     30  C   UNL A   1      40.740  23.759  27.546  1.00  0.00     0.010 A 
ATOM     31  C   UNL A   1      40.342  25.035  27.112  1.00  0.00    -0.014 A 
BRANCH  31  32
ATOM     32  C   UNL A   1      41.110  26.242  27.489  1.00  0.00     0.031 A 
ATOM     33  C   UNL A   1      40.439  27.342  28.255  1.00  0.00     0.074 A 
ATOM     34  C   UNL A   1      42.416  26.327  27.174  1.00  0.00     0.049 A 
ATOM     35  N   UNL A   1      40.912  28.507  28.616  1.00  0.00    -0.248 NA
ATOM     36  C   UNL A   1      39.050  27.098  28.673  1.00  0.00     0.031 C 
ATOM     37  C   UNL A   1      43.185  25.291  26.486  1.00  0.00     0.029 A 
ATOM     38  N   UNL A   1      43.324  27.329  27.396  1.00  0.00    -0.354 N 
ATOM     39  C   UNL A   1      39.879  29.140  29.293  1.00  0.00     0.074 A 
ATOM     40  C   UNL A   1      38.747  28.238  29.278  1.00  0.00     0.031 C 
ATOM     41  C   UNL A   1      44.453  25.710  26.345  1.00  0.00     0.029 A 
ATOM     42  C   UNL A   1      44.571  27.060  26.889  1.00  0.00     0.049 A 
ATOM     43  H   UNL A   1      43.103  28.162  27.873  1.00  0.00     0.167 HD
ATOM     44  C   UNL A   1      39.881  30.363  29.875  1.00  0.00     0.037 A 
ATOM     45  C   UNL A   1      45.674  27.830  26.846  1.00  0.00     0.037 A 
ATOM     46  C   UNL A   1      41.013  31.252  29.892  1.00  0.00     0.049 A 
ATOM     47  C   UNL A   1      45.625  29.213  27.435  1.00  0.00     0.074 A 
ATOM     48  C   UNL A   1      41.112  32.517  30.443  1.00  0.00     0.029 A 
ATOM     49  N   UNL A   1      42.249  30.962  29.329  1.00  0.00    -0.354 N 
ATOM     50  N   UNL A   1      44.637  29.816  28.051  1.00  0.00    -0.248 NA
ATOM     51  C   UNL A   1      46.842  30.028  27.314  1.00  0.00     0.031 C 
ATOM     52  C   UNL A   1      42.396  33.007  30.185  1.00  0.00     0.029 A 
ATOM     53  C   UNL A   1      43.112  32.032  29.508  1.00  0.00     0.049 A 
ATOM     54  H   UNL A   1      42.479  30.122  28.872  1.00  0.00     0.167 HD
ATOM     55  C   UNL A   1      45.117  31.068  28.409  1.00  0.00     0.074 A 
ATOM     56  C   UNL A   1      46.490  31.135  27.953  1.00  0.00     0.031 C 
ATOM     57  C   UNL A   1      44.477  32.073  29.054  1.00  0.00     0.037 A 
BRANCH  44  58
ATOM     58  C   UNL A   1      38.608  30.823  30.519  1.00  0.00     0.064 A 
ATOM     59  C   UNL A   1      37.562  31.377  29.767  1.00  0.00     0.173 A 
ATOM     60  C   UNL A   1      38.420  30.678  31.902  1.00  0.00     0.173 A 
ATOM     61  F   UNL A   1      37.700  31.551  28.444  1.00  0.00    -0.203 F 
ATOM     62  C   UNL A   1      36.379  31.787  30.380  1.00  0.00     0.198 A 
ATOM     63  C   UNL A   1      37.228  31.067  32.507  1.00  0.00     0.198 A 
ATOM     64  F   UNL A   1      39.391  30.153  32.664  1.00  0.00    -0.203 F 
ATOM     65  F   UNL A   1      35.408  32.350  29.648  1.00  0.00    -0.200 F 
ATOM     66  C   UNL A   1      36.212  31.626  31.748  1.00  0.00     0.200 A 
ATOM     67  F   UNL A   1      37.065  30.904  33.827  1.00  0.00    -0.200 F 
ATOM     68  F   UNL A   1      35.073  32.017  32.335  1.00  0.00    -0.200 F 
ENDBRANCH  44  58
BRANCH  45  69
ATOM     69  C   UNL A   1      46.912  27.320  26.203  1.00  0.00     0.064 A 
ATOM     70  C   UNL A   1      47.845  26.567  26.928  1.00  0.00     0.173 A 
ATOM     71  C   UNL A   1      47.193  27.586  24.854  1.00  0.00     0.173 A 
ATOM     72  F   UNL A   1      47.633  26.310  28.227  1.00  0.00    -0.203 F 
ATOM     73  C   UNL A   1      49.020  26.111  26.332  1.00  0.00     0.198 A 
ATOM     74  C   UNL A   1      48.355  27.107  24.253  1.00  0.00     0.198 A 
ATOM     75  F   UNL A   1      46.333  28.305  24.118  1.00  0.00    -0.203 F 
ATOM     76  F   UNL A   1      49.916  25.431  27.060  1.00  0.00    -0.200 F 
ATOM     77  C   UNL A   1      49.271  26.377  24.995  1.00  0.00     0.200 A 
ATOM     78  F   UNL A   1      48.588  27.357  22.958  1.00  0.00    -0.200 F 
ATOM     79  F   UNL A   1      50.400  25.937  24.422  1.00  0.00    -0.200 F 
ENDBRANCH  45  69
BRANCH  57  80
ATOM     80  C   UNL A   1      45.267  33.317  29.334  1.00  0.00     0.064 A 
ATOM     81  C   UNL A   1      46.035  33.450  30.499  1.00  0.00     0.173 A 
ATOM     82  C   UNL A   1      45.281  34.371  28.408  1.00  0.00     0.173 A 
ATOM     83  F   UNL A   1      46.038  32.476  31.421  1.00  0.00    -0.203 F 
ATOM     84  C   UNL A   1      46.775  34.606  30.738  1.00  0.00     0.198 A 
ATOM     85  C   UNL A   1      46.042  35.513  28.638  1.00  0.00     0.198 A 
ATOM     86  F   UNL A   1      44.566  34.288  27.277  1.00  0.00    -0.203 F 
ATOM     87  F   UNL A   1      47.470  34.731  31.877  1.00  0.00    -0.200 F 
ATOM     88  C   UNL A   1      46.783  35.633  29.805  1.00  0.00     0.200 A 
ATOM     89  F   UNL A   1      46.056  36.501  27.733  1.00  0.00    -0.200 F 
ATOM     90  F   UNL A   1      47.499  36.742  30.035  1.00  0.00    -0.200 F 
ENDBRANCH  57  80
ENDBRANCH  31  32
ENDBRANCH  24  26
ENDBRANCH  23  24
ENDBRANCH  22  23
ENDBRANCH   1  22
TORSDOF 13
ENDMDL
