MODEL 1
REMARK VINA RESULT:     -12.5      0.000      0.000
REMARK SMILES C[N@@H+]1CCC[C@H](NC(=O)N[C@@](C)(C(=O)OCCOC(=O)c2ccc(-c3c4nc(c(-c5c(F)c(F)c(F)c(F)c5F)c5ccc([nH]5)c(-c5c(F)c(F)c(F)c(F)c5F)c5nc(c(-c6c(F)c(F)c(F)c(F)c6F)c6ccc3[nH]6)C=C5)C=C4)cc2)C(F)(F)F)C1
REMARK SMILES IDX 16 1 15 2 13 3 14 4 11 5 12 6 10 7 7 8 8 9 9 11 6 13 1 14
REMARK SMILES IDX 2 15 3 16 88 17 4 19 5 20 84 21 85 22 86 23 87 24 17 25
REMARK SMILES IDX 18 26 19 27 20 28 21 29 22 30 83 31 23 32 82 33 24 34 25 35
REMARK SMILES IDX 26 36 76 37 27 38 81 39 75 40 77 41 28 42 80 43 74 44 73 45
REMARK SMILES IDX 29 47 61 48 41 49 60 50 42 51 45 52 59 53 78 54 43 55 44 56
REMARK SMILES IDX 58 58 79 59 46 60 30 61 31 62 39 63 32 64 33 65 37 66 40 67
REMARK SMILES IDX 34 68 35 69 38 70 36 71 62 72 63 73 71 74 64 75 65 76 69 77
REMARK SMILES IDX 72 78 66 79 67 80 70 81 68 82 47 83 48 84 56 85 49 86 50 87
REMARK SMILES IDX 54 88 57 89 51 90 52 91 55 92 53 93
REMARK H PARENT 7 10 10 12 2 18 77 46 45 57
REMARK Flexibility Score: inf
ROOT
ATOM      1  C   UNL A   1      31.867  29.048  25.151  1.00  0.00     0.274 C 
ENDROOT
BRANCH   1   2
ATOM      2  O   UNL A   1      30.859  28.025  25.419  1.00  0.00    -0.460 OA
BRANCH   2   3
ATOM      3  C   UNL A   1      31.124  27.179  26.457  1.00  0.00     0.341 C 
ATOM      4  O   UNL A   1      31.204  27.589  27.614  1.00  0.00    -0.249 OA
BRANCH   3   5
ATOM      5  C   UNL A   1      31.464  25.715  26.056  1.00  0.00     0.232 C 
ATOM      6  C   UNL A   1      31.086  25.568  24.561  1.00  0.00     0.058 C 
BRANCH   5   7
ATOM      7  N   UNL A   1      30.817  24.553  26.874  1.00  0.00    -0.315 N 
ATOM      8  N   UNL A   1      31.074  22.197  26.169  1.00  0.00    -0.330 N 
ATOM      9  C   UNL A   1      30.530  23.226  26.885  1.00  0.00     0.316 C 
ATOM     10  H   UNL A   1      30.525  21.380  26.156  1.00  0.00     0.165 HD
ATOM     11  O   UNL A   1      29.627  22.908  27.673  1.00  0.00    -0.249 OA
ATOM     12  H   UNL A   1      30.486  24.935  27.718  1.00  0.00     0.166 HD
BRANCH   8  13
ATOM     13  C   UNL A   1      32.330  22.087  25.415  1.00  0.00     0.139 C 
ATOM     14  C   UNL A   1      33.414  23.269  21.470  1.00  0.00     0.332 C 
ATOM     15  N   UNL A   1      33.671  23.201  22.908  1.00  0.00    -0.336 N 
ATOM     16  C   UNL A   1      35.327  22.641  23.221  1.00  0.00     0.262 C 
ATOM     17  C   UNL A   1      32.317  22.516  23.672  1.00  0.00     0.287 C 
ATOM     18  H   UNL A   1      33.727  24.100  23.386  1.00  0.00     0.347 HD
ATOM     19  C   UNL A   1      35.760  21.622  24.894  1.00  0.00     0.064 C 
ATOM     20  C   UNL A   1      33.899  21.006  25.929  1.00  0.00     0.037 C 
ENDBRANCH   8  13
ENDBRANCH   5   7
BRANCH   5  21
ATOM     21  C   UNL A   1      32.969  25.685  25.964  1.00  0.00     0.422 C 
ATOM     22  F   UNL A   1      33.400  24.612  26.585  1.00  0.00    -0.168 F 
ATOM     23  F   UNL A   1      33.369  25.658  24.678  1.00  0.00    -0.168 F 
ATOM     24  F   UNL A   1      33.617  26.710  26.553  1.00  0.00    -0.168 F 
ENDBRANCH   5  21
ENDBRANCH   3   5
ENDBRANCH   2   3
ENDBRANCH   1   2
BRANCH   1  25
ATOM     25  C   UNL A   1      31.557  30.346  25.903  1.00  0.00     0.275 C 
BRANCH  25  26
ATOM     26  O   UNL A   1      32.736  31.158  26.005  1.00  0.00    -0.458 OA
BRANCH  26  27
ATOM     27  C   UNL A   1      32.774  31.857  27.149  1.00  0.00     0.338 C 
ATOM     28  O   UNL A   1      31.976  32.680  27.561  1.00  0.00    -0.246 OA
BRANCH  27  29
ATOM     29  C   UNL A   1      33.990  31.544  27.878  1.00  0.00     0.060 A 
ATOM     30  C   UNL A   1      35.255  32.771  28.017  1.00  0.00     0.016 A 
ATOM     31  C   UNL A   1      34.478  29.906  27.934  1.00  0.00     0.016 A 
ATOM     32  C   UNL A   1      37.119  32.180  28.060  1.00  0.00     0.010 A 
ATOM     33  C   UNL A   1      36.110  29.402  28.097  1.00  0.00     0.010 A 
ATOM     34  C   UNL A   1      37.436  30.478  28.237  1.00  0.00    -0.014 A 
BRANCH  34  35
ATOM     35  C   UNL A   1      38.671  30.104  28.993  1.00  0.00     0.031 A 
ATOM     36  C   UNL A   1      38.692  30.523  30.406  1.00  0.00     0.074 A 
ATOM     37  C   UNL A   1      39.679  29.361  28.456  1.00  0.00     0.049 A 
ATOM     38  N   UNL A   1      39.542  30.207  31.334  1.00  0.00    -0.248 NA
ATOM     39  C   UNL A   1      37.651  31.480  30.807  1.00  0.00     0.031 C 
ATOM     40  C   UNL A   1      39.910  29.060  27.044  1.00  0.00     0.029 A 
ATOM     41  N   UNL A   1      40.671  28.606  29.046  1.00  0.00    -0.354 N 
ATOM     42  C   UNL A   1      39.159  30.952  32.430  1.00  0.00     0.074 A 
ATOM     43  C   UNL A   1      38.016  31.748  32.048  1.00  0.00     0.031 C 
ATOM     44  C   UNL A   1      40.689  27.985  26.901  1.00  0.00     0.029 A 
ATOM     45  C   UNL A   1      41.271  27.697  28.182  1.00  0.00     0.049 A 
ATOM     46  H   UNL A   1      40.929  28.700  29.992  1.00  0.00     0.167 HD
ATOM     47  C   UNL A   1      39.755  30.974  33.640  1.00  0.00     0.037 A 
ATOM     48  C   UNL A   1      42.238  26.778  28.367  1.00  0.00     0.037 A 
ATOM     49  C   UNL A   1      40.946  30.225  33.920  1.00  0.00     0.049 A 
ATOM     50  C   UNL A   1      42.884  26.836  29.713  1.00  0.00     0.074 A 
ATOM     51  C   UNL A   1      41.708  30.212  35.069  1.00  0.00     0.029 A 
ATOM     52  N   UNL A   1      41.570  29.373  33.008  1.00  0.00    -0.354 N 
ATOM     53  N   UNL A   1      42.511  27.530  30.762  1.00  0.00    -0.248 NA
ATOM     54  C   UNL A   1      44.126  26.084  29.883  1.00  0.00     0.031 C 
ATOM     55  C   UNL A   1      42.828  29.411  34.827  1.00  0.00     0.029 A 
ATOM     56  C   UNL A   1      42.724  28.849  33.561  1.00  0.00     0.049 A 
ATOM     57  H   UNL A   1      41.238  29.175  32.103  1.00  0.00     0.167 HD
ATOM     58  C   UNL A   1      43.492  27.334  31.711  1.00  0.00     0.074 A 
ATOM     59  C   UNL A   1      44.439  26.395  31.134  1.00  0.00     0.031 C 
ATOM     60  C   UNL A   1      43.621  27.907  32.932  1.00  0.00     0.037 A 
BRANCH  47  61
ATOM     61  C   UNL A   1      39.171  31.928  34.633  1.00  0.00     0.064 A 
ATOM     62  C   UNL A   1      39.468  33.301  34.600  1.00  0.00     0.173 A 
ATOM     63  C   UNL A   1      38.432  31.440  35.718  1.00  0.00     0.173 A 
ATOM     64  F   UNL A   1      40.224  33.806  33.613  1.00  0.00    -0.203 F 
ATOM     65  C   UNL A   1      39.095  34.137  35.649  1.00  0.00     0.198 A 
ATOM     66  C   UNL A   1      38.021  32.288  36.741  1.00  0.00     0.198 A 
ATOM     67  F   UNL A   1      38.152  30.132  35.814  1.00  0.00    -0.203 F 
ATOM     68  F   UNL A   1      39.492  35.417  35.656  1.00  0.00    -0.200 F 
ATOM     69  C   UNL A   1      38.369  33.631  36.715  1.00  0.00     0.200 A 
ATOM     70  F   UNL A   1      37.327  31.795  37.776  1.00  0.00    -0.200 F 
ATOM     71  F   UNL A   1      38.031  34.430  37.735  1.00  0.00    -0.200 F 
ENDBRANCH  47  61
BRANCH  48  72
ATOM     72  C   UNL A   1      42.736  25.873  27.276  1.00  0.00     0.064 A 
ATOM     73  C   UNL A   1      43.847  26.224  26.489  1.00  0.00     0.173 A 
ATOM     74  C   UNL A   1      42.116  24.648  26.965  1.00  0.00     0.173 A 
ATOM     75  F   UNL A   1      44.475  27.390  26.702  1.00  0.00    -0.203 F 
ATOM     76  C   UNL A   1      44.300  25.406  25.448  1.00  0.00     0.198 A 
ATOM     77  C   UNL A   1      42.602  23.804  25.965  1.00  0.00     0.198 A 
ATOM     78  F   UNL A   1      41.027  24.250  27.641  1.00  0.00    -0.203 F 
ATOM     79  F   UNL A   1      45.320  25.807  24.676  1.00  0.00    -0.200 F 
ATOM     80  C   UNL A   1      43.685  24.190  25.196  1.00  0.00     0.200 A 
ATOM     81  F   UNL A   1      42.013  22.620  25.747  1.00  0.00    -0.200 F 
ATOM     82  F   UNL A   1      44.124  23.401  24.206  1.00  0.00    -0.200 F 
ENDBRANCH  48  72
BRANCH  60  83
ATOM     83  C   UNL A   1      44.812  27.479  33.724  1.00  0.00     0.064 A 
ATOM     84  C   UNL A   1      46.023  28.181  33.678  1.00  0.00     0.173 A 
ATOM     85  C   UNL A   1      44.710  26.371  34.576  1.00  0.00     0.173 A 
ATOM     86  F   UNL A   1      46.167  29.231  32.854  1.00  0.00    -0.203 F 
ATOM     87  C   UNL A   1      47.106  27.769  34.443  1.00  0.00     0.198 A 
ATOM     88  C   UNL A   1      45.779  25.994  35.376  1.00  0.00     0.198 A 
ATOM     89  F   UNL A   1      43.565  25.675  34.648  1.00  0.00    -0.203 F 
ATOM     90  F   UNL A   1      48.277  28.412  34.341  1.00  0.00    -0.200 F 
ATOM     91  C   UNL A   1      46.978  26.687  35.302  1.00  0.00     0.200 A 
ATOM     92  F   UNL A   1      45.644  24.964  36.222  1.00  0.00    -0.200 F 
ATOM     93  F   UNL A   1      48.016  26.304  36.056  1.00  0.00    -0.200 F 
ENDBRANCH  60  83
ENDBRANCH  34  35
ENDBRANCH  27  29
ENDBRANCH  26  27
ENDBRANCH  25  26
ENDBRANCH   1  25
TORSDOF 14
ENDMDL
MODEL 2
REMARK VINA RESULT:     -12.5      0.716      7.488
REMARK SMILES C[N@@H+]1CCC[C@H](NC(=O)N[C@@](C)(C(=O)OCCOC(=O)c2ccc(-c3c4nc(c(-c5c(F)c(F)c(F)c(F)c5F)c5ccc([nH]5)c(-c5c(F)c(F)c(F)c(F)c5F)c5nc(c(-c6c(F)c(F)c(F)c(F)c6F)c6ccc3[nH]6)C=C5)C=C4)cc2)C(F)(F)F)C1
REMARK SMILES IDX 16 1 15 2 13 3 14 4 11 5 12 6 10 7 7 8 8 9 9 11 6 13 1 14
REMARK SMILES IDX 2 15 3 16 88 17 4 19 5 20 84 21 85 22 86 23 87 24 17 25
REMARK SMILES IDX 18 26 19 27 20 28 21 29 22 30 83 31 23 32 82 33 24 34 25 35
REMARK SMILES IDX 26 36 76 37 27 38 81 39 75 40 77 41 28 42 80 43 74 44 73 45
REMARK SMILES IDX 29 47 61 48 41 49 60 50 42 51 45 52 59 53 78 54 43 55 44 56
REMARK SMILES IDX 58 58 79 59 46 60 30 61 31 62 39 63 32 64 33 65 37 66 40 67
REMARK SMILES IDX 34 68 35 69 38 70 36 71 62 72 63 73 71 74 64 75 65 76 69 77
REMARK SMILES IDX 72 78 66 79 67 80 70 81 68 82 47 83 48 84 56 85 49 86 50 87
REMARK SMILES IDX 54 88 57 89 51 90 52 91 55 92 53 93
REMARK H PARENT 7 10 10 12 2 18 77 46 45 57
REMARK Flexibility Score: inf
ROOT
ATOM      1  C   UNL A   1      31.973  29.062  25.122  1.00  0.00     0.274 C 
ENDROOT
BRANCH   1   2
ATOM      2  O   UNL A   1      30.917  28.085  25.374  1.00  0.00    -0.460 OA
BRANCH   2   3
ATOM      3  C   UNL A   1      31.134  27.221  26.409  1.00  0.00     0.341 C 
ATOM      4  O   UNL A   1      31.209  27.618  27.570  1.00  0.00    -0.249 OA
BRANCH   3   5
ATOM      5  C   UNL A   1      31.426  25.749  25.999  1.00  0.00     0.232 C 
ATOM      6  C   UNL A   1      31.029  25.618  24.508  1.00  0.00     0.058 C 
BRANCH   5   7
ATOM      7  N   UNL A   1      30.755  24.603  26.821  1.00  0.00    -0.315 N 
ATOM      8  N   UNL A   1      30.937  22.243  26.106  1.00  0.00    -0.330 N 
ATOM      9  C   UNL A   1      30.430  23.285  26.831  1.00  0.00     0.316 C 
ATOM     10  H   UNL A   1      30.365  21.443  26.097  1.00  0.00     0.165 HD
ATOM     11  O   UNL A   1      29.527  22.990  27.627  1.00  0.00    -0.249 OA
ATOM     12  H   UNL A   1      30.443  24.992  27.669  1.00  0.00     0.166 HD
BRANCH   8  13
ATOM     13  C   UNL A   1      32.182  22.099  25.340  1.00  0.00     0.139 C 
ATOM     14  C   UNL A   1      33.283  23.327  21.414  1.00  0.00     0.332 C 
ATOM     15  N   UNL A   1      33.548  23.216  22.846  1.00  0.00    -0.336 N 
ATOM     16  C   UNL A   1      35.183  22.582  23.133  1.00  0.00     0.262 C 
ATOM     17  C   UNL A   1      32.173  22.568  23.607  1.00  0.00     0.287 C 
ATOM     18  H   UNL A   1      33.644  24.100  23.345  1.00  0.00     0.347 HD
ATOM     19  C   UNL A   1      35.586  21.508  24.778  1.00  0.00     0.064 C 
ATOM     20  C   UNL A   1      33.710  20.944  25.816  1.00  0.00     0.037 C 
ENDBRANCH   8  13
ENDBRANCH   5   7
BRANCH   5  21
ATOM     21  C   UNL A   1      32.929  25.675  25.892  1.00  0.00     0.422 C 
ATOM     22  F   UNL A   1      33.335  24.587  26.501  1.00  0.00    -0.168 F 
ATOM     23  F   UNL A   1      33.315  25.646  24.600  1.00  0.00    -0.168 F 
ATOM     24  F   UNL A   1      33.612  26.678  26.479  1.00  0.00    -0.168 F 
ENDBRANCH   5  21
ENDBRANCH   3   5
ENDBRANCH   2   3
ENDBRANCH   1   2
BRANCH   1  25
ATOM     25  C   UNL A   1      31.608  30.437  25.689  1.00  0.00     0.275 C 
BRANCH  25  26
ATOM     26  O   UNL A   1      32.789  31.229  25.877  1.00  0.00    -0.458 OA
BRANCH  26  27
ATOM     27  C   UNL A   1      32.735  31.966  26.996  1.00  0.00     0.338 C 
ATOM     28  O   UNL A   1      31.995  32.898  27.255  1.00  0.00    -0.246 OA
BRANCH  27  29
ATOM     29  C   UNL A   1      33.769  31.537  27.920  1.00  0.00     0.060 A 
ATOM     30  C   UNL A   1      35.040  32.674  28.386  1.00  0.00     0.016 A 
ATOM     31  C   UNL A   1      34.158  29.872  27.952  1.00  0.00     0.016 A 
ATOM     32  C   UNL A   1      36.830  31.970  28.742  1.00  0.00     0.010 A 
ATOM     33  C   UNL A   1      35.702  29.261  28.387  1.00  0.00     0.010 A 
ATOM     34  C   UNL A   1      37.025  30.244  28.855  1.00  0.00    -0.014 A 
BRANCH  34  35
ATOM     35  C   UNL A   1      38.070  29.751  29.804  1.00  0.00     0.031 A 
ATOM     36  C   UNL A   1      39.151  28.960  29.189  1.00  0.00     0.074 A 
ATOM     37  C   UNL A   1      38.083  30.064  31.130  1.00  0.00     0.049 A 
ATOM     38  N   UNL A   1      40.258  28.544  29.724  1.00  0.00    -0.248 NA
ATOM     39  C   UNL A   1      38.921  28.525  27.804  1.00  0.00     0.031 C 
ATOM     40  C   UNL A   1      36.996  30.639  31.921  1.00  0.00     0.029 A 
ATOM     41  N   UNL A   1      39.100  30.051  32.061  1.00  0.00    -0.354 N 
ATOM     42  C   UNL A   1      40.850  27.767  28.749  1.00  0.00     0.074 A 
ATOM     43  C   UNL A   1      39.973  27.753  27.601  1.00  0.00     0.031 C 
ATOM     44  C   UNL A   1      37.460  31.214  33.032  1.00  0.00     0.029 A 
ATOM     45  C   UNL A   1      38.822  30.792  33.204  1.00  0.00     0.049 A 
ATOM     46  H   UNL A   1      39.945  29.563  31.929  1.00  0.00     0.167 HD
ATOM     47  C   UNL A   1      42.019  27.102  28.846  1.00  0.00     0.037 A 
ATOM     48  C   UNL A   1      39.544  31.050  34.311  1.00  0.00     0.037 A 
ATOM     49  C   UNL A   1      42.793  27.085  30.055  1.00  0.00     0.049 A 
ATOM     50  C   UNL A   1      40.828  30.290  34.392  1.00  0.00     0.074 A 
ATOM     51  C   UNL A   1      43.951  26.391  30.329  1.00  0.00     0.029 A 
ATOM     52  N   UNL A   1      42.452  27.783  31.214  1.00  0.00    -0.354 N 
ATOM     53  N   UNL A   1      41.401  29.565  33.461  1.00  0.00    -0.248 NA
ATOM     54  C   UNL A   1      41.514  30.285  35.683  1.00  0.00     0.031 C 
ATOM     55  C   UNL A   1      44.271  26.610  31.672  1.00  0.00     0.029 A 
ATOM     56  C   UNL A   1      43.366  27.514  32.216  1.00  0.00     0.049 A 
ATOM     57  H   UNL A   1      41.674  28.379  31.305  1.00  0.00     0.167 HD
ATOM     58  C   UNL A   1      42.497  28.982  34.058  1.00  0.00     0.074 A 
ATOM     59  C   UNL A   1      42.547  29.499  35.416  1.00  0.00     0.031 C 
ATOM     60  C   UNL A   1      43.362  28.072  33.548  1.00  0.00     0.037 A 
BRANCH  47  61
ATOM     61  C   UNL A   1      42.395  26.276  27.657  1.00  0.00     0.064 A 
ATOM     62  C   UNL A   1      41.932  24.959  27.497  1.00  0.00     0.173 A 
ATOM     63  C   UNL A   1      43.349  26.753  26.750  1.00  0.00     0.173 A 
ATOM     64  F   UNL A   1      41.063  24.435  28.375  1.00  0.00    -0.203 F 
ATOM     65  C   UNL A   1      42.457  24.134  26.506  1.00  0.00     0.198 A 
ATOM     66  C   UNL A   1      43.837  25.940  25.733  1.00  0.00     0.198 A 
ATOM     67  F   UNL A   1      43.848  27.991  26.880  1.00  0.00    -0.203 F 
ATOM     68  F   UNL A   1      42.091  22.846  26.446  1.00  0.00    -0.200 F 
ATOM     69  C   UNL A   1      43.405  24.627  25.623  1.00  0.00     0.200 A 
ATOM     70  F   UNL A   1      44.761  26.415  24.885  1.00  0.00    -0.200 F 
ATOM     71  F   UNL A   1      43.928  23.825  24.686  1.00  0.00    -0.200 F 
ENDBRANCH  47  61
BRANCH  48  72
ATOM     72  C   UNL A   1      39.045  31.905  35.442  1.00  0.00     0.064 A 
ATOM     73  C   UNL A   1      39.343  33.277  35.501  1.00  0.00     0.173 A 
ATOM     74  C   UNL A   1      38.283  31.386  36.505  1.00  0.00     0.173 A 
ATOM     75  F   UNL A   1      40.091  33.842  34.541  1.00  0.00    -0.203 F 
ATOM     76  C   UNL A   1      38.913  34.078  36.566  1.00  0.00     0.198 A 
ATOM     77  C   UNL A   1      37.805  32.195  37.537  1.00  0.00     0.198 A 
ATOM     78  F   UNL A   1      37.983  30.079  36.548  1.00  0.00    -0.203 F 
ATOM     79  F   UNL A   1      39.273  35.368  36.622  1.00  0.00    -0.200 F 
ATOM     80  C   UNL A   1      38.132  33.539  37.576  1.00  0.00     0.200 A 
ATOM     81  F   UNL A   1      37.031  31.667  38.496  1.00  0.00    -0.200 F 
ATOM     82  F   UNL A   1      37.712  34.306  38.591  1.00  0.00    -0.200 F 
ENDBRANCH  48  72
BRANCH  60  83
ATOM     83  C   UNL A   1      44.455  27.633  34.466  1.00  0.00     0.064 A 
ATOM     84  C   UNL A   1      45.667  28.328  34.560  1.00  0.00     0.173 A 
ATOM     85  C   UNL A   1      44.252  26.521  35.294  1.00  0.00     0.173 A 
ATOM     86  F   UNL A   1      45.907  29.383  33.764  1.00  0.00    -0.203 F 
ATOM     87  C   UNL A   1      46.655  27.906  35.439  1.00  0.00     0.198 A 
ATOM     88  C   UNL A   1      45.223  26.134  36.207  1.00  0.00     0.198 A 
ATOM     89  F   UNL A   1      43.103  25.831  35.233  1.00  0.00    -0.203 F 
ATOM     90  F   UNL A   1      47.834  28.543  35.473  1.00  0.00    -0.200 F 
ATOM     91  C   UNL A   1      46.426  26.820  36.272  1.00  0.00     0.200 A 
ATOM     92  F   UNL A   1      44.989  25.100  37.026  1.00  0.00    -0.200 F 
ATOM     93  F   UNL A   1      47.371  26.427  37.135  1.00  0.00    -0.200 F 
ENDBRANCH  60  83
ENDBRANCH  34  35
ENDBRANCH  27  29
ENDBRANCH  26  27
ENDBRANCH  25  26
ENDBRANCH   1  25
TORSDOF 14
ENDMDL
MODEL 3
REMARK VINA RESULT:     -12.5      4.016      9.430
REMARK SMILES C[N@@H+]1CCC[C@H](NC(=O)N[C@@](C)(C(=O)OCCOC(=O)c2ccc(-c3c4nc(c(-c5c(F)c(F)c(F)c(F)c5F)c5ccc([nH]5)c(-c5c(F)c(F)c(F)c(F)c5F)c5nc(c(-c6c(F)c(F)c(F)c(F)c6F)c6ccc3[nH]6)C=C5)C=C4)cc2)C(F)(F)F)C1
REMARK SMILES IDX 16 1 15 2 13 3 14 4 11 5 12 6 10 7 7 8 8 9 9 11 6 13 1 14
REMARK SMILES IDX 2 15 3 16 88 17 4 19 5 20 84 21 85 22 86 23 87 24 17 25
REMARK SMILES IDX 18 26 19 27 20 28 21 29 22 30 83 31 23 32 82 33 24 34 25 35
REMARK SMILES IDX 26 36 76 37 27 38 81 39 75 40 77 41 28 42 80 43 74 44 73 45
REMARK SMILES IDX 29 47 61 48 41 49 60 50 42 51 45 52 59 53 78 54 43 55 44 56
REMARK SMILES IDX 58 58 79 59 46 60 30 61 31 62 39 63 32 64 33 65 37 66 40 67
REMARK SMILES IDX 34 68 35 69 38 70 36 71 62 72 63 73 71 74 64 75 65 76 69 77
REMARK SMILES IDX 72 78 66 79 67 80 70 81 68 82 47 83 48 84 56 85 49 86 50 87
REMARK SMILES IDX 54 88 57 89 51 90 52 91 55 92 53 93
REMARK H PARENT 7 10 10 12 2 18 77 46 45 57
REMARK Flexibility Score: inf
ROOT
ATOM      1  C   UNL A   1      35.280  21.226  25.414  1.00  0.00     0.274 C 
ENDROOT
BRANCH   1   2
ATOM      2  O   UNL A   1      34.472  21.612  24.261  1.00  0.00    -0.460 OA
BRANCH   2   3
ATOM      3  C   UNL A   1      34.573  22.915  23.867  1.00  0.00     0.341 C 
ATOM      4  O   UNL A   1      35.564  23.329  23.267  1.00  0.00    -0.249 OA
BRANCH   3   5
ATOM      5  C   UNL A   1      33.432  23.852  24.358  1.00  0.00     0.232 C 
ATOM      6  C   UNL A   1      34.087  25.222  24.662  1.00  0.00     0.058 C 
BRANCH   5   7
ATOM      7  N   UNL A   1      32.576  23.400  25.582  1.00  0.00    -0.315 N 
ATOM      8  N   UNL A   1      31.284  25.035  26.912  1.00  0.00    -0.330 N 
ATOM      9  C   UNL A   1      31.858  23.822  26.655  1.00  0.00     0.316 C 
ATOM     10  H   UNL A   1      31.050  25.177  27.858  1.00  0.00     0.165 HD
ATOM     11  O   UNL A   1      31.704  22.962  27.534  1.00  0.00    -0.249 OA
ATOM     12  H   UNL A   1      32.546  22.416  25.574  1.00  0.00     0.166 HD
BRANCH   8  13
ATOM     13  C   UNL A   1      30.951  26.166  26.037  1.00  0.00     0.139 C 
ATOM     14  C   UNL A   1      31.958  30.301  26.193  1.00  0.00     0.332 C 
ATOM     15  N   UNL A   1      31.827  29.037  25.471  1.00  0.00    -0.336 N 
ATOM     16  C   UNL A   1      30.966  29.280  23.936  1.00  0.00     0.262 C 
ATOM     17  C   UNL A   1      31.395  27.820  26.576  1.00  0.00     0.287 C 
ATOM     18  H   UNL A   1      32.694  28.656  25.094  1.00  0.00     0.347 HD
ATOM     19  C   UNL A   1      29.865  27.804  23.140  1.00  0.00     0.064 C 
ATOM     20  C   UNL A   1      29.593  26.163  24.605  1.00  0.00     0.037 C 
ENDBRANCH   8  13
ENDBRANCH   5   7
BRANCH   5  21
ATOM     21  C   UNL A   1      32.653  24.190  23.111  1.00  0.00     0.422 C 
ATOM     22  F   UNL A   1      31.414  23.793  23.277  1.00  0.00    -0.168 F 
ATOM     23  F   UNL A   1      32.679  25.517  22.876  1.00  0.00    -0.168 F 
ATOM     24  F   UNL A   1      33.063  23.586  21.978  1.00  0.00    -0.168 F 
ENDBRANCH   5  21
ENDBRANCH   3   5
ENDBRANCH   2   3
ENDBRANCH   1   2
BRANCH   1  25
ATOM     25  C   UNL A   1      36.456  20.338  24.998  1.00  0.00     0.275 C 
BRANCH  25  26
ATOM     26  O   UNL A   1      37.604  21.140  24.688  1.00  0.00    -0.458 OA
BRANCH  26  27
ATOM     27  C   UNL A   1      38.676  20.798  25.418  1.00  0.00     0.338 C 
ATOM     28  O   UNL A   1      39.043  19.685  25.750  1.00  0.00    -0.246 OA
BRANCH  27  29
ATOM     29  C   UNL A   1      39.381  21.992  25.850  1.00  0.00     0.060 A 
ATOM     30  C   UNL A   1      40.664  21.849  27.058  1.00  0.00     0.016 A 
ATOM     31  C   UNL A   1      38.537  23.477  25.775  1.00  0.00     0.016 A 
ATOM     32  C   UNL A   1      40.917  23.322  28.320  1.00  0.00     0.010 A 
ATOM     33  C   UNL A   1      38.855  24.808  26.810  1.00  0.00     0.010 A 
ATOM     34  C   UNL A   1      40.063  24.810  28.026  1.00  0.00    -0.014 A 
BRANCH  34  35
ATOM     35  C   UNL A   1      40.753  26.070  28.442  1.00  0.00     0.031 A 
ATOM     36  C   UNL A   1      42.097  26.266  27.869  1.00  0.00     0.074 A 
ATOM     37  C   UNL A   1      40.169  27.017  29.228  1.00  0.00     0.049 A 
ATOM     38  N   UNL A   1      42.856  27.318  27.920  1.00  0.00    -0.248 NA
ATOM     39  C   UNL A   1      42.690  25.096  27.208  1.00  0.00     0.031 C 
ATOM     40  C   UNL A   1      38.958  26.882  30.037  1.00  0.00     0.029 A 
ATOM     41  N   UNL A   1      40.449  28.357  29.404  1.00  0.00    -0.354 N 
ATOM     42  C   UNL A   1      44.036  26.929  27.322  1.00  0.00     0.074 A 
ATOM     43  C   UNL A   1      43.903  25.544  26.935  1.00  0.00     0.031 C 
ATOM     44  C   UNL A   1      38.430  28.075  30.318  1.00  0.00     0.029 A 
ATOM     45  C   UNL A   1      39.409  29.073  29.987  1.00  0.00     0.049 A 
ATOM     46  H   UNL A   1      41.304  28.767  29.141  1.00  0.00     0.167 HD
ATOM     47  C   UNL A   1      45.142  27.683  27.154  1.00  0.00     0.037 A 
ATOM     48  C   UNL A   1      39.274  30.376  30.298  1.00  0.00     0.037 A 
ATOM     49  C   UNL A   1      45.237  29.026  27.649  1.00  0.00     0.049 A 
ATOM     50  C   UNL A   1      40.520  31.180  30.109  1.00  0.00     0.074 A 
ATOM     51  C   UNL A   1      46.317  29.881  27.627  1.00  0.00     0.029 A 
ATOM     52  N   UNL A   1      44.199  29.699  28.296  1.00  0.00    -0.354 N 
ATOM     53  N   UNL A   1      41.638  30.818  29.526  1.00  0.00    -0.248 NA
ATOM     54  C   UNL A   1      40.540  32.517  30.701  1.00  0.00     0.031 C 
ATOM     55  C   UNL A   1      45.958  31.039  28.322  1.00  0.00     0.029 A 
ATOM     56  C   UNL A   1      44.625  30.950  28.701  1.00  0.00     0.049 A 
ATOM     57  H   UNL A   1      43.296  29.334  28.443  1.00  0.00     0.167 HD
ATOM     58  C   UNL A   1      42.515  31.865  29.710  1.00  0.00     0.074 A 
ATOM     59  C   UNL A   1      41.771  32.907  30.399  1.00  0.00     0.031 C 
ATOM     60  C   UNL A   1      43.825  31.946  29.377  1.00  0.00     0.037 A 
BRANCH  47  61
ATOM     61  C   UNL A   1      46.311  26.987  26.532  1.00  0.00     0.064 A 
ATOM     62  C   UNL A   1      47.242  26.273  27.305  1.00  0.00     0.173 A 
ATOM     63  C   UNL A   1      46.587  27.166  25.170  1.00  0.00     0.173 A 
ATOM     64  F   UNL A   1      47.054  26.126  28.626  1.00  0.00    -0.203 F 
ATOM     65  C   UNL A   1      48.433  25.817  26.747  1.00  0.00     0.198 A 
ATOM     66  C   UNL A   1      47.757  26.669  24.607  1.00  0.00     0.198 A 
ATOM     67  F   UNL A   1      45.748  27.871  24.396  1.00  0.00    -0.203 F 
ATOM     68  F   UNL A   1      49.360  25.244  27.528  1.00  0.00    -0.200 F 
ATOM     69  C   UNL A   1      48.686  26.011  25.398  1.00  0.00     0.200 A 
ATOM     70  F   UNL A   1      48.005  26.865  23.304  1.00  0.00    -0.200 F 
ATOM     71  F   UNL A   1      49.843  25.593  24.867  1.00  0.00    -0.200 F 
ENDBRANCH  47  61
BRANCH  48  72
ATOM     72  C   UNL A   1      38.035  30.952  30.923  1.00  0.00     0.064 A 
ATOM     73  C   UNL A   1      37.940  31.136  32.313  1.00  0.00     0.173 A 
ATOM     74  C   UNL A   1      36.903  31.313  30.168  1.00  0.00     0.173 A 
ATOM     75  F   UNL A   1      38.964  30.787  33.106  1.00  0.00    -0.203 F 
ATOM     76  C   UNL A   1      36.778  31.639  32.911  1.00  0.00     0.198 A 
ATOM     77  C   UNL A   1      35.766  31.868  30.757  1.00  0.00     0.198 A 
ATOM     78  F   UNL A   1      36.893  31.137  28.838  1.00  0.00    -0.203 F 
ATOM     79  F   UNL A   1      36.700  31.737  34.246  1.00  0.00    -0.200 F 
ATOM     80  C   UNL A   1      35.698  32.018  32.131  1.00  0.00     0.200 A 
ATOM     81  F   UNL A   1      34.737  32.253  29.990  1.00  0.00    -0.200 F 
ATOM     82  F   UNL A   1      34.589  32.509  32.701  1.00  0.00    -0.200 F 
ENDBRANCH  48  72
BRANCH  60  83
ATOM     83  C   UNL A   1      44.501  33.232  29.721  1.00  0.00     0.064 A 
ATOM     84  C   UNL A   1      45.172  33.414  30.937  1.00  0.00     0.173 A 
ATOM     85  C   UNL A   1      44.510  34.276  28.786  1.00  0.00     0.173 A 
ATOM     86  F   UNL A   1      45.164  32.446  31.867  1.00  0.00    -0.203 F 
ATOM     87  C   UNL A   1      45.809  34.615  31.217  1.00  0.00     0.198 A 
ATOM     88  C   UNL A   1      45.191  35.455  29.051  1.00  0.00     0.198 A 
ATOM     89  F   UNL A   1      43.880  34.138  27.610  1.00  0.00    -0.203 F 
ATOM     90  F   UNL A   1      46.392  34.798  32.410  1.00  0.00    -0.200 F 
ATOM     91  C   UNL A   1      45.831  35.628  30.269  1.00  0.00     0.200 A 
ATOM     92  F   UNL A   1      45.231  36.422  28.123  1.00  0.00    -0.200 F 
ATOM     93  F   UNL A   1      46.465  36.778  30.532  1.00  0.00    -0.200 F 
ENDBRANCH  60  83
ENDBRANCH  34  35
ENDBRANCH  27  29
ENDBRANCH  26  27
ENDBRANCH  25  26
ENDBRANCH   1  25
TORSDOF 14
ENDMDL
