MODEL 1
REMARK VINA RESULT:     -10.6      0.000      0.000
REMARK SMILES O=C(C[C@H]1C[N@@H+](Cc2c(F)cccc2F)CCO1)OCCOC(=O)c1ccc(-c2c3nc(c(-c4c(F)c(F)c(F)c(F)c4F)c4ccc([nH]4)c(-c4c(F)c(F)c(F)c(F)c4F)c4nc(c(-c5c(F)c(F)c(F)c(F)c5F)c5ccc2[nH]5)C=C4)C=C3)cc1
REMARK SMILES IDX 20 1 19 2 2 3 1 4 3 5 4 6 5 7 18 8 6 9 17 10 16 11 7 13 8 14
REMARK SMILES IDX 9 15 14 16 10 17 11 18 13 19 15 20 12 21 21 22 22 23 23 24
REMARK SMILES IDX 24 25 25 26 26 27 87 28 27 29 86 30 28 31 29 32 30 33 80 34
REMARK SMILES IDX 31 35 85 36 79 37 81 38 32 39 84 40 78 41 77 42 33 44 65 45
REMARK SMILES IDX 45 46 64 47 46 48 49 49 63 50 82 51 47 52 48 53 62 55 83 56
REMARK SMILES IDX 50 57 34 58 35 59 43 60 36 61 37 62 41 63 44 64 38 65 39 66
REMARK SMILES IDX 42 67 40 68 66 69 67 70 75 71 68 72 69 73 73 74 76 75 70 76
REMARK SMILES IDX 71 77 74 78 72 79 51 80 52 81 60 82 53 83 54 84 58 85 61 86
REMARK SMILES IDX 55 87 56 88 59 89 57 90
REMARK H PARENT 6 12 81 43 49 54
REMARK Flexibility Score: inf
ROOT
ATOM      1  C   UNL A   1      33.881  34.408  28.104  1.00  0.00     0.274 C 
ENDROOT
BRANCH   1   2
ATOM      2  O   UNL A   1      33.006  34.333  29.251  1.00  0.00    -0.462 OA
BRANCH   2   3
ATOM      3  C   UNL A   1      33.173  35.263  30.235  1.00  0.00     0.308 C 
ATOM      4  O   UNL A   1      32.633  36.360  30.196  1.00  0.00    -0.252 OA
BRANCH   3   5
ATOM      5  C   UNL A   1      34.232  34.893  31.234  1.00  0.00     0.160 C 
BRANCH   5   6
ATOM      6  C   UNL A   1      34.225  33.438  31.684  1.00  0.00     0.184 C 
ATOM      7  C   UNL A   1      35.619  32.790  31.516  1.00  0.00     0.295 C 
ATOM      8  O   UNL A   1      33.770  33.279  33.044  1.00  0.00    -0.366 OA
ATOM      9  N   UNL A   1      36.620  33.259  32.484  1.00  0.00    -0.327 N 
ATOM     10  C   UNL A   1      34.725  33.687  34.041  1.00  0.00     0.222 C 
ATOM     11  C   UNL A   1      36.111  33.060  33.834  1.00  0.00     0.291 C 
ATOM     12  H   UNL A   1      37.448  32.667  32.428  1.00  0.00     0.348 HD
BRANCH   9  13
ATOM     13  C   UNL A   1      37.342  34.490  32.146  1.00  0.00     0.305 C 
BRANCH  13  14
ATOM     14  C   UNL A   1      38.679  34.552  31.441  1.00  0.00     0.078 A 
ATOM     15  C   UNL A   1      39.902  34.429  32.099  1.00  0.00     0.135 A 
ATOM     16  C   UNL A   1      38.745  34.573  30.035  1.00  0.00     0.135 A 
ATOM     17  F   UNL A   1      39.948  34.257  33.425  1.00  0.00    -0.206 F 
ATOM     18  C   UNL A   1      41.120  34.449  31.411  1.00  0.00     0.040 A 
ATOM     19  C   UNL A   1      39.946  34.592  29.330  1.00  0.00     0.040 A 
ATOM     20  F   UNL A   1      37.621  34.569  29.306  1.00  0.00    -0.206 F 
ATOM     21  C   UNL A   1      41.144  34.549  30.023  1.00  0.00     0.006 A 
ENDBRANCH  13  14
ENDBRANCH   9  13
ENDBRANCH   5   6
ENDBRANCH   3   5
ENDBRANCH   2   3
ENDBRANCH   1   2
BRANCH   1  22
ATOM     22  C   UNL A   1      34.822  33.197  28.024  1.00  0.00     0.275 C 
BRANCH  22  23
ATOM     23  O   UNL A   1      34.181  31.996  28.509  1.00  0.00    -0.458 OA
BRANCH  23  24
ATOM     24  C   UNL A   1      34.471  30.876  27.782  1.00  0.00     0.338 C 
ATOM     25  O   UNL A   1      33.814  30.406  26.875  1.00  0.00    -0.246 OA
BRANCH  24  26
ATOM     26  C   UNL A   1      35.796  30.342  28.183  1.00  0.00     0.060 A 
ATOM     27  C   UNL A   1      35.934  29.792  29.463  1.00  0.00     0.016 A 
ATOM     28  C   UNL A   1      36.887  30.341  27.308  1.00  0.00     0.016 A 
ATOM     29  C   UNL A   1      37.136  29.180  29.843  1.00  0.00     0.010 A 
ATOM     30  C   UNL A   1      38.107  29.765  27.706  1.00  0.00     0.010 A 
ATOM     31  C   UNL A   1      38.239  29.166  28.972  1.00  0.00    -0.014 A 
BRANCH  31  32
ATOM     32  C   UNL A   1      39.558  28.669  29.464  1.00  0.00     0.031 A 
ATOM     33  C   UNL A   1      40.200  29.398  30.609  1.00  0.00     0.074 A 
ATOM     34  C   UNL A   1      40.174  27.580  28.960  1.00  0.00     0.049 A 
ATOM     35  N   UNL A   1      41.285  29.101  31.278  1.00  0.00    -0.248 NA
ATOM     36  C   UNL A   1      39.518  30.617  31.070  1.00  0.00     0.031 C 
ATOM     37  C   UNL A   1      39.674  26.749  27.878  1.00  0.00     0.029 A 
ATOM     38  N   UNL A   1      41.362  26.972  29.305  1.00  0.00    -0.354 N 
ATOM     39  C   UNL A   1      41.391  30.071  32.263  1.00  0.00     0.074 A 
ATOM     40  C   UNL A   1      40.280  30.981  32.091  1.00  0.00     0.031 C 
ATOM     41  C   UNL A   1      40.516  25.730  27.656  1.00  0.00     0.029 A 
ATOM     42  C   UNL A   1      41.656  25.857  28.553  1.00  0.00     0.049 A 
ATOM     43  H   UNL A   1      41.946  27.305  30.024  1.00  0.00     0.167 HD
ATOM     44  C   UNL A   1      42.332  30.195  33.226  1.00  0.00     0.037 A 
ATOM     45  C   UNL A   1      42.724  25.035  28.563  1.00  0.00     0.037 A 
ATOM     46  C   UNL A   1      43.491  29.358  33.349  1.00  0.00     0.049 A 
ATOM     47  C   UNL A   1      43.831  25.281  29.548  1.00  0.00     0.074 A 
ATOM     48  C   UNL A   1      44.527  29.451  34.261  1.00  0.00     0.029 A 
ATOM     49  N   UNL A   1      43.788  28.294  32.510  1.00  0.00    -0.354 N 
ATOM     50  N   UNL A   1      43.897  26.174  30.503  1.00  0.00    -0.248 NA
ATOM     51  C   UNL A   1      45.017  24.415  29.454  1.00  0.00     0.031 C 
ATOM     52  C   UNL A   1      45.481  28.481  33.937  1.00  0.00     0.029 A 
ATOM     53  C   UNL A   1      45.011  27.747  32.859  1.00  0.00     0.049 A 
ATOM     54  H   UNL A   1      43.214  27.976  31.776  1.00  0.00     0.167 HD
ATOM     55  C   UNL A   1      45.112  25.966  31.138  1.00  0.00     0.074 A 
ATOM     56  C   UNL A   1      45.755  24.858  30.464  1.00  0.00     0.031 C 
ATOM     57  C   UNL A   1      45.640  26.636  32.190  1.00  0.00     0.037 A 
BRANCH  44  58
ATOM     58  C   UNL A   1      42.158  31.328  34.189  1.00  0.00     0.064 A 
ATOM     59  C   UNL A   1      42.818  32.546  33.983  1.00  0.00     0.173 A 
ATOM     60  C   UNL A   1      41.320  31.207  35.307  1.00  0.00     0.173 A 
ATOM     61  F   UNL A   1      43.624  32.707  32.923  1.00  0.00    -0.203 F 
ATOM     62  C   UNL A   1      42.644  33.608  34.864  1.00  0.00     0.198 A 
ATOM     63  C   UNL A   1      41.131  32.280  36.174  1.00  0.00     0.198 A 
ATOM     64  F   UNL A   1      40.649  30.067  35.530  1.00  0.00    -0.203 F 
ATOM     65  F   UNL A   1      43.287  34.765  34.650  1.00  0.00    -0.200 F 
ATOM     66  C   UNL A   1      41.795  33.477  35.953  1.00  0.00     0.200 A 
ATOM     67  F   UNL A   1      40.290  32.162  37.210  1.00  0.00    -0.200 F 
ATOM     68  F   UNL A   1      41.608  34.511  36.784  1.00  0.00    -0.200 F 
ENDBRANCH  44  58
BRANCH  45  69
ATOM     69  C   UNL A   1      42.795  23.900  27.603  1.00  0.00     0.064 A 
ATOM     70  C   UNL A   1      42.394  22.607  27.970  1.00  0.00     0.173 A 
ATOM     71  C   UNL A   1      43.277  24.085  26.300  1.00  0.00     0.173 A 
ATOM     72  F   UNL A   1      41.919  22.376  29.203  1.00  0.00    -0.203 F 
ATOM     73  C   UNL A   1      42.494  21.539  27.080  1.00  0.00     0.198 A 
ATOM     74  C   UNL A   1      43.354  23.021  25.402  1.00  0.00     0.198 A 
ATOM     75  F   UNL A   1      43.648  25.308  25.891  1.00  0.00    -0.203 F 
ATOM     76  F   UNL A   1      42.131  20.309  27.468  1.00  0.00    -0.200 F 
ATOM     77  C   UNL A   1      42.972  21.748  25.796  1.00  0.00     0.200 A 
ATOM     78  F   UNL A   1      43.793  23.231  24.153  1.00  0.00    -0.200 F 
ATOM     79  F   UNL A   1      43.056  20.724  24.936  1.00  0.00    -0.200 F 
ENDBRANCH  45  69
BRANCH  57  80
ATOM     80  C   UNL A   1      46.971  26.191  32.711  1.00  0.00     0.064 A 
ATOM     81  C   UNL A   1      48.153  26.715  32.166  1.00  0.00     0.173 A 
ATOM     82  C   UNL A   1      47.080  25.162  33.656  1.00  0.00     0.173 A 
ATOM     83  F   UNL A   1      48.099  27.698  31.254  1.00  0.00    -0.203 F 
ATOM     84  C   UNL A   1      49.396  26.203  32.526  1.00  0.00     0.198 A 
ATOM     85  C   UNL A   1      48.326  24.668  34.032  1.00  0.00     0.198 A 
ATOM     86  F   UNL A   1      45.978  24.640  34.216  1.00  0.00    -0.203 F 
ATOM     87  F   UNL A   1      50.509  26.687  31.958  1.00  0.00    -0.200 F 
ATOM     88  C   UNL A   1      49.481  25.178  33.456  1.00  0.00     0.200 A 
ATOM     89  F   UNL A   1      48.410  23.689  34.944  1.00  0.00    -0.200 F 
ATOM     90  F   UNL A   1      50.678  24.679  33.795  1.00  0.00    -0.200 F 
ENDBRANCH  57  80
ENDBRANCH  31  32
ENDBRANCH  24  26
ENDBRANCH  23  24
ENDBRANCH  22  23
ENDBRANCH   1  22
TORSDOF 14
ENDMDL
MODEL 2
REMARK VINA RESULT:     -10.6      4.386     11.755
REMARK SMILES O=C(C[C@H]1C[N@@H+](Cc2c(F)cccc2F)CCO1)OCCOC(=O)c1ccc(-c2c3nc(c(-c4c(F)c(F)c(F)c(F)c4F)c4ccc([nH]4)c(-c4c(F)c(F)c(F)c(F)c4F)c4nc(c(-c5c(F)c(F)c(F)c(F)c5F)c5ccc2[nH]5)C=C4)C=C3)cc1
REMARK SMILES IDX 20 1 19 2 2 3 1 4 3 5 4 6 5 7 18 8 6 9 17 10 16 11 7 13 8 14
REMARK SMILES IDX 9 15 14 16 10 17 11 18 13 19 15 20 12 21 21 22 22 23 23 24
REMARK SMILES IDX 24 25 25 26 26 27 87 28 27 29 86 30 28 31 29 32 30 33 80 34
REMARK SMILES IDX 31 35 85 36 79 37 81 38 32 39 84 40 78 41 77 42 33 44 65 45
REMARK SMILES IDX 45 46 64 47 46 48 49 49 63 50 82 51 47 52 48 53 62 55 83 56
REMARK SMILES IDX 50 57 34 58 35 59 43 60 36 61 37 62 41 63 44 64 38 65 39 66
REMARK SMILES IDX 42 67 40 68 66 69 67 70 75 71 68 72 69 73 73 74 76 75 70 76
REMARK SMILES IDX 71 77 74 78 72 79 51 80 52 81 60 82 53 83 54 84 58 85 61 86
REMARK SMILES IDX 55 87 56 88 59 89 57 90
REMARK H PARENT 6 12 81 43 49 54
REMARK Flexibility Score: inf
ROOT
ATOM      1  C   UNL A   1      41.192  20.406  27.621  1.00  0.00     0.274 C 
ENDROOT
BRANCH   1   2
ATOM      2  O   UNL A   1      41.909  19.154  27.545  1.00  0.00    -0.462 OA
BRANCH   2   3
ATOM      3  C   UNL A   1      42.464  18.816  26.346  1.00  0.00     0.308 C 
ATOM      4  O   UNL A   1      42.276  17.728  25.822  1.00  0.00    -0.252 OA
BRANCH   3   5
ATOM      5  C   UNL A   1      43.480  19.809  25.857  1.00  0.00     0.160 C 
BRANCH   5   6
ATOM      6  C   UNL A   1      44.174  19.443  24.551  1.00  0.00     0.184 C 
ATOM      7  C   UNL A   1      44.720  20.699  23.832  1.00  0.00     0.295 C 
ATOM      8  O   UNL A   1      45.235  18.483  24.736  1.00  0.00    -0.366 OA
ATOM      9  N   UNL A   1      45.893  21.300  24.481  1.00  0.00    -0.327 N 
ATOM     10  C   UNL A   1      46.427  19.023  25.335  1.00  0.00     0.222 C 
ATOM     11  C   UNL A   1      46.931  20.289  24.627  1.00  0.00     0.291 C 
ATOM     12  H   UNL A   1      46.298  22.003  23.864  1.00  0.00     0.348 HD
BRANCH   9  13
ATOM     13  C   UNL A   1      45.633  22.248  25.570  1.00  0.00     0.305 C 
BRANCH  13  14
ATOM     14  C   UNL A   1      45.291  23.710  25.391  1.00  0.00     0.078 A 
ATOM     15  C   UNL A   1      44.003  24.171  25.118  1.00  0.00     0.135 A 
ATOM     16  C   UNL A   1      46.248  24.706  25.661  1.00  0.00     0.135 A 
ATOM     17  F   UNL A   1      42.986  23.313  24.987  1.00  0.00    -0.206 F 
ATOM     18  C   UNL A   1      43.714  25.535  24.999  1.00  0.00     0.040 A 
ATOM     19  C   UNL A   1      45.981  26.068  25.549  1.00  0.00     0.040 A 
ATOM     20  F   UNL A   1      47.484  24.367  26.050  1.00  0.00    -0.206 F 
ATOM     21  C   UNL A   1      44.708  26.487  25.198  1.00  0.00     0.006 A 
ENDBRANCH  13  14
ENDBRANCH   9  13
ENDBRANCH   5   6
ENDBRANCH   3   5
ENDBRANCH   2   3
ENDBRANCH   1   2
BRANCH   1  22
ATOM     22  C   UNL A   1      40.199  20.566  26.461  1.00  0.00     0.275 C 
BRANCH  22  23
ATOM     23  O   UNL A   1      40.213  21.913  25.934  1.00  0.00    -0.458 OA
BRANCH  23  24
ATOM     24  C   UNL A   1      39.069  22.619  26.176  1.00  0.00     0.338 C 
ATOM     25  O   UNL A   1      37.928  22.236  26.009  1.00  0.00    -0.246 OA
BRANCH  24  26
ATOM     26  C   UNL A   1      39.402  23.926  26.793  1.00  0.00     0.060 A 
ATOM     27  C   UNL A   1      40.124  24.856  26.036  1.00  0.00     0.016 A 
ATOM     28  C   UNL A   1      38.982  24.260  28.085  1.00  0.00     0.016 A 
ATOM     29  C   UNL A   1      40.366  26.141  26.540  1.00  0.00     0.010 A 
ATOM     30  C   UNL A   1      39.263  25.536  28.607  1.00  0.00     0.010 A 
ATOM     31  C   UNL A   1      39.945  26.494  27.835  1.00  0.00    -0.014 A 
BRANCH  31  32
ATOM     32  C   UNL A   1      40.369  27.802  28.415  1.00  0.00     0.031 A 
ATOM     33  C   UNL A   1      41.834  28.018  28.662  1.00  0.00     0.074 A 
ATOM     34  C   UNL A   1      39.510  28.806  28.685  1.00  0.00     0.049 A 
ATOM     35  N   UNL A   1      42.459  29.098  29.058  1.00  0.00    -0.248 NA
ATOM     36  C   UNL A   1      42.715  26.865  28.415  1.00  0.00     0.031 C 
ATOM     37  C   UNL A   1      38.072  28.770  28.474  1.00  0.00     0.029 A 
ATOM     38  N   UNL A   1      39.726  30.070  29.188  1.00  0.00    -0.354 N 
ATOM     39  C   UNL A   1      43.805  28.767  29.067  1.00  0.00     0.074 A 
ATOM     40  C   UNL A   1      43.909  27.381  28.665  1.00  0.00     0.031 C 
ATOM     41  C   UNL A   1      37.530  29.948  28.813  1.00  0.00     0.029 A 
ATOM     42  C   UNL A   1      38.580  30.822  29.317  1.00  0.00     0.049 A 
ATOM     43  H   UNL A   1      40.619  30.406  29.432  1.00  0.00     0.167 HD
ATOM     44  C   UNL A   1      44.863  29.547  29.384  1.00  0.00     0.037 A 
ATOM     45  C   UNL A   1      38.382  32.065  29.800  1.00  0.00     0.037 A 
ATOM     46  C   UNL A   1      44.768  30.892  29.877  1.00  0.00     0.049 A 
ATOM     47  C   UNL A   1      39.559  32.861  30.285  1.00  0.00     0.074 A 
ATOM     48  C   UNL A   1      45.789  31.733  30.280  1.00  0.00     0.029 A 
ATOM     49  N   UNL A   1      43.580  31.578  30.071  1.00  0.00    -0.354 N 
ATOM     50  N   UNL A   1      40.831  32.552  30.246  1.00  0.00    -0.248 NA
ATOM     51  C   UNL A   1      39.278  34.171  30.891  1.00  0.00     0.031 C 
ATOM     52  C   UNL A   1      45.215  32.909  30.773  1.00  0.00     0.029 A 
ATOM     53  C   UNL A   1      43.840  32.820  30.625  1.00  0.00     0.049 A 
ATOM     54  H   UNL A   1      42.685  31.234  29.848  1.00  0.00     0.167 HD
ATOM     55  C   UNL A   1      41.503  33.633  30.795  1.00  0.00     0.074 A 
ATOM     56  C   UNL A   1      40.501  34.611  31.160  1.00  0.00     0.031 C 
ATOM     57  C   UNL A   1      42.836  33.794  30.975  1.00  0.00     0.037 A 
BRANCH  44  58
ATOM     58  C   UNL A   1      46.217  28.922  29.254  1.00  0.00     0.064 A 
ATOM     59  C   UNL A   1      46.874  28.899  28.017  1.00  0.00     0.173 A 
ATOM     60  C   UNL A   1      46.868  28.361  30.362  1.00  0.00     0.173 A 
ATOM     61  F   UNL A   1      46.291  29.430  26.931  1.00  0.00    -0.203 F 
ATOM     62  C   UNL A   1      48.141  28.338  27.893  1.00  0.00     0.198 A 
ATOM     63  C   UNL A   1      48.145  27.820  30.239  1.00  0.00     0.198 A 
ATOM     64  F   UNL A   1      46.286  28.383  31.570  1.00  0.00    -0.203 F 
ATOM     65  F   UNL A   1      48.751  28.324  26.700  1.00  0.00    -0.200 F 
ATOM     66  C   UNL A   1      48.778  27.807  29.005  1.00  0.00     0.200 A 
ATOM     67  F   UNL A   1      48.771  27.333  31.318  1.00  0.00    -0.200 F 
ATOM     68  F   UNL A   1      50.009  27.292  28.889  1.00  0.00    -0.200 F 
ENDBRANCH  44  58
BRANCH  45  69
ATOM     69  C   UNL A   1      37.006  32.630  29.848  1.00  0.00     0.064 A 
ATOM     70  C   UNL A   1      36.459  33.314  28.751  1.00  0.00     0.173 A 
ATOM     71  C   UNL A   1      36.214  32.508  30.998  1.00  0.00     0.173 A 
ATOM     72  F   UNL A   1      37.172  33.454  27.624  1.00  0.00    -0.203 F 
ATOM     73  C   UNL A   1      35.183  33.873  28.812  1.00  0.00     0.198 A 
ATOM     74  C   UNL A   1      34.929  33.047  31.049  1.00  0.00     0.198 A 
ATOM     75  F   UNL A   1      36.681  31.841  32.064  1.00  0.00    -0.203 F 
ATOM     76  F   UNL A   1      34.699  34.547  27.760  1.00  0.00    -0.200 F 
ATOM     77  C   UNL A   1      34.418  33.737  29.960  1.00  0.00     0.200 A 
ATOM     78  F   UNL A   1      34.182  32.891  32.151  1.00  0.00    -0.200 F 
ATOM     79  F   UNL A   1      33.188  34.263  30.013  1.00  0.00    -0.200 F 
ENDBRANCH  45  69
BRANCH  57  80
ATOM     80  C   UNL A   1      43.315  35.082  31.572  1.00  0.00     0.064 A 
ATOM     81  C   UNL A   1      43.270  35.275  32.961  1.00  0.00     0.173 A 
ATOM     82  C   UNL A   1      43.698  36.164  30.767  1.00  0.00     0.173 A 
ATOM     83  F   UNL A   1      42.904  34.270  33.771  1.00  0.00    -0.203 F 
ATOM     84  C   UNL A   1      43.563  36.515  33.521  1.00  0.00     0.198 A 
ATOM     85  C   UNL A   1      44.013  37.396  31.332  1.00  0.00     0.198 A 
ATOM     86  F   UNL A   1      43.769  36.022  29.435  1.00  0.00    -0.203 F 
ATOM     87  F   UNL A   1      43.469  36.689  34.846  1.00  0.00    -0.200 F 
ATOM     88  C   UNL A   1      43.930  37.575  32.707  1.00  0.00     0.200 A 
ATOM     89  F   UNL A   1      44.385  38.417  30.547  1.00  0.00    -0.200 F 
ATOM     90  F   UNL A   1      44.202  38.771  33.245  1.00  0.00    -0.200 F 
ENDBRANCH  57  80
ENDBRANCH  31  32
ENDBRANCH  24  26
ENDBRANCH  23  24
ENDBRANCH  22  23
ENDBRANCH   1  22
TORSDOF 14
ENDMDL
MODEL 3
REMARK VINA RESULT:     -10.4      3.280      6.115
REMARK SMILES O=C(C[C@H]1C[N@@H+](Cc2c(F)cccc2F)CCO1)OCCOC(=O)c1ccc(-c2c3nc(c(-c4c(F)c(F)c(F)c(F)c4F)c4ccc([nH]4)c(-c4c(F)c(F)c(F)c(F)c4F)c4nc(c(-c5c(F)c(F)c(F)c(F)c5F)c5ccc2[nH]5)C=C4)C=C3)cc1
REMARK SMILES IDX 20 1 19 2 2 3 1 4 3 5 4 6 5 7 18 8 6 9 17 10 16 11 7 13 8 14
REMARK SMILES IDX 9 15 14 16 10 17 11 18 13 19 15 20 12 21 21 22 22 23 23 24
REMARK SMILES IDX 24 25 25 26 26 27 87 28 27 29 86 30 28 31 29 32 30 33 80 34
REMARK SMILES IDX 31 35 85 36 79 37 81 38 32 39 84 40 78 41 77 42 33 44 65 45
REMARK SMILES IDX 45 46 64 47 46 48 49 49 63 50 82 51 47 52 48 53 62 55 83 56
REMARK SMILES IDX 50 57 34 58 35 59 43 60 36 61 37 62 41 63 44 64 38 65 39 66
REMARK SMILES IDX 42 67 40 68 66 69 67 70 75 71 68 72 69 73 73 74 76 75 70 76
REMARK SMILES IDX 71 77 74 78 72 79 51 80 52 81 60 82 53 83 54 84 58 85 61 86
REMARK SMILES IDX 55 87 56 88 59 89 57 90
REMARK H PARENT 6 12 81 43 49 54
REMARK Flexibility Score: inf
ROOT
ATOM      1  C   UNL A   1      32.031  28.203  25.952  1.00  0.00     0.274 C 
ENDROOT
BRANCH   1   2
ATOM      2  O   UNL A   1      32.313  26.900  25.398  1.00  0.00    -0.462 OA
BRANCH   2   3
ATOM      3  C   UNL A   1      31.668  25.828  25.941  1.00  0.00     0.308 C 
ATOM      4  O   UNL A   1      30.591  25.932  26.509  1.00  0.00    -0.252 OA
BRANCH   3   5
ATOM      5  C   UNL A   1      32.500  24.577  25.962  1.00  0.00     0.160 C 
BRANCH   5   6
ATOM      6  C   UNL A   1      31.768  23.313  26.393  1.00  0.00     0.184 C 
ATOM      7  C   UNL A   1      32.098  22.125  25.460  1.00  0.00     0.295 C 
ATOM      8  O   UNL A   1      32.042  22.953  27.763  1.00  0.00    -0.366 OA
ATOM      9  N   UNL A   1      33.457  21.593  25.623  1.00  0.00    -0.327 N 
ATOM     10  C   UNL A   1      33.348  22.389  27.979  1.00  0.00     0.222 C 
ATOM     11  C   UNL A   1      33.669  21.235  27.018  1.00  0.00     0.291 C 
ATOM     12  H   UNL A   1      33.541  20.715  25.112  1.00  0.00     0.348 HD
BRANCH   9  13
ATOM     13  C   UNL A   1      34.523  22.260  24.866  1.00  0.00     0.305 C 
BRANCH  13  14
ATOM     14  C   UNL A   1      35.953  22.421  25.332  1.00  0.00     0.078 A 
ATOM     15  C   UNL A   1      36.904  21.404  25.264  1.00  0.00     0.135 A 
ATOM     16  C   UNL A   1      36.442  23.686  25.711  1.00  0.00     0.135 A 
ATOM     17  F   UNL A   1      36.581  20.200  24.780  1.00  0.00    -0.206 F 
ATOM     18  C   UNL A   1      38.230  21.600  25.665  1.00  0.00     0.040 A 
ATOM     19  C   UNL A   1      37.758  23.904  26.114  1.00  0.00     0.040 A 
ATOM     20  F   UNL A   1      35.636  24.755  25.693  1.00  0.00    -0.206 F 
ATOM     21  C   UNL A   1      38.656  22.849  26.108  1.00  0.00     0.006 A 
ENDBRANCH  13  14
ENDBRANCH   9  13
ENDBRANCH   5   6
ENDBRANCH   3   5
ENDBRANCH   2   3
ENDBRANCH   1   2
BRANCH   1  22
ATOM     22  C   UNL A   1      33.041  28.591  27.042  1.00  0.00     0.275 C 
BRANCH  22  23
ATOM     23  O   UNL A   1      33.906  29.664  26.605  1.00  0.00    -0.458 OA
BRANCH  23  24
ATOM     24  C   UNL A   1      34.326  30.487  27.611  1.00  0.00     0.338 C 
ATOM     25  O   UNL A   1      33.693  31.385  28.130  1.00  0.00    -0.246 OA
BRANCH  24  26
ATOM     26  C   UNL A   1      35.667  30.064  28.083  1.00  0.00     0.060 A 
ATOM     27  C   UNL A   1      36.735  30.101  27.178  1.00  0.00     0.016 A 
ATOM     28  C   UNL A   1      35.893  29.671  29.406  1.00  0.00     0.016 A 
ATOM     29  C   UNL A   1      38.037  29.814  27.611  1.00  0.00     0.010 A 
ATOM     30  C   UNL A   1      37.194  29.341  29.829  1.00  0.00     0.010 A 
ATOM     31  C   UNL A   1      38.281  29.423  28.940  1.00  0.00    -0.014 A 
BRANCH  31  32
ATOM     32  C   UNL A   1      39.643  28.952  29.329  1.00  0.00     0.031 A 
ATOM     33  C   UNL A   1      40.417  29.782  30.313  1.00  0.00     0.074 A 
ATOM     34  C   UNL A   1      40.188  27.806  28.876  1.00  0.00     0.049 A 
ATOM     35  N   UNL A   1      41.569  29.534  30.883  1.00  0.00    -0.248 NA
ATOM     36  C   UNL A   1      39.803  31.057  30.717  1.00  0.00     0.031 C 
ATOM     37  C   UNL A   1      39.560  26.878  27.950  1.00  0.00     0.029 A 
ATOM     38  N   UNL A   1      41.401  27.212  29.147  1.00  0.00    -0.354 N 
ATOM     39  C   UNL A   1      41.795  30.597  31.742  1.00  0.00     0.074 A 
ATOM     40  C   UNL A   1      40.679  31.508  31.602  1.00  0.00     0.031 C 
ATOM     41  C   UNL A   1      40.363  25.824  27.743  1.00  0.00     0.029 A 
ATOM     42  C   UNL A   1      41.598  26.019  28.488  1.00  0.00     0.049 A 
ATOM     43  H   UNL A   1      42.067  27.605  29.756  1.00  0.00     0.167 HD
ATOM     44  C   UNL A   1      42.841  30.801  32.575  1.00  0.00     0.037 A 
ATOM     45  C   UNL A   1      42.653  25.181  28.464  1.00  0.00     0.037 A 
ATOM     46  C   UNL A   1      43.999  29.956  32.653  1.00  0.00     0.049 A 
ATOM     47  C   UNL A   1      43.868  25.504  29.286  1.00  0.00     0.074 A 
ATOM     48  C   UNL A   1      45.133  30.122  33.428  1.00  0.00     0.029 A 
ATOM     49  N   UNL A   1      44.188  28.807  31.903  1.00  0.00    -0.354 N 
ATOM     50  N   UNL A   1      44.050  26.490  30.129  1.00  0.00    -0.248 NA
ATOM     51  C   UNL A   1      45.027  24.609  29.150  1.00  0.00     0.031 C 
ATOM     52  C   UNL A   1      46.035  29.104  33.103  1.00  0.00     0.029 A 
ATOM     53  C   UNL A   1      45.439  28.274  32.167  1.00  0.00     0.049 A 
ATOM     54  H   UNL A   1      43.532  28.426  31.275  1.00  0.00     0.167 HD
ATOM     55  C   UNL A   1      45.327  26.322  30.641  1.00  0.00     0.074 A 
ATOM     56  C   UNL A   1      45.879  25.139  30.019  1.00  0.00     0.031 C 
ATOM     57  C   UNL A   1      45.978  27.087  31.551  1.00  0.00     0.037 A 
BRANCH  44  58
ATOM     58  C   UNL A   1      42.787  32.030  33.428  1.00  0.00     0.064 A 
ATOM     59  C   UNL A   1      43.290  33.248  32.953  1.00  0.00     0.173 A 
ATOM     60  C   UNL A   1      42.220  31.999  34.710  1.00  0.00     0.173 A 
ATOM     61  F   UNL A   1      43.835  33.324  31.730  1.00  0.00    -0.203 F 
ATOM     62  C   UNL A   1      43.224  34.398  33.733  1.00  0.00     0.198 A 
ATOM     63  C   UNL A   1      42.137  33.157  35.479  1.00  0.00     0.198 A 
ATOM     64  F   UNL A   1      41.706  30.859  35.195  1.00  0.00    -0.203 F 
ATOM     65  F   UNL A   1      43.713  35.554  33.261  1.00  0.00    -0.200 F 
ATOM     66  C   UNL A   1      42.641  34.353  34.991  1.00  0.00     0.200 A 
ATOM     67  F   UNL A   1      41.549  33.118  36.682  1.00  0.00    -0.200 F 
ATOM     68  F   UNL A   1      42.555  35.467  35.730  1.00  0.00    -0.200 F 
ENDBRANCH  44  58
BRANCH  45  69
ATOM     69  C   UNL A   1      42.604  23.952  27.625  1.00  0.00     0.064 A 
ATOM     70  C   UNL A   1      42.214  22.716  28.164  1.00  0.00     0.173 A 
ATOM     71  C   UNL A   1      42.957  23.987  26.269  1.00  0.00     0.173 A 
ATOM     72  F   UNL A   1      41.860  22.628  29.454  1.00  0.00    -0.203 F 
ATOM     73  C   UNL A   1      42.203  21.561  27.385  1.00  0.00     0.198 A 
ATOM     74  C   UNL A   1      42.923  22.835  25.485  1.00  0.00     0.198 A 
ATOM     75  F   UNL A   1      43.312  25.149  25.700  1.00  0.00    -0.203 F 
ATOM     76  F   UNL A   1      41.855  20.388  27.934  1.00  0.00    -0.200 F 
ATOM     77  C   UNL A   1      42.554  21.621  26.045  1.00  0.00     0.200 A 
ATOM     78  F   UNL A   1      43.239  22.902  24.184  1.00  0.00    -0.200 F 
ATOM     79  F   UNL A   1      42.531  20.513  25.294  1.00  0.00    -0.200 F 
ENDBRANCH  45  69
BRANCH  57  80
ATOM     80  C   UNL A   1      47.356  26.670  31.963  1.00  0.00     0.064 A 
ATOM     81  C   UNL A   1      48.476  27.173  31.285  1.00  0.00     0.173 A 
ATOM     82  C   UNL A   1      47.561  25.685  32.939  1.00  0.00     0.173 A 
ATOM     83  F   UNL A   1      48.328  28.114  30.339  1.00  0.00    -0.203 F 
ATOM     84  C   UNL A   1      49.752  26.683  31.549  1.00  0.00     0.198 A 
ATOM     85  C   UNL A   1      48.842  25.213  33.217  1.00  0.00     0.198 A 
ATOM     86  F   UNL A   1      46.522  25.185  33.623  1.00  0.00    -0.203 F 
ATOM     87  F   UNL A   1      50.802  27.145  30.856  1.00  0.00    -0.200 F 
ATOM     88  C   UNL A   1      49.933  25.701  32.511  1.00  0.00     0.200 A 
ATOM     89  F   UNL A   1      49.019  24.277  34.159  1.00  0.00    -0.200 F 
ATOM     90  F   UNL A   1      51.160  25.222  32.757  1.00  0.00    -0.200 F 
ENDBRANCH  57  80
ENDBRANCH  31  32
ENDBRANCH  24  26
ENDBRANCH  23  24
ENDBRANCH  22  23
ENDBRANCH   1  22
TORSDOF 14
ENDMDL
