MODEL 1
REMARK VINA RESULT:     -12.3      0.000      0.000
REMARK SMILES O=C(OCCOC(=O)c1ccccc1O[C@H]1CCOC2(CCSCC2)C1)c1ccc(-c2c3nc(c(-c4c(F)c(F)c(F)c(F)c4F)c4ccc([nH]4)c(-c4c(F)c(F)c(F)c(F)c4F)c4nc(c(-c5c(F)c(F)c(F)c(F)c5F)c5ccc2[nH]5)C=C4)C=C3)cc1
REMARK SMILES IDX 4 1 3 2 2 3 1 4 27 5 28 6 89 7 29 8 88 9 30 10 31 11 32 12
REMARK SMILES IDX 82 13 33 14 87 15 81 16 83 17 34 18 86 19 80 20 79 21 35 23
REMARK SMILES IDX 67 24 47 25 66 26 48 27 51 28 65 29 84 30 49 31 50 32 64 34
REMARK SMILES IDX 85 35 52 36 36 37 37 38 45 39 38 40 39 41 43 42 46 43 40 44
REMARK SMILES IDX 41 45 44 46 42 47 68 48 69 49 77 50 70 51 71 52 75 53 78 54
REMARK SMILES IDX 72 55 73 56 76 57 74 58 53 59 54 60 62 61 55 62 56 63 60 64
REMARK SMILES IDX 63 65 57 66 58 67 61 68 59 69 5 70 6 71 7 72 8 73 9 74 10 75
REMARK SMILES IDX 14 76 11 77 13 78 12 79 15 80 16 81 17 82 26 83 18 84 20 85
REMARK SMILES IDX 19 86 21 87 25 88 22 89 24 90 23 91
REMARK H PARENT 83 22 51 33
REMARK Flexibility Score: inf
ROOT
ATOM      1  C   UNL A   1      33.260  36.851  29.721  1.00  0.00     0.275 C 
ENDROOT
BRANCH   1   2
ATOM      2  O   UNL A   1      32.580  36.790  30.990  1.00  0.00    -0.458 OA
BRANCH   2   3
ATOM      3  C   UNL A   1      32.576  35.860  31.972  1.00  0.00     0.338 C 
ATOM      4  O   UNL A   1      31.492  35.594  32.496  1.00  0.00    -0.246 OA
BRANCH   3   5
ATOM      5  C   UNL A   1      33.787  35.165  32.541  1.00  0.00     0.060 A 
ATOM      6  C   UNL A   1      35.066  35.697  32.699  1.00  0.00     0.016 A 
ATOM      7  C   UNL A   1      33.588  33.840  32.995  1.00  0.00     0.016 A 
ATOM      8  C   UNL A   1      36.094  34.952  33.298  1.00  0.00     0.010 A 
ATOM      9  C   UNL A   1      34.610  33.090  33.599  1.00  0.00     0.010 A 
ATOM     10  C   UNL A   1      35.878  33.644  33.754  1.00  0.00    -0.014 A 
BRANCH  10  11
ATOM     11  C   UNL A   1      37.046  32.849  34.210  1.00  0.00     0.031 A 
ATOM     12  C   UNL A   1      37.774  32.041  33.190  1.00  0.00     0.074 A 
ATOM     13  C   UNL A   1      37.470  32.855  35.488  1.00  0.00     0.049 A 
ATOM     14  N   UNL A   1      38.908  31.408  33.302  1.00  0.00    -0.248 NA
ATOM     15  C   UNL A   1      37.088  31.852  31.904  1.00  0.00     0.031 C 
ATOM     16  C   UNL A   1      36.714  33.404  36.595  1.00  0.00     0.029 A 
ATOM     17  N   UNL A   1      38.654  32.466  36.073  1.00  0.00    -0.354 N 
ATOM     18  C   UNL A   1      39.016  30.649  32.148  1.00  0.00     0.074 A 
ATOM     19  C   UNL A   1      37.869  30.957  31.322  1.00  0.00     0.031 C 
ATOM     20  C   UNL A   1      37.510  33.525  37.670  1.00  0.00     0.029 A 
ATOM     21  C   UNL A   1      38.828  33.000  37.340  1.00  0.00     0.049 A 
ATOM     22  H   UNL A   1      39.307  31.870  35.638  1.00  0.00     0.167 HD
ATOM     23  C   UNL A   1      39.954  29.719  31.862  1.00  0.00     0.037 A 
ATOM     24  C   UNL A   1      39.960  33.109  38.073  1.00  0.00     0.037 A 
ATOM     25  C   UNL A   1      41.067  29.431  32.726  1.00  0.00     0.049 A 
ATOM     26  C   UNL A   1      41.152  32.322  37.574  1.00  0.00     0.074 A 
ATOM     27  C   UNL A   1      42.065  28.486  32.577  1.00  0.00     0.029 A 
ATOM     28  N   UNL A   1      41.325  30.102  33.916  1.00  0.00    -0.354 N 
ATOM     29  N   UNL A   1      41.299  31.677  36.442  1.00  0.00    -0.248 NA
ATOM     30  C   UNL A   1      42.307  32.219  38.479  1.00  0.00     0.031 C 
ATOM     31  C   UNL A   1      42.905  28.561  33.695  1.00  0.00     0.029 A 
ATOM     32  C   UNL A   1      42.464  29.591  34.511  1.00  0.00     0.049 A 
ATOM     33  H   UNL A   1      40.777  30.834  34.280  1.00  0.00     0.167 HD
ATOM     34  C   UNL A   1      42.527  31.042  36.529  1.00  0.00     0.074 A 
ATOM     35  C   UNL A   1      43.152  31.505  37.751  1.00  0.00     0.031 C 
ATOM     36  C   UNL A   1      43.052  30.084  35.729  1.00  0.00     0.037 A 
BRANCH  23  37
ATOM     37  C   UNL A   1      39.722  28.883  30.640  1.00  0.00     0.064 A 
ATOM     38  C   UNL A   1      39.122  27.618  30.700  1.00  0.00     0.173 A 
ATOM     39  C   UNL A   1      40.178  29.334  29.391  1.00  0.00     0.173 A 
ATOM     40  F   UNL A   1      38.702  27.125  31.876  1.00  0.00    -0.203 F 
ATOM     41  C   UNL A   1      39.026  26.816  29.565  1.00  0.00     0.198 A 
ATOM     42  C   UNL A   1      40.048  28.546  28.251  1.00  0.00     0.198 A 
ATOM     43  F   UNL A   1      40.773  30.531  29.278  1.00  0.00    -0.203 F 
ATOM     44  F   UNL A   1      38.527  25.577  29.663  1.00  0.00    -0.200 F 
ATOM     45  C   UNL A   1      39.486  27.282  28.342  1.00  0.00     0.200 A 
ATOM     46  F   UNL A   1      40.490  29.000  27.072  1.00  0.00    -0.200 F 
ATOM     47  F   UNL A   1      39.404  26.505  27.253  1.00  0.00    -0.200 F 
ENDBRANCH  23  37
BRANCH  24  48
ATOM     48  C   UNL A   1      40.112  33.998  39.275  1.00  0.00     0.064 A 
ATOM     49  C   UNL A   1      40.532  35.336  39.099  1.00  0.00     0.173 A 
ATOM     50  C   UNL A   1      39.915  33.582  40.598  1.00  0.00     0.173 A 
ATOM     51  F   UNL A   1      40.703  35.827  37.861  1.00  0.00    -0.203 F 
ATOM     52  C   UNL A   1      40.825  36.170  40.177  1.00  0.00     0.198 A 
ATOM     53  C   UNL A   1      40.118  34.451  41.677  1.00  0.00     0.198 A 
ATOM     54  F   UNL A   1      39.535  32.326  40.865  1.00  0.00    -0.203 F 
ATOM     55  F   UNL A   1      41.291  37.408  39.958  1.00  0.00    -0.200 F 
ATOM     56  C   UNL A   1      40.597  35.734  41.469  1.00  0.00     0.200 A 
ATOM     57  F   UNL A   1      39.846  34.038  42.922  1.00  0.00    -0.200 F 
ATOM     58  F   UNL A   1      40.810  36.554  42.506  1.00  0.00    -0.200 F 
ENDBRANCH  24  48
BRANCH  36  59
ATOM     59  C   UNL A   1      44.325  29.450  36.201  1.00  0.00     0.064 A 
ATOM     60  C   UNL A   1      44.309  28.236  36.908  1.00  0.00     0.173 A 
ATOM     61  C   UNL A   1      45.565  30.041  35.932  1.00  0.00     0.173 A 
ATOM     62  F   UNL A   1      43.142  27.640  37.203  1.00  0.00    -0.203 F 
ATOM     63  C   UNL A   1      45.488  27.657  37.361  1.00  0.00     0.198 A 
ATOM     64  C   UNL A   1      46.746  29.440  36.356  1.00  0.00     0.198 A 
ATOM     65  F   UNL A   1      45.631  31.198  35.256  1.00  0.00    -0.203 F 
ATOM     66  F   UNL A   1      45.444  26.531  38.087  1.00  0.00    -0.200 F 
ATOM     67  C   UNL A   1      46.707  28.256  37.078  1.00  0.00     0.200 A 
ATOM     68  F   UNL A   1      47.925  30.010  36.071  1.00  0.00    -0.200 F 
ATOM     69  F   UNL A   1      47.844  27.694  37.509  1.00  0.00    -0.200 F 
ENDBRANCH  36  59
ENDBRANCH  10  11
ENDBRANCH   3   5
ENDBRANCH   2   3
ENDBRANCH   1   2
BRANCH   1  70
ATOM     70  C   UNL A   1      32.812  35.754  28.753  1.00  0.00     0.275 C 
BRANCH  70  71
ATOM     71  O   UNL A   1      33.615  34.577  28.898  1.00  0.00    -0.458 OA
BRANCH  71  72
ATOM     72  C   UNL A   1      33.279  33.554  28.073  1.00  0.00     0.342 C 
ATOM     73  O   UNL A   1      32.320  33.505  27.328  1.00  0.00    -0.246 OA
BRANCH  72  74
ATOM     74  C   UNL A   1      34.354  32.542  28.046  1.00  0.00     0.102 A 
ATOM     75  C   UNL A   1      35.652  33.023  28.316  1.00  0.00     0.019 A 
ATOM     76  C   UNL A   1      34.131  31.190  27.751  1.00  0.00     0.134 A 
ATOM     77  C   UNL A   1      36.749  32.171  28.269  1.00  0.00     0.001 A 
ATOM     78  C   UNL A   1      35.267  30.372  27.625  1.00  0.00     0.047 A 
ATOM     79  C   UNL A   1      36.559  30.854  27.884  1.00  0.00     0.004 A 
BRANCH  76  80
ATOM     80  O   UNL A   1      32.825  30.757  27.610  1.00  0.00    -0.489 OA
BRANCH  80  81
ATOM     81  C   UNL A   1      32.616  29.540  26.891  1.00  0.00     0.178 C 
ATOM     82  C   UNL A   1      31.633  28.614  27.593  1.00  0.00     0.074 C 
ATOM     83  C   UNL A   1      32.048  29.749  25.480  1.00  0.00     0.080 C 
ATOM     84  C   UNL A   1      31.648  27.279  26.877  1.00  0.00     0.165 C 
ATOM     85  C   UNL A   1      32.040  28.384  24.732  1.00  0.00     0.073 C 
ATOM     86  O   UNL A   1      31.327  27.398  25.502  1.00  0.00    -0.375 OA
ATOM     87  C   UNL A   1      33.501  27.951  24.440  1.00  0.00     0.046 C 
ATOM     88  C   UNL A   1      31.229  28.482  23.423  1.00  0.00     0.046 C 
ATOM     89  C   UNL A   1      33.654  26.664  23.655  1.00  0.00     0.072 C 
ATOM     90  C   UNL A   1      31.192  27.169  22.636  1.00  0.00     0.072 C 
ATOM     91  S   UNL A   1      32.850  26.732  22.048  1.00  0.00    -0.162 SA
ENDBRANCH  80  81
ENDBRANCH  76  80
ENDBRANCH  72  74
ENDBRANCH  71  72
ENDBRANCH  70  71
ENDBRANCH   1  70
TORSDOF 13
ENDMDL
MODEL 2
REMARK VINA RESULT:     -12.3      0.384      1.708
REMARK SMILES O=C(OCCOC(=O)c1ccccc1O[C@H]1CCOC2(CCSCC2)C1)c1ccc(-c2c3nc(c(-c4c(F)c(F)c(F)c(F)c4F)c4ccc([nH]4)c(-c4c(F)c(F)c(F)c(F)c4F)c4nc(c(-c5c(F)c(F)c(F)c(F)c5F)c5ccc2[nH]5)C=C4)C=C3)cc1
REMARK SMILES IDX 4 1 3 2 2 3 1 4 27 5 28 6 89 7 29 8 88 9 30 10 31 11 32 12
REMARK SMILES IDX 82 13 33 14 87 15 81 16 83 17 34 18 86 19 80 20 79 21 35 23
REMARK SMILES IDX 67 24 47 25 66 26 48 27 51 28 65 29 84 30 49 31 50 32 64 34
REMARK SMILES IDX 85 35 52 36 36 37 37 38 45 39 38 40 39 41 43 42 46 43 40 44
REMARK SMILES IDX 41 45 44 46 42 47 68 48 69 49 77 50 70 51 71 52 75 53 78 54
REMARK SMILES IDX 72 55 73 56 76 57 74 58 53 59 54 60 62 61 55 62 56 63 60 64
REMARK SMILES IDX 63 65 57 66 58 67 61 68 59 69 5 70 6 71 7 72 8 73 9 74 10 75
REMARK SMILES IDX 14 76 11 77 13 78 12 79 15 80 16 81 17 82 26 83 18 84 20 85
REMARK SMILES IDX 19 86 21 87 25 88 22 89 24 90 23 91
REMARK H PARENT 83 22 51 33
REMARK Flexibility Score: inf
ROOT
ATOM      1  C   UNL A   1      33.280  36.771  29.762  1.00  0.00     0.275 C 
ENDROOT
BRANCH   1   2
ATOM      2  O   UNL A   1      32.495  36.828  30.970  1.00  0.00    -0.458 OA
BRANCH   2   3
ATOM      3  C   UNL A   1      32.528  36.098  32.107  1.00  0.00     0.338 C 
ATOM      4  O   UNL A   1      31.589  36.233  32.894  1.00  0.00    -0.246 OA
BRANCH   3   5
ATOM      5  C   UNL A   1      33.644  35.183  32.542  1.00  0.00     0.060 A 
ATOM      6  C   UNL A   1      33.542  33.839  32.896  1.00  0.00     0.016 A 
ATOM      7  C   UNL A   1      34.942  35.748  32.557  1.00  0.00     0.016 A 
ATOM      8  C   UNL A   1      34.679  33.086  33.229  1.00  0.00     0.010 A 
ATOM      9  C   UNL A   1      36.084  35.001  32.885  1.00  0.00     0.010 A 
ATOM     10  C   UNL A   1      35.959  33.658  33.228  1.00  0.00    -0.014 A 
BRANCH  10  11
ATOM     11  C   UNL A   1      37.093  32.862  33.764  1.00  0.00     0.031 A 
ATOM     12  C   UNL A   1      37.879  32.041  32.800  1.00  0.00     0.074 A 
ATOM     13  C   UNL A   1      37.437  32.880  35.066  1.00  0.00     0.049 A 
ATOM     14  N   UNL A   1      39.001  31.404  32.988  1.00  0.00    -0.248 NA
ATOM     15  C   UNL A   1      37.273  31.841  31.475  1.00  0.00     0.031 C 
ATOM     16  C   UNL A   1      36.617  33.445  36.118  1.00  0.00     0.029 A 
ATOM     17  N   UNL A   1      38.580  32.492  35.727  1.00  0.00    -0.354 N 
ATOM     18  C   UNL A   1      39.176  30.632  31.851  1.00  0.00     0.074 A 
ATOM     19  C   UNL A   1      38.084  30.936  30.952  1.00  0.00     0.031 C 
ATOM     20  C   UNL A   1      37.345  33.574  37.238  1.00  0.00     0.029 A 
ATOM     21  C   UNL A   1      38.679  33.040  36.996  1.00  0.00     0.049 A 
ATOM     22  H   UNL A   1      39.256  31.890  35.340  1.00  0.00     0.167 HD
ATOM     23  C   UNL A   1      40.126  29.696  31.634  1.00  0.00     0.037 A 
ATOM     24  C   UNL A   1      39.764  33.153  37.797  1.00  0.00     0.037 A 
ATOM     25  C   UNL A   1      41.182  29.413  32.568  1.00  0.00     0.049 A 
ATOM     26  C   UNL A   1      40.980  32.355  37.382  1.00  0.00     0.074 A 
ATOM     27  C   UNL A   1      42.182  28.462  32.491  1.00  0.00     0.029 A 
ATOM     28  N   UNL A   1      41.369  30.095  33.765  1.00  0.00    -0.354 N 
ATOM     29  N   UNL A   1      41.193  31.697  36.267  1.00  0.00    -0.248 NA
ATOM     30  C   UNL A   1      42.077  32.257  38.357  1.00  0.00     0.031 C 
ATOM     31  C   UNL A   1      42.952  28.545  33.659  1.00  0.00     0.029 A 
ATOM     32  C   UNL A   1      42.466  29.586  34.435  1.00  0.00     0.049 A 
ATOM     33  H   UNL A   1      40.802  30.833  34.087  1.00  0.00     0.167 HD
ATOM     34  C   UNL A   1      42.411  31.058  36.437  1.00  0.00     0.074 A 
ATOM     35  C   UNL A   1      42.961  31.532  37.690  1.00  0.00     0.031 C 
ATOM     36  C   UNL A   1      42.980  30.089  35.682  1.00  0.00     0.037 A 
BRANCH  23  37
ATOM     37  C   UNL A   1      39.966  28.847  30.409  1.00  0.00     0.064 A 
ATOM     38  C   UNL A   1      39.308  27.609  30.435  1.00  0.00     0.173 A 
ATOM     39  C   UNL A   1      40.548  29.255  29.198  1.00  0.00     0.173 A 
ATOM     40  F   UNL A   1      38.766  27.156  31.576  1.00  0.00    -0.203 F 
ATOM     41  C   UNL A   1      39.278  26.791  29.308  1.00  0.00     0.198 A 
ATOM     42  C   UNL A   1      40.485  28.452  28.064  1.00  0.00     0.198 A 
ATOM     43  F   UNL A   1      41.202  30.424  29.121  1.00  0.00    -0.203 F 
ATOM     44  F   UNL A   1      38.719  25.576  29.380  1.00  0.00    -0.200 F 
ATOM     45  C   UNL A   1      39.863  27.215  28.123  1.00  0.00     0.200 A 
ATOM     46  F   UNL A   1      41.047  28.866  26.921  1.00  0.00    -0.200 F 
ATOM     47  F   UNL A   1      39.844  26.422  27.043  1.00  0.00    -0.200 F 
ENDBRANCH  23  37
BRANCH  24  48
ATOM     48  C   UNL A   1      39.845  34.054  38.997  1.00  0.00     0.064 A 
ATOM     49  C   UNL A   1      39.367  33.592  40.244  1.00  0.00     0.173 A 
ATOM     50  C   UNL A   1      40.322  35.370  38.968  1.00  0.00     0.173 A 
ATOM     51  F   UNL A   1      38.931  32.328  40.368  1.00  0.00    -0.203 F 
ATOM     52  C   UNL A   1      39.286  34.421  41.361  1.00  0.00     0.198 A 
ATOM     53  C   UNL A   1      40.329  36.172  40.116  1.00  0.00     0.198 A 
ATOM     54  F   UNL A   1      40.779  35.902  37.827  1.00  0.00    -0.203 F 
ATOM     55  F   UNL A   1      38.756  33.957  42.502  1.00  0.00    -0.200 F 
ATOM     56  C   UNL A   1      39.787  35.708  41.303  1.00  0.00     0.200 A 
ATOM     57  F   UNL A   1      40.864  37.399  40.065  1.00  0.00    -0.200 F 
ATOM     58  F   UNL A   1      39.776  36.487  42.393  1.00  0.00    -0.200 F 
ENDBRANCH  24  48
BRANCH  36  59
ATOM     59  C   UNL A   1      44.219  29.456  36.238  1.00  0.00     0.064 A 
ATOM     60  C   UNL A   1      45.476  30.061  36.072  1.00  0.00     0.173 A 
ATOM     61  C   UNL A   1      44.153  28.255  36.954  1.00  0.00     0.173 A 
ATOM     62  F   UNL A   1      45.589  31.205  35.378  1.00  0.00    -0.203 F 
ATOM     63  C   UNL A   1      46.627  29.466  36.572  1.00  0.00     0.198 A 
ATOM     64  C   UNL A   1      45.304  27.681  37.485  1.00  0.00     0.198 A 
ATOM     65  F   UNL A   1      42.975  27.642  37.142  1.00  0.00    -0.203 F 
ATOM     66  F   UNL A   1      47.822  30.030  36.349  1.00  0.00    -0.200 F 
ATOM     67  C   UNL A   1      46.540  28.279  37.285  1.00  0.00     0.200 A 
ATOM     68  F   UNL A   1      45.219  26.541  38.185  1.00  0.00    -0.200 F 
ATOM     69  F   UNL A   1      47.649  27.709  37.772  1.00  0.00    -0.200 F 
ENDBRANCH  36  59
ENDBRANCH  10  11
ENDBRANCH   3   5
ENDBRANCH   2   3
ENDBRANCH   1   2
BRANCH   1  70
ATOM     70  C   UNL A   1      32.737  35.763  28.747  1.00  0.00     0.275 C 
BRANCH  70  71
ATOM     71  O   UNL A   1      33.175  34.435  29.053  1.00  0.00    -0.458 OA
BRANCH  71  72
ATOM     72  C   UNL A   1      32.954  33.522  28.073  1.00  0.00     0.342 C 
ATOM     73  O   UNL A   1      32.059  33.541  27.251  1.00  0.00    -0.246 OA
BRANCH  72  74
ATOM     74  C   UNL A   1      34.075  32.564  28.001  1.00  0.00     0.102 A 
ATOM     75  C   UNL A   1      35.357  33.106  28.228  1.00  0.00     0.019 A 
ATOM     76  C   UNL A   1      33.907  31.205  27.704  1.00  0.00     0.134 A 
ATOM     77  C   UNL A   1      36.492  32.309  28.135  1.00  0.00     0.001 A 
ATOM     78  C   UNL A   1      35.076  30.444  27.531  1.00  0.00     0.047 A 
ATOM     79  C   UNL A   1      36.352  30.987  27.748  1.00  0.00     0.004 A 
BRANCH  76  80
ATOM     80  O   UNL A   1      32.619  30.709  27.606  1.00  0.00    -0.489 OA
BRANCH  80  81
ATOM     81  C   UNL A   1      32.444  29.493  26.878  1.00  0.00     0.178 C 
ATOM     82  C   UNL A   1      31.417  28.574  27.525  1.00  0.00     0.074 C 
ATOM     83  C   UNL A   1      31.955  29.703  25.437  1.00  0.00     0.080 C 
ATOM     84  C   UNL A   1      31.463  27.238  26.813  1.00  0.00     0.165 C 
ATOM     85  C   UNL A   1      31.980  28.337  24.692  1.00  0.00     0.073 C 
ATOM     86  O   UNL A   1      31.220  27.356  25.422  1.00  0.00    -0.375 OA
ATOM     87  C   UNL A   1      33.452  27.895  24.481  1.00  0.00     0.046 C 
ATOM     88  C   UNL A   1      31.244  28.437  23.339  1.00  0.00     0.046 C 
ATOM     89  C   UNL A   1      33.641  26.605  23.708  1.00  0.00     0.072 C 
ATOM     90  C   UNL A   1      31.242  27.124  22.553  1.00  0.00     0.072 C 
ATOM     91  S   UNL A   1      32.927  26.675  22.058  1.00  0.00    -0.162 SA
ENDBRANCH  80  81
ENDBRANCH  76  80
ENDBRANCH  72  74
ENDBRANCH  71  72
ENDBRANCH  70  71
ENDBRANCH   1  70
TORSDOF 13
ENDMDL
MODEL 3
REMARK VINA RESULT:     -12.0      3.206      8.948
REMARK SMILES O=C(OCCOC(=O)c1ccccc1O[C@H]1CCOC2(CCSCC2)C1)c1ccc(-c2c3nc(c(-c4c(F)c(F)c(F)c(F)c4F)c4ccc([nH]4)c(-c4c(F)c(F)c(F)c(F)c4F)c4nc(c(-c5c(F)c(F)c(F)c(F)c5F)c5ccc2[nH]5)C=C4)C=C3)cc1
REMARK SMILES IDX 4 1 3 2 2 3 1 4 27 5 28 6 89 7 29 8 88 9 30 10 31 11 32 12
REMARK SMILES IDX 82 13 33 14 87 15 81 16 83 17 34 18 86 19 80 20 79 21 35 23
REMARK SMILES IDX 67 24 47 25 66 26 48 27 51 28 65 29 84 30 49 31 50 32 64 34
REMARK SMILES IDX 85 35 52 36 36 37 37 38 45 39 38 40 39 41 43 42 46 43 40 44
REMARK SMILES IDX 41 45 44 46 42 47 68 48 69 49 77 50 70 51 71 52 75 53 78 54
REMARK SMILES IDX 72 55 73 56 76 57 74 58 53 59 54 60 62 61 55 62 56 63 60 64
REMARK SMILES IDX 63 65 57 66 58 67 61 68 59 69 5 70 6 71 7 72 8 73 9 74 10 75
REMARK SMILES IDX 14 76 11 77 13 78 12 79 15 80 16 81 17 82 26 83 18 84 20 85
REMARK SMILES IDX 19 86 21 87 25 88 22 89 24 90 23 91
REMARK H PARENT 83 22 51 33
REMARK Flexibility Score: inf
ROOT
ATOM      1  C   UNL A   1      31.670  29.843  26.624  1.00  0.00     0.275 C 
ENDROOT
BRANCH   1   2
ATOM      2  O   UNL A   1      32.848  30.650  26.430  1.00  0.00    -0.458 OA
BRANCH   2   3
ATOM      3  C   UNL A   1      33.613  31.358  27.291  1.00  0.00     0.338 C 
ATOM      4  O   UNL A   1      33.238  32.497  27.577  1.00  0.00    -0.246 OA
BRANCH   3   5
ATOM      5  C   UNL A   1      34.926  30.913  27.882  1.00  0.00     0.060 A 
ATOM      6  C   UNL A   1      35.322  29.607  28.168  1.00  0.00     0.016 A 
ATOM      7  C   UNL A   1      35.870  31.935  28.142  1.00  0.00     0.016 A 
ATOM      8  C   UNL A   1      36.604  29.329  28.669  1.00  0.00     0.010 A 
ATOM      9  C   UNL A   1      37.154  31.665  28.639  1.00  0.00     0.010 A 
ATOM     10  C   UNL A   1      37.531  30.352  28.909  1.00  0.00    -0.014 A 
BRANCH  10  11
ATOM     11  C   UNL A   1      38.798  30.013  29.608  1.00  0.00     0.031 A 
ATOM     12  C   UNL A   1      38.882  30.305  31.067  1.00  0.00     0.074 A 
ATOM     13  C   UNL A   1      39.840  29.441  28.977  1.00  0.00     0.049 A 
ATOM     14  N   UNL A   1      39.800  29.951  31.923  1.00  0.00    -0.248 NA
ATOM     15  C   UNL A   1      37.839  31.185  31.613  1.00  0.00     0.031 C 
ATOM     16  C   UNL A   1      39.960  29.330  27.537  1.00  0.00     0.029 A 
ATOM     17  N   UNL A   1      40.954  28.779  29.442  1.00  0.00    -0.354 N 
ATOM     18  C   UNL A   1      39.514  30.661  33.077  1.00  0.00     0.074 A 
ATOM     19  C   UNL A   1      38.298  31.406  32.834  1.00  0.00     0.031 C 
ATOM     20  C   UNL A   1      40.944  28.468  27.231  1.00  0.00     0.029 A 
ATOM     21  C   UNL A   1      41.568  28.010  28.465  1.00  0.00     0.049 A 
ATOM     22  H   UNL A   1      41.281  28.846  30.368  1.00  0.00     0.167 HD
ATOM     23  C   UNL A   1      40.260  30.734  34.202  1.00  0.00     0.037 A 
ATOM     24  C   UNL A   1      42.461  27.003  28.607  1.00  0.00     0.037 A 
ATOM     25  C   UNL A   1      41.475  29.988  34.391  1.00  0.00     0.049 A 
ATOM     26  C   UNL A   1      43.077  26.850  29.980  1.00  0.00     0.074 A 
ATOM     27  C   UNL A   1      42.349  30.002  35.462  1.00  0.00     0.029 A 
ATOM     28  N   UNL A   1      41.988  29.084  33.468  1.00  0.00    -0.354 N 
ATOM     29  N   UNL A   1      42.752  27.449  31.100  1.00  0.00    -0.248 NA
ATOM     30  C   UNL A   1      44.225  25.938  30.097  1.00  0.00     0.031 C 
ATOM     31  C   UNL A   1      43.408  29.133  35.171  1.00  0.00     0.029 A 
ATOM     32  C   UNL A   1      43.165  28.535  33.944  1.00  0.00     0.049 A 
ATOM     33  H   UNL A   1      41.572  28.866  32.602  1.00  0.00     0.167 HD
ATOM     34  C   UNL A   1      43.692  27.037  32.031  1.00  0.00     0.074 A 
ATOM     35  C   UNL A   1      44.500  26.021  31.389  1.00  0.00     0.031 C 
ATOM     36  C   UNL A   1      43.937  27.525  33.271  1.00  0.00     0.037 A 
BRANCH  23  37
ATOM     37  C   UNL A   1      39.837  31.743  35.226  1.00  0.00     0.064 A 
ATOM     38  C   UNL A   1      38.861  31.467  36.193  1.00  0.00     0.173 A 
ATOM     39  C   UNL A   1      40.375  33.040  35.189  1.00  0.00     0.173 A 
ATOM     40  F   UNL A   1      38.288  30.254  36.247  1.00  0.00    -0.203 F 
ATOM     41  C   UNL A   1      38.406  32.462  37.055  1.00  0.00     0.198 A 
ATOM     42  C   UNL A   1      39.945  34.022  36.075  1.00  0.00     0.198 A 
ATOM     43  F   UNL A   1      41.302  33.363  34.274  1.00  0.00    -0.203 F 
ATOM     44  F   UNL A   1      37.411  32.198  37.913  1.00  0.00    -0.200 F 
ATOM     45  C   UNL A   1      38.951  33.736  36.998  1.00  0.00     0.200 A 
ATOM     46  F   UNL A   1      40.476  35.250  36.020  1.00  0.00    -0.200 F 
ATOM     47  F   UNL A   1      38.504  34.696  37.819  1.00  0.00    -0.200 F 
ENDBRANCH  23  37
BRANCH  24  48
ATOM     48  C   UNL A   1      42.806  26.015  27.528  1.00  0.00     0.064 A 
ATOM     49  C   UNL A   1      43.870  26.300  26.643  1.00  0.00     0.173 A 
ATOM     50  C   UNL A   1      42.107  24.826  27.289  1.00  0.00     0.173 A 
ATOM     51  F   UNL A   1      44.619  27.399  26.827  1.00  0.00    -0.203 F 
ATOM     52  C   UNL A   1      44.154  25.497  25.539  1.00  0.00     0.198 A 
ATOM     53  C   UNL A   1      42.454  23.970  26.236  1.00  0.00     0.198 A 
ATOM     54  F   UNL A   1      41.070  24.480  28.064  1.00  0.00    -0.203 F 
ATOM     55  F   UNL A   1      45.127  25.849  24.688  1.00  0.00    -0.200 F 
ATOM     56  C   UNL A   1      43.457  24.318  25.347  1.00  0.00     0.200 A 
ATOM     57  F   UNL A   1      41.809  22.805  26.087  1.00  0.00    -0.200 F 
ATOM     58  F   UNL A   1      43.771  23.507  24.329  1.00  0.00    -0.200 F 
ENDBRANCH  24  48
BRANCH  36  59
ATOM     59  C   UNL A   1      45.158  26.997  33.961  1.00  0.00     0.064 A 
ATOM     60  C   UNL A   1      45.082  25.876  34.804  1.00  0.00     0.173 A 
ATOM     61  C   UNL A   1      46.408  27.596  33.769  1.00  0.00     0.173 A 
ATOM     62  F   UNL A   1      43.901  25.278  35.031  1.00  0.00    -0.203 F 
ATOM     63  C   UNL A   1      46.210  25.396  35.459  1.00  0.00     0.198 A 
ATOM     64  C   UNL A   1      47.542  27.090  34.398  1.00  0.00     0.198 A 
ATOM     65  F   UNL A   1      46.531  28.666  32.970  1.00  0.00    -0.203 F 
ATOM     66  F   UNL A   1      46.103  24.363  36.306  1.00  0.00    -0.200 F 
ATOM     67  C   UNL A   1      47.441  26.000  35.249  1.00  0.00     0.200 A 
ATOM     68  F   UNL A   1      48.734  27.665  34.186  1.00  0.00    -0.200 F 
ATOM     69  F   UNL A   1      48.530  25.534  35.876  1.00  0.00    -0.200 F 
ENDBRANCH  36  59
ENDBRANCH  10  11
ENDBRANCH   3   5
ENDBRANCH   2   3
ENDBRANCH   1   2
BRANCH   1  70
ATOM     70  C   UNL A   1      31.953  28.552  27.395  1.00  0.00     0.275 C 
BRANCH  70  71
ATOM     71  O   UNL A   1      31.509  27.405  26.663  1.00  0.00    -0.458 OA
BRANCH  71  72
ATOM     72  C   UNL A   1      32.490  26.727  26.016  1.00  0.00     0.342 C 
ATOM     73  O   UNL A   1      33.688  26.865  26.164  1.00  0.00    -0.246 OA
BRANCH  72  74
ATOM     74  C   UNL A   1      31.913  25.631  25.212  1.00  0.00     0.102 A 
ATOM     75  C   UNL A   1      31.690  24.421  25.901  1.00  0.00     0.019 A 
ATOM     76  C   UNL A   1      31.620  25.750  23.847  1.00  0.00     0.134 A 
ATOM     77  C   UNL A   1      31.198  23.305  25.235  1.00  0.00     0.001 A 
ATOM     78  C   UNL A   1      31.207  24.583  23.182  1.00  0.00     0.047 A 
ATOM     79  C   UNL A   1      30.994  23.376  23.868  1.00  0.00     0.004 A 
BRANCH  76  80
ATOM     80  O   UNL A   1      31.751  26.993  23.254  1.00  0.00    -0.489 OA
BRANCH  80  81
ATOM     81  C   UNL A   1      30.551  27.730  23.013  1.00  0.00     0.178 C 
ATOM     82  C   UNL A   1      29.343  27.108  23.700  1.00  0.00     0.074 C 
ATOM     83  C   UNL A   1      30.608  29.179  23.516  1.00  0.00     0.080 C 
ATOM     84  C   UNL A   1      28.101  27.824  23.211  1.00  0.00     0.165 C 
ATOM     85  C   UNL A   1      29.331  29.930  23.037  1.00  0.00     0.073 C 
ATOM     86  O   UNL A   1      28.149  29.220  23.453  1.00  0.00    -0.375 OA
ATOM     87  C   UNL A   1      29.390  30.111  21.497  1.00  0.00     0.046 C 
ATOM     88  C   UNL A   1      29.202  31.297  23.741  1.00  0.00     0.046 C 
ATOM     89  C   UNL A   1      28.239  30.885  20.888  1.00  0.00     0.072 C 
ATOM     90  C   UNL A   1      27.967  32.088  23.302  1.00  0.00     0.072 C 
ATOM     91  S   UNL A   1      28.093  32.549  21.554  1.00  0.00    -0.162 SA
ENDBRANCH  80  81
ENDBRANCH  76  80
ENDBRANCH  72  74
ENDBRANCH  71  72
ENDBRANCH  70  71
ENDBRANCH   1  70
TORSDOF 13
ENDMDL
