MODEL 1
REMARK VINA RESULT:     -11.8      0.000      0.000
REMARK SMILES CC1(C)CCC[C@@]1(CC(=O)OCCOC(=O)c1ccc(-c2c3nc(c(-c4c(F)c(F)c(F)c(F)c4F)c4ccc([nH]4)c(-c4c(F)c(F)c(F)c(F)c4F)c4nc(c(-c5c(F)c(F)c(F)c(F)c5F)c5ccc2[nH]5)C=C4)C=C3)cc1)[NH+]1CCCCC1
REMARK SMILES IDX 12 1 11 2 9 3 10 4 8 5 7 6 1 7 2 8 3 9 4 10 5 11 6 12 80 13
REMARK SMILES IDX 81 14 85 15 82 17 84 18 83 19 13 20 14 21 15 22 16 23 17 24
REMARK SMILES IDX 18 25 79 26 19 27 78 28 20 29 21 30 22 31 72 32 23 33 77 34
REMARK SMILES IDX 71 35 73 36 24 37 76 38 70 39 69 40 25 42 57 43 37 44 56 45
REMARK SMILES IDX 38 46 41 47 55 48 74 49 39 50 40 51 54 53 75 54 42 55 26 56
REMARK SMILES IDX 27 57 35 58 28 59 29 60 33 61 36 62 30 63 31 64 34 65 32 66
REMARK SMILES IDX 58 67 59 68 67 69 60 70 61 71 65 72 68 73 62 74 63 75 66 76
REMARK SMILES IDX 64 77 43 78 44 79 52 80 45 81 46 82 50 83 53 84 47 85 48 86
REMARK SMILES IDX 51 87 49 88
REMARK H PARENT 80 16 73 41 41 52
REMARK Flexibility Score: inf
ROOT
ATOM      1  C   UNL A   1      31.554  28.349  26.075  1.00  0.00     0.274 C 
ENDROOT
BRANCH   1   2
ATOM      2  O   UNL A   1      30.842  27.556  25.104  1.00  0.00    -0.462 OA
BRANCH   2   3
ATOM      3  C   UNL A   1      30.518  26.290  25.476  1.00  0.00     0.312 C 
ATOM      4  O   UNL A   1      30.100  25.971  26.583  1.00  0.00    -0.252 OA
BRANCH   3   5
ATOM      5  C   UNL A   1      30.594  25.316  24.324  1.00  0.00     0.191 C 
BRANCH   5   6
ATOM      6  C   UNL A   1      31.842  24.365  24.198  1.00  0.00     0.113 C 
ATOM      7  C   UNL A   1      33.643  26.220  23.639  1.00  0.00     0.018 C 
ATOM      8  C   UNL A   1      32.837  25.021  23.114  1.00  0.00     0.020 C 
ATOM      9  C   UNL A   1      32.100  25.515  21.825  1.00  0.00     0.018 C 
ATOM     10  C   UNL A   1      33.736  23.857  22.652  1.00  0.00     0.013 C 
ATOM     11  C   UNL A   1      32.857  22.616  22.726  1.00  0.00     0.007 C 
ATOM     12  C   UNL A   1      31.591  22.999  23.500  1.00  0.00     0.070 C 
BRANCH   6  13
ATOM     13  N   UNL A   1      32.370  24.166  25.594  1.00  0.00    -0.329 N 
ATOM     14  C   UNL A   1      33.686  24.616  26.039  1.00  0.00     0.262 C 
ATOM     15  C   UNL A   1      31.984  22.934  26.313  1.00  0.00     0.262 C 
ATOM     16  H   UNL A   1      31.787  24.958  25.867  1.00  0.00     0.348 HD
ATOM     17  C   UNL A   1      34.781  23.549  26.013  1.00  0.00     0.062 C 
ATOM     18  C   UNL A   1      33.029  21.820  26.389  1.00  0.00     0.062 C 
ATOM     19  C   UNL A   1      34.384  22.335  26.837  1.00  0.00     0.012 C 
ENDBRANCH   6  13
ENDBRANCH   5   6
ENDBRANCH   3   5
ENDBRANCH   2   3
ENDBRANCH   1   2
BRANCH   1  20
ATOM     20  C   UNL A   1      31.764  29.747  25.505  1.00  0.00     0.275 C 
BRANCH  20  21
ATOM     21  O   UNL A   1      33.092  30.183  25.850  1.00  0.00    -0.458 OA
BRANCH  21  22
ATOM     22  C   UNL A   1      33.157  31.122  26.821  1.00  0.00     0.338 C 
ATOM     23  O   UNL A   1      32.343  31.995  27.068  1.00  0.00    -0.246 OA
BRANCH  22  24
ATOM     24  C   UNL A   1      34.395  30.945  27.605  1.00  0.00     0.060 A 
ATOM     25  C   UNL A   1      35.239  32.027  27.868  1.00  0.00     0.016 A 
ATOM     26  C   UNL A   1      34.765  29.658  27.991  1.00  0.00     0.016 A 
ATOM     27  C   UNL A   1      36.481  31.813  28.465  1.00  0.00     0.010 A 
ATOM     28  C   UNL A   1      35.966  29.460  28.673  1.00  0.00     0.010 A 
ATOM     29  C   UNL A   1      36.845  30.531  28.904  1.00  0.00    -0.014 A 
BRANCH  29  30
ATOM     30  C   UNL A   1      38.114  30.296  29.643  1.00  0.00     0.031 A 
ATOM     31  C   UNL A   1      39.183  29.410  29.065  1.00  0.00     0.074 A 
ATOM     32  C   UNL A   1      38.278  30.828  30.870  1.00  0.00     0.049 A 
ATOM     33  N   UNL A   1      40.240  28.900  29.648  1.00  0.00    -0.248 NA
ATOM     34  C   UNL A   1      39.038  29.036  27.650  1.00  0.00     0.031 C 
ATOM     35  C   UNL A   1      37.329  31.716  31.542  1.00  0.00     0.029 A 
ATOM     36  N   UNL A   1      39.295  30.679  31.781  1.00  0.00    -0.354 N 
ATOM     37  C   UNL A   1      40.859  28.110  28.687  1.00  0.00     0.074 A 
ATOM     38  C   UNL A   1      40.062  28.209  27.482  1.00  0.00     0.031 C 
ATOM     39  C   UNL A   1      37.812  32.044  32.749  1.00  0.00     0.029 A 
ATOM     40  C   UNL A   1      39.064  31.328  32.968  1.00  0.00     0.049 A 
ATOM     41  H   UNL A   1      40.111  30.158  31.600  1.00  0.00     0.167 HD
ATOM     42  C   UNL A   1      41.988  27.372  28.806  1.00  0.00     0.037 A 
ATOM     43  C   UNL A   1      39.751  31.314  34.125  1.00  0.00     0.037 A 
ATOM     44  C   UNL A   1      42.801  27.307  29.994  1.00  0.00     0.049 A 
ATOM     45  C   UNL A   1      40.989  30.471  34.235  1.00  0.00     0.074 A 
ATOM     46  C   UNL A   1      43.974  26.601  30.202  1.00  0.00     0.029 A 
ATOM     47  N   UNL A   1      42.529  27.985  31.173  1.00  0.00    -0.354 N 
ATOM     48  N   UNL A   1      41.542  29.697  33.336  1.00  0.00    -0.248 NA
ATOM     49  C   UNL A   1      41.686  30.489  35.528  1.00  0.00     0.031 C 
ATOM     50  C   UNL A   1      44.398  26.830  31.515  1.00  0.00     0.029 A 
ATOM     51  C   UNL A   1      43.509  27.707  32.114  1.00  0.00     0.049 A 
ATOM     52  H   UNL A   1      41.757  28.576  31.319  1.00  0.00     0.167 HD
ATOM     53  C   UNL A   1      42.653  29.138  33.948  1.00  0.00     0.074 A 
ATOM     54  C   UNL A   1      42.709  29.680  35.290  1.00  0.00     0.031 C 
ATOM     55  C   UNL A   1      43.544  28.251  33.446  1.00  0.00     0.037 A 
BRANCH  42  56
ATOM     56  C   UNL A   1      42.414  26.550  27.626  1.00  0.00     0.064 A 
ATOM     57  C   UNL A   1      43.341  27.029  26.689  1.00  0.00     0.173 A 
ATOM     58  C   UNL A   1      41.938  25.238  27.469  1.00  0.00     0.173 A 
ATOM     59  F   UNL A   1      43.816  28.280  26.790  1.00  0.00    -0.203 F 
ATOM     60  C   UNL A   1      43.770  26.229  25.634  1.00  0.00     0.198 A 
ATOM     61  C   UNL A   1      42.385  24.434  26.424  1.00  0.00     0.198 A 
ATOM     62  F   UNL A   1      41.054  24.732  28.341  1.00  0.00    -0.203 F 
ATOM     63  F   UNL A   1      44.638  26.715  24.736  1.00  0.00    -0.200 F 
ATOM     64  C   UNL A   1      43.299  24.930  25.506  1.00  0.00     0.200 A 
ATOM     65  F   UNL A   1      41.936  23.176  26.309  1.00  0.00    -0.200 F 
ATOM     66  F   UNL A   1      43.723  24.157  24.497  1.00  0.00    -0.200 F 
ENDBRANCH  42  56
BRANCH  43  67
ATOM     67  C   UNL A   1      39.255  32.101  35.281  1.00  0.00     0.064 A 
ATOM     68  C   UNL A   1      39.541  33.466  35.395  1.00  0.00     0.173 A 
ATOM     69  C   UNL A   1      38.465  31.509  36.278  1.00  0.00     0.173 A 
ATOM     70  F   UNL A   1      40.313  34.068  34.478  1.00  0.00    -0.203 F 
ATOM     71  C   UNL A   1      39.059  34.213  36.469  1.00  0.00     0.198 A 
ATOM     72  C   UNL A   1      37.962  32.261  37.336  1.00  0.00     0.198 A 
ATOM     73  F   UNL A   1      38.164  30.204  36.210  1.00  0.00    -0.203 F 
ATOM     74  F   UNL A   1      39.372  35.510  36.574  1.00  0.00    -0.200 F 
ATOM     75  C   UNL A   1      38.263  33.611  37.432  1.00  0.00     0.200 A 
ATOM     76  F   UNL A   1      37.182  31.679  38.256  1.00  0.00    -0.200 F 
ATOM     77  F   UNL A   1      37.789  34.332  38.458  1.00  0.00    -0.200 F 
ENDBRANCH  43  67
BRANCH  55  78
ATOM     78  C   UNL A   1      44.661  27.827  34.349  1.00  0.00     0.064 A 
ATOM     79  C   UNL A   1      44.548  26.694  35.167  1.00  0.00     0.173 A 
ATOM     80  C   UNL A   1      45.861  28.552  34.387  1.00  0.00     0.173 A 
ATOM     81  F   UNL A   1      43.412  25.980  35.176  1.00  0.00    -0.203 F 
ATOM     82  C   UNL A   1      45.590  26.313  36.008  1.00  0.00     0.198 A 
ATOM     83  C   UNL A   1      46.909  28.157  35.214  1.00  0.00     0.198 A 
ATOM     84  F   UNL A   1      46.016  29.643  33.622  1.00  0.00    -0.203 F 
ATOM     85  F   UNL A   1      45.446  25.251  36.812  1.00  0.00    -0.200 F 
ATOM     86  C   UNL A   1      46.770  27.043  36.028  1.00  0.00     0.200 A 
ATOM     87  F   UNL A   1      48.049  28.858  35.229  1.00  0.00    -0.200 F 
ATOM     88  F   UNL A   1      47.770  26.676  36.841  1.00  0.00    -0.200 F 
ENDBRANCH  55  78
ENDBRANCH  29  30
ENDBRANCH  22  24
ENDBRANCH  21  22
ENDBRANCH  20  21
ENDBRANCH   1  20
TORSDOF 13
ENDMDL
MODEL 2
REMARK VINA RESULT:     -11.7      0.236      1.174
REMARK SMILES CC1(C)CCC[C@@]1(CC(=O)OCCOC(=O)c1ccc(-c2c3nc(c(-c4c(F)c(F)c(F)c(F)c4F)c4ccc([nH]4)c(-c4c(F)c(F)c(F)c(F)c4F)c4nc(c(-c5c(F)c(F)c(F)c(F)c5F)c5ccc2[nH]5)C=C4)C=C3)cc1)[NH+]1CCCCC1
REMARK SMILES IDX 12 1 11 2 9 3 10 4 8 5 7 6 1 7 2 8 3 9 4 10 5 11 6 12 80 13
REMARK SMILES IDX 81 14 85 15 82 17 84 18 83 19 13 20 14 21 15 22 16 23 17 24
REMARK SMILES IDX 18 25 79 26 19 27 78 28 20 29 21 30 22 31 72 32 23 33 77 34
REMARK SMILES IDX 71 35 73 36 24 37 76 38 70 39 69 40 25 42 57 43 37 44 56 45
REMARK SMILES IDX 38 46 41 47 55 48 74 49 39 50 40 51 54 53 75 54 42 55 26 56
REMARK SMILES IDX 27 57 35 58 28 59 29 60 33 61 36 62 30 63 31 64 34 65 32 66
REMARK SMILES IDX 58 67 59 68 67 69 60 70 61 71 65 72 68 73 62 74 63 75 66 76
REMARK SMILES IDX 64 77 43 78 44 79 52 80 45 81 46 82 50 83 53 84 47 85 48 86
REMARK SMILES IDX 51 87 49 88
REMARK H PARENT 80 16 73 41 41 52
REMARK Flexibility Score: inf
ROOT
ATOM      1  C   UNL A   1      31.570  28.294  26.061  1.00  0.00     0.274 C 
ENDROOT
BRANCH   1   2
ATOM      2  O   UNL A   1      30.892  27.511  25.058  1.00  0.00    -0.462 OA
BRANCH   2   3
ATOM      3  C   UNL A   1      30.524  26.254  25.416  1.00  0.00     0.312 C 
ATOM      4  O   UNL A   1      30.043  25.948  26.500  1.00  0.00    -0.252 OA
BRANCH   3   5
ATOM      5  C   UNL A   1      30.643  25.273  24.273  1.00  0.00     0.191 C 
BRANCH   5   6
ATOM      6  C   UNL A   1      31.889  24.313  24.205  1.00  0.00     0.113 C 
ATOM      7  C   UNL A   1      33.722  26.149  23.695  1.00  0.00     0.018 C 
ATOM      8  C   UNL A   1      32.929  24.949  23.153  1.00  0.00     0.020 C 
ATOM      9  C   UNL A   1      32.245  25.434  21.831  1.00  0.00     0.018 C 
ATOM     10  C   UNL A   1      33.836  23.775  22.739  1.00  0.00     0.013 C 
ATOM     11  C   UNL A   1      32.947  22.540  22.794  1.00  0.00     0.007 C 
ATOM     12  C   UNL A   1      31.655  22.940  23.513  1.00  0.00     0.070 C 
BRANCH   6  13
ATOM     13  N   UNL A   1      32.361  24.127  25.622  1.00  0.00    -0.329 N 
ATOM     14  C   UNL A   1      33.667  24.563  26.110  1.00  0.00     0.262 C 
ATOM     15  C   UNL A   1      31.929  22.911  26.345  1.00  0.00     0.262 C 
ATOM     16  H   UNL A   1      31.781  24.931  25.863  1.00  0.00     0.348 HD
ATOM     17  C   UNL A   1      34.745  23.479  26.140  1.00  0.00     0.062 C 
ATOM     18  C   UNL A   1      32.953  21.783  26.475  1.00  0.00     0.062 C 
ATOM     19  C   UNL A   1      34.299  22.283  26.965  1.00  0.00     0.012 C 
ENDBRANCH   6  13
ENDBRANCH   5   6
ENDBRANCH   3   5
ENDBRANCH   2   3
ENDBRANCH   1   2
BRANCH   1  20
ATOM     20  C   UNL A   1      31.849  29.680  25.493  1.00  0.00     0.275 C 
BRANCH  20  21
ATOM     21  O   UNL A   1      33.182  30.067  25.875  1.00  0.00    -0.458 OA
BRANCH  21  22
ATOM     22  C   UNL A   1      33.256  31.021  26.831  1.00  0.00     0.338 C 
ATOM     23  O   UNL A   1      32.459  31.917  27.051  1.00  0.00    -0.246 OA
BRANCH  22  24
ATOM     24  C   UNL A   1      34.478  30.830  27.635  1.00  0.00     0.060 A 
ATOM     25  C   UNL A   1      35.342  31.897  27.894  1.00  0.00     0.016 A 
ATOM     26  C   UNL A   1      34.814  29.541  28.047  1.00  0.00     0.016 A 
ATOM     27  C   UNL A   1      36.571  31.665  28.512  1.00  0.00     0.010 A 
ATOM     28  C   UNL A   1      36.000  29.327  28.749  1.00  0.00     0.010 A 
ATOM     29  C   UNL A   1      36.900  30.383  28.976  1.00  0.00    -0.014 A 
BRANCH  29  30
ATOM     30  C   UNL A   1      38.153  30.132  29.737  1.00  0.00     0.031 A 
ATOM     31  C   UNL A   1      39.215  29.224  29.183  1.00  0.00     0.074 A 
ATOM     32  C   UNL A   1      38.305  30.669  30.963  1.00  0.00     0.049 A 
ATOM     33  N   UNL A   1      40.254  28.700  29.786  1.00  0.00    -0.248 NA
ATOM     34  C   UNL A   1      39.087  28.842  27.768  1.00  0.00     0.031 C 
ATOM     35  C   UNL A   1      37.361  31.579  31.613  1.00  0.00     0.029 A 
ATOM     36  N   UNL A   1      39.305  30.510  31.891  1.00  0.00    -0.354 N 
ATOM     37  C   UNL A   1      40.875  27.894  28.841  1.00  0.00     0.074 A 
ATOM     38  C   UNL A   1      40.100  27.997  27.622  1.00  0.00     0.031 C 
ATOM     39  C   UNL A   1      37.830  31.906  32.826  1.00  0.00     0.029 A 
ATOM     40  C   UNL A   1      39.066  31.171  33.070  1.00  0.00     0.049 A 
ATOM     41  H   UNL A   1      40.115  29.974  31.727  1.00  0.00     0.167 HD
ATOM     42  C   UNL A   1      41.989  27.137  28.983  1.00  0.00     0.037 A 
ATOM     43  C   UNL A   1      39.734  31.154  34.238  1.00  0.00     0.037 A 
ATOM     44  C   UNL A   1      42.782  27.068  30.184  1.00  0.00     0.049 A 
ATOM     45  C   UNL A   1      40.955  30.291  34.374  1.00  0.00     0.074 A 
ATOM     46  C   UNL A   1      43.939  26.343  30.416  1.00  0.00     0.029 A 
ATOM     47  N   UNL A   1      42.503  27.758  31.354  1.00  0.00    -0.354 N 
ATOM     48  N   UNL A   1      41.510  29.501  33.490  1.00  0.00    -0.248 NA
ATOM     49  C   UNL A   1      41.632  30.307  35.678  1.00  0.00     0.031 C 
ATOM     50  C   UNL A   1      44.346  26.574  31.735  1.00  0.00     0.029 A 
ATOM     51  C   UNL A   1      43.462  27.470  32.313  1.00  0.00     0.049 A 
ATOM     52  H   UNL A   1      41.738  28.363  31.484  1.00  0.00     0.167 HD
ATOM     53  C   UNL A   1      42.601  28.929  34.123  1.00  0.00     0.074 A 
ATOM     54  C   UNL A   1      42.645  29.479  35.462  1.00  0.00     0.031 C 
ATOM     55  C   UNL A   1      43.485  28.023  33.642  1.00  0.00     0.037 A 
BRANCH  42  56
ATOM     56  C   UNL A   1      42.420  26.300  27.815  1.00  0.00     0.064 A 
ATOM     57  C   UNL A   1      41.830  25.059  27.539  1.00  0.00     0.173 A 
ATOM     58  C   UNL A   1      43.390  26.781  26.920  1.00  0.00     0.173 A 
ATOM     59  F   UNL A   1      40.908  24.552  28.371  1.00  0.00    -0.203 F 
ATOM     60  C   UNL A   1      42.201  24.325  26.416  1.00  0.00     0.198 A 
ATOM     61  C   UNL A   1      43.743  26.054  25.787  1.00  0.00     0.198 A 
ATOM     62  F   UNL A   1      43.980  27.966  27.137  1.00  0.00    -0.203 F 
ATOM     63  F   UNL A   1      41.643  23.128  26.185  1.00  0.00    -0.200 F 
ATOM     64  C   UNL A   1      43.151  24.826  25.537  1.00  0.00     0.200 A 
ATOM     65  F   UNL A   1      44.652  26.545  24.934  1.00  0.00    -0.200 F 
ATOM     66  F   UNL A   1      43.496  24.122  24.449  1.00  0.00    -0.200 F 
ENDBRANCH  42  56
BRANCH  43  67
ATOM     67  C   UNL A   1      39.233  31.957  35.381  1.00  0.00     0.064 A 
ATOM     68  C   UNL A   1      39.557  33.313  35.501  1.00  0.00     0.173 A 
ATOM     69  C   UNL A   1      38.400  31.391  36.357  1.00  0.00     0.173 A 
ATOM     70  F   UNL A   1      40.370  33.890  34.604  1.00  0.00    -0.203 F 
ATOM     71  C   UNL A   1      39.071  34.075  36.562  1.00  0.00     0.198 A 
ATOM     72  C   UNL A   1      37.893  32.160  37.401  1.00  0.00     0.198 A 
ATOM     73  F   UNL A   1      38.061  30.096  36.282  1.00  0.00    -0.203 F 
ATOM     74  F   UNL A   1      39.420  35.363  36.674  1.00  0.00    -0.200 F 
ATOM     75  C   UNL A   1      38.232  33.500  37.505  1.00  0.00     0.200 A 
ATOM     76  F   UNL A   1      37.072  31.603  38.302  1.00  0.00    -0.200 F 
ATOM     77  F   UNL A   1      37.754  34.236  38.518  1.00  0.00    -0.200 F 
ENDBRANCH  43  67
BRANCH  55  78
ATOM     78  C   UNL A   1      44.580  27.586  34.566  1.00  0.00     0.064 A 
ATOM     79  C   UNL A   1      44.435  26.461  35.388  1.00  0.00     0.173 A 
ATOM     80  C   UNL A   1      45.791  28.292  34.618  1.00  0.00     0.173 A 
ATOM     81  F   UNL A   1      43.287  25.766  35.384  1.00  0.00    -0.203 F 
ATOM     82  C   UNL A   1      45.456  26.069  36.249  1.00  0.00     0.198 A 
ATOM     83  C   UNL A   1      46.819  27.885  35.465  1.00  0.00     0.198 A 
ATOM     84  F   UNL A   1      45.977  29.374  33.849  1.00  0.00    -0.203 F 
ATOM     85  F   UNL A   1      45.281  25.015  37.058  1.00  0.00    -0.200 F 
ATOM     86  C   UNL A   1      46.648  26.779  36.284  1.00  0.00     0.200 A 
ATOM     87  F   UNL A   1      47.970  28.568  35.494  1.00  0.00    -0.200 F 
ATOM     88  F   UNL A   1      47.629  26.402  37.115  1.00  0.00    -0.200 F 
ENDBRANCH  55  78
ENDBRANCH  29  30
ENDBRANCH  22  24
ENDBRANCH  21  22
ENDBRANCH  20  21
ENDBRANCH   1  20
TORSDOF 13
ENDMDL
MODEL 3
REMARK VINA RESULT:     -11.6      0.192      2.072
REMARK SMILES CC1(C)CCC[C@@]1(CC(=O)OCCOC(=O)c1ccc(-c2c3nc(c(-c4c(F)c(F)c(F)c(F)c4F)c4ccc([nH]4)c(-c4c(F)c(F)c(F)c(F)c4F)c4nc(c(-c5c(F)c(F)c(F)c(F)c5F)c5ccc2[nH]5)C=C4)C=C3)cc1)[NH+]1CCCCC1
REMARK SMILES IDX 12 1 11 2 9 3 10 4 8 5 7 6 1 7 2 8 3 9 4 10 5 11 6 12 80 13
REMARK SMILES IDX 81 14 85 15 82 17 84 18 83 19 13 20 14 21 15 22 16 23 17 24
REMARK SMILES IDX 18 25 79 26 19 27 78 28 20 29 21 30 22 31 72 32 23 33 77 34
REMARK SMILES IDX 71 35 73 36 24 37 76 38 70 39 69 40 25 42 57 43 37 44 56 45
REMARK SMILES IDX 38 46 41 47 55 48 74 49 39 50 40 51 54 53 75 54 42 55 26 56
REMARK SMILES IDX 27 57 35 58 28 59 29 60 33 61 36 62 30 63 31 64 34 65 32 66
REMARK SMILES IDX 58 67 59 68 67 69 60 70 61 71 65 72 68 73 62 74 63 75 66 76
REMARK SMILES IDX 64 77 43 78 44 79 52 80 45 81 46 82 50 83 53 84 47 85 48 86
REMARK SMILES IDX 51 87 49 88
REMARK H PARENT 80 16 73 41 41 52
REMARK Flexibility Score: inf
ROOT
ATOM      1  C   UNL A   1      31.927  28.192  26.007  1.00  0.00     0.274 C 
ENDROOT
BRANCH   1   2
ATOM      2  O   UNL A   1      30.985  27.543  25.131  1.00  0.00    -0.462 OA
BRANCH   2   3
ATOM      3  C   UNL A   1      30.607  26.283  25.473  1.00  0.00     0.312 C 
ATOM      4  O   UNL A   1      30.148  25.963  26.562  1.00  0.00    -0.252 OA
BRANCH   3   5
ATOM      5  C   UNL A   1      30.682  25.325  24.308  1.00  0.00     0.191 C 
BRANCH   5   6
ATOM      6  C   UNL A   1      31.884  24.313  24.216  1.00  0.00     0.113 C 
ATOM      7  C   UNL A   1      33.766  26.059  23.578  1.00  0.00     0.018 C 
ATOM      8  C   UNL A   1      32.903  24.878  23.104  1.00  0.00     0.020 C 
ATOM      9  C   UNL A   1      32.184  25.354  21.798  1.00  0.00     0.018 C 
ATOM     10  C   UNL A   1      33.745  23.657  22.687  1.00  0.00     0.013 C 
ATOM     11  C   UNL A   1      32.810  22.461  22.813  1.00  0.00     0.007 C 
ATOM     12  C   UNL A   1      31.567  22.933  23.574  1.00  0.00     0.070 C 
BRANCH   6  13
ATOM     13  N   UNL A   1      32.409  24.146  25.617  1.00  0.00    -0.329 N 
ATOM     14  C   UNL A   1      33.730  24.591  26.051  1.00  0.00     0.262 C 
ATOM     15  C   UNL A   1      32.007  22.939  26.370  1.00  0.00     0.262 C 
ATOM     16  H   UNL A   1      31.835  24.952  25.869  1.00  0.00     0.348 HD
ATOM     17  C   UNL A   1      34.811  23.511  26.056  1.00  0.00     0.062 C 
ATOM     18  C   UNL A   1      33.038  21.814  26.477  1.00  0.00     0.062 C 
ATOM     19  C   UNL A   1      34.399  22.324  26.912  1.00  0.00     0.012 C 
ENDBRANCH   6  13
ENDBRANCH   5   6
ENDBRANCH   3   5
ENDBRANCH   2   3
ENDBRANCH   1   2
BRANCH   1  20
ATOM     20  C   UNL A   1      31.786  29.701  25.846  1.00  0.00     0.275 C 
BRANCH  20  21
ATOM     21  O   UNL A   1      33.100  30.286  25.882  1.00  0.00    -0.458 OA
BRANCH  21  22
ATOM     22  C   UNL A   1      33.301  31.197  26.862  1.00  0.00     0.338 C 
ATOM     23  O   UNL A   1      32.570  32.119  27.181  1.00  0.00    -0.246 OA
BRANCH  22  24
ATOM     24  C   UNL A   1      34.575  30.917  27.551  1.00  0.00     0.060 A 
ATOM     25  C   UNL A   1      34.893  29.625  27.977  1.00  0.00     0.016 A 
ATOM     26  C   UNL A   1      35.415  31.984  27.865  1.00  0.00     0.016 A 
ATOM     27  C   UNL A   1      36.020  29.409  28.769  1.00  0.00     0.010 A 
ATOM     28  C   UNL A   1      36.592  31.751  28.578  1.00  0.00     0.010 A 
ATOM     29  C   UNL A   1      36.900  30.465  29.052  1.00  0.00    -0.014 A 
BRANCH  29  30
ATOM     30  C   UNL A   1      38.167  30.239  29.798  1.00  0.00     0.031 A 
ATOM     31  C   UNL A   1      39.243  29.357  29.229  1.00  0.00     0.074 A 
ATOM     32  C   UNL A   1      38.320  30.775  31.025  1.00  0.00     0.049 A 
ATOM     33  N   UNL A   1      40.300  28.855  29.819  1.00  0.00    -0.248 NA
ATOM     34  C   UNL A   1      39.109  28.979  27.814  1.00  0.00     0.031 C 
ATOM     35  C   UNL A   1      37.362  31.660  31.689  1.00  0.00     0.029 A 
ATOM     36  N   UNL A   1      39.334  30.634  31.941  1.00  0.00    -0.354 N 
ATOM     37  C   UNL A   1      40.929  28.067  28.864  1.00  0.00     0.074 A 
ATOM     38  C   UNL A   1      40.139  28.157  27.654  1.00  0.00     0.031 C 
ATOM     39  C   UNL A   1      37.837  31.993  32.898  1.00  0.00     0.029 A 
ATOM     40  C   UNL A   1      39.091  31.286  33.125  1.00  0.00     0.049 A 
ATOM     41  H   UNL A   1      40.153  30.118  31.767  1.00  0.00     0.167 HD
ATOM     42  C   UNL A   1      42.062  27.335  28.991  1.00  0.00     0.037 A 
ATOM     43  C   UNL A   1      39.772  31.278  34.286  1.00  0.00     0.037 A 
ATOM     44  C   UNL A   1      42.868  27.278  30.183  1.00  0.00     0.049 A 
ATOM     45  C   UNL A   1      41.014  30.443  34.406  1.00  0.00     0.074 A 
ATOM     46  C   UNL A   1      44.044  26.579  30.400  1.00  0.00     0.029 A 
ATOM     47  N   UNL A   1      42.586  27.958  31.359  1.00  0.00    -0.354 N 
ATOM     48  N   UNL A   1      41.577  29.670  33.512  1.00  0.00    -0.248 NA
ATOM     49  C   UNL A   1      41.705  30.469  35.702  1.00  0.00     0.031 C 
ATOM     50  C   UNL A   1      44.460  26.815  31.715  1.00  0.00     0.029 A 
ATOM     51  C   UNL A   1      43.562  27.688  32.306  1.00  0.00     0.049 A 
ATOM     52  H   UNL A   1      41.809  28.545  31.499  1.00  0.00     0.167 HD
ATOM     53  C   UNL A   1      42.688  29.119  34.132  1.00  0.00     0.074 A 
ATOM     54  C   UNL A   1      42.733  29.665  35.473  1.00  0.00     0.031 C 
ATOM     55  C   UNL A   1      43.587  28.235  33.637  1.00  0.00     0.037 A 
BRANCH  42  56
ATOM     56  C   UNL A   1      42.499  26.513  27.815  1.00  0.00     0.064 A 
ATOM     57  C   UNL A   1      41.997  25.223  27.588  1.00  0.00     0.173 A 
ATOM     58  C   UNL A   1      43.380  27.052  26.864  1.00  0.00     0.173 A 
ATOM     59  F   UNL A   1      41.161  24.661  28.474  1.00  0.00    -0.203 F 
ATOM     60  C   UNL A   1      42.369  24.500  26.459  1.00  0.00     0.198 A 
ATOM     61  C   UNL A   1      43.733  26.333  25.725  1.00  0.00     0.198 A 
ATOM     62  F   UNL A   1      43.884  28.284  27.032  1.00  0.00    -0.203 F 
ATOM     63  F   UNL A   1      41.897  23.259  26.275  1.00  0.00    -0.200 F 
ATOM     64  C   UNL A   1      43.229  25.057  25.524  1.00  0.00     0.200 A 
ATOM     65  F   UNL A   1      44.556  26.879  24.819  1.00  0.00    -0.200 F 
ATOM     66  F   UNL A   1      43.575  24.363  24.431  1.00  0.00    -0.200 F 
ENDBRANCH  42  56
BRANCH  43  67
ATOM     67  C   UNL A   1      39.265  32.066  35.438  1.00  0.00     0.064 A 
ATOM     68  C   UNL A   1      38.454  31.472  36.411  1.00  0.00     0.173 A 
ATOM     69  C   UNL A   1      39.605  33.417  35.600  1.00  0.00     0.173 A 
ATOM     70  F   UNL A   1      38.085  30.189  36.284  1.00  0.00    -0.203 F 
ATOM     71  C   UNL A   1      37.994  32.204  37.505  1.00  0.00     0.198 A 
ATOM     72  C   UNL A   1      39.166  34.140  36.706  1.00  0.00     0.198 A 
ATOM     73  F   UNL A   1      40.381  34.028  34.693  1.00  0.00    -0.203 F 
ATOM     74  F   UNL A   1      37.193  31.622  38.407  1.00  0.00    -0.200 F 
ATOM     75  C   UNL A   1      38.358  33.533  37.655  1.00  0.00     0.200 A 
ATOM     76  F   UNL A   1      39.532  35.420  36.855  1.00  0.00    -0.200 F 
ATOM     77  F   UNL A   1      37.926  34.233  38.714  1.00  0.00    -0.200 F 
ENDBRANCH  43  67
BRANCH  55  78
ATOM     78  C   UNL A   1      44.701  27.820  34.548  1.00  0.00     0.064 A 
ATOM     79  C   UNL A   1      45.907  28.533  34.595  1.00  0.00     0.173 A 
ATOM     80  C   UNL A   1      44.556  26.709  35.390  1.00  0.00     0.173 A 
ATOM     81  F   UNL A   1      46.097  29.593  33.794  1.00  0.00    -0.203 F 
ATOM     82  C   UNL A   1      46.940  28.134  35.439  1.00  0.00     0.198 A 
ATOM     83  C   UNL A   1      45.583  26.324  36.248  1.00  0.00     0.198 A 
ATOM     84  F   UNL A   1      43.420  25.996  35.380  1.00  0.00    -0.203 F 
ATOM     85  F   UNL A   1      48.100  28.804  35.440  1.00  0.00    -0.200 F 
ATOM     86  C   UNL A   1      46.775  27.033  36.267  1.00  0.00     0.200 A 
ATOM     87  F   UNL A   1      45.421  25.265  37.051  1.00  0.00    -0.200 F 
ATOM     88  F   UNL A   1      47.771  26.648  37.078  1.00  0.00    -0.200 F 
ENDBRANCH  55  78
ENDBRANCH  29  30
ENDBRANCH  22  24
ENDBRANCH  21  22
ENDBRANCH  20  21
ENDBRANCH   1  20
TORSDOF 13
ENDMDL
