MODEL 1
REMARK VINA RESULT:     -12.1      0.000      0.000
REMARK SMILES CC[C@@H](NC(=O)N1C[C@H]2CCCC[N@@H+]2C[C@@H]1C)C(=O)OCCOC(=O)c1ccc(-c2c3nc(c(-c4c(F)c(F)c(F)c(F)c4F)c4ccc([nH]4)c(-c4c(F)c(F)c(F)c(F)c4F)c4nc(c(-c5c(F)c(F)c(F)c(F)c5F)c5ccc2[nH]5)C=C4)C=C3)cc1
REMARK SMILES IDX 21 1 20 2 18 3 19 4 3 5 2 6 1 7 4 8 5 9 6 11 7 12 8 13 16 14
REMARK SMILES IDX 9 15 15 16 17 17 10 18 14 19 11 20 13 21 12 23 22 24 23 25
REMARK SMILES IDX 24 26 25 27 26 28 27 29 88 30 28 31 87 32 29 33 30 34 31 35
REMARK SMILES IDX 81 36 32 37 86 38 80 39 82 40 33 41 85 42 79 43 78 44 34 46
REMARK SMILES IDX 66 47 46 48 65 49 47 50 50 51 64 52 83 53 48 54 49 55 63 57
REMARK SMILES IDX 84 58 51 59 35 60 36 61 44 62 37 63 38 64 42 65 45 66 39 67
REMARK SMILES IDX 40 68 43 69 41 70 67 71 68 72 76 73 69 74 70 75 74 76 77 77
REMARK SMILES IDX 71 78 72 79 75 80 73 81 52 82 53 83 61 84 54 85 55 86 59 87
REMARK SMILES IDX 62 88 56 89 57 90 60 91 58 92
REMARK H PARENT 4 10 14 22 82 45 50 56
REMARK Flexibility Score: inf
ROOT
ATOM      1  C   UNL A   1      36.402  19.854  24.997  1.00  0.00     0.274 C 
ENDROOT
BRANCH   1   2
ATOM      2  O   UNL A   1      35.698  21.008  25.470  1.00  0.00    -0.461 OA
BRANCH   2   3
ATOM      3  C   UNL A   1      34.594  21.392  24.782  1.00  0.00     0.328 C 
ATOM      4  O   UNL A   1      33.676  20.658  24.440  1.00  0.00    -0.250 OA
BRANCH   3   5
ATOM      5  C   UNL A   1      34.594  22.853  24.386  1.00  0.00     0.193 C 
BRANCH   5   6
ATOM      6  C   UNL A   1      36.051  23.359  24.324  1.00  0.00     0.033 C 
ATOM      7  C   UNL A   1      36.785  23.015  23.036  1.00  0.00     0.007 C 
ENDBRANCH   5   6
BRANCH   5   8
ATOM      8  N   UNL A   1      33.793  23.133  23.182  1.00  0.00    -0.324 N 
ATOM      9  C   UNL A   1      33.409  24.359  22.688  1.00  0.00     0.318 C 
ATOM     10  H   UNL A   1      33.498  22.348  22.667  1.00  0.00     0.166 HD
ATOM     11  O   UNL A   1      33.380  24.537  21.473  1.00  0.00    -0.249 OA
BRANCH   9  12
ATOM     12  N   UNL A   1      32.831  25.241  23.587  1.00  0.00    -0.310 N 
ATOM     13  C   UNL A   1      33.544  26.503  23.864  1.00  0.00     0.186 C 
ATOM     14  C   UNL A   1      31.383  25.477  23.455  1.00  0.00     0.139 C 
ATOM     15  C   UNL A   1      33.053  27.074  25.213  1.00  0.00     0.203 C 
ATOM     16  C   UNL A   1      30.787  26.397  24.582  1.00  0.00     0.287 C 
ATOM     17  C   UNL A   1      30.579  24.169  23.444  1.00  0.00     0.037 C 
ATOM     18  C   UNL A   1      33.919  28.202  25.778  1.00  0.00     0.067 C 
ATOM     19  N   UNL A   1      31.627  27.462  25.190  1.00  0.00    -0.329 N 
ATOM     20  C   UNL A   1      33.516  28.456  27.233  1.00  0.00     0.012 C 
ATOM     21  C   UNL A   1      31.157  27.722  26.572  1.00  0.00     0.262 C 
ATOM     22  H   UNL A   1      31.539  28.307  24.625  1.00  0.00     0.348 HD
ATOM     23  C   UNL A   1      32.017  28.719  27.356  1.00  0.00     0.062 C 
ENDBRANCH   9  12
ENDBRANCH   5   8
ENDBRANCH   3   5
ENDBRANCH   2   3
ENDBRANCH   1   2
BRANCH   1  24
ATOM     24  C   UNL A   1      37.940  19.898  25.011  1.00  0.00     0.275 C 
BRANCH  24  25
ATOM     25  O   UNL A   1      38.535  21.148  25.407  1.00  0.00    -0.458 OA
BRANCH  25  26
ATOM     26  C   UNL A   1      39.660  21.022  26.157  1.00  0.00     0.338 C 
ATOM     27  O   UNL A   1      40.443  20.087  26.127  1.00  0.00    -0.246 OA
BRANCH  26  28
ATOM     28  C   UNL A   1      39.952  22.255  26.928  1.00  0.00     0.060 A 
ATOM     29  C   UNL A   1      39.219  23.405  26.594  1.00  0.00     0.016 A 
ATOM     30  C   UNL A   1      40.982  22.329  27.866  1.00  0.00     0.016 A 
ATOM     31  C   UNL A   1      39.556  24.643  27.133  1.00  0.00     0.010 A 
ATOM     32  C   UNL A   1      41.338  23.581  28.390  1.00  0.00     0.010 A 
ATOM     33  C   UNL A   1      40.661  24.747  27.982  1.00  0.00    -0.014 A 
BRANCH  33  34
ATOM     34  C   UNL A   1      41.234  26.095  28.227  1.00  0.00     0.031 A 
ATOM     35  C   UNL A   1      42.616  26.386  27.705  1.00  0.00     0.074 A 
ATOM     36  C   UNL A   1      40.512  27.069  28.807  1.00  0.00     0.049 A 
ATOM     37  N   UNL A   1      43.337  27.475  27.805  1.00  0.00    -0.248 NA
ATOM     38  C   UNL A   1      43.274  25.299  26.961  1.00  0.00     0.031 C 
ATOM     39  C   UNL A   1      39.136  26.933  29.277  1.00  0.00     0.029 A 
ATOM     40  N   UNL A   1      40.841  28.371  29.095  1.00  0.00    -0.354 N 
ATOM     41  C   UNL A   1      44.529  27.198  27.149  1.00  0.00     0.074 A 
ATOM     42  C   UNL A   1      44.453  25.833  26.681  1.00  0.00     0.031 C 
ATOM     43  C   UNL A   1      38.739  28.104  29.805  1.00  0.00     0.029 A 
ATOM     44  C   UNL A   1      39.846  29.058  29.746  1.00  0.00     0.049 A 
ATOM     45  H   UNL A   1      41.707  28.774  28.856  1.00  0.00     0.167 HD
ATOM     46  C   UNL A   1      45.592  28.014  26.946  1.00  0.00     0.037 A 
ATOM     47  C   UNL A   1      39.845  30.304  30.259  1.00  0.00     0.037 A 
ATOM     48  C   UNL A   1      45.661  29.374  27.411  1.00  0.00     0.049 A 
ATOM     49  C   UNL A   1      41.074  31.164  30.103  1.00  0.00     0.074 A 
ATOM     50  C   UNL A   1      46.692  30.285  27.268  1.00  0.00     0.029 A 
ATOM     51  N   UNL A   1      44.653  30.017  28.116  1.00  0.00    -0.354 N 
ATOM     52  N   UNL A   1      42.203  30.895  29.491  1.00  0.00    -0.248 NA
ATOM     53  C   UNL A   1      41.028  32.503  30.707  1.00  0.00     0.031 C 
ATOM     54  C   UNL A   1      46.333  31.459  27.938  1.00  0.00     0.029 A 
ATOM     55  C   UNL A   1      45.049  31.305  28.439  1.00  0.00     0.049 A 
ATOM     56  H   UNL A   1      43.785  29.618  28.351  1.00  0.00     0.167 HD
ATOM     57  C   UNL A   1      42.987  32.036  29.612  1.00  0.00     0.074 A 
ATOM     58  C   UNL A   1      42.198  33.007  30.341  1.00  0.00     0.031 C 
ATOM     59  C   UNL A   1      44.247  32.260  29.160  1.00  0.00     0.037 A 
BRANCH  46  60
ATOM     60  C   UNL A   1      46.780  27.442  26.226  1.00  0.00     0.064 A 
ATOM     61  C   UNL A   1      46.947  27.581  24.840  1.00  0.00     0.173 A 
ATOM     62  C   UNL A   1      47.778  26.761  26.940  1.00  0.00     0.173 A 
ATOM     63  F   UNL A   1      46.015  28.208  24.107  1.00  0.00    -0.203 F 
ATOM     64  C   UNL A   1      48.052  27.033  24.192  1.00  0.00     0.198 A 
ATOM     65  C   UNL A   1      48.898  26.244  26.294  1.00  0.00     0.198 A 
ATOM     66  F   UNL A   1      47.671  26.601  28.268  1.00  0.00    -0.203 F 
ATOM     67  F   UNL A   1      48.163  27.130  22.860  1.00  0.00    -0.200 F 
ATOM     68  C   UNL A   1      49.029  26.372  24.920  1.00  0.00     0.200 A 
ATOM     69  F   UNL A   1      49.848  25.617  27.002  1.00  0.00    -0.200 F 
ATOM     70  F   UNL A   1      50.095  25.851  24.296  1.00  0.00    -0.200 F 
ENDBRANCH  46  60
BRANCH  47  71
ATOM     71  C   UNL A   1      38.653  30.803  30.998  1.00  0.00     0.064 A 
ATOM     72  C   UNL A   1      37.574  31.398  30.328  1.00  0.00     0.173 A 
ATOM     73  C   UNL A   1      38.580  30.716  32.397  1.00  0.00     0.173 A 
ATOM     74  F   UNL A   1      37.606  31.533  28.994  1.00  0.00    -0.203 F 
ATOM     75  C   UNL A   1      36.479  31.901  31.030  1.00  0.00     0.198 A 
ATOM     76  C   UNL A   1      37.471  31.189  33.094  1.00  0.00     0.198 A 
ATOM     77  F   UNL A   1      39.588  30.164  33.089  1.00  0.00    -0.203 F 
ATOM     78  F   UNL A   1      35.486  32.512  30.369  1.00  0.00    -0.200 F 
ATOM     79  C   UNL A   1      36.425  31.789  32.411  1.00  0.00     0.200 A 
ATOM     80  F   UNL A   1      37.419  31.068  34.427  1.00  0.00    -0.200 F 
ATOM     81  F   UNL A   1      35.371  32.271  33.084  1.00  0.00    -0.200 F 
ENDBRANCH  47  71
BRANCH  59  82
ATOM     82  C   UNL A   1      44.837  33.621  29.404  1.00  0.00     0.064 A 
ATOM     83  C   UNL A   1      45.626  33.894  30.531  1.00  0.00     0.173 A 
ATOM     84  C   UNL A   1      44.646  34.653  28.471  1.00  0.00     0.173 A 
ATOM     85  F   UNL A   1      45.830  32.947  31.459  1.00  0.00    -0.203 F 
ATOM     86  C   UNL A   1      46.177  35.158  30.730  1.00  0.00     0.198 A 
ATOM     87  C   UNL A   1      45.227  35.904  28.655  1.00  0.00     0.198 A 
ATOM     88  F   UNL A   1      43.909  34.442  27.370  1.00  0.00    -0.203 F 
ATOM     89  F   UNL A   1      46.883  35.411  31.841  1.00  0.00    -0.200 F 
ATOM     90  C   UNL A   1      45.984  36.158  29.789  1.00  0.00     0.200 A 
ATOM     91  F   UNL A   1      45.055  36.863  27.736  1.00  0.00    -0.200 F 
ATOM     92  F   UNL A   1      46.522  37.371  29.977  1.00  0.00    -0.200 F 
ENDBRANCH  59  82
ENDBRANCH  33  34
ENDBRANCH  26  28
ENDBRANCH  25  26
ENDBRANCH  24  25
ENDBRANCH   1  24
TORSDOF 14
ENDMDL
MODEL 2
REMARK VINA RESULT:     -12.1      0.180      1.970
REMARK SMILES CC[C@@H](NC(=O)N1C[C@H]2CCCC[N@@H+]2C[C@@H]1C)C(=O)OCCOC(=O)c1ccc(-c2c3nc(c(-c4c(F)c(F)c(F)c(F)c4F)c4ccc([nH]4)c(-c4c(F)c(F)c(F)c(F)c4F)c4nc(c(-c5c(F)c(F)c(F)c(F)c5F)c5ccc2[nH]5)C=C4)C=C3)cc1
REMARK SMILES IDX 21 1 20 2 18 3 19 4 3 5 2 6 1 7 4 8 5 9 6 11 7 12 8 13 16 14
REMARK SMILES IDX 9 15 15 16 17 17 10 18 14 19 11 20 13 21 12 23 22 24 23 25
REMARK SMILES IDX 24 26 25 27 26 28 27 29 88 30 28 31 87 32 29 33 30 34 31 35
REMARK SMILES IDX 81 36 32 37 86 38 80 39 82 40 33 41 85 42 79 43 78 44 34 46
REMARK SMILES IDX 66 47 46 48 65 49 47 50 50 51 64 52 83 53 48 54 49 55 63 57
REMARK SMILES IDX 84 58 51 59 35 60 36 61 44 62 37 63 38 64 42 65 45 66 39 67
REMARK SMILES IDX 40 68 43 69 41 70 67 71 68 72 76 73 69 74 70 75 74 76 77 77
REMARK SMILES IDX 71 78 72 79 75 80 73 81 52 82 53 83 61 84 54 85 55 86 59 87
REMARK SMILES IDX 62 88 56 89 57 90 60 91 58 92
REMARK H PARENT 4 10 14 22 82 45 50 56
REMARK Flexibility Score: inf
ROOT
ATOM      1  C   UNL A   1      36.440  19.817  25.003  1.00  0.00     0.274 C 
ENDROOT
BRANCH   1   2
ATOM      2  O   UNL A   1      35.712  20.959  25.469  1.00  0.00    -0.461 OA
BRANCH   2   3
ATOM      3  C   UNL A   1      34.591  21.306  24.788  1.00  0.00     0.328 C 
ATOM      4  O   UNL A   1      33.711  20.536  24.423  1.00  0.00    -0.250 OA
BRANCH   3   5
ATOM      5  C   UNL A   1      34.518  22.774  24.431  1.00  0.00     0.193 C 
BRANCH   5   6
ATOM      6  C   UNL A   1      35.949  23.350  24.366  1.00  0.00     0.033 C 
ATOM      7  C   UNL A   1      36.730  22.961  23.120  1.00  0.00     0.007 C 
ENDBRANCH   5   6
BRANCH   5   8
ATOM      8  N   UNL A   1      33.689  23.049  23.245  1.00  0.00    -0.324 N 
ATOM      9  C   UNL A   1      33.345  24.274  22.718  1.00  0.00     0.318 C 
ATOM     10  H   UNL A   1      33.341  22.261  22.769  1.00  0.00     0.166 HD
ATOM     11  O   UNL A   1      33.283  24.408  21.498  1.00  0.00    -0.249 OA
BRANCH   9  12
ATOM     12  N   UNL A   1      32.840  25.213  23.601  1.00  0.00    -0.310 N 
ATOM     13  C   UNL A   1      33.610  26.458  23.791  1.00  0.00     0.186 C 
ATOM     14  C   UNL A   1      31.397  25.498  23.522  1.00  0.00     0.139 C 
ATOM     15  C   UNL A   1      33.201  27.104  25.133  1.00  0.00     0.203 C 
ATOM     16  C   UNL A   1      30.886  26.487  24.632  1.00  0.00     0.287 C 
ATOM     17  C   UNL A   1      30.547  24.222  23.603  1.00  0.00     0.037 C 
ATOM     18  C   UNL A   1      34.131  28.221  25.611  1.00  0.00     0.067 C 
ATOM     19  N   UNL A   1      31.790  27.544  25.156  1.00  0.00    -0.329 N 
ATOM     20  C   UNL A   1      33.803  28.552  27.069  1.00  0.00     0.012 C 
ATOM     21  C   UNL A   1      31.393  27.880  26.544  1.00  0.00     0.262 C 
ATOM     22  H   UNL A   1      31.707  28.367  24.559  1.00  0.00     0.348 HD
ATOM     23  C   UNL A   1      32.322  28.876  27.245  1.00  0.00     0.062 C 
ENDBRANCH   9  12
ENDBRANCH   5   8
ENDBRANCH   3   5
ENDBRANCH   2   3
ENDBRANCH   1   2
BRANCH   1  24
ATOM     24  C   UNL A   1      37.975  19.921  24.948  1.00  0.00     0.275 C 
BRANCH  24  25
ATOM     25  O   UNL A   1      38.541  21.172  25.380  1.00  0.00    -0.458 OA
BRANCH  25  26
ATOM     26  C   UNL A   1      39.664  21.048  26.133  1.00  0.00     0.338 C 
ATOM     27  O   UNL A   1      40.440  20.106  26.118  1.00  0.00    -0.246 OA
BRANCH  26  28
ATOM     28  C   UNL A   1      39.966  22.290  26.886  1.00  0.00     0.060 A 
ATOM     29  C   UNL A   1      39.229  23.436  26.547  1.00  0.00     0.016 A 
ATOM     30  C   UNL A   1      41.007  22.375  27.810  1.00  0.00     0.016 A 
ATOM     31  C   UNL A   1      39.573  24.680  27.067  1.00  0.00     0.010 A 
ATOM     32  C   UNL A   1      41.370  23.633  28.315  1.00  0.00     0.010 A 
ATOM     33  C   UNL A   1      40.688  24.794  27.902  1.00  0.00    -0.014 A 
BRANCH  33  34
ATOM     34  C   UNL A   1      41.264  26.145  28.123  1.00  0.00     0.031 A 
ATOM     35  C   UNL A   1      42.648  26.423  27.600  1.00  0.00     0.074 A 
ATOM     36  C   UNL A   1      40.543  27.132  28.684  1.00  0.00     0.049 A 
ATOM     37  N   UNL A   1      43.372  27.511  27.681  1.00  0.00    -0.248 NA
ATOM     38  C   UNL A   1      43.306  25.321  26.877  1.00  0.00     0.031 C 
ATOM     39  C   UNL A   1      39.165  27.008  29.151  1.00  0.00     0.029 A 
ATOM     40  N   UNL A   1      40.875  28.438  28.948  1.00  0.00    -0.354 N 
ATOM     41  C   UNL A   1      44.566  27.219  27.034  1.00  0.00     0.074 A 
ATOM     42  C   UNL A   1      44.487  25.845  26.591  1.00  0.00     0.031 C 
ATOM     43  C   UNL A   1      38.771  28.190  29.657  1.00  0.00     0.029 A 
ATOM     44  C   UNL A   1      39.881  29.139  29.583  1.00  0.00     0.049 A 
ATOM     45  H   UNL A   1      41.743  28.833  28.705  1.00  0.00     0.167 HD
ATOM     46  C   UNL A   1      45.631  28.029  26.820  1.00  0.00     0.037 A 
ATOM     47  C   UNL A   1      39.881  30.394  30.074  1.00  0.00     0.037 A 
ATOM     48  C   UNL A   1      45.702  29.397  27.259  1.00  0.00     0.049 A 
ATOM     49  C   UNL A   1      41.113  31.248  29.906  1.00  0.00     0.074 A 
ATOM     50  C   UNL A   1      46.736  30.302  27.102  1.00  0.00     0.029 A 
ATOM     51  N   UNL A   1      44.694  30.055  27.950  1.00  0.00    -0.354 N 
ATOM     52  N   UNL A   1      42.243  30.965  29.302  1.00  0.00    -0.248 NA
ATOM     53  C   UNL A   1      41.070  32.598  30.485  1.00  0.00     0.031 C 
ATOM     54  C   UNL A   1      46.379  31.489  27.750  1.00  0.00     0.029 A 
ATOM     55  C   UNL A   1      45.093  31.348  28.250  1.00  0.00     0.049 A 
ATOM     56  H   UNL A   1      43.825  29.663  28.190  1.00  0.00     0.167 HD
ATOM     57  C   UNL A   1      43.030  32.105  29.403  1.00  0.00     0.074 A 
ATOM     58  C   UNL A   1      42.242  33.092  30.113  1.00  0.00     0.031 C 
ATOM     59  C   UNL A   1      44.292  32.318  28.951  1.00  0.00     0.037 A 
BRANCH  46  60
ATOM     60  C   UNL A   1      46.819  27.440  26.113  1.00  0.00     0.064 A 
ATOM     61  C   UNL A   1      47.816  26.731  26.800  1.00  0.00     0.173 A 
ATOM     62  C   UNL A   1      46.951  27.572  24.722  1.00  0.00     0.173 A 
ATOM     63  F   UNL A   1      47.749  26.590  28.132  1.00  0.00    -0.203 F 
ATOM     64  C   UNL A   1      48.915  26.202  26.126  1.00  0.00     0.198 A 
ATOM     65  C   UNL A   1      48.033  27.014  24.047  1.00  0.00     0.198 A 
ATOM     66  F   UNL A   1      46.026  28.238  24.015  1.00  0.00    -0.203 F 
ATOM     67  F   UNL A   1      49.883  25.576  26.810  1.00  0.00    -0.200 F 
ATOM     68  C   UNL A   1      49.019  26.338  24.750  1.00  0.00     0.200 A 
ATOM     69  F   UNL A   1      48.124  27.134  22.714  1.00  0.00    -0.200 F 
ATOM     70  F   UNL A   1      50.073  25.824  24.101  1.00  0.00    -0.200 F 
ENDBRANCH  46  60
BRANCH  47  71
ATOM     71  C   UNL A   1      38.689  30.910  30.800  1.00  0.00     0.064 A 
ATOM     72  C   UNL A   1      38.593  30.831  32.196  1.00  0.00     0.173 A 
ATOM     73  C   UNL A   1      37.607  31.473  30.106  1.00  0.00     0.173 A 
ATOM     74  F   UNL A   1      39.586  30.275  32.906  1.00  0.00    -0.203 F 
ATOM     75  C   UNL A   1      37.454  31.278  32.867  1.00  0.00     0.198 A 
ATOM     76  C   UNL A   1      36.484  31.950  30.780  1.00  0.00     0.198 A 
ATOM     77  F   UNL A   1      37.641  31.566  28.768  1.00  0.00    -0.203 F 
ATOM     78  F   UNL A   1      37.367  31.142  34.198  1.00  0.00    -0.200 F 
ATOM     79  C   UNL A   1      36.405  31.844  32.159  1.00  0.00     0.200 A 
ATOM     80  F   UNL A   1      35.478  32.506  30.091  1.00  0.00    -0.200 F 
ATOM     81  F   UNL A   1      35.313  32.275  32.805  1.00  0.00    -0.200 F 
ENDBRANCH  47  71
BRANCH  59  82
ATOM     82  C   UNL A   1      44.884  33.681  29.172  1.00  0.00     0.064 A 
ATOM     83  C   UNL A   1      44.689  34.730  28.260  1.00  0.00     0.173 A 
ATOM     84  C   UNL A   1      45.620  33.954  30.336  1.00  0.00     0.173 A 
ATOM     85  F   UNL A   1      44.003  34.521  27.126  1.00  0.00    -0.203 F 
ATOM     86  C   UNL A   1      45.234  35.991  28.492  1.00  0.00     0.198 A 
ATOM     87  C   UNL A   1      46.134  35.224  30.581  1.00  0.00     0.198 A 
ATOM     88  F   UNL A   1      45.827  32.990  31.246  1.00  0.00    -0.203 F 
ATOM     89  F   UNL A   1      45.079  36.962  27.582  1.00  0.00    -0.200 F 
ATOM     90  C   UNL A   1      45.947  36.239  29.655  1.00  0.00     0.200 A 
ATOM     91  F   UNL A   1      46.806  35.465  31.714  1.00  0.00    -0.200 F 
ATOM     92  F   UNL A   1      46.463  37.455  29.880  1.00  0.00    -0.200 F 
ENDBRANCH  59  82
ENDBRANCH  33  34
ENDBRANCH  26  28
ENDBRANCH  25  26
ENDBRANCH  24  25
ENDBRANCH   1  24
TORSDOF 14
ENDMDL
MODEL 3
REMARK VINA RESULT:     -11.9      1.134      7.584
REMARK SMILES CC[C@@H](NC(=O)N1C[C@H]2CCCC[N@@H+]2C[C@@H]1C)C(=O)OCCOC(=O)c1ccc(-c2c3nc(c(-c4c(F)c(F)c(F)c(F)c4F)c4ccc([nH]4)c(-c4c(F)c(F)c(F)c(F)c4F)c4nc(c(-c5c(F)c(F)c(F)c(F)c5F)c5ccc2[nH]5)C=C4)C=C3)cc1
REMARK SMILES IDX 21 1 20 2 18 3 19 4 3 5 2 6 1 7 4 8 5 9 6 11 7 12 8 13 16 14
REMARK SMILES IDX 9 15 15 16 17 17 10 18 14 19 11 20 13 21 12 23 22 24 23 25
REMARK SMILES IDX 24 26 25 27 26 28 27 29 88 30 28 31 87 32 29 33 30 34 31 35
REMARK SMILES IDX 81 36 32 37 86 38 80 39 82 40 33 41 85 42 79 43 78 44 34 46
REMARK SMILES IDX 66 47 46 48 65 49 47 50 50 51 64 52 83 53 48 54 49 55 63 57
REMARK SMILES IDX 84 58 51 59 35 60 36 61 44 62 37 63 38 64 42 65 45 66 39 67
REMARK SMILES IDX 40 68 43 69 41 70 67 71 68 72 76 73 69 74 70 75 74 76 77 77
REMARK SMILES IDX 71 78 72 79 75 80 73 81 52 82 53 83 61 84 54 85 55 86 59 87
REMARK SMILES IDX 62 88 56 89 57 90 60 91 58 92
REMARK H PARENT 4 10 14 22 82 45 50 56
REMARK Flexibility Score: inf
ROOT
ATOM      1  C   UNL A   1      36.168  20.031  24.993  1.00  0.00     0.274 C 
ENDROOT
BRANCH   1   2
ATOM      2  O   UNL A   1      35.493  21.270  24.745  1.00  0.00    -0.461 OA
BRANCH   2   3
ATOM      3  C   UNL A   1      34.609  21.698  25.680  1.00  0.00     0.328 C 
ATOM      4  O   UNL A   1      34.770  21.641  26.893  1.00  0.00    -0.250 OA
BRANCH   3   5
ATOM      5  C   UNL A   1      33.311  22.223  25.105  1.00  0.00     0.193 C 
BRANCH   5   6
ATOM      6  C   UNL A   1      32.920  21.369  23.880  1.00  0.00     0.033 C 
ATOM      7  C   UNL A   1      32.526  19.937  24.210  1.00  0.00     0.007 C 
ENDBRANCH   5   6
BRANCH   5   8
ATOM      8  N   UNL A   1      32.247  22.384  26.110  1.00  0.00    -0.324 N 
ATOM      9  C   UNL A   1      31.117  23.165  26.028  1.00  0.00     0.318 C 
ATOM     10  H   UNL A   1      32.356  21.867  26.941  1.00  0.00     0.166 HD
ATOM     11  O   UNL A   1      30.063  22.752  26.506  1.00  0.00    -0.249 OA
BRANCH   9  12
ATOM     12  N   UNL A   1      31.296  24.483  25.638  1.00  0.00    -0.310 N 
ATOM     13  C   UNL A   1      32.168  25.331  26.473  1.00  0.00     0.186 C 
ATOM     14  C   UNL A   1      31.542  24.729  24.207  1.00  0.00     0.139 C 
ATOM     15  C   UNL A   1      31.833  26.815  26.205  1.00  0.00     0.203 C 
ATOM     16  C   UNL A   1      31.618  26.254  23.832  1.00  0.00     0.287 C 
ATOM     17  C   UNL A   1      30.475  24.080  23.313  1.00  0.00     0.037 C 
ATOM     18  C   UNL A   1      32.430  27.795  27.218  1.00  0.00     0.067 C 
ATOM     19  N   UNL A   1      32.139  27.235  24.820  1.00  0.00    -0.329 N 
ATOM     20  C   UNL A   1      31.778  29.166  27.027  1.00  0.00     0.012 C 
ATOM     21  C   UNL A   1      31.533  28.561  24.554  1.00  0.00     0.262 C 
ATOM     22  H   UNL A   1      33.153  27.287  24.723  1.00  0.00     0.348 HD
ATOM     23  C   UNL A   1      31.895  29.640  25.580  1.00  0.00     0.062 C 
ENDBRANCH   9  12
ENDBRANCH   5   8
ENDBRANCH   3   5
ENDBRANCH   2   3
ENDBRANCH   1   2
BRANCH   1  24
ATOM     24  C   UNL A   1      37.707  20.036  24.958  1.00  0.00     0.275 C 
BRANCH  24  25
ATOM     25  O   UNL A   1      38.347  21.256  25.377  1.00  0.00    -0.458 OA
BRANCH  25  26
ATOM     26  C   UNL A   1      39.465  21.075  26.126  1.00  0.00     0.338 C 
ATOM     27  O   UNL A   1      40.154  20.068  26.157  1.00  0.00    -0.246 OA
BRANCH  26  28
ATOM     28  C   UNL A   1      39.885  22.324  26.806  1.00  0.00     0.060 A 
ATOM     29  C   UNL A   1      39.257  23.513  26.401  1.00  0.00     0.016 A 
ATOM     30  C   UNL A   1      40.935  22.365  27.723  1.00  0.00     0.016 A 
ATOM     31  C   UNL A   1      39.718  24.747  26.847  1.00  0.00     0.010 A 
ATOM     32  C   UNL A   1      41.416  23.610  28.154  1.00  0.00     0.010 A 
ATOM     33  C   UNL A   1      40.844  24.805  27.674  1.00  0.00    -0.014 A 
BRANCH  33  34
ATOM     34  C   UNL A   1      41.544  26.106  27.816  1.00  0.00     0.031 A 
ATOM     35  C   UNL A   1      40.839  27.218  28.548  1.00  0.00     0.074 A 
ATOM     36  C   UNL A   1      42.812  26.270  27.400  1.00  0.00     0.049 A 
ATOM     37  N   UNL A   1      41.231  28.444  28.787  1.00  0.00    -0.248 NA
ATOM     38  C   UNL A   1      39.507  26.899  29.089  1.00  0.00     0.031 C 
ATOM     39  C   UNL A   1      43.627  25.243  26.757  1.00  0.00     0.029 A 
ATOM     40  N   UNL A   1      43.636  27.367  27.463  1.00  0.00    -0.354 N 
ATOM     41  C   UNL A   1      40.194  29.039  29.494  1.00  0.00     0.074 A 
ATOM     42  C   UNL A   1      39.142  28.056  29.619  1.00  0.00     0.031 C 
ATOM     43  C   UNL A   1      44.835  25.762  26.474  1.00  0.00     0.029 A 
ATOM     44  C   UNL A   1      44.862  27.166  26.880  1.00  0.00     0.049 A 
ATOM     45  H   UNL A   1      43.372  28.216  27.886  1.00  0.00     0.167 HD
ATOM     46  C   UNL A   1      40.128  30.295  30.001  1.00  0.00     0.037 A 
ATOM     47  C   UNL A   1      45.877  28.029  26.674  1.00  0.00     0.037 A 
ATOM     48  C   UNL A   1      41.180  31.268  29.876  1.00  0.00     0.049 A 
ATOM     49  C   UNL A   1      45.744  29.449  27.165  1.00  0.00     0.074 A 
ATOM     50  C   UNL A   1      41.213  32.569  30.345  1.00  0.00     0.029 A 
ATOM     51  N   UNL A   1      42.387  31.044  29.229  1.00  0.00    -0.354 N 
ATOM     52  N   UNL A   1      44.758  30.011  27.823  1.00  0.00    -0.248 NA
ATOM     53  C   UNL A   1      46.868  30.355  26.888  1.00  0.00     0.031 C 
ATOM     54  C   UNL A   1      42.415  33.152  29.929  1.00  0.00     0.029 A 
ATOM     55  C   UNL A   1      43.162  32.192  29.262  1.00  0.00     0.049 A 
ATOM     56  H   UNL A   1      42.654  30.195  28.809  1.00  0.00     0.167 HD
ATOM     57  C   UNL A   1      45.153  31.322  28.063  1.00  0.00     0.074 A 
ATOM     58  C   UNL A   1      46.477  31.467  27.493  1.00  0.00     0.031 C 
ATOM     59  C   UNL A   1      44.481  32.316  28.696  1.00  0.00     0.037 A 
BRANCH  46  60
ATOM     60  C   UNL A   1      38.860  30.695  30.700  1.00  0.00     0.064 A 
ATOM     61  C   UNL A   1      38.722  30.617  32.094  1.00  0.00     0.173 A 
ATOM     62  C   UNL A   1      37.771  31.185  29.962  1.00  0.00     0.173 A 
ATOM     63  F   UNL A   1      39.725  30.139  32.846  1.00  0.00    -0.203 F 
ATOM     64  C   UNL A   1      37.533  30.984  32.720  1.00  0.00     0.198 A 
ATOM     65  C   UNL A   1      36.596  31.584  30.593  1.00  0.00     0.198 A 
ATOM     66  F   UNL A   1      37.848  31.285  28.626  1.00  0.00    -0.203 F 
ATOM     67  F   UNL A   1      37.405  30.849  34.047  1.00  0.00    -0.200 F 
ATOM     68  C   UNL A   1      36.474  31.474  31.970  1.00  0.00     0.200 A 
ATOM     69  F   UNL A   1      35.579  32.070  29.868  1.00  0.00    -0.200 F 
ATOM     70  F   UNL A   1      35.333  31.834  32.574  1.00  0.00    -0.200 F 
ENDBRANCH  46  60
BRANCH  47  71
ATOM     71  C   UNL A   1      47.093  27.586  25.939  1.00  0.00     0.064 A 
ATOM     72  C   UNL A   1      48.206  27.067  26.615  1.00  0.00     0.173 A 
ATOM     73  C   UNL A   1      47.175  27.696  24.542  1.00  0.00     0.173 A 
ATOM     74  F   UNL A   1      48.192  26.968  27.952  1.00  0.00    -0.203 F 
ATOM     75  C   UNL A   1      49.359  26.693  25.925  1.00  0.00     0.198 A 
ATOM     76  C   UNL A   1      48.314  27.291  23.850  1.00  0.00     0.198 A 
ATOM     77  F   UNL A   1      46.142  28.194  23.846  1.00  0.00    -0.203 F 
ATOM     78  F   UNL A   1      50.428  26.250  26.601  1.00  0.00    -0.200 F 
ATOM     79  C   UNL A   1      49.409  26.798  24.543  1.00  0.00     0.200 A 
ATOM     80  F   UNL A   1      48.353  27.384  22.514  1.00  0.00    -0.200 F 
ATOM     81  F   UNL A   1      50.516  26.435  23.881  1.00  0.00    -0.200 F 
ENDBRANCH  47  71
BRANCH  59  82
ATOM     82  C   UNL A   1      45.181  33.638  28.845  1.00  0.00     0.064 A 
ATOM     83  C   UNL A   1      46.026  33.910  29.931  1.00  0.00     0.173 A 
ATOM     84  C   UNL A   1      45.039  34.629  27.860  1.00  0.00     0.173 A 
ATOM     85  F   UNL A   1      46.187  33.002  30.905  1.00  0.00    -0.203 F 
ATOM     86  C   UNL A   1      46.678  35.136  30.042  1.00  0.00     0.198 A 
ATOM     87  C   UNL A   1      45.719  35.839  27.956  1.00  0.00     0.198 A 
ATOM     88  F   UNL A   1      44.251  34.416  26.795  1.00  0.00    -0.203 F 
ATOM     89  F   UNL A   1      47.437  35.393  31.115  1.00  0.00    -0.200 F 
ATOM     90  C   UNL A   1      46.530  36.095  29.050  1.00  0.00     0.200 A 
ATOM     91  F   UNL A   1      45.590  36.756  26.988  1.00  0.00    -0.200 F 
ATOM     92  F   UNL A   1      47.166  37.270  29.153  1.00  0.00    -0.200 F 
ENDBRANCH  59  82
ENDBRANCH  33  34
ENDBRANCH  26  28
ENDBRANCH  25  26
ENDBRANCH  24  25
ENDBRANCH   1  24
TORSDOF 14
ENDMDL
