MODEL 1
REMARK VINA RESULT:     -13.2      0.000      0.000
REMARK SMILES COC(=O)c1ccc(C)c2c1[C@H]1C=CC[C@H]1[C@@H](c1ccc(C(=O)OCCOC(=O)c3ccc(-c4c5nc(c(-c6c(F)c(F)c(F)c(F)c6F)c6ccc([nH]6)c(-c6c(F)c(F)c(F)c(F)c6F)c6nc(c(-c7c(F)c(F)c(F)c(F)c7F)c7ccc4[nH]7)C=C6)C=C5)cc3)cc1)N2
REMARK SMILES IDX 25 1 24 2 22 3 23 4 21 5 18 6 19 7 94 8 20 9 93 10 17 11
REMARK SMILES IDX 5 12 6 13 11 14 7 15 10 16 12 17 8 18 95 19 13 20 16 21 9 22
REMARK SMILES IDX 14 24 15 25 3 26 4 27 2 28 1 29 26 30 27 31 28 32 29 33
REMARK SMILES IDX 30 34 31 35 92 36 32 37 91 38 33 39 34 40 35 41 85 42 36 43
REMARK SMILES IDX 90 44 84 45 86 46 37 47 89 48 83 49 82 50 38 52 70 53 50 54
REMARK SMILES IDX 69 55 51 56 54 57 68 58 87 59 52 60 53 61 67 63 88 64 55 65
REMARK SMILES IDX 39 66 40 67 48 68 41 69 42 70 46 71 49 72 43 73 44 74 47 75
REMARK SMILES IDX 45 76 71 77 72 78 80 79 73 80 74 81 78 82 81 83 75 84 76 85
REMARK SMILES IDX 79 86 77 87 56 88 57 89 65 90 58 91 59 92 63 93 66 94 60 95
REMARK SMILES IDX 61 96 64 97 62 98
REMARK H PARENT 95 23 86 51 54 62
REMARK Flexibility Score: inf
ROOT
ATOM      1  C   UNL A   1      31.629  32.325  26.751  1.00  0.00     0.275 C 
ENDROOT
BRANCH   1   2
ATOM      2  O   UNL A   1      31.844  30.982  27.223  1.00  0.00    -0.458 OA
BRANCH   2   3
ATOM      3  C   UNL A   1      33.130  30.560  27.199  1.00  0.00     0.338 C 
ATOM      4  O   UNL A   1      34.012  30.895  27.976  1.00  0.00    -0.246 OA
BRANCH   3   5
ATOM      5  C   UNL A   1      33.322  29.494  26.186  1.00  0.00     0.060 A 
ATOM      6  C   UNL A   1      33.486  27.241  24.465  1.00  0.00    -0.025 A 
ATOM      7  C   UNL A   1      33.845  27.166  25.820  1.00  0.00     0.007 A 
ATOM      8  C   UNL A   1      33.102  28.506  23.979  1.00  0.00     0.007 A 
ATOM      9  C   UNL A   1      33.805  28.277  26.657  1.00  0.00     0.016 A 
ATOM     10  C   UNL A   1      32.994  29.618  24.834  1.00  0.00     0.016 A 
BRANCH   6  11
ATOM     11  C   UNL A   1      33.525  26.017  23.535  1.00  0.00     0.114 C 
ATOM     12  C   UNL A   1      32.456  22.926  26.278  1.00  0.00     0.065 A 
ATOM     13  C   UNL A   1      33.406  22.457  27.180  1.00  0.00     0.016 A 
ATOM     14  C   UNL A   1      32.794  23.812  25.233  1.00  0.00    -0.003 A 
ATOM     15  C   UNL A   1      34.731  22.837  27.016  1.00  0.00     0.006 A 
ATOM     16  C   UNL A   1      34.150  24.141  25.027  1.00  0.00     0.042 A 
ATOM     17  C   UNL A   1      31.715  24.393  24.346  1.00  0.00     0.050 C 
ATOM     18  C   UNL A   1      35.122  23.657  25.938  1.00  0.00    -0.028 A 
ATOM     19  N   UNL A   1      34.495  25.036  24.020  1.00  0.00    -0.377 N 
ATOM     20  C   UNL A   1      30.751  25.353  25.002  1.00  0.00    -0.023 C 
ATOM     21  C   UNL A   1      32.219  25.260  23.179  1.00  0.00     0.031 C 
ATOM     22  C   UNL A   1      36.578  24.041  25.889  1.00  0.00     0.046 C 
ATOM     23  H   UNL A   1      35.399  25.009  23.629  1.00  0.00     0.161 HD
ATOM     24  C   UNL A   1      30.344  26.301  24.150  1.00  0.00    -0.030 C 
ATOM     25  C   UNL A   1      31.018  26.148  22.826  1.00  0.00     0.034 C 
BRANCH  12  26
ATOM     26  C   UNL A   1      31.083  22.424  26.398  1.00  0.00     0.338 C 
ATOM     27  O   UNL A   1      30.592  21.616  25.623  1.00  0.00    -0.246 OA
BRANCH  26  28
ATOM     28  O   UNL A   1      30.482  23.091  27.403  1.00  0.00    -0.465 OA
ATOM     29  C   UNL A   1      29.095  22.804  27.558  1.00  0.00     0.282 C 
ENDBRANCH  26  28
ENDBRANCH  12  26
ENDBRANCH   6  11
ENDBRANCH   3   5
ENDBRANCH   2   3
ENDBRANCH   1   2
BRANCH   1  30
ATOM     30  C   UNL A   1      32.713  33.274  27.275  1.00  0.00     0.275 C 
BRANCH  30  31
ATOM     31  O   UNL A   1      32.159  34.349  28.063  1.00  0.00    -0.458 OA
BRANCH  31  32
ATOM     32  C   UNL A   1      33.063  35.125  28.706  1.00  0.00     0.338 C 
ATOM     33  O   UNL A   1      32.987  36.322  28.928  1.00  0.00    -0.246 OA
BRANCH  32  34
ATOM     34  C   UNL A   1      34.173  34.294  29.207  1.00  0.00     0.060 A 
ATOM     35  C   UNL A   1      33.928  33.473  30.306  1.00  0.00     0.016 A 
ATOM     36  C   UNL A   1      35.463  34.387  28.681  1.00  0.00     0.016 A 
ATOM     37  C   UNL A   1      34.961  32.742  30.893  1.00  0.00     0.010 A 
ATOM     38  C   UNL A   1      36.503  33.647  29.266  1.00  0.00     0.010 A 
ATOM     39  C   UNL A   1      36.264  32.834  30.390  1.00  0.00    -0.014 A 
BRANCH  39  40
ATOM     40  C   UNL A   1      37.361  32.111  31.085  1.00  0.00     0.031 A 
ATOM     41  C   UNL A   1      37.951  30.862  30.488  1.00  0.00     0.074 A 
ATOM     42  C   UNL A   1      37.879  32.598  32.229  1.00  0.00     0.049 A 
ATOM     43  N   UNL A   1      39.044  30.225  30.832  1.00  0.00    -0.248 NA
ATOM     44  C   UNL A   1      37.244  30.256  29.348  1.00  0.00     0.031 C 
ATOM     45  C   UNL A   1      37.407  33.788  32.937  1.00  0.00     0.029 A 
ATOM     46  N   UNL A   1      38.906  32.130  33.014  1.00  0.00    -0.354 N 
ATOM     47  C   UNL A   1      39.220  29.238  29.874  1.00  0.00     0.074 A 
ATOM     48  C   UNL A   1      38.051  29.250  29.028  1.00  0.00     0.031 C 
ATOM     49  C   UNL A   1      38.106  33.924  34.076  1.00  0.00     0.029 A 
ATOM     50  C   UNL A   1      39.069  32.829  34.184  1.00  0.00     0.049 A 
ATOM     51  H   UNL A   1      39.472  31.364  32.760  1.00  0.00     0.167 HD
ATOM     52  C   UNL A   1      40.303  28.450  29.679  1.00  0.00     0.037 A 
ATOM     53  C   UNL A   1      39.877  32.590  35.236  1.00  0.00     0.037 A 
ATOM     54  C   UNL A   1      41.387  28.319  30.610  1.00  0.00     0.049 A 
ATOM     55  C   UNL A   1      40.867  31.454  35.166  1.00  0.00     0.074 A 
ATOM     56  C   UNL A   1      42.504  27.508  30.521  1.00  0.00     0.029 A 
ATOM     57  N   UNL A   1      41.446  28.957  31.835  1.00  0.00    -0.354 N 
ATOM     58  N   UNL A   1      41.155  30.670  34.157  1.00  0.00    -0.248 NA
ATOM     59  C   UNL A   1      41.653  31.173  36.379  1.00  0.00     0.031 C 
ATOM     60  C   UNL A   1      43.178  27.568  31.744  1.00  0.00     0.029 A 
ATOM     61  C   UNL A   1      42.519  28.473  32.562  1.00  0.00     0.049 A 
ATOM     62  H   UNL A   1      40.819  29.651  32.144  1.00  0.00     0.167 HD
ATOM     63  C   UNL A   1      42.172  29.832  34.597  1.00  0.00     0.074 A 
ATOM     64  C   UNL A   1      42.460  30.207  35.963  1.00  0.00     0.031 C 
ATOM     65  C   UNL A   1      42.811  28.845  33.922  1.00  0.00     0.037 A 
BRANCH  52  66
ATOM     66  C   UNL A   1      40.403  27.673  28.405  1.00  0.00     0.064 A 
ATOM     67  C   UNL A   1      41.129  28.194  27.322  1.00  0.00     0.173 A 
ATOM     68  C   UNL A   1      39.934  26.359  28.316  1.00  0.00     0.173 A 
ATOM     69  F   UNL A   1      41.632  29.435  27.383  1.00  0.00    -0.203 F 
ATOM     70  C   UNL A   1      41.369  27.427  26.186  1.00  0.00     0.198 A 
ATOM     71  C   UNL A   1      40.193  25.588  27.186  1.00  0.00     0.198 A 
ATOM     72  F   UNL A   1      39.261  25.812  29.339  1.00  0.00    -0.203 F 
ATOM     73  F   UNL A   1      42.062  27.943  25.162  1.00  0.00    -0.200 F 
ATOM     74  C   UNL A   1      40.910  26.120  26.124  1.00  0.00     0.200 A 
ATOM     75  F   UNL A   1      39.769  24.318  27.133  1.00  0.00    -0.200 F 
ATOM     76  F   UNL A   1      41.170  25.370  25.044  1.00  0.00    -0.200 F 
ENDBRANCH  52  66
BRANCH  53  77
ATOM     77  C   UNL A   1      39.742  33.402  36.475  1.00  0.00     0.064 A 
ATOM     78  C   UNL A   1      38.818  33.074  37.476  1.00  0.00     0.173 A 
ATOM     79  C   UNL A   1      40.509  34.566  36.655  1.00  0.00     0.173 A 
ATOM     80  F   UNL A   1      38.038  31.992  37.339  1.00  0.00    -0.203 F 
ATOM     81  C   UNL A   1      38.652  33.888  38.596  1.00  0.00     0.198 A 
ATOM     82  C   UNL A   1      40.365  35.359  37.789  1.00  0.00     0.198 A 
ATOM     83  F   UNL A   1      41.399  34.936  35.722  1.00  0.00    -0.203 F 
ATOM     84  F   UNL A   1      37.720  33.582  39.510  1.00  0.00    -0.200 F 
ATOM     85  C   UNL A   1      39.429  35.026  38.755  1.00  0.00     0.200 A 
ATOM     86  F   UNL A   1      41.124  36.454  37.940  1.00  0.00    -0.200 F 
ATOM     87  F   UNL A   1      39.264  35.808  39.830  1.00  0.00    -0.200 F 
ENDBRANCH  53  77
BRANCH  65  88
ATOM     88  C   UNL A   1      43.895  28.086  34.630  1.00  0.00     0.064 A 
ATOM     89  C   UNL A   1      43.638  26.858  35.255  1.00  0.00     0.173 A 
ATOM     90  C   UNL A   1      45.223  28.541  34.597  1.00  0.00     0.173 A 
ATOM     91  F   UNL A   1      42.385  26.384  35.325  1.00  0.00    -0.203 F 
ATOM     92  C   UNL A   1      44.669  26.119  35.832  1.00  0.00     0.198 A 
ATOM     93  C   UNL A   1      46.255  27.782  35.140  1.00  0.00     0.198 A 
ATOM     94  F   UNL A   1      45.526  29.704  34.000  1.00  0.00    -0.203 F 
ATOM     95  F   UNL A   1      44.394  24.965  36.456  1.00  0.00    -0.200 F 
ATOM     96  C   UNL A   1      45.977  26.575  35.762  1.00  0.00     0.200 A 
ATOM     97  F   UNL A   1      47.521  28.213  35.050  1.00  0.00    -0.200 F 
ATOM     98  F   UNL A   1      46.969  25.848  36.294  1.00  0.00    -0.200 F 
ENDBRANCH  65  88
ENDBRANCH  39  40
ENDBRANCH  32  34
ENDBRANCH  31  32
ENDBRANCH  30  31
ENDBRANCH   1  30
TORSDOF 14
ENDMDL
MODEL 2
REMARK VINA RESULT:     -13.1      0.366      1.252
REMARK SMILES COC(=O)c1ccc(C)c2c1[C@H]1C=CC[C@H]1[C@@H](c1ccc(C(=O)OCCOC(=O)c3ccc(-c4c5nc(c(-c6c(F)c(F)c(F)c(F)c6F)c6ccc([nH]6)c(-c6c(F)c(F)c(F)c(F)c6F)c6nc(c(-c7c(F)c(F)c(F)c(F)c7F)c7ccc4[nH]7)C=C6)C=C5)cc3)cc1)N2
REMARK SMILES IDX 25 1 24 2 22 3 23 4 21 5 18 6 19 7 94 8 20 9 93 10 17 11
REMARK SMILES IDX 5 12 6 13 11 14 7 15 10 16 12 17 8 18 95 19 13 20 16 21 9 22
REMARK SMILES IDX 14 24 15 25 3 26 4 27 2 28 1 29 26 30 27 31 28 32 29 33
REMARK SMILES IDX 30 34 31 35 92 36 32 37 91 38 33 39 34 40 35 41 85 42 36 43
REMARK SMILES IDX 90 44 84 45 86 46 37 47 89 48 83 49 82 50 38 52 70 53 50 54
REMARK SMILES IDX 69 55 51 56 54 57 68 58 87 59 52 60 53 61 67 63 88 64 55 65
REMARK SMILES IDX 39 66 40 67 48 68 41 69 42 70 46 71 49 72 43 73 44 74 47 75
REMARK SMILES IDX 45 76 71 77 72 78 80 79 73 80 74 81 78 82 81 83 75 84 76 85
REMARK SMILES IDX 79 86 77 87 56 88 57 89 65 90 58 91 59 92 63 93 66 94 60 95
REMARK SMILES IDX 61 96 64 97 62 98
REMARK H PARENT 95 23 86 51 54 62
REMARK Flexibility Score: inf
ROOT
ATOM      1  C   UNL A   1      31.724  32.022  26.489  1.00  0.00     0.275 C 
ENDROOT
BRANCH   1   2
ATOM      2  O   UNL A   1      32.092  30.774  27.105  1.00  0.00    -0.458 OA
BRANCH   2   3
ATOM      3  C   UNL A   1      33.395  30.430  26.980  1.00  0.00     0.338 C 
ATOM      4  O   UNL A   1      34.320  30.861  27.652  1.00  0.00    -0.246 OA
BRANCH   3   5
ATOM      5  C   UNL A   1      33.563  29.322  26.008  1.00  0.00     0.060 A 
ATOM      6  C   UNL A   1      33.655  27.013  24.359  1.00  0.00    -0.025 A 
ATOM      7  C   UNL A   1      33.934  26.953  25.734  1.00  0.00     0.007 A 
ATOM      8  C   UNL A   1      33.392  28.286  23.820  1.00  0.00     0.007 A 
ATOM      9  C   UNL A   1      33.930  28.089  26.537  1.00  0.00     0.016 A 
ATOM     10  C   UNL A   1      33.319  29.429  24.637  1.00  0.00     0.016 A 
BRANCH   6  11
ATOM     11  C   UNL A   1      33.654  25.761  23.466  1.00  0.00     0.114 C 
ATOM     12  C   UNL A   1      32.472  22.791  26.294  1.00  0.00     0.065 A 
ATOM     13  C   UNL A   1      33.403  22.315  27.213  1.00  0.00     0.016 A 
ATOM     14  C   UNL A   1      32.843  23.633  25.225  1.00  0.00    -0.003 A 
ATOM     15  C   UNL A   1      34.740  22.645  27.043  1.00  0.00     0.006 A 
ATOM     16  C   UNL A   1      34.210  23.909  25.015  1.00  0.00     0.042 A 
ATOM     17  C   UNL A   1      31.788  24.224  24.317  1.00  0.00     0.050 C 
ATOM     18  C   UNL A   1      35.162  23.419  25.943  1.00  0.00    -0.028 A 
ATOM     19  N   UNL A   1      34.589  24.762  23.983  1.00  0.00    -0.377 N 
ATOM     20  C   UNL A   1      30.855  25.235  24.941  1.00  0.00    -0.023 C 
ATOM     21  C   UNL A   1      32.325  25.039  23.127  1.00  0.00     0.031 C 
ATOM     22  C   UNL A   1      36.631  23.752  25.889  1.00  0.00     0.046 C 
ATOM     23  H   UNL A   1      35.493  24.692  23.597  1.00  0.00     0.161 HD
ATOM     24  C   UNL A   1      30.484  26.172  24.059  1.00  0.00    -0.030 C 
ATOM     25  C   UNL A   1      31.156  25.957  22.744  1.00  0.00     0.034 C 
BRANCH  12  26
ATOM     26  C   UNL A   1      31.082  22.339  26.423  1.00  0.00     0.338 C 
ATOM     27  O   UNL A   1      30.553  21.559  25.644  1.00  0.00    -0.246 OA
BRANCH  26  28
ATOM     28  O   UNL A   1      30.517  23.017  27.441  1.00  0.00    -0.465 OA
ATOM     29  C   UNL A   1      29.106  22.857  27.549  1.00  0.00     0.282 C 
ENDBRANCH  26  28
ENDBRANCH  12  26
ENDBRANCH   6  11
ENDBRANCH   3   5
ENDBRANCH   2   3
ENDBRANCH   1   2
BRANCH   1  30
ATOM     30  C   UNL A   1      31.758  33.169  27.505  1.00  0.00     0.275 C 
BRANCH  30  31
ATOM     31  O   UNL A   1      32.993  33.914  27.443  1.00  0.00    -0.458 OA
BRANCH  31  32
ATOM     32  C   UNL A   1      33.261  34.690  28.519  1.00  0.00     0.338 C 
ATOM     33  O   UNL A   1      32.693  35.717  28.852  1.00  0.00    -0.246 OA
BRANCH  32  34
ATOM     34  C   UNL A   1      34.323  34.070  29.332  1.00  0.00     0.060 A 
ATOM     35  C   UNL A   1      35.636  34.178  28.880  1.00  0.00     0.016 A 
ATOM     36  C   UNL A   1      34.037  33.305  30.464  1.00  0.00     0.016 A 
ATOM     37  C   UNL A   1      36.675  33.527  29.545  1.00  0.00     0.010 A 
ATOM     38  C   UNL A   1      35.082  32.654  31.140  1.00  0.00     0.010 A 
ATOM     39  C   UNL A   1      36.407  32.742  30.674  1.00  0.00    -0.014 A 
BRANCH  39  40
ATOM     40  C   UNL A   1      37.518  31.992  31.314  1.00  0.00     0.031 A 
ATOM     41  C   UNL A   1      38.087  30.762  30.657  1.00  0.00     0.074 A 
ATOM     42  C   UNL A   1      38.068  32.436  32.460  1.00  0.00     0.049 A 
ATOM     43  N   UNL A   1      39.186  30.111  30.949  1.00  0.00    -0.248 NA
ATOM     44  C   UNL A   1      37.348  30.199  29.516  1.00  0.00     0.031 C 
ATOM     45  C   UNL A   1      37.620  33.602  33.221  1.00  0.00     0.029 A 
ATOM     46  N   UNL A   1      39.115  31.938  33.200  1.00  0.00    -0.354 N 
ATOM     47  C   UNL A   1      39.333  29.157  29.953  1.00  0.00     0.074 A 
ATOM     48  C   UNL A   1      38.142  29.203  29.139  1.00  0.00     0.031 C 
ATOM     49  C   UNL A   1      38.350  33.697  34.345  1.00  0.00     0.029 A 
ATOM     50  C   UNL A   1      39.311  32.595  34.389  1.00  0.00     0.049 A 
ATOM     51  H   UNL A   1      39.670  31.180  32.905  1.00  0.00     0.167 HD
ATOM     52  C   UNL A   1      40.406  28.373  29.702  1.00  0.00     0.037 A 
ATOM     53  C   UNL A   1      40.146  32.316  35.410  1.00  0.00     0.037 A 
ATOM     54  C   UNL A   1      41.515  28.206  30.599  1.00  0.00     0.049 A 
ATOM     55  C   UNL A   1      41.129  31.180  35.274  1.00  0.00     0.074 A 
ATOM     56  C   UNL A   1      42.625  27.394  30.451  1.00  0.00     0.029 A 
ATOM     57  N   UNL A   1      41.609  28.800  31.844  1.00  0.00    -0.354 N 
ATOM     58  N   UNL A   1      41.387  30.431  34.231  1.00  0.00    -0.248 NA
ATOM     59  C   UNL A   1      41.945  30.854  36.455  1.00  0.00     0.031 C 
ATOM     60  C   UNL A   1      43.331  27.410  31.658  1.00  0.00     0.029 A 
ATOM     61  C   UNL A   1      42.699  28.287  32.524  1.00  0.00     0.049 A 
ATOM     62  H   UNL A   1      40.993  29.484  32.193  1.00  0.00     0.167 HD
ATOM     63  C   UNL A   1      42.412  29.575  34.614  1.00  0.00     0.074 A 
ATOM     64  C   UNL A   1      42.737  29.901  35.985  1.00  0.00     0.031 C 
ATOM     65  C   UNL A   1      43.028  28.610  33.888  1.00  0.00     0.037 A 
BRANCH  52  66
ATOM     66  C   UNL A   1      40.470  27.641  28.400  1.00  0.00     0.064 A 
ATOM     67  C   UNL A   1      41.171  28.196  27.317  1.00  0.00     0.173 A 
ATOM     68  C   UNL A   1      39.990  26.333  28.276  1.00  0.00     0.173 A 
ATOM     69  F   UNL A   1      41.684  29.431  27.409  1.00  0.00    -0.203 F 
ATOM     70  C   UNL A   1      41.378  27.468  26.149  1.00  0.00     0.198 A 
ATOM     71  C   UNL A   1      40.216  25.601  27.113  1.00  0.00     0.198 A 
ATOM     72  F   UNL A   1      39.339  25.755  29.296  1.00  0.00    -0.203 F 
ATOM     73  F   UNL A   1      42.048  28.017  25.127  1.00  0.00    -0.200 F 
ATOM     74  C   UNL A   1      40.910  26.167  26.053  1.00  0.00     0.200 A 
ATOM     75  F   UNL A   1      39.783  24.336  27.026  1.00  0.00    -0.200 F 
ATOM     76  F   UNL A   1      41.138  25.454  24.940  1.00  0.00    -0.200 F 
ENDBRANCH  52  66
BRANCH  53  77
ATOM     77  C   UNL A   1      40.047  33.085  36.680  1.00  0.00     0.064 A 
ATOM     78  C   UNL A   1      39.088  32.779  37.655  1.00  0.00     0.173 A 
ATOM     79  C   UNL A   1      40.887  34.186  36.917  1.00  0.00     0.173 A 
ATOM     80  F   UNL A   1      38.240  31.759  37.464  1.00  0.00    -0.203 F 
ATOM     81  C   UNL A   1      38.960  33.556  38.806  1.00  0.00     0.198 A 
ATOM     82  C   UNL A   1      40.780  34.941  38.082  1.00  0.00     0.198 A 
ATOM     83  F   UNL A   1      41.813  34.532  36.011  1.00  0.00    -0.203 F 
ATOM     84  F   UNL A   1      37.997  33.278  39.695  1.00  0.00    -0.200 F 
ATOM     85  C   UNL A   1      39.809  34.632  39.022  1.00  0.00     0.200 A 
ATOM     86  F   UNL A   1      41.607  35.974  38.287  1.00  0.00    -0.200 F 
ATOM     87  F   UNL A   1      39.681  35.380  40.125  1.00  0.00    -0.200 F 
ENDBRANCH  53  77
BRANCH  65  88
ATOM     88  C   UNL A   1      44.127  27.823  34.540  1.00  0.00     0.064 A 
ATOM     89  C   UNL A   1      45.436  28.318  34.610  1.00  0.00     0.173 A 
ATOM     90  C   UNL A   1      43.848  26.609  35.187  1.00  0.00     0.173 A 
ATOM     91  F   UNL A   1      45.758  29.468  33.999  1.00  0.00    -0.203 F 
ATOM     92  C   UNL A   1      46.429  27.620  35.295  1.00  0.00     0.198 A 
ATOM     93  C   UNL A   1      44.833  25.934  35.903  1.00  0.00     0.198 A 
ATOM     94  F   UNL A   1      42.608  26.096  35.161  1.00  0.00    -0.203 F 
ATOM     95  F   UNL A   1      47.682  28.096  35.319  1.00  0.00    -0.200 F 
ATOM     96  C   UNL A   1      46.123  26.438  35.952  1.00  0.00     0.200 A 
ATOM     97  F   UNL A   1      44.529  24.804  36.556  1.00  0.00    -0.200 F 
ATOM     98  F   UNL A   1      47.075  25.783  36.632  1.00  0.00    -0.200 F 
ENDBRANCH  65  88
ENDBRANCH  39  40
ENDBRANCH  32  34
ENDBRANCH  31  32
ENDBRANCH  30  31
ENDBRANCH   1  30
TORSDOF 14
ENDMDL
MODEL 3
REMARK VINA RESULT:     -13.0      5.298     10.648
REMARK SMILES COC(=O)c1ccc(C)c2c1[C@H]1C=CC[C@H]1[C@@H](c1ccc(C(=O)OCCOC(=O)c3ccc(-c4c5nc(c(-c6c(F)c(F)c(F)c(F)c6F)c6ccc([nH]6)c(-c6c(F)c(F)c(F)c(F)c6F)c6nc(c(-c7c(F)c(F)c(F)c(F)c7F)c7ccc4[nH]7)C=C6)C=C5)cc3)cc1)N2
REMARK SMILES IDX 25 1 24 2 22 3 23 4 21 5 18 6 19 7 94 8 20 9 93 10 17 11
REMARK SMILES IDX 5 12 6 13 11 14 7 15 10 16 12 17 8 18 95 19 13 20 16 21 9 22
REMARK SMILES IDX 14 24 15 25 3 26 4 27 2 28 1 29 26 30 27 31 28 32 29 33
REMARK SMILES IDX 30 34 31 35 92 36 32 37 91 38 33 39 34 40 35 41 85 42 36 43
REMARK SMILES IDX 90 44 84 45 86 46 37 47 89 48 83 49 82 50 38 52 70 53 50 54
REMARK SMILES IDX 69 55 51 56 54 57 68 58 87 59 52 60 53 61 67 63 88 64 55 65
REMARK SMILES IDX 39 66 40 67 48 68 41 69 42 70 46 71 49 72 43 73 44 74 47 75
REMARK SMILES IDX 45 76 71 77 72 78 80 79 73 80 74 81 78 82 81 83 75 84 76 85
REMARK SMILES IDX 79 86 77 87 56 88 57 89 65 90 58 91 59 92 63 93 66 94 60 95
REMARK SMILES IDX 61 96 64 97 62 98
REMARK H PARENT 95 23 86 51 54 62
REMARK Flexibility Score: inf
ROOT
ATOM      1  C   UNL A   1      38.320  19.588  25.054  1.00  0.00     0.275 C 
ENDROOT
BRANCH   1   2
ATOM      2  O   UNL A   1      37.958  20.917  24.637  1.00  0.00    -0.458 OA
BRANCH   2   3
ATOM      3  C   UNL A   1      38.037  21.866  25.598  1.00  0.00     0.338 C 
ATOM      4  O   UNL A   1      39.064  22.319  26.080  1.00  0.00    -0.246 OA
BRANCH   3   5
ATOM      5  C   UNL A   1      36.697  22.426  25.905  1.00  0.00     0.060 A 
ATOM      6  C   UNL A   1      34.120  23.595  26.140  1.00  0.00    -0.025 A 
ATOM      7  C   UNL A   1      35.212  24.306  25.617  1.00  0.00     0.007 A 
ATOM      8  C   UNL A   1      34.377  22.292  26.607  1.00  0.00     0.007 A 
ATOM      9  C   UNL A   1      36.485  23.751  25.538  1.00  0.00     0.016 A 
ATOM     10  C   UNL A   1      35.646  21.699  26.468  1.00  0.00     0.016 A 
BRANCH   6  11
ATOM     11  C   UNL A   1      32.710  24.201  26.227  1.00  0.00     0.114 C 
ATOM     12  C   UNL A   1      32.770  26.796  22.839  1.00  0.00     0.065 A 
ATOM     13  C   UNL A   1      33.455  28.005  22.918  1.00  0.00     0.016 A 
ATOM     14  C   UNL A   1      32.561  25.982  23.972  1.00  0.00    -0.003 A 
ATOM     15  C   UNL A   1      33.905  28.440  24.157  1.00  0.00     0.006 A 
ATOM     16  C   UNL A   1      32.957  26.460  25.239  1.00  0.00     0.042 A 
ATOM     17  C   UNL A   1      31.916  24.621  23.826  1.00  0.00     0.050 C 
ATOM     18  C   UNL A   1      33.647  27.694  25.325  1.00  0.00    -0.028 A 
ATOM     19  N   UNL A   1      32.785  25.655  26.361  1.00  0.00    -0.377 N 
ATOM     20  C   UNL A   1      32.714  23.577  23.081  1.00  0.00    -0.023 C 
ATOM     21  C   UNL A   1      31.647  23.876  25.145  1.00  0.00     0.031 C 
ATOM     22  C   UNL A   1      34.223  28.243  26.605  1.00  0.00     0.046 C 
ATOM     23  H   UNL A   1      32.711  26.068  27.253  1.00  0.00     0.161 HD
ATOM     24  C   UNL A   1      32.488  22.349  23.564  1.00  0.00    -0.030 C 
ATOM     25  C   UNL A   1      31.559  22.401  24.730  1.00  0.00     0.034 C 
BRANCH  12  26
ATOM     26  C   UNL A   1      32.204  26.408  21.543  1.00  0.00     0.338 C 
ATOM     27  O   UNL A   1      31.004  26.408  21.305  1.00  0.00    -0.246 OA
BRANCH  26  28
ATOM     28  O   UNL A   1      33.210  25.964  20.765  1.00  0.00    -0.465 OA
ATOM     29  C   UNL A   1      32.792  25.269  19.593  1.00  0.00     0.282 C 
ENDBRANCH  26  28
ENDBRANCH  12  26
ENDBRANCH   6  11
ENDBRANCH   3   5
ENDBRANCH   2   3
ENDBRANCH   1   2
BRANCH   1  30
ATOM     30  C   UNL A   1      39.516  19.618  26.012  1.00  0.00     0.275 C 
BRANCH  30  31
ATOM     31  O   UNL A   1      40.646  18.882  25.496  1.00  0.00    -0.458 OA
BRANCH  31  32
ATOM     32  C   UNL A   1      41.806  19.041  26.175  1.00  0.00     0.338 C 
ATOM     33  O   UNL A   1      42.611  18.177  26.478  1.00  0.00    -0.246 OA
BRANCH  32  34
ATOM     34  C   UNL A   1      42.034  20.472  26.449  1.00  0.00     0.060 A 
ATOM     35  C   UNL A   1      42.345  21.300  25.372  1.00  0.00     0.016 A 
ATOM     36  C   UNL A   1      42.051  20.983  27.747  1.00  0.00     0.016 A 
ATOM     37  C   UNL A   1      42.676  22.639  25.575  1.00  0.00     0.010 A 
ATOM     38  C   UNL A   1      42.377  22.333  27.954  1.00  0.00     0.010 A 
ATOM     39  C   UNL A   1      42.712  23.167  26.871  1.00  0.00    -0.014 A 
BRANCH  39  40
ATOM     40  C   UNL A   1      43.149  24.574  27.067  1.00  0.00     0.031 A 
ATOM     41  C   UNL A   1      42.146  25.646  27.401  1.00  0.00     0.074 A 
ATOM     42  C   UNL A   1      44.455  24.896  27.007  1.00  0.00     0.049 A 
ATOM     43  N   UNL A   1      42.361  26.870  27.817  1.00  0.00    -0.248 NA
ATOM     44  C   UNL A   1      40.720  25.304  27.274  1.00  0.00     0.031 C 
ATOM     45  C   UNL A   1      45.543  23.973  26.682  1.00  0.00     0.029 A 
ATOM     46  N   UNL A   1      45.087  26.103  27.192  1.00  0.00    -0.354 N 
ATOM     47  C   UNL A   1      41.112  27.387  28.126  1.00  0.00     0.074 A 
ATOM     48  C   UNL A   1      40.132  26.413  27.706  1.00  0.00     0.031 C 
ATOM     49  C   UNL A   1      46.698  24.659  26.638  1.00  0.00     0.029 A 
ATOM     50  C   UNL A   1      46.433  26.068  26.923  1.00  0.00     0.049 A 
ATOM     51  H   UNL A   1      44.617  26.916  27.489  1.00  0.00     0.167 HD
ATOM     52  C   UNL A   1      40.824  28.538  28.775  1.00  0.00     0.037 A 
ATOM     53  C   UNL A   1      47.337  27.066  26.876  1.00  0.00     0.037 A 
ATOM     54  C   UNL A   1      41.776  29.577  29.043  1.00  0.00     0.049 A 
ATOM     55  C   UNL A   1      46.919  28.463  27.264  1.00  0.00     0.074 A 
ATOM     56  C   UNL A   1      41.566  30.801  29.652  1.00  0.00     0.029 A 
ATOM     57  N   UNL A   1      43.099  29.546  28.642  1.00  0.00    -0.354 N 
ATOM     58  N   UNL A   1      45.779  28.877  27.757  1.00  0.00    -0.248 NA
ATOM     59  C   UNL A   1      47.917  29.532  27.097  1.00  0.00     0.031 C 
ATOM     60  C   UNL A   1      42.734  31.555  29.516  1.00  0.00     0.029 A 
ATOM     61  C   UNL A   1      43.691  30.772  28.888  1.00  0.00     0.049 A 
ATOM     62  H   UNL A   1      43.553  28.768  28.243  1.00  0.00     0.167 HD
ATOM     63  C   UNL A   1      45.931  30.238  27.992  1.00  0.00     0.074 A 
ATOM     64  C   UNL A   1      47.278  30.582  27.595  1.00  0.00     0.031 C 
ATOM     65  C   UNL A   1      45.032  31.118  28.497  1.00  0.00     0.037 A 
BRANCH  52  66
ATOM     66  C   UNL A   1      39.429  28.750  29.274  1.00  0.00     0.064 A 
ATOM     67  C   UNL A   1      39.107  28.444  30.606  1.00  0.00     0.173 A 
ATOM     68  C   UNL A   1      38.470  29.404  28.495  1.00  0.00     0.173 A 
ATOM     69  F   UNL A   1      40.013  27.854  31.399  1.00  0.00    -0.203 F 
ATOM     70  C   UNL A   1      37.864  28.777  31.136  1.00  0.00     0.198 A 
ATOM     71  C   UNL A   1      37.235  29.753  29.035  1.00  0.00     0.198 A 
ATOM     72  F   UNL A   1      38.746  29.739  27.226  1.00  0.00    -0.203 F 
ATOM     73  F   UNL A   1      37.577  28.475  32.410  1.00  0.00    -0.200 F 
ATOM     74  C   UNL A   1      36.934  29.441  30.354  1.00  0.00     0.200 A 
ATOM     75  F   UNL A   1      36.342  30.414  28.286  1.00  0.00    -0.200 F 
ATOM     76  F   UNL A   1      35.749  29.792  30.874  1.00  0.00    -0.200 F 
ENDBRANCH  52  66
BRANCH  53  77
ATOM     77  C   UNL A   1      48.714  26.797  26.383  1.00  0.00     0.064 A 
ATOM     78  C   UNL A   1      49.059  26.954  25.034  1.00  0.00     0.173 A 
ATOM     79  C   UNL A   1      49.707  26.321  27.256  1.00  0.00     0.173 A 
ATOM     80  F   UNL A   1      48.141  27.374  24.152  1.00  0.00    -0.203 F 
ATOM     81  C   UNL A   1      50.334  26.625  24.575  1.00  0.00     0.198 A 
ATOM     82  C   UNL A   1      50.989  26.025  26.803  1.00  0.00     0.198 A 
ATOM     83  F   UNL A   1      49.428  26.138  28.555  1.00  0.00    -0.203 F 
ATOM     84  F   UNL A   1      50.621  26.729  23.269  1.00  0.00    -0.200 F 
ATOM     85  C   UNL A   1      51.300  26.167  25.459  1.00  0.00     0.200 A 
ATOM     86  F   UNL A   1      51.919  25.589  27.663  1.00  0.00    -0.200 F 
ATOM     87  F   UNL A   1      52.522  25.848  25.015  1.00  0.00    -0.200 F 
ENDBRANCH  53  77
BRANCH  65  88
ATOM     88  C   UNL A   1      45.454  32.549  28.664  1.00  0.00     0.064 A 
ATOM     89  C   UNL A   1      45.157  33.516  27.695  1.00  0.00     0.173 A 
ATOM     90  C   UNL A   1      46.074  32.976  29.849  1.00  0.00     0.173 A 
ATOM     91  F   UNL A   1      44.576  33.159  26.539  1.00  0.00    -0.203 F 
ATOM     92  C   UNL A   1      45.475  34.857  27.900  1.00  0.00     0.198 A 
ATOM     93  C   UNL A   1      46.356  34.321  30.067  1.00  0.00     0.198 A 
ATOM     94  F   UNL A   1      46.370  32.092  30.815  1.00  0.00    -0.203 F 
ATOM     95  F   UNL A   1      45.213  35.758  26.944  1.00  0.00    -0.200 F 
ATOM     96  C   UNL A   1      46.061  35.260  29.091  1.00  0.00     0.200 A 
ATOM     97  F   UNL A   1      46.900  34.711  31.229  1.00  0.00    -0.200 F 
ATOM     98  F   UNL A   1      46.341  36.554  29.296  1.00  0.00    -0.200 F 
ENDBRANCH  65  88
ENDBRANCH  39  40
ENDBRANCH  32  34
ENDBRANCH  31  32
ENDBRANCH  30  31
ENDBRANCH   1  30
TORSDOF 14
ENDMDL
