MODEL 1
REMARK VINA RESULT:     -12.1      0.000      0.000
REMARK SMILES COc1cc(CNc2ccc(N3CCOCC3)c(C(=O)OCCOC(=O)c3ccc(-c4c5nc(c(-c6c(F)c(F)c(F)c(F)c6F)c6ccc([nH]6)c(-c6c(F)c(F)c(F)c(F)c6F)c6nc(c(-c7c(F)c(F)c(F)c(F)c7F)c7ccc4[nH]7)C=C6)C=C5)cc3)c2)cc(Br)c1OC
REMARK SMILES IDX 22 1 21 2 19 3 20 4 18 5 8 6 9 7 90 8 10 9 11 10 7 11 6 13
REMARK SMILES IDX 5 14 3 15 4 16 94 17 92 18 91 19 93 20 2 21 1 22 95 23 96 24
REMARK SMILES IDX 12 25 13 26 17 27 14 28 16 29 15 30 23 31 24 32 25 33 26 34
REMARK SMILES IDX 27 35 28 36 89 37 29 38 88 39 30 40 31 41 32 42 82 43 33 44
REMARK SMILES IDX 87 45 81 46 83 47 34 48 86 49 80 50 79 51 35 53 67 54 47 55
REMARK SMILES IDX 66 56 48 57 51 58 65 59 84 60 49 61 50 62 64 64 85 65 52 66
REMARK SMILES IDX 36 67 37 68 45 69 38 70 39 71 43 72 46 73 40 74 41 75 44 76
REMARK SMILES IDX 42 77 68 78 69 79 77 80 70 81 71 82 75 83 78 84 72 85 73 86
REMARK SMILES IDX 76 87 74 88 53 89 54 90 62 91 55 92 56 93 60 94 63 95 57 96
REMARK SMILES IDX 58 97 61 98 59 99
REMARK H PARENT 7 12 83 52 51 63
REMARK Flexibility Score: inf
ROOT
ATOM      1  C   UNL A   1      30.974  31.200  25.372  1.00  0.00     0.275 C 
ENDROOT
BRANCH   1   2
ATOM      2  O   UNL A   1      31.063  29.799  25.662  1.00  0.00    -0.458 OA
BRANCH   2   3
ATOM      3  C   UNL A   1      31.828  29.059  24.817  1.00  0.00     0.340 C 
ATOM      4  O   UNL A   1      32.837  29.420  24.249  1.00  0.00    -0.246 OA
BRANCH   3   5
ATOM      5  C   UNL A   1      31.267  27.687  24.826  1.00  0.00     0.085 A 
ATOM      6  C   UNL A   1      31.354  25.484  25.868  1.00  0.00     0.035 A 
ATOM      7  C   UNL A   1      30.346  25.080  24.994  1.00  0.00     0.028 A 
ATOM      8  C   UNL A   1      31.831  26.785  25.743  1.00  0.00     0.043 A 
ATOM      9  C   UNL A   1      29.767  25.983  24.088  1.00  0.00     0.029 A 
ATOM     10  C   UNL A   1      30.184  27.322  24.003  1.00  0.00     0.052 A 
BRANCH   6  11
ATOM     11  N   UNL A   1      31.772  24.639  26.877  1.00  0.00    -0.381 N 
ATOM     12  H   UNL A   1      32.209  25.023  27.673  1.00  0.00     0.160 HD
BRANCH  11  13
ATOM     13  C   UNL A   1      31.588  23.198  26.801  1.00  0.00     0.149 C 
BRANCH  13  14
ATOM     14  C   UNL A   1      32.812  22.551  26.198  1.00  0.00    -0.024 A 
ATOM     15  C   UNL A   1      33.903  20.640  25.173  1.00  0.00     0.162 A 
ATOM     16  C   UNL A   1      32.760  21.246  25.704  1.00  0.00     0.056 A 
ATOM     17  C   UNL A   1      35.157  21.300  25.169  1.00  0.00     0.174 A 
ATOM     18  C   UNL A   1      35.211  22.601  25.697  1.00  0.00     0.064 A 
ATOM     19  C   UNL A   1      34.043  23.211  26.199  1.00  0.00     0.025 A 
ATOM     20  Br  UNL A   1      36.756  23.703  25.853  1.00  0.00    -0.047 Br
BRANCH  15  21
ATOM     21  O   UNL A   1      33.865  19.342  24.709  1.00  0.00    -0.493 OA
ATOM     22  C   UNL A   1      32.588  18.928  24.228  1.00  0.00     0.278 C 
ENDBRANCH  15  21
BRANCH  17  23
ATOM     23  O   UNL A   1      36.144  20.526  24.625  1.00  0.00    -0.492 OA
ATOM     24  C   UNL A   1      37.499  20.652  25.001  1.00  0.00     0.278 C 
ENDBRANCH  17  23
ENDBRANCH  13  14
ENDBRANCH  11  13
ENDBRANCH   6  11
BRANCH  10  25
ATOM     25  N   UNL A   1      29.536  28.212  23.169  1.00  0.00    -0.366 N 
ATOM     26  C   UNL A   1      30.222  28.800  22.015  1.00  0.00     0.145 C 
ATOM     27  C   UNL A   1      28.076  28.308  23.124  1.00  0.00     0.145 C 
ATOM     28  C   UNL A   1      29.702  30.201  21.688  1.00  0.00     0.181 C 
ATOM     29  C   UNL A   1      27.687  29.766  22.819  1.00  0.00     0.181 C 
ATOM     30  O   UNL A   1      28.268  30.222  21.585  1.00  0.00    -0.378 OA
ENDBRANCH  10  25
ENDBRANCH   3   5
ENDBRANCH   2   3
ENDBRANCH   1   2
BRANCH   1  31
ATOM     31  C   UNL A   1      31.403  31.988  26.613  1.00  0.00     0.275 C 
BRANCH  31  32
ATOM     32  O   UNL A   1      32.803  31.774  26.897  1.00  0.00    -0.458 OA
BRANCH  32  33
ATOM     33  C   UNL A   1      33.444  32.783  27.548  1.00  0.00     0.338 C 
ATOM     34  O   UNL A   1      33.052  33.929  27.687  1.00  0.00    -0.246 OA
BRANCH  33  35
ATOM     35  C   UNL A   1      34.667  32.251  28.206  1.00  0.00     0.060 A 
ATOM     36  C   UNL A   1      34.662  30.921  28.647  1.00  0.00     0.016 A 
ATOM     37  C   UNL A   1      35.841  33.009  28.315  1.00  0.00     0.016 A 
ATOM     38  C   UNL A   1      35.838  30.334  29.137  1.00  0.00     0.010 A 
ATOM     39  C   UNL A   1      37.015  32.425  28.818  1.00  0.00     0.010 A 
ATOM     40  C   UNL A   1      37.030  31.077  29.215  1.00  0.00    -0.014 A 
BRANCH  40  41
ATOM     41  C   UNL A   1      38.237  30.478  29.852  1.00  0.00     0.031 A 
ATOM     42  C   UNL A   1      38.522  30.843  31.278  1.00  0.00     0.074 A 
ATOM     43  C   UNL A   1      39.075  29.635  29.213  1.00  0.00     0.049 A 
ATOM     44  N   UNL A   1      39.437  30.377  32.089  1.00  0.00    -0.248 NA
ATOM     45  C   UNL A   1      37.662  31.883  31.862  1.00  0.00     0.031 C 
ATOM     46  C   UNL A   1      38.965  29.224  27.820  1.00  0.00     0.029 A 
ATOM     47  N   UNL A   1      40.196  28.968  29.660  1.00  0.00    -0.354 N 
ATOM     48  C   UNL A   1      39.246  31.051  33.285  1.00  0.00     0.074 A 
ATOM     49  C   UNL A   1      38.159  31.984  33.083  1.00  0.00     0.031 C 
ATOM     50  C   UNL A   1      39.951  28.358  27.527  1.00  0.00     0.029 A 
ATOM     51  C   UNL A   1      40.788  28.169  28.708  1.00  0.00     0.049 A 
ATOM     52  H   UNL A   1      40.541  29.057  30.577  1.00  0.00     0.167 HD
ATOM     53  C   UNL A   1      39.913  30.902  34.452  1.00  0.00     0.037 A 
ATOM     54  C   UNL A   1      41.881  27.380  28.780  1.00  0.00     0.037 A 
ATOM     55  C   UNL A   1      41.032  30.026  34.651  1.00  0.00     0.049 A 
ATOM     56  C   UNL A   1      42.655  27.300  30.077  1.00  0.00     0.074 A 
ATOM     57  C   UNL A   1      41.756  29.806  35.809  1.00  0.00     0.029 A 
ATOM     58  N   UNL A   1      41.618  29.254  33.659  1.00  0.00    -0.354 N 
ATOM     59  N   UNL A   1      42.387  27.841  31.240  1.00  0.00    -0.248 NA
ATOM     60  C   UNL A   1      43.888  26.495  30.066  1.00  0.00     0.031 C 
ATOM     61  C   UNL A   1      42.820  28.953  35.503  1.00  0.00     0.029 A 
ATOM     62  C   UNL A   1      42.719  28.588  34.170  1.00  0.00     0.049 A 
ATOM     63  H   UNL A   1      41.298  29.190  32.730  1.00  0.00     0.167 HD
ATOM     64  C   UNL A   1      43.389  27.409  32.102  1.00  0.00     0.074 A 
ATOM     65  C   UNL A   1      44.262  26.549  31.337  1.00  0.00     0.031 C 
ATOM     66  C   UNL A   1      43.569  27.705  33.413  1.00  0.00     0.037 A 
BRANCH  53  67
ATOM     67  C   UNL A   1      39.454  31.748  35.598  1.00  0.00     0.064 A 
ATOM     68  C   UNL A   1      38.471  31.297  36.491  1.00  0.00     0.173 A 
ATOM     69  C   UNL A   1      39.997  33.024  35.799  1.00  0.00     0.173 A 
ATOM     70  F   UNL A   1      37.907  30.091  36.322  1.00  0.00    -0.203 F 
ATOM     71  C   UNL A   1      38.027  32.108  37.530  1.00  0.00     0.198 A 
ATOM     72  C   UNL A   1      39.571  33.820  36.856  1.00  0.00     0.198 A 
ATOM     73  F   UNL A   1      40.935  33.500  34.966  1.00  0.00    -0.203 F 
ATOM     74  F   UNL A   1      37.047  31.681  38.339  1.00  0.00    -0.200 F 
ATOM     75  C   UNL A   1      38.581  33.366  37.715  1.00  0.00     0.200 A 
ATOM     76  F   UNL A   1      40.111  35.033  37.039  1.00  0.00    -0.200 F 
ATOM     77  F   UNL A   1      38.151  34.147  38.715  1.00  0.00    -0.200 F 
ENDBRANCH  53  67
BRANCH  54  78
ATOM     78  C   UNL A   1      42.347  26.586  27.605  1.00  0.00     0.064 A 
ATOM     79  C   UNL A   1      41.896  25.271  27.403  1.00  0.00     0.173 A 
ATOM     80  C   UNL A   1      43.332  27.072  26.733  1.00  0.00     0.173 A 
ATOM     81  F   UNL A   1      40.979  24.744  28.227  1.00  0.00    -0.203 F 
ATOM     82  C   UNL A   1      42.446  24.461  26.410  1.00  0.00     0.198 A 
ATOM     83  C   UNL A   1      43.857  26.271  25.719  1.00  0.00     0.198 A 
ATOM     84  F   UNL A   1      43.811  28.314  26.886  1.00  0.00    -0.203 F 
ATOM     85  F   UNL A   1      42.058  23.183  26.300  1.00  0.00    -0.200 F 
ATOM     86  C   UNL A   1      43.427  24.962  25.569  1.00  0.00     0.200 A 
ATOM     87  F   UNL A   1      44.804  26.758  24.905  1.00  0.00    -0.200 F 
ATOM     88  F   UNL A   1      43.974  24.175  24.631  1.00  0.00    -0.200 F 
ENDBRANCH  54  78
BRANCH  66  89
ATOM     89  C   UNL A   1      44.715  27.051  34.133  1.00  0.00     0.064 A 
ATOM     90  C   UNL A   1      44.600  25.781  34.718  1.00  0.00     0.173 A 
ATOM     91  C   UNL A   1      45.970  27.681  34.179  1.00  0.00     0.173 A 
ATOM     92  F   UNL A   1      43.421  25.141  34.715  1.00  0.00    -0.203 F 
ATOM     93  C   UNL A   1      45.691  25.178  35.339  1.00  0.00     0.198 A 
ATOM     94  C   UNL A   1      47.066  27.059  34.769  1.00  0.00     0.198 A 
ATOM     95  F   UNL A   1      46.139  28.892  33.629  1.00  0.00    -0.203 F 
ATOM     96  F   UNL A   1      45.545  23.983  35.931  1.00  0.00    -0.200 F 
ATOM     97  C   UNL A   1      46.925  25.810  35.355  1.00  0.00     0.200 A 
ATOM     98  F   UNL A   1      48.261  27.665  34.765  1.00  0.00    -0.200 F 
ATOM     99  F   UNL A   1      47.976  25.218  35.936  1.00  0.00    -0.200 F 
ENDBRANCH  66  89
ENDBRANCH  40  41
ENDBRANCH  33  35
ENDBRANCH  32  33
ENDBRANCH  31  32
ENDBRANCH   1  31
TORSDOF 17
ENDMDL
MODEL 2
REMARK VINA RESULT:     -12.0      1.880      2.741
REMARK SMILES COc1cc(CNc2ccc(N3CCOCC3)c(C(=O)OCCOC(=O)c3ccc(-c4c5nc(c(-c6c(F)c(F)c(F)c(F)c6F)c6ccc([nH]6)c(-c6c(F)c(F)c(F)c(F)c6F)c6nc(c(-c7c(F)c(F)c(F)c(F)c7F)c7ccc4[nH]7)C=C6)C=C5)cc3)c2)cc(Br)c1OC
REMARK SMILES IDX 22 1 21 2 19 3 20 4 18 5 8 6 9 7 90 8 10 9 11 10 7 11 6 13
REMARK SMILES IDX 5 14 3 15 4 16 94 17 92 18 91 19 93 20 2 21 1 22 95 23 96 24
REMARK SMILES IDX 12 25 13 26 17 27 14 28 16 29 15 30 23 31 24 32 25 33 26 34
REMARK SMILES IDX 27 35 28 36 89 37 29 38 88 39 30 40 31 41 32 42 82 43 33 44
REMARK SMILES IDX 87 45 81 46 83 47 34 48 86 49 80 50 79 51 35 53 67 54 47 55
REMARK SMILES IDX 66 56 48 57 51 58 65 59 84 60 49 61 50 62 64 64 85 65 52 66
REMARK SMILES IDX 36 67 37 68 45 69 38 70 39 71 43 72 46 73 40 74 41 75 44 76
REMARK SMILES IDX 42 77 68 78 69 79 77 80 70 81 71 82 75 83 78 84 72 85 73 86
REMARK SMILES IDX 76 87 74 88 53 89 54 90 62 91 55 92 56 93 60 94 63 95 57 96
REMARK SMILES IDX 58 97 61 98 59 99
REMARK H PARENT 7 12 83 52 51 63
REMARK Flexibility Score: inf
ROOT
ATOM      1  C   UNL A   1      31.822  30.948  26.062  1.00  0.00     0.275 C 
ENDROOT
BRANCH   1   2
ATOM      2  O   UNL A   1      31.057  30.003  25.303  1.00  0.00    -0.458 OA
BRANCH   2   3
ATOM      3  C   UNL A   1      31.769  29.117  24.557  1.00  0.00     0.340 C 
ATOM      4  O   UNL A   1      32.814  29.330  23.981  1.00  0.00    -0.246 OA
BRANCH   3   5
ATOM      5  C   UNL A   1      31.092  27.805  24.694  1.00  0.00     0.085 A 
ATOM      6  C   UNL A   1      31.063  25.669  25.870  1.00  0.00     0.035 A 
ATOM      7  C   UNL A   1      29.961  25.309  25.094  1.00  0.00     0.028 A 
ATOM      8  C   UNL A   1      31.641  26.910  25.627  1.00  0.00     0.043 A 
ATOM      9  C   UNL A   1      29.398  26.206  24.173  1.00  0.00     0.029 A 
ATOM     10  C   UNL A   1      29.924  27.494  23.973  1.00  0.00     0.052 A 
BRANCH   6  11
ATOM     11  N   UNL A   1      31.478  24.850  26.901  1.00  0.00    -0.381 N 
ATOM     12  H   UNL A   1      31.888  25.256  27.699  1.00  0.00     0.160 HD
BRANCH  11  13
ATOM     13  C   UNL A   1      31.331  23.404  26.843  1.00  0.00     0.149 C 
BRANCH  13  14
ATOM     14  C   UNL A   1      32.536  22.787  26.175  1.00  0.00    -0.024 A 
ATOM     15  C   UNL A   1      33.563  20.976  24.925  1.00  0.00     0.162 A 
ATOM     16  C   UNL A   1      32.438  21.558  25.518  1.00  0.00     0.056 A 
ATOM     17  C   UNL A   1      34.842  21.577  25.018  1.00  0.00     0.174 A 
ATOM     18  C   UNL A   1      34.942  22.798  25.707  1.00  0.00     0.064 A 
ATOM     19  C   UNL A   1      33.793  23.388  26.271  1.00  0.00     0.025 A 
ATOM     20  Br  UNL A   1      36.529  23.805  26.017  1.00  0.00    -0.047 Br
BRANCH  15  21
ATOM     21  O   UNL A   1      33.479  19.749  24.300  1.00  0.00    -0.493 OA
ATOM     22  C   UNL A   1      33.199  18.662  25.178  1.00  0.00     0.278 C 
ENDBRANCH  15  21
BRANCH  17  23
ATOM     23  O   UNL A   1      35.805  20.838  24.389  1.00  0.00    -0.492 OA
ATOM     24  C   UNL A   1      36.869  20.227  25.089  1.00  0.00     0.278 C 
ENDBRANCH  17  23
ENDBRANCH  13  14
ENDBRANCH  11  13
ENDBRANCH   6  11
BRANCH  10  25
ATOM     25  N   UNL A   1      29.297  28.389  23.129  1.00  0.00    -0.366 N 
ATOM     26  C   UNL A   1      29.996  28.950  21.969  1.00  0.00     0.145 C 
ATOM     27  C   UNL A   1      27.839  28.516  23.080  1.00  0.00     0.145 C 
ATOM     28  C   UNL A   1      29.508  30.358  21.627  1.00  0.00     0.181 C 
ATOM     29  C   UNL A   1      27.482  29.979  22.760  1.00  0.00     0.181 C 
ATOM     30  O   UNL A   1      28.075  30.410  21.522  1.00  0.00    -0.378 OA
ENDBRANCH  10  25
ENDBRANCH   3   5
ENDBRANCH   2   3
ENDBRANCH   1   2
BRANCH   1  31
ATOM     31  C   UNL A   1      32.424  30.233  27.274  1.00  0.00     0.275 C 
BRANCH  31  32
ATOM     32  O   UNL A   1      33.868  30.251  27.216  1.00  0.00    -0.458 OA
BRANCH  32  33
ATOM     33  C   UNL A   1      34.490  31.149  28.028  1.00  0.00     0.338 C 
ATOM     34  O   UNL A   1      34.018  32.181  28.474  1.00  0.00    -0.246 OA
BRANCH  33  35
ATOM     35  C   UNL A   1      35.823  30.620  28.422  1.00  0.00     0.060 A 
ATOM     36  C   UNL A   1      35.927  29.898  29.617  1.00  0.00     0.016 A 
ATOM     37  C   UNL A   1      36.946  30.749  27.593  1.00  0.00     0.016 A 
ATOM     38  C   UNL A   1      37.129  29.257  29.953  1.00  0.00     0.010 A 
ATOM     39  C   UNL A   1      38.153  30.117  27.936  1.00  0.00     0.010 A 
ATOM     40  C   UNL A   1      38.250  29.349  29.109  1.00  0.00    -0.014 A 
BRANCH  40  41
ATOM     41  C   UNL A   1      39.553  28.767  29.539  1.00  0.00     0.031 A 
ATOM     42  C   UNL A   1      40.285  29.453  30.653  1.00  0.00     0.074 A 
ATOM     43  C   UNL A   1      40.098  27.667  28.979  1.00  0.00     0.049 A 
ATOM     44  N   UNL A   1      41.373  29.088  31.282  1.00  0.00    -0.248 NA
ATOM     45  C   UNL A   1      39.715  30.729  31.110  1.00  0.00     0.031 C 
ATOM     46  C   UNL A   1      39.540  26.919  27.861  1.00  0.00     0.029 A 
ATOM     47  N   UNL A   1      41.256  26.982  29.280  1.00  0.00    -0.354 N 
ATOM     48  C   UNL A   1      41.603  30.078  32.225  1.00  0.00     0.074 A 
ATOM     49  C   UNL A   1      40.569  31.077  32.058  1.00  0.00     0.031 C 
ATOM     50  C   UNL A   1      40.330  25.868  27.582  1.00  0.00     0.029 A 
ATOM     51  C   UNL A   1      41.475  25.877  28.488  1.00  0.00     0.049 A 
ATOM     52  H   UNL A   1      41.872  27.260  29.996  1.00  0.00     0.167 HD
ATOM     53  C   UNL A   1      42.584  30.149  33.152  1.00  0.00     0.037 A 
ATOM     54  C   UNL A   1      42.484  24.980  28.491  1.00  0.00     0.037 A 
ATOM     55  C   UNL A   1      43.651  29.199  33.289  1.00  0.00     0.049 A 
ATOM     56  C   UNL A   1      43.611  25.134  29.487  1.00  0.00     0.074 A 
ATOM     57  C   UNL A   1      44.680  29.190  34.215  1.00  0.00     0.029 A 
ATOM     58  N   UNL A   1      43.853  28.110  32.455  1.00  0.00    -0.354 N 
ATOM     59  N   UNL A   1      43.750  26.001  30.460  1.00  0.00    -0.248 NA
ATOM     60  C   UNL A   1      44.727  24.179  29.380  1.00  0.00     0.031 C 
ATOM     61  C   UNL A   1      45.542  28.136  33.899  1.00  0.00     0.029 A 
ATOM     62  C   UNL A   1      45.013  27.446  32.819  1.00  0.00     0.049 A 
ATOM     63  H   UNL A   1      43.260  27.849  31.714  1.00  0.00     0.167 HD
ATOM     64  C   UNL A   1      44.937  25.669  31.102  1.00  0.00     0.074 A 
ATOM     65  C   UNL A   1      45.475  24.514  30.421  1.00  0.00     0.031 C 
ATOM     66  C   UNL A   1      45.530  26.275  32.160  1.00  0.00     0.037 A 
BRANCH  53  67
ATOM     67  C   UNL A   1      42.555  31.330  34.070  1.00  0.00     0.064 A 
ATOM     68  C   UNL A   1      41.806  31.316  35.256  1.00  0.00     0.173 A 
ATOM     69  C   UNL A   1      43.277  32.490  33.756  1.00  0.00     0.173 A 
ATOM     70  F   UNL A   1      41.081  30.234  35.584  1.00  0.00    -0.203 F 
ATOM     71  C   UNL A   1      41.758  32.434  36.081  1.00  0.00     0.198 A 
ATOM     72  C   UNL A   1      43.249  33.595  34.599  1.00  0.00     0.198 A 
ATOM     73  F   UNL A   1      44.003  32.552  32.629  1.00  0.00    -0.203 F 
ATOM     74  F   UNL A   1      40.992  32.419  37.181  1.00  0.00    -0.200 F 
ATOM     75  C   UNL A   1      42.484  33.570  35.755  1.00  0.00     0.200 A 
ATOM     76  F   UNL A   1      43.955  34.691  34.287  1.00  0.00    -0.200 F 
ATOM     77  F   UNL A   1      42.435  34.647  36.551  1.00  0.00    -0.200 F 
ENDBRANCH  53  67
BRANCH  54  78
ATOM     78  C   UNL A   1      42.514  23.839  27.529  1.00  0.00     0.064 A 
ATOM     79  C   UNL A   1      42.108  22.554  27.926  1.00  0.00     0.173 A 
ATOM     80  C   UNL A   1      43.054  23.977  26.242  1.00  0.00     0.173 A 
ATOM     81  F   UNL A   1      41.615  22.359  29.158  1.00  0.00    -0.203 F 
ATOM     82  C   UNL A   1      42.287  21.449  27.095  1.00  0.00     0.198 A 
ATOM     83  C   UNL A   1      43.200  22.875  25.399  1.00  0.00     0.198 A 
ATOM     84  F   UNL A   1      43.471  25.176  25.813  1.00  0.00    -0.203 F 
ATOM     85  F   UNL A   1      41.972  20.224  27.537  1.00  0.00    -0.200 F 
ATOM     86  C   UNL A   1      42.833  21.610  25.832  1.00  0.00     0.200 A 
ATOM     87  F   UNL A   1      43.728  23.034  24.177  1.00  0.00    -0.200 F 
ATOM     88  F   UNL A   1      43.029  20.544  25.043  1.00  0.00    -0.200 F 
ENDBRANCH  54  78
BRANCH  66  89
ATOM     89  C   UNL A   1      46.797  25.672  32.699  1.00  0.00     0.064 A 
ATOM     90  C   UNL A   1      48.062  26.047  32.223  1.00  0.00     0.173 A 
ATOM     91  C   UNL A   1      46.743  24.750  33.758  1.00  0.00     0.173 A 
ATOM     92  F   UNL A   1      48.171  26.912  31.204  1.00  0.00    -0.203 F 
ATOM     93  C   UNL A   1      49.223  25.507  32.772  1.00  0.00     0.198 A 
ATOM     94  C   UNL A   1      47.906  24.241  34.328  1.00  0.00     0.198 A 
ATOM     95  F   UNL A   1      45.561  24.362  34.257  1.00  0.00    -0.203 F 
ATOM     96  F   UNL A   1      50.419  25.846  32.271  1.00  0.00    -0.200 F 
ATOM     97  C   UNL A   1      49.146  24.614  33.830  1.00  0.00     0.200 A 
ATOM     98  F   UNL A   1      47.828  23.393  35.362  1.00  0.00    -0.200 F 
ATOM     99  F   UNL A   1      50.264  24.111  34.368  1.00  0.00    -0.200 F 
ENDBRANCH  66  89
ENDBRANCH  40  41
ENDBRANCH  33  35
ENDBRANCH  32  33
ENDBRANCH  31  32
ENDBRANCH   1  31
TORSDOF 17
ENDMDL
MODEL 3
REMARK VINA RESULT:     -11.6      1.290      2.283
REMARK SMILES COc1cc(CNc2ccc(N3CCOCC3)c(C(=O)OCCOC(=O)c3ccc(-c4c5nc(c(-c6c(F)c(F)c(F)c(F)c6F)c6ccc([nH]6)c(-c6c(F)c(F)c(F)c(F)c6F)c6nc(c(-c7c(F)c(F)c(F)c(F)c7F)c7ccc4[nH]7)C=C6)C=C5)cc3)c2)cc(Br)c1OC
REMARK SMILES IDX 22 1 21 2 19 3 20 4 18 5 8 6 9 7 90 8 10 9 11 10 7 11 6 13
REMARK SMILES IDX 5 14 3 15 4 16 94 17 92 18 91 19 93 20 2 21 1 22 95 23 96 24
REMARK SMILES IDX 12 25 13 26 17 27 14 28 16 29 15 30 23 31 24 32 25 33 26 34
REMARK SMILES IDX 27 35 28 36 89 37 29 38 88 39 30 40 31 41 32 42 82 43 33 44
REMARK SMILES IDX 87 45 81 46 83 47 34 48 86 49 80 50 79 51 35 53 67 54 47 55
REMARK SMILES IDX 66 56 48 57 51 58 65 59 84 60 49 61 50 62 64 64 85 65 52 66
REMARK SMILES IDX 36 67 37 68 45 69 38 70 39 71 43 72 46 73 40 74 41 75 44 76
REMARK SMILES IDX 42 77 68 78 69 79 77 80 70 81 71 82 75 83 78 84 72 85 73 86
REMARK SMILES IDX 76 87 74 88 53 89 54 90 62 91 55 92 56 93 60 94 63 95 57 96
REMARK SMILES IDX 58 97 61 98 59 99
REMARK H PARENT 7 12 83 52 51 63
REMARK Flexibility Score: inf
ROOT
ATOM      1  C   UNL A   1      32.430  30.467  26.503  1.00  0.00     0.275 C 
ENDROOT
BRANCH   1   2
ATOM      2  O   UNL A   1      31.397  30.137  25.565  1.00  0.00    -0.458 OA
BRANCH   2   3
ATOM      3  C   UNL A   1      31.773  29.375  24.505  1.00  0.00     0.340 C 
ATOM      4  O   UNL A   1      32.815  29.452  23.890  1.00  0.00    -0.246 OA
BRANCH   3   5
ATOM      5  C   UNL A   1      30.723  28.343  24.328  1.00  0.00     0.085 A 
ATOM      6  C   UNL A   1      29.971  26.109  24.952  1.00  0.00     0.035 A 
ATOM      7  C   UNL A   1      28.864  26.300  24.126  1.00  0.00     0.028 A 
ATOM      8  C   UNL A   1      30.914  27.131  25.010  1.00  0.00     0.043 A 
ATOM      9  C   UNL A   1      28.659  27.517  23.456  1.00  0.00     0.029 A 
ATOM     10  C   UNL A   1      29.564  28.588  23.568  1.00  0.00     0.052 A 
BRANCH   6  11
ATOM     11  N   UNL A   1      30.052  24.984  25.749  1.00  0.00    -0.381 N 
ATOM     12  H   UNL A   1      29.868  25.067  26.713  1.00  0.00     0.160 HD
BRANCH  11  13
ATOM     13  C   UNL A   1      30.403  23.681  25.207  1.00  0.00     0.149 C 
BRANCH  13  14
ATOM     14  C   UNL A   1      31.818  23.702  24.682  1.00  0.00    -0.024 A 
ATOM     15  C   UNL A   1      33.410  24.210  22.921  1.00  0.00     0.162 A 
ATOM     16  C   UNL A   1      32.102  24.218  23.415  1.00  0.00     0.056 A 
ATOM     17  C   UNL A   1      34.475  23.632  23.655  1.00  0.00     0.174 A 
ATOM     18  C   UNL A   1      34.179  23.085  24.914  1.00  0.00     0.064 A 
ATOM     19  C   UNL A   1      32.861  23.129  25.414  1.00  0.00     0.025 A 
ATOM     20  Br  UNL A   1      35.396  22.217  26.094  1.00  0.00    -0.047 Br
BRANCH  15  21
ATOM     21  O   UNL A   1      33.693  24.693  21.660  1.00  0.00    -0.493 OA
ATOM     22  C   UNL A   1      32.662  25.500  21.097  1.00  0.00     0.278 C 
ENDBRANCH  15  21
BRANCH  17  23
ATOM     23  O   UNL A   1      35.664  23.711  22.984  1.00  0.00    -0.492 OA
ATOM     24  C   UNL A   1      36.667  22.724  23.100  1.00  0.00     0.278 C 
ENDBRANCH  17  23
ENDBRANCH  13  14
ENDBRANCH  11  13
ENDBRANCH   6  11
BRANCH  10  25
ATOM     25  N   UNL A   1      29.293  29.804  22.973  1.00  0.00    -0.366 N 
ATOM     26  C   UNL A   1      28.960  30.982  23.780  1.00  0.00     0.145 C 
ATOM     27  C   UNL A   1      29.705  30.104  21.600  1.00  0.00     0.145 C 
ATOM     28  C   UNL A   1      28.020  31.938  23.046  1.00  0.00     0.181 C 
ATOM     29  C   UNL A   1      28.665  31.046  20.967  1.00  0.00     0.181 C 
ATOM     30  O   UNL A   1      28.510  32.254  21.731  1.00  0.00    -0.378 OA
ENDBRANCH  10  25
ENDBRANCH   3   5
ENDBRANCH   2   3
ENDBRANCH   1   2
BRANCH   1  31
ATOM     31  C   UNL A   1      32.104  31.822  27.137  1.00  0.00     0.275 C 
BRANCH  31  32
ATOM     32  O   UNL A   1      33.117  32.799  26.811  1.00  0.00    -0.458 OA
BRANCH  32  33
ATOM     33  C   UNL A   1      33.634  33.500  27.857  1.00  0.00     0.338 C 
ATOM     34  O   UNL A   1      33.174  34.512  28.357  1.00  0.00    -0.246 OA
BRANCH  33  35
ATOM     35  C   UNL A   1      34.802  32.767  28.416  1.00  0.00     0.060 A 
ATOM     36  C   UNL A   1      36.067  33.363  28.327  1.00  0.00     0.016 A 
ATOM     37  C   UNL A   1      34.657  31.552  29.101  1.00  0.00     0.016 A 
ATOM     38  C   UNL A   1      37.169  32.779  28.969  1.00  0.00     0.010 A 
ATOM     39  C   UNL A   1      35.764  30.962  29.733  1.00  0.00     0.010 A 
ATOM     40  C   UNL A   1      37.026  31.580  29.690  1.00  0.00    -0.014 A 
BRANCH  40  41
ATOM     41  C   UNL A   1      38.228  30.908  30.261  1.00  0.00     0.031 A 
ATOM     42  C   UNL A   1      38.602  31.240  31.673  1.00  0.00     0.074 A 
ATOM     43  C   UNL A   1      38.985  30.028  29.573  1.00  0.00     0.049 A 
ATOM     44  N   UNL A   1      39.529  30.716  32.434  1.00  0.00    -0.248 NA
ATOM     45  C   UNL A   1      37.831  32.319  32.309  1.00  0.00     0.031 C 
ATOM     46  C   UNL A   1      38.785  29.640  28.184  1.00  0.00     0.029 A 
ATOM     47  N   UNL A   1      40.088  29.296  29.958  1.00  0.00    -0.354 N 
ATOM     48  C   UNL A   1      39.435  31.385  33.644  1.00  0.00     0.074 A 
ATOM     49  C   UNL A   1      38.392  32.379  33.505  1.00  0.00     0.031 C 
ATOM     50  C   UNL A   1      39.706  28.725  27.834  1.00  0.00     0.029 A 
ATOM     51  C   UNL A   1      40.589  28.477  28.971  1.00  0.00     0.049 A 
ATOM     52  H   UNL A   1      40.483  29.355  30.858  1.00  0.00     0.167 HD
ATOM     53  C   UNL A   1      40.148  31.187  34.776  1.00  0.00     0.037 A 
ATOM     54  C   UNL A   1      41.638  27.628  28.981  1.00  0.00     0.037 A 
ATOM     55  C   UNL A   1      41.226  30.248  34.910  1.00  0.00     0.049 A 
ATOM     56  C   UNL A   1      42.469  27.491  30.237  1.00  0.00     0.074 A 
ATOM     57  C   UNL A   1      41.993  29.975  36.030  1.00  0.00     0.029 A 
ATOM     58  N   UNL A   1      41.719  29.458  33.884  1.00  0.00    -0.354 N 
ATOM     59  N   UNL A   1      42.290  28.032  31.417  1.00  0.00    -0.248 NA
ATOM     60  C   UNL A   1      43.654  26.620  30.158  1.00  0.00     0.031 C 
ATOM     61  C   UNL A   1      42.992  29.070  35.663  1.00  0.00     0.029 A 
ATOM     62  C   UNL A   1      42.806  28.726  34.334  1.00  0.00     0.049 A 
ATOM     63  H   UNL A   1      41.351  29.421  32.972  1.00  0.00     0.167 HD
ATOM     64  C   UNL A   1      43.307  27.536  32.224  1.00  0.00     0.074 A 
ATOM     65  C   UNL A   1      44.092  26.639  31.409  1.00  0.00     0.031 C 
ATOM     66  C   UNL A   1      43.567  27.807  33.527  1.00  0.00     0.037 A 
BRANCH  53  67
ATOM     67  C   UNL A   1      39.794  32.044  35.950  1.00  0.00     0.064 A 
ATOM     68  C   UNL A   1      40.544  33.184  36.274  1.00  0.00     0.173 A 
ATOM     69  C   UNL A   1      38.700  31.716  36.762  1.00  0.00     0.173 A 
ATOM     70  F   UNL A   1      41.613  33.522  35.537  1.00  0.00    -0.203 F 
ATOM     71  C   UNL A   1      40.226  33.951  37.390  1.00  0.00     0.198 A 
ATOM     72  C   UNL A   1      38.369  32.502  37.860  1.00  0.00     0.198 A 
ATOM     73  F   UNL A   1      37.958  30.631  36.495  1.00  0.00    -0.203 F 
ATOM     74  F   UNL A   1      40.988  35.005  37.715  1.00  0.00    -0.200 F 
ATOM     75  C   UNL A   1      39.136  33.613  38.178  1.00  0.00     0.200 A 
ATOM     76  F   UNL A   1      37.312  32.179  38.618  1.00  0.00    -0.200 F 
ATOM     77  F   UNL A   1      38.833  34.352  39.254  1.00  0.00    -0.200 F 
ENDBRANCH  53  67
BRANCH  54  78
ATOM     78  C   UNL A   1      42.002  26.824  27.778  1.00  0.00     0.064 A 
ATOM     79  C   UNL A   1      41.475  25.535  27.590  1.00  0.00     0.173 A 
ATOM     80  C   UNL A   1      42.963  27.268  26.858  1.00  0.00     0.173 A 
ATOM     81  F   UNL A   1      40.576  25.047  28.457  1.00  0.00    -0.203 F 
ATOM     82  C   UNL A   1      41.930  24.709  26.564  1.00  0.00     0.198 A 
ATOM     83  C   UNL A   1      43.393  26.452  25.812  1.00  0.00     0.198 A 
ATOM     84  F   UNL A   1      43.511  28.484  26.995  1.00  0.00    -0.203 F 
ATOM     85  F   UNL A   1      41.472  23.453  26.465  1.00  0.00    -0.200 F 
ATOM     86  C   UNL A   1      42.889  25.168  25.675  1.00  0.00     0.200 A 
ATOM     87  F   UNL A   1      44.319  26.900  24.953  1.00  0.00    -0.200 F 
ATOM     88  F   UNL A   1      43.346  24.364  24.705  1.00  0.00    -0.200 F 
ENDBRANCH  54  78
BRANCH  66  89
ATOM     89  C   UNL A   1      44.710  27.083  34.183  1.00  0.00     0.064 A 
ATOM     90  C   UNL A   1      46.004  27.621  34.230  1.00  0.00     0.173 A 
ATOM     91  C   UNL A   1      44.487  25.858  34.834  1.00  0.00     0.173 A 
ATOM     92  F   UNL A   1      46.276  28.781  33.614  1.00  0.00    -0.203 F 
ATOM     93  C   UNL A   1      47.035  26.951  34.886  1.00  0.00     0.198 A 
ATOM     94  C   UNL A   1      45.511  25.210  35.518  1.00  0.00     0.198 A 
ATOM     95  F   UNL A   1      43.267  25.301  34.827  1.00  0.00    -0.203 F 
ATOM     96  F   UNL A   1      48.275  27.463  34.879  1.00  0.00    -0.200 F 
ATOM     97  C   UNL A   1      46.786  25.753  35.537  1.00  0.00     0.200 A 
ATOM     98  F   UNL A   1      45.262  24.061  36.163  1.00  0.00    -0.200 F 
ATOM     99  F   UNL A   1      47.775  25.121  36.183  1.00  0.00    -0.200 F 
ENDBRANCH  66  89
ENDBRANCH  40  41
ENDBRANCH  33  35
ENDBRANCH  32  33
ENDBRANCH  31  32
ENDBRANCH   1  31
TORSDOF 17
ENDMDL
