MODEL 1
REMARK VINA RESULT:     -14.8      0.000      0.000
REMARK SMILES Cc1ccccc1C(=O)Nc1ccc(N2CCCCC2)cc1C(=O)OCCOC(=O)c1ccc(-c2c3nc(c(-c4c(F)c(F)c(F)c(F)c4F)c4ccc([nH]4)c(-c4c(F)c(F)c(F)c(F)c4F)c4nc(c(-c5c(F)c(F)c(F)c(F)c5F)c5ccc2[nH]5)C=C4)C=C3)cc1
REMARK SMILES IDX 26 1 25 2 23 3 24 4 22 5 11 6 12 7 13 8 21 9 14 10 10 11
REMARK SMILES IDX 8 12 9 13 7 15 1 16 2 17 3 18 4 19 6 20 5 21 15 22 16 23
REMARK SMILES IDX 20 24 17 25 19 26 18 27 27 28 28 29 29 30 30 31 31 32 32 33
REMARK SMILES IDX 93 34 33 35 92 36 34 37 35 38 36 39 86 40 37 41 91 42 85 43
REMARK SMILES IDX 87 44 38 45 90 46 84 47 83 48 39 50 71 51 51 52 70 53 52 54
REMARK SMILES IDX 55 55 69 56 88 57 53 58 54 59 68 61 89 62 56 63 40 64 41 65
REMARK SMILES IDX 49 66 42 67 43 68 47 69 50 70 44 71 45 72 48 73 46 74 72 75
REMARK SMILES IDX 73 76 81 77 74 78 75 79 79 80 82 81 76 82 77 83 80 84 78 85
REMARK SMILES IDX 57 86 58 87 66 88 59 89 60 90 64 91 67 92 61 93 62 94 65 95
REMARK SMILES IDX 63 96
REMARK H PARENT 10 14 87 49 55 60
REMARK Flexibility Score: inf
ROOT
ATOM      1  C   UNL A   1      38.090  21.646  25.600  1.00  0.00     0.275 C 
ENDROOT
BRANCH   1   2
ATOM      2  O   UNL A   1      36.777  22.244  25.838  1.00  0.00    -0.458 OA
BRANCH   2   3
ATOM      3  C   UNL A   1      36.079  22.784  24.814  1.00  0.00     0.340 C 
ATOM      4  O   UNL A   1      36.371  23.853  24.339  1.00  0.00    -0.246 OA
BRANCH   3   5
ATOM      5  C   UNL A   1      34.884  22.016  24.364  1.00  0.00     0.085 A 
ATOM      6  C   UNL A   1      33.900  22.557  23.496  1.00  0.00     0.056 A 
ATOM      7  C   UNL A   1      32.721  21.819  23.282  1.00  0.00     0.029 A 
ATOM      8  C   UNL A   1      32.593  20.516  23.739  1.00  0.00     0.028 A 
ATOM      9  C   UNL A   1      34.713  20.699  24.851  1.00  0.00     0.043 A 
ATOM     10  C   UNL A   1      33.608  19.924  24.482  1.00  0.00     0.038 A 
BRANCH   6  11
ATOM     11  N   UNL A   1      33.892  23.737  22.718  1.00  0.00    -0.321 N 
ATOM     12  C   UNL A   1      33.531  25.054  22.887  1.00  0.00     0.255 C 
ATOM     13  O   UNL A   1      33.761  25.814  21.941  1.00  0.00    -0.269 OA
ATOM     14  H   UNL A   1      34.239  23.573  21.811  1.00  0.00     0.170 HD
BRANCH  12  15
ATOM     15  C   UNL A   1      32.923  25.638  24.103  1.00  0.00     0.043 A 
ATOM     16  C   UNL A   1      30.496  24.934  23.645  1.00  0.00     0.045 C 
ATOM     17  C   UNL A   1      31.547  25.697  24.393  1.00  0.00    -0.038 A 
ATOM     18  C   UNL A   1      31.127  26.549  25.433  1.00  0.00     0.004 A 
ATOM     19  C   UNL A   1      32.050  27.246  26.218  1.00  0.00     0.000 A 
ATOM     20  C   UNL A   1      33.849  26.281  24.951  1.00  0.00     0.014 A 
ATOM     21  C   UNL A   1      33.414  27.090  25.997  1.00  0.00     0.001 A 
ENDBRANCH  12  15
ENDBRANCH   6  11
BRANCH  10  22
ATOM     22  N   UNL A   1      33.522  18.568  24.717  1.00  0.00    -0.372 N 
ATOM     23  C   UNL A   1      34.644  17.756  24.252  1.00  0.00     0.116 C 
ATOM     24  C   UNL A   1      32.721  18.053  25.815  1.00  0.00     0.116 C 
ATOM     25  C   UNL A   1      34.132  16.379  23.841  1.00  0.00     0.021 C 
ATOM     26  C   UNL A   1      32.177  16.679  25.412  1.00  0.00     0.021 C 
ATOM     27  C   UNL A   1      33.296  15.742  24.951  1.00  0.00     0.004 C 
ENDBRANCH  10  22
ENDBRANCH   3   5
ENDBRANCH   2   3
ENDBRANCH   1   2
BRANCH   1  28
ATOM     28  C   UNL A   1      39.408  22.128  26.291  1.00  0.00     0.275 C 
BRANCH  28  29
ATOM     29  O   UNL A   1      39.845  23.517  26.494  1.00  0.00    -0.458 OA
BRANCH  29  30
ATOM     30  C   UNL A   1      40.622  23.998  27.503  1.00  0.00     0.338 C 
ATOM     31  O   UNL A   1      41.216  23.318  28.324  1.00  0.00    -0.246 OA
BRANCH  30  32
ATOM     32  C   UNL A   1      40.433  25.435  27.692  1.00  0.00     0.060 A 
ATOM     33  C   UNL A   1      40.646  26.356  26.650  1.00  0.00     0.016 A 
ATOM     34  C   UNL A   1      39.879  25.802  28.913  1.00  0.00     0.016 A 
ATOM     35  C   UNL A   1      40.216  27.664  26.815  1.00  0.00     0.010 A 
ATOM     36  C   UNL A   1      39.306  27.031  29.019  1.00  0.00     0.010 A 
ATOM     37  C   UNL A   1      39.579  27.978  28.019  1.00  0.00    -0.014 A 
BRANCH  37  38
ATOM     38  C   UNL A   1      39.740  29.274  28.647  1.00  0.00     0.031 A 
ATOM     39  C   UNL A   1      38.628  30.215  28.758  1.00  0.00     0.074 A 
ATOM     40  C   UNL A   1      40.820  29.208  29.465  1.00  0.00     0.049 A 
ATOM     41  N   UNL A   1      38.788  31.458  29.036  1.00  0.00    -0.248 NA
ATOM     42  C   UNL A   1      37.227  29.847  28.547  1.00  0.00     0.031 C 
ATOM     43  C   UNL A   1      41.115  29.864  30.722  1.00  0.00     0.029 A 
ATOM     44  N   UNL A   1      41.934  28.369  29.263  1.00  0.00    -0.354 N 
ATOM     45  C   UNL A   1      37.554  31.937  29.411  1.00  0.00     0.074 A 
ATOM     46  C   UNL A   1      36.598  30.964  28.935  1.00  0.00     0.031 C 
ATOM     47  C   UNL A   1      42.414  29.646  31.018  1.00  0.00     0.029 A 
ATOM     48  C   UNL A   1      43.027  28.955  29.884  1.00  0.00     0.049 A 
ATOM     49  H   UNL A   1      41.936  27.517  28.770  1.00  0.00     0.167 HD
ATOM     50  C   UNL A   1      37.497  32.978  30.293  1.00  0.00     0.037 A 
ATOM     51  C   UNL A   1      43.985  29.458  29.049  1.00  0.00     0.037 A 
ATOM     52  C   UNL A   1      38.847  33.288  30.770  1.00  0.00     0.049 A 
ATOM     53  C   UNL A   1      43.934  30.966  29.047  1.00  0.00     0.074 A 
ATOM     54  C   UNL A   1      39.523  32.868  31.906  1.00  0.00     0.029 A 
ATOM     55  N   UNL A   1      39.820  33.744  29.884  1.00  0.00    -0.354 N 
ATOM     56  N   UNL A   1      42.870  31.661  29.344  1.00  0.00    -0.248 NA
ATOM     57  C   UNL A   1      45.089  31.799  28.748  1.00  0.00     0.031 C 
ATOM     58  C   UNL A   1      40.913  33.021  31.676  1.00  0.00     0.029 A 
ATOM     59  C   UNL A   1      41.088  33.532  30.401  1.00  0.00     0.049 A 
ATOM     60  H   UNL A   1      39.633  34.159  29.011  1.00  0.00     0.167 HD
ATOM     61  C   UNL A   1      43.180  32.989  29.342  1.00  0.00     0.074 A 
ATOM     62  C   UNL A   1      44.580  33.025  28.952  1.00  0.00     0.031 C 
ATOM     63  C   UNL A   1      42.271  33.954  29.668  1.00  0.00     0.037 A 
BRANCH  50  64
ATOM     64  C   UNL A   1      36.239  33.446  30.986  1.00  0.00     0.064 A 
ATOM     65  C   UNL A   1      35.284  34.238  30.309  1.00  0.00     0.173 A 
ATOM     66  C   UNL A   1      35.909  33.132  32.319  1.00  0.00     0.173 A 
ATOM     67  F   UNL A   1      35.421  34.550  29.015  1.00  0.00    -0.203 F 
ATOM     68  C   UNL A   1      34.141  34.741  30.935  1.00  0.00     0.198 A 
ATOM     69  C   UNL A   1      34.780  33.666  32.955  1.00  0.00     0.198 A 
ATOM     70  F   UNL A   1      36.648  32.270  33.031  1.00  0.00    -0.203 F 
ATOM     71  F   UNL A   1      33.279  35.492  30.234  1.00  0.00    -0.200 F 
ATOM     72  C   UNL A   1      33.899  34.476  32.264  1.00  0.00     0.200 A 
ATOM     73  F   UNL A   1      34.548  33.386  34.247  1.00  0.00    -0.200 F 
ATOM     74  F   UNL A   1      32.814  34.977  32.869  1.00  0.00    -0.200 F 
ENDBRANCH  50  64
BRANCH  51  75
ATOM     75  C   UNL A   1      44.248  28.599  27.842  1.00  0.00     0.064 A 
ATOM     76  C   UNL A   1      45.017  27.422  27.997  1.00  0.00     0.173 A 
ATOM     77  C   UNL A   1      43.549  28.732  26.634  1.00  0.00     0.173 A 
ATOM     78  F   UNL A   1      45.701  27.218  29.135  1.00  0.00    -0.203 F 
ATOM     79  C   UNL A   1      45.035  26.412  27.032  1.00  0.00     0.198 A 
ATOM     80  C   UNL A   1      43.571  27.720  25.665  1.00  0.00     0.198 A 
ATOM     81  F   UNL A   1      42.777  29.806  26.411  1.00  0.00    -0.203 F 
ATOM     82  F   UNL A   1      45.728  25.286  27.253  1.00  0.00    -0.200 F 
ATOM     83  C   UNL A   1      44.298  26.556  25.870  1.00  0.00     0.200 A 
ATOM     84  F   UNL A   1      42.831  27.844  24.552  1.00  0.00    -0.200 F 
ATOM     85  F   UNL A   1      44.263  25.567  24.965  1.00  0.00    -0.200 F 
ENDBRANCH  51  75
BRANCH  63  86
ATOM     86  C   UNL A   1      42.458  35.421  29.412  1.00  0.00     0.064 A 
ATOM     87  C   UNL A   1      43.321  36.228  30.168  1.00  0.00     0.173 A 
ATOM     88  C   UNL A   1      41.887  36.026  28.267  1.00  0.00     0.173 A 
ATOM     89  F   UNL A   1      44.023  35.730  31.195  1.00  0.00    -0.203 F 
ATOM     90  C   UNL A   1      43.537  37.566  29.847  1.00  0.00     0.198 A 
ATOM     91  C   UNL A   1      42.169  37.338  27.907  1.00  0.00     0.198 A 
ATOM     92  F   UNL A   1      41.070  35.352  27.444  1.00  0.00    -0.203 F 
ATOM     93  F   UNL A   1      44.323  38.313  30.633  1.00  0.00    -0.200 F 
ATOM     94  C   UNL A   1      42.975  38.117  28.711  1.00  0.00     0.200 A 
ATOM     95  F   UNL A   1      41.673  37.835  26.765  1.00  0.00    -0.200 F 
ATOM     96  F   UNL A   1      43.229  39.388  28.379  1.00  0.00    -0.200 F 
ENDBRANCH  63  86
ENDBRANCH  37  38
ENDBRANCH  30  32
ENDBRANCH  29  30
ENDBRANCH  28  29
ENDBRANCH   1  28
TORSDOF 14
ENDMDL
MODEL 2
REMARK VINA RESULT:     -14.7      4.165     10.514
REMARK SMILES Cc1ccccc1C(=O)Nc1ccc(N2CCCCC2)cc1C(=O)OCCOC(=O)c1ccc(-c2c3nc(c(-c4c(F)c(F)c(F)c(F)c4F)c4ccc([nH]4)c(-c4c(F)c(F)c(F)c(F)c4F)c4nc(c(-c5c(F)c(F)c(F)c(F)c5F)c5ccc2[nH]5)C=C4)C=C3)cc1
REMARK SMILES IDX 26 1 25 2 23 3 24 4 22 5 11 6 12 7 13 8 21 9 14 10 10 11
REMARK SMILES IDX 8 12 9 13 7 15 1 16 2 17 3 18 4 19 6 20 5 21 15 22 16 23
REMARK SMILES IDX 20 24 17 25 19 26 18 27 27 28 28 29 29 30 30 31 31 32 32 33
REMARK SMILES IDX 93 34 33 35 92 36 34 37 35 38 36 39 86 40 37 41 91 42 85 43
REMARK SMILES IDX 87 44 38 45 90 46 84 47 83 48 39 50 71 51 51 52 70 53 52 54
REMARK SMILES IDX 55 55 69 56 88 57 53 58 54 59 68 61 89 62 56 63 40 64 41 65
REMARK SMILES IDX 49 66 42 67 43 68 47 69 50 70 44 71 45 72 48 73 46 74 72 75
REMARK SMILES IDX 73 76 81 77 74 78 75 79 79 80 82 81 76 82 77 83 80 84 78 85
REMARK SMILES IDX 57 86 58 87 66 88 59 89 60 90 64 91 67 92 61 93 62 94 65 95
REMARK SMILES IDX 63 96
REMARK H PARENT 10 14 87 49 55 60
REMARK Flexibility Score: inf
ROOT
ATOM      1  C   UNL A   1      34.250  28.732  27.496  1.00  0.00     0.275 C 
ENDROOT
BRANCH   1   2
ATOM      2  O   UNL A   1      33.080  28.119  26.868  1.00  0.00    -0.458 OA
BRANCH   2   3
ATOM      3  C   UNL A   1      33.014  27.998  25.523  1.00  0.00     0.340 C 
ATOM      4  O   UNL A   1      33.998  28.061  24.830  1.00  0.00    -0.246 OA
BRANCH   3   5
ATOM      5  C   UNL A   1      31.645  27.863  24.948  1.00  0.00     0.085 A 
ATOM      6  C   UNL A   1      30.815  26.737  25.188  1.00  0.00     0.056 A 
ATOM      7  C   UNL A   1      29.622  26.620  24.451  1.00  0.00     0.029 A 
ATOM      8  C   UNL A   1      29.159  27.660  23.659  1.00  0.00     0.028 A 
ATOM      9  C   UNL A   1      31.170  28.893  24.105  1.00  0.00     0.043 A 
ATOM     10  C   UNL A   1      29.901  28.827  23.519  1.00  0.00     0.038 A 
BRANCH   6  11
ATOM     11  N   UNL A   1      30.933  25.672  26.109  1.00  0.00    -0.321 N 
ATOM     12  C   UNL A   1      31.764  24.592  26.302  1.00  0.00     0.255 C 
ATOM     13  O   UNL A   1      31.560  23.914  27.315  1.00  0.00    -0.269 OA
ATOM     14  H   UNL A   1      30.232  25.715  26.800  1.00  0.00     0.170 HD
BRANCH  12  15
ATOM     15  C   UNL A   1      32.886  24.192  25.425  1.00  0.00     0.043 A 
ATOM     16  C   UNL A   1      31.490  23.158  23.533  1.00  0.00     0.045 C 
ATOM     17  C   UNL A   1      32.781  23.441  24.239  1.00  0.00    -0.038 A 
ATOM     18  C   UNL A   1      33.961  22.894  23.698  1.00  0.00     0.004 A 
ATOM     19  C   UNL A   1      35.211  23.162  24.262  1.00  0.00     0.000 A 
ATOM     20  C   UNL A   1      34.157  24.523  25.938  1.00  0.00     0.014 A 
ATOM     21  C   UNL A   1      35.314  24.002  25.366  1.00  0.00     0.001 A 
ENDBRANCH  12  15
ENDBRANCH   6  11
BRANCH  10  22
ATOM     22  N   UNL A   1      29.295  29.902  22.904  1.00  0.00    -0.372 N 
ATOM     23  C   UNL A   1      29.089  31.091  23.729  1.00  0.00     0.116 C 
ATOM     24  C   UNL A   1      29.380  30.081  21.465  1.00  0.00     0.116 C 
ATOM     25  C   UNL A   1      27.818  31.804  23.277  1.00  0.00     0.021 C 
ATOM     26  C   UNL A   1      28.100  30.775  20.988  1.00  0.00     0.021 C 
ATOM     27  C   UNL A   1      27.830  32.062  21.771  1.00  0.00     0.004 C 
ENDBRANCH  10  22
ENDBRANCH   3   5
ENDBRANCH   2   3
ENDBRANCH   1   2
BRANCH   1  28
ATOM     28  C   UNL A   1      34.520  30.273  27.523  1.00  0.00     0.275 C 
BRANCH  28  29
ATOM     29  O   UNL A   1      35.824  30.946  27.431  1.00  0.00    -0.458 OA
BRANCH  29  30
ATOM     30  C   UNL A   1      36.671  31.249  28.453  1.00  0.00     0.338 C 
ATOM     31  O   UNL A   1      36.843  32.362  28.923  1.00  0.00    -0.246 OA
BRANCH  30  32
ATOM     32  C   UNL A   1      37.587  30.147  28.739  1.00  0.00     0.060 A 
ATOM     33  C   UNL A   1      37.388  29.279  29.829  1.00  0.00     0.016 A 
ATOM     34  C   UNL A   1      38.564  29.926  27.777  1.00  0.00     0.016 A 
ATOM     35  C   UNL A   1      38.140  28.116  29.904  1.00  0.00     0.010 A 
ATOM     36  C   UNL A   1      39.184  28.716  27.750  1.00  0.00     0.010 A 
ATOM     37  C   UNL A   1      39.050  27.878  28.869  1.00  0.00    -0.014 A 
BRANCH  37  38
ATOM     38  C   UNL A   1      40.323  27.231  29.112  1.00  0.00     0.031 A 
ATOM     39  C   UNL A   1      40.640  25.926  28.538  1.00  0.00     0.074 A 
ATOM     40  C   UNL A   1      41.215  28.188  29.470  1.00  0.00     0.049 A 
ATOM     41  N   UNL A   1      41.614  25.197  28.950  1.00  0.00    -0.248 NA
ATOM     42  C   UNL A   1      39.877  25.307  27.452  1.00  0.00     0.031 C 
ATOM     43  C   UNL A   1      42.641  28.304  29.249  1.00  0.00     0.029 A 
ATOM     44  N   UNL A   1      40.885  29.388  30.133  1.00  0.00    -0.354 N 
ATOM     45  C   UNL A   1      41.835  24.251  27.975  1.00  0.00     0.074 A 
ATOM     46  C   UNL A   1      40.645  24.249  27.158  1.00  0.00     0.031 C 
ATOM     47  C   UNL A   1      43.104  29.324  30.004  1.00  0.00     0.029 A 
ATOM     48  C   UNL A   1      42.005  29.805  30.839  1.00  0.00     0.049 A 
ATOM     49  H   UNL A   1      40.017  29.849  30.098  1.00  0.00     0.167 HD
ATOM     50  C   UNL A   1      43.097  23.751  27.825  1.00  0.00     0.037 A 
ATOM     51  C   UNL A   1      41.918  29.709  32.199  1.00  0.00     0.037 A 
ATOM     52  C   UNL A   1      44.017  24.472  28.707  1.00  0.00     0.049 A 
ATOM     53  C   UNL A   1      42.769  28.567  32.697  1.00  0.00     0.074 A 
ATOM     54  C   UNL A   1      44.837  25.563  28.460  1.00  0.00     0.029 A 
ATOM     55  N   UNL A   1      43.868  24.403  30.090  1.00  0.00    -0.354 N 
ATOM     56  N   UNL A   1      43.102  27.534  31.971  1.00  0.00    -0.248 NA
ATOM     57  C   UNL A   1      43.338  28.524  34.035  1.00  0.00     0.031 C 
ATOM     58  C   UNL A   1      45.134  26.183  29.699  1.00  0.00     0.029 A 
ATOM     59  C   UNL A   1      44.496  25.475  30.702  1.00  0.00     0.049 A 
ATOM     60  H   UNL A   1      43.383  23.690  30.565  1.00  0.00     0.167 HD
ATOM     61  C   UNL A   1      43.949  26.735  32.679  1.00  0.00     0.074 A 
ATOM     62  C   UNL A   1      44.059  27.393  33.971  1.00  0.00     0.031 C 
ATOM     63  C   UNL A   1      44.503  25.604  32.151  1.00  0.00     0.037 A 
BRANCH  50  64
ATOM     64  C   UNL A   1      43.550  22.907  26.656  1.00  0.00     0.064 A 
ATOM     65  C   UNL A   1      43.210  21.539  26.568  1.00  0.00     0.173 A 
ATOM     66  C   UNL A   1      44.313  23.398  25.578  1.00  0.00     0.173 A 
ATOM     67  F   UNL A   1      42.422  20.951  27.477  1.00  0.00    -0.203 F 
ATOM     68  C   UNL A   1      43.663  20.713  25.536  1.00  0.00     0.198 A 
ATOM     69  C   UNL A   1      44.795  22.561  24.562  1.00  0.00     0.198 A 
ATOM     70  F   UNL A   1      44.581  24.706  25.456  1.00  0.00    -0.203 F 
ATOM     71  F   UNL A   1      43.306  19.420  25.518  1.00  0.00    -0.200 F 
ATOM     72  C   UNL A   1      44.475  21.217  24.544  1.00  0.00     0.200 A 
ATOM     73  F   UNL A   1      45.572  23.069  23.593  1.00  0.00    -0.200 F 
ATOM     74  F   UNL A   1      44.927  20.420  23.568  1.00  0.00    -0.200 F 
ENDBRANCH  50  64
BRANCH  51  75
ATOM     75  C   UNL A   1      40.567  30.085  32.748  1.00  0.00     0.064 A 
ATOM     76  C   UNL A   1      40.206  31.451  32.791  1.00  0.00     0.173 A 
ATOM     77  C   UNL A   1      39.535  29.159  32.955  1.00  0.00     0.173 A 
ATOM     78  F   UNL A   1      41.139  32.395  32.585  1.00  0.00    -0.203 F 
ATOM     79  C   UNL A   1      38.882  31.866  32.966  1.00  0.00     0.198 A 
ATOM     80  C   UNL A   1      38.208  29.577  33.135  1.00  0.00     0.198 A 
ATOM     81  F   UNL A   1      39.783  27.843  32.910  1.00  0.00    -0.203 F 
ATOM     82  F   UNL A   1      38.580  33.172  32.935  1.00  0.00    -0.200 F 
ATOM     83  C   UNL A   1      37.881  30.925  33.124  1.00  0.00     0.200 A 
ATOM     84  F   UNL A   1      37.231  28.665  33.255  1.00  0.00    -0.200 F 
ATOM     85  F   UNL A   1      36.601  31.312  33.234  1.00  0.00    -0.200 F 
ENDBRANCH  51  75
BRANCH  63  86
ATOM     86  C   UNL A   1      45.202  24.545  32.952  1.00  0.00     0.064 A 
ATOM     87  C   UNL A   1      46.481  24.716  33.501  1.00  0.00     0.173 A 
ATOM     88  C   UNL A   1      44.514  23.369  33.337  1.00  0.00     0.173 A 
ATOM     89  F   UNL A   1      47.174  25.849  33.318  1.00  0.00    -0.203 F 
ATOM     90  C   UNL A   1      47.063  23.746  34.313  1.00  0.00     0.198 A 
ATOM     91  C   UNL A   1      45.069  22.442  34.211  1.00  0.00     0.198 A 
ATOM     92  F   UNL A   1      43.272  23.103  32.906  1.00  0.00    -0.203 F 
ATOM     93  F   UNL A   1      48.311  23.927  34.765  1.00  0.00    -0.200 F 
ATOM     94  C   UNL A   1      46.354  22.618  34.680  1.00  0.00     0.200 A 
ATOM     95  F   UNL A   1      44.342  21.390  34.613  1.00  0.00    -0.200 F 
ATOM     96  F   UNL A   1      46.899  21.715  35.504  1.00  0.00    -0.200 F 
ENDBRANCH  63  86
ENDBRANCH  37  38
ENDBRANCH  30  32
ENDBRANCH  29  30
ENDBRANCH  28  29
ENDBRANCH   1  28
TORSDOF 14
ENDMDL
MODEL 3
REMARK VINA RESULT:     -14.4      3.445      9.219
REMARK SMILES Cc1ccccc1C(=O)Nc1ccc(N2CCCCC2)cc1C(=O)OCCOC(=O)c1ccc(-c2c3nc(c(-c4c(F)c(F)c(F)c(F)c4F)c4ccc([nH]4)c(-c4c(F)c(F)c(F)c(F)c4F)c4nc(c(-c5c(F)c(F)c(F)c(F)c5F)c5ccc2[nH]5)C=C4)C=C3)cc1
REMARK SMILES IDX 26 1 25 2 23 3 24 4 22 5 11 6 12 7 13 8 21 9 14 10 10 11
REMARK SMILES IDX 8 12 9 13 7 15 1 16 2 17 3 18 4 19 6 20 5 21 15 22 16 23
REMARK SMILES IDX 20 24 17 25 19 26 18 27 27 28 28 29 29 30 30 31 31 32 32 33
REMARK SMILES IDX 93 34 33 35 92 36 34 37 35 38 36 39 86 40 37 41 91 42 85 43
REMARK SMILES IDX 87 44 38 45 90 46 84 47 83 48 39 50 71 51 51 52 70 53 52 54
REMARK SMILES IDX 55 55 69 56 88 57 53 58 54 59 68 61 89 62 56 63 40 64 41 65
REMARK SMILES IDX 49 66 42 67 43 68 47 69 50 70 44 71 45 72 48 73 46 74 72 75
REMARK SMILES IDX 73 76 81 77 74 78 75 79 79 80 82 81 76 82 77 83 80 84 78 85
REMARK SMILES IDX 57 86 58 87 66 88 59 89 60 90 64 91 67 92 61 93 62 94 65 95
REMARK SMILES IDX 63 96
REMARK H PARENT 10 14 87 49 55 60
REMARK Flexibility Score: inf
ROOT
ATOM      1  C   UNL A   1      34.076  28.517  26.979  1.00  0.00     0.275 C 
ENDROOT
BRANCH   1   2
ATOM      2  O   UNL A   1      33.176  27.546  26.359  1.00  0.00    -0.458 OA
BRANCH   2   3
ATOM      3  C   UNL A   1      33.643  26.680  25.432  1.00  0.00     0.340 C 
ATOM      4  O   UNL A   1      33.912  27.032  24.311  1.00  0.00    -0.246 OA
BRANCH   3   5
ATOM      5  C   UNL A   1      33.726  25.253  25.857  1.00  0.00     0.085 A 
ATOM      6  C   UNL A   1      32.661  24.579  26.509  1.00  0.00     0.056 A 
ATOM      7  C   UNL A   1      32.908  23.297  27.035  1.00  0.00     0.029 A 
ATOM      8  C   UNL A   1      34.086  22.619  26.760  1.00  0.00     0.028 A 
ATOM      9  C   UNL A   1      34.934  24.556  25.623  1.00  0.00     0.043 A 
ATOM     10  C   UNL A   1      35.088  23.220  26.008  1.00  0.00     0.038 A 
BRANCH   6  11
ATOM     11  N   UNL A   1      31.309  24.941  26.703  1.00  0.00    -0.321 N 
ATOM     12  C   UNL A   1      30.297  25.498  25.955  1.00  0.00     0.255 C 
ATOM     13  O   UNL A   1      29.192  25.584  26.500  1.00  0.00    -0.269 OA
ATOM     14  H   UNL A   1      31.009  24.738  27.619  1.00  0.00     0.170 HD
BRANCH  12  15
ATOM     15  C   UNL A   1      30.411  25.973  24.558  1.00  0.00     0.043 A 
ATOM     16  C   UNL A   1      30.873  23.698  23.459  1.00  0.00     0.045 C 
ATOM     17  C   UNL A   1      30.789  25.195  23.448  1.00  0.00    -0.038 A 
ATOM     18  C   UNL A   1      31.140  25.865  22.261  1.00  0.00     0.004 A 
ATOM     19  C   UNL A   1      31.030  27.254  22.151  1.00  0.00     0.000 A 
ATOM     20  C   UNL A   1      30.225  27.364  24.412  1.00  0.00     0.014 A 
ATOM     21  C   UNL A   1      30.543  28.003  23.218  1.00  0.00     0.001 A 
ENDBRANCH  12  15
ENDBRANCH   6  11
BRANCH  10  22
ATOM     22  N   UNL A   1      36.133  22.426  25.584  1.00  0.00    -0.372 N 
ATOM     23  C   UNL A   1      35.783  21.287  24.738  1.00  0.00     0.116 C 
ATOM     24  C   UNL A   1      37.479  22.965  25.473  1.00  0.00     0.116 C 
ATOM     25  C   UNL A   1      36.759  20.145  25.001  1.00  0.00     0.021 C 
ATOM     26  C   UNL A   1      38.475  21.837  25.758  1.00  0.00     0.021 C 
ATOM     27  C   UNL A   1      38.209  20.612  24.878  1.00  0.00     0.004 C 
ENDBRANCH  10  22
ENDBRANCH   3   5
ENDBRANCH   2   3
ENDBRANCH   1   2
BRANCH   1  28
ATOM     28  C   UNL A   1      33.875  30.067  26.904  1.00  0.00     0.275 C 
BRANCH  28  29
ATOM     29  O   UNL A   1      34.289  31.064  27.903  1.00  0.00    -0.458 OA
BRANCH  29  30
ATOM     30  C   UNL A   1      35.512  31.651  28.024  1.00  0.00     0.338 C 
ATOM     31  O   UNL A   1      35.802  32.768  27.627  1.00  0.00    -0.246 OA
BRANCH  30  32
ATOM     32  C   UNL A   1      36.538  30.685  28.413  1.00  0.00     0.060 A 
ATOM     33  C   UNL A   1      36.501  30.023  29.654  1.00  0.00     0.016 A 
ATOM     34  C   UNL A   1      37.448  30.357  27.416  1.00  0.00     0.016 A 
ATOM     35  C   UNL A   1      37.353  28.948  29.862  1.00  0.00     0.010 A 
ATOM     36  C   UNL A   1      38.164  29.208  27.546  1.00  0.00     0.010 A 
ATOM     37  C   UNL A   1      38.191  28.584  28.805  1.00  0.00    -0.014 A 
BRANCH  37  38
ATOM     38  C   UNL A   1      39.530  28.081  29.036  1.00  0.00     0.031 A 
ATOM     39  C   UNL A   1      39.913  26.723  28.659  1.00  0.00     0.074 A 
ATOM     40  C   UNL A   1      40.362  29.146  29.150  1.00  0.00     0.049 A 
ATOM     41  N   UNL A   1      40.974  26.147  29.097  1.00  0.00    -0.248 NA
ATOM     42  C   UNL A   1      39.125  25.874  27.763  1.00  0.00     0.031 C 
ATOM     43  C   UNL A   1      41.751  29.324  28.786  1.00  0.00     0.029 A 
ATOM     44  N   UNL A   1      39.982  30.415  29.632  1.00  0.00    -0.354 N 
ATOM     45  C   UNL A   1      41.200  25.065  28.276  1.00  0.00     0.074 A 
ATOM     46  C   UNL A   1      39.955  24.838  27.580  1.00  0.00     0.031 C 
ATOM     47  C   UNL A   1      42.182  30.488  29.318  1.00  0.00     0.029 A 
ATOM     48  C   UNL A   1      41.112  31.027  30.157  1.00  0.00     0.049 A 
ATOM     49  H   UNL A   1      39.077  30.801  29.600  1.00  0.00     0.167 HD
ATOM     50  C   UNL A   1      42.484  24.638  28.098  1.00  0.00     0.037 A 
ATOM     51  C   UNL A   1      41.138  31.159  31.517  1.00  0.00     0.037 A 
ATOM     52  C   UNL A   1      43.404  25.564  28.763  1.00  0.00     0.049 A 
ATOM     53  C   UNL A   1      42.118  30.183  32.118  1.00  0.00     0.074 A 
ATOM     54  C   UNL A   1      44.107  26.652  28.267  1.00  0.00     0.029 A 
ATOM     55  N   UNL A   1      43.367  25.722  30.146  1.00  0.00    -0.354 N 
ATOM     56  N   UNL A   1      42.482  29.068  31.545  1.00  0.00    -0.248 NA
ATOM     57  C   UNL A   1      42.790  30.412  33.388  1.00  0.00     0.031 C 
ATOM     58  C   UNL A   1      44.444  27.495  29.355  1.00  0.00     0.029 A 
ATOM     59  C   UNL A   1      43.947  26.926  30.515  1.00  0.00     0.049 A 
ATOM     60  H   UNL A   1      42.983  25.069  30.774  1.00  0.00     0.167 HD
ATOM     61  C   UNL A   1      43.446  28.465  32.297  1.00  0.00     0.074 A 
ATOM     62  C   UNL A   1      43.597  29.340  33.447  1.00  0.00     0.031 C 
ATOM     63  C   UNL A   1      44.053  27.302  31.915  1.00  0.00     0.037 A 
BRANCH  50  64
ATOM     64  C   UNL A   1      42.918  23.641  27.049  1.00  0.00     0.064 A 
ATOM     65  C   UNL A   1      42.650  22.262  27.198  1.00  0.00     0.173 A 
ATOM     66  C   UNL A   1      43.591  23.988  25.860  1.00  0.00     0.173 A 
ATOM     67  F   UNL A   1      41.950  21.791  28.236  1.00  0.00    -0.203 F 
ATOM     68  C   UNL A   1      43.090  21.304  26.281  1.00  0.00     0.198 A 
ATOM     69  C   UNL A   1      44.061  23.024  24.959  1.00  0.00     0.198 A 
ATOM     70  F   UNL A   1      43.777  25.271  25.519  1.00  0.00    -0.203 F 
ATOM     71  F   UNL A   1      42.807  20.009  26.488  1.00  0.00    -0.200 F 
ATOM     72  C   UNL A   1      43.816  21.681  25.172  1.00  0.00     0.200 A 
ATOM     73  F   UNL A   1      44.752  23.406  23.875  1.00  0.00    -0.200 F 
ATOM     74  F   UNL A   1      44.256  20.760  24.306  1.00  0.00    -0.200 F 
ENDBRANCH  50  64
BRANCH  51  75
ATOM     75  C   UNL A   1      39.805  31.527  32.114  1.00  0.00     0.064 A 
ATOM     76  C   UNL A   1      39.331  32.850  31.960  1.00  0.00     0.173 A 
ATOM     77  C   UNL A   1      38.876  30.579  32.566  1.00  0.00     0.173 A 
ATOM     78  F   UNL A   1      40.161  33.808  31.515  1.00  0.00    -0.203 F 
ATOM     79  C   UNL A   1      37.994  33.192  32.182  1.00  0.00     0.198 A 
ATOM     80  C   UNL A   1      37.536  30.925  32.793  1.00  0.00     0.198 A 
ATOM     81  F   UNL A   1      39.234  29.297  32.720  1.00  0.00    -0.203 F 
ATOM     82  F   UNL A   1      37.578  34.447  31.960  1.00  0.00    -0.200 F 
ATOM     83  C   UNL A   1      37.093  32.223  32.585  1.00  0.00     0.200 A 
ATOM     84  F   UNL A   1      36.654  29.980  33.152  1.00  0.00    -0.200 F 
ATOM     85  F   UNL A   1      35.797  32.530  32.744  1.00  0.00    -0.200 F 
ENDBRANCH  51  75
BRANCH  63  86
ATOM     86  C   UNL A   1      44.899  26.449  32.815  1.00  0.00     0.064 A 
ATOM     87  C   UNL A   1      44.367  25.647  33.835  1.00  0.00     0.173 A 
ATOM     88  C   UNL A   1      46.280  26.285  32.554  1.00  0.00     0.173 A 
ATOM     89  F   UNL A   1      43.051  25.615  34.085  1.00  0.00    -0.203 F 
ATOM     90  C   UNL A   1      45.172  24.800  34.593  1.00  0.00     0.198 A 
ATOM     91  C   UNL A   1      47.064  25.381  33.260  1.00  0.00     0.198 A 
ATOM     92  F   UNL A   1      46.902  26.970  31.582  1.00  0.00    -0.203 F 
ATOM     93  F   UNL A   1      44.630  24.099  35.597  1.00  0.00    -0.200 F 
ATOM     94  C   UNL A   1      46.515  24.655  34.298  1.00  0.00     0.200 A 
ATOM     95  F   UNL A   1      48.346  25.200  32.915  1.00  0.00    -0.200 F 
ATOM     96  F   UNL A   1      47.272  23.800  34.995  1.00  0.00    -0.200 F 
ENDBRANCH  63  86
ENDBRANCH  37  38
ENDBRANCH  30  32
ENDBRANCH  29  30
ENDBRANCH  28  29
ENDBRANCH   1  28
TORSDOF 14
ENDMDL
