MODEL 1
REMARK VINA RESULT:     -13.0      0.000      0.000
REMARK SMILES Cc1cc(Br)cc2c1O[C@H](C(F)(F)F)C(C(=O)OCCOC(=O)c1ccc(-c3c4nc(c(-c5c(F)c(F)c(F)c(F)c5F)c5ccc([nH]5)c(-c5c(F)c(F)c(F)c(F)c5F)c5nc(c(-c6c(F)c(F)c(F)c(F)c6F)c6ccc3[nH]6)C=C5)C=C4)cc1)=C2
REMARK SMILES IDX 20 1 19 2 18 3 16 4 17 5 15 6 1 7 2 8 3 9 8 10 4 11 7 12
REMARK SMILES IDX 9 13 5 14 6 15 87 16 10 17 11 18 12 19 13 20 14 21 21 22
REMARK SMILES IDX 22 23 23 24 24 25 25 26 86 27 26 28 85 29 27 30 28 31 29 32
REMARK SMILES IDX 79 33 30 34 84 35 78 36 80 37 31 38 83 39 77 40 76 41 32 43
REMARK SMILES IDX 64 44 44 45 63 46 45 47 48 48 62 49 81 50 46 51 47 52 61 54
REMARK SMILES IDX 82 55 49 56 33 57 34 58 42 59 35 60 36 61 40 62 43 63 37 64
REMARK SMILES IDX 38 65 41 66 39 67 65 68 66 69 74 70 67 71 68 72 72 73 75 74
REMARK SMILES IDX 69 75 70 76 73 77 71 78 50 79 51 80 59 81 52 82 53 83 57 84
REMARK SMILES IDX 60 85 54 86 55 87 58 88 56 89
REMARK H PARENT 80 42 48 53
REMARK Flexibility Score: inf
ROOT
ATOM      1  C   UNL A   1      31.791  30.075  25.387  1.00  0.00     0.275 C 
ENDROOT
BRANCH   1   2
ATOM      2  C   UNL A   1      31.448  28.660  24.917  1.00  0.00     0.275 C 
BRANCH   2   3
ATOM      3  O   UNL A   1      32.285  27.672  25.560  1.00  0.00    -0.459 OA
BRANCH   3   4
ATOM      4  C   UNL A   1      31.629  26.743  26.290  1.00  0.00     0.338 C 
ATOM      5  O   UNL A   1      30.751  26.949  27.114  1.00  0.00    -0.246 OA
BRANCH   4   6
ATOM      6  C   UNL A   1      32.093  25.386  25.948  1.00  0.00     0.087 C 
ATOM      7  C   UNL A   1      32.659  20.701  23.869  1.00  0.00     0.048 C 
ATOM      8  C   UNL A   1      33.546  21.738  24.496  1.00  0.00    -0.007 A 
ATOM      9  C   UNL A   1      34.929  21.488  24.565  1.00  0.00     0.023 A 
ATOM     10  C   UNL A   1      33.035  22.927  25.039  1.00  0.00     0.130 A 
ATOM     11  C   UNL A   1      35.785  22.414  25.155  1.00  0.00     0.019 A 
ATOM     12  C   UNL A   1      33.907  23.856  25.612  1.00  0.00     0.019 A 
ATOM     13  O   UNL A   1      31.680  23.116  25.000  1.00  0.00    -0.475 OA
ATOM     14  Br  UNL A   1      37.643  22.072  25.233  1.00  0.00    -0.051 Br
ATOM     15  C   UNL A   1      35.282  23.597  25.680  1.00  0.00     0.027 A 
ATOM     16  C   UNL A   1      33.393  25.117  26.101  1.00  0.00     0.027 C 
ATOM     17  C   UNL A   1      31.133  24.432  25.301  1.00  0.00     0.316 C 
BRANCH  17  18
ATOM     18  C   UNL A   1      30.537  25.030  24.016  1.00  0.00     0.430 C 
ATOM     19  F   UNL A   1      31.476  25.686  23.294  1.00  0.00    -0.167 F 
ATOM     20  F   UNL A   1      30.033  24.064  23.208  1.00  0.00    -0.167 F 
ATOM     21  F   UNL A   1      29.537  25.903  24.275  1.00  0.00    -0.167 F 
ENDBRANCH  17  18
ENDBRANCH   4   6
ENDBRANCH   3   4
ENDBRANCH   2   3
ENDBRANCH   1   2
BRANCH   1  22
ATOM     22  O   UNL A   1      32.403  30.039  26.691  1.00  0.00    -0.458 OA
BRANCH  22  23
ATOM     23  C   UNL A   1      32.971  31.198  27.089  1.00  0.00     0.338 C 
ATOM     24  O   UNL A   1      32.436  32.286  27.210  1.00  0.00    -0.246 OA
BRANCH  23  25
ATOM     25  C   UNL A   1      34.374  30.976  27.473  1.00  0.00     0.060 A 
ATOM     26  C   UNL A   1      34.804  29.671  27.668  1.00  0.00     0.016 A 
ATOM     27  C   UNL A   1      35.181  32.040  27.864  1.00  0.00     0.016 A 
ATOM     28  C   UNL A   1      35.945  29.420  28.422  1.00  0.00     0.010 A 
ATOM     29  C   UNL A   1      36.416  31.780  28.475  1.00  0.00     0.010 A 
ATOM     30  C   UNL A   1      36.789  30.467  28.817  1.00  0.00    -0.014 A 
BRANCH  30  31
ATOM     31  C   UNL A   1      38.026  30.185  29.607  1.00  0.00     0.031 A 
ATOM     32  C   UNL A   1      39.140  29.355  29.014  1.00  0.00     0.074 A 
ATOM     33  C   UNL A   1      38.176  30.695  30.848  1.00  0.00     0.049 A 
ATOM     34  N   UNL A   1      40.190  28.835  29.602  1.00  0.00    -0.248 NA
ATOM     35  C   UNL A   1      39.059  29.057  27.574  1.00  0.00     0.031 C 
ATOM     36  C   UNL A   1      37.216  31.564  31.532  1.00  0.00     0.029 A 
ATOM     37  N   UNL A   1      39.200  30.567  31.757  1.00  0.00    -0.354 N 
ATOM     38  C   UNL A   1      40.855  28.106  28.623  1.00  0.00     0.074 A 
ATOM     39  C   UNL A   1      40.090  28.240  27.403  1.00  0.00     0.031 C 
ATOM     40  C   UNL A   1      37.719  31.941  32.715  1.00  0.00     0.029 A 
ATOM     41  C   UNL A   1      38.977  31.242  32.934  1.00  0.00     0.049 A 
ATOM     42  H   UNL A   1      40.014  30.043  31.581  1.00  0.00     0.167 HD
ATOM     43  C   UNL A   1      42.001  27.393  28.735  1.00  0.00     0.037 A 
ATOM     44  C   UNL A   1      39.671  31.257  34.089  1.00  0.00     0.037 A 
ATOM     45  C   UNL A   1      42.795  27.319  29.937  1.00  0.00     0.049 A 
ATOM     46  C   UNL A   1      40.905  30.409  34.207  1.00  0.00     0.074 A 
ATOM     47  C   UNL A   1      43.975  26.629  30.147  1.00  0.00     0.029 A 
ATOM     48  N   UNL A   1      42.499  27.977  31.121  1.00  0.00    -0.354 N 
ATOM     49  N   UNL A   1      41.483  29.662  33.298  1.00  0.00    -0.248 NA
ATOM     50  C   UNL A   1      41.569  30.385  35.517  1.00  0.00     0.031 C 
ATOM     51  C   UNL A   1      44.372  26.834  31.471  1.00  0.00     0.029 A 
ATOM     52  C   UNL A   1      43.467  27.694  32.070  1.00  0.00     0.049 A 
ATOM     53  H   UNL A   1      41.718  28.559  31.265  1.00  0.00     0.167 HD
ATOM     54  C   UNL A   1      42.582  29.088  33.920  1.00  0.00     0.074 A 
ATOM     55  C   UNL A   1      42.606  29.593  35.277  1.00  0.00     0.031 C 
ATOM     56  C   UNL A   1      43.482  28.212  33.414  1.00  0.00     0.037 A 
BRANCH  43  57
ATOM     57  C   UNL A   1      42.477  26.613  27.542  1.00  0.00     0.064 A 
ATOM     58  C   UNL A   1      43.471  27.103  26.683  1.00  0.00     0.173 A 
ATOM     59  C   UNL A   1      41.994  25.313  27.312  1.00  0.00     0.173 A 
ATOM     60  F   UNL A   1      43.957  28.341  26.851  1.00  0.00    -0.203 F 
ATOM     61  C   UNL A   1      43.958  26.325  25.634  1.00  0.00     0.198 A 
ATOM     62  C   UNL A   1      42.506  24.528  26.281  1.00  0.00     0.198 A 
ATOM     63  F   UNL A   1      41.050  24.792  28.109  1.00  0.00    -0.203 F 
ATOM     64  F   UNL A   1      44.889  26.824  24.810  1.00  0.00    -0.200 F 
ATOM     65  C   UNL A   1      43.484  25.035  25.442  1.00  0.00     0.200 A 
ATOM     66  F   UNL A   1      42.058  23.276  26.109  1.00  0.00    -0.200 F 
ATOM     67  F   UNL A   1      43.973  24.281  24.447  1.00  0.00    -0.200 F 
ENDBRANCH  43  57
BRANCH  44  68
ATOM     68  C   UNL A   1      39.180  32.064  35.240  1.00  0.00     0.064 A 
ATOM     69  C   UNL A   1      38.424  31.476  36.261  1.00  0.00     0.173 A 
ATOM     70  C   UNL A   1      39.470  33.434  35.351  1.00  0.00     0.173 A 
ATOM     71  F   UNL A   1      38.095  30.178  36.189  1.00  0.00    -0.203 F 
ATOM     72  C   UNL A   1      37.973  32.226  37.346  1.00  0.00     0.198 A 
ATOM     73  C   UNL A   1      39.051  34.173  36.454  1.00  0.00     0.198 A 
ATOM     74  F   UNL A   1      40.189  34.049  34.400  1.00  0.00    -0.203 F 
ATOM     75  F   UNL A   1      37.216  31.648  38.289  1.00  0.00    -0.200 F 
ATOM     76  C   UNL A   1      38.296  33.571  37.447  1.00  0.00     0.200 A 
ATOM     77  F   UNL A   1      39.384  35.468  36.556  1.00  0.00    -0.200 F 
ATOM     78  F   UNL A   1      37.875  34.287  38.499  1.00  0.00    -0.200 F 
ENDBRANCH  44  68
BRANCH  56  79
ATOM     79  C   UNL A   1      44.588  27.759  34.320  1.00  0.00     0.064 A 
ATOM     80  C   UNL A   1      45.776  28.494  34.450  1.00  0.00     0.173 A 
ATOM     81  C   UNL A   1      44.432  26.612  35.114  1.00  0.00     0.173 A 
ATOM     82  F   UNL A   1      45.978  29.589  33.701  1.00  0.00    -0.203 F 
ATOM     83  C   UNL A   1      46.773  28.089  35.332  1.00  0.00     0.198 A 
ATOM     84  C   UNL A   1      45.418  26.228  36.017  1.00  0.00     0.198 A 
ATOM     85  F   UNL A   1      43.312  25.879  35.031  1.00  0.00    -0.203 F 
ATOM     86  F   UNL A   1      47.915  28.784  35.413  1.00  0.00    -0.200 F 
ATOM     87  C   UNL A   1      46.590  26.963  36.122  1.00  0.00     0.200 A 
ATOM     88  F   UNL A   1      45.234  25.149  36.790  1.00  0.00    -0.200 F 
ATOM     89  F   UNL A   1      47.544  26.585  36.983  1.00  0.00    -0.200 F 
ENDBRANCH  56  79
ENDBRANCH  30  31
ENDBRANCH  23  25
ENDBRANCH  22  23
ENDBRANCH   1  22
TORSDOF 12
ENDMDL
MODEL 2
REMARK VINA RESULT:     -12.9      0.222      1.626
REMARK SMILES Cc1cc(Br)cc2c1O[C@H](C(F)(F)F)C(C(=O)OCCOC(=O)c1ccc(-c3c4nc(c(-c5c(F)c(F)c(F)c(F)c5F)c5ccc([nH]5)c(-c5c(F)c(F)c(F)c(F)c5F)c5nc(c(-c6c(F)c(F)c(F)c(F)c6F)c6ccc3[nH]6)C=C5)C=C4)cc1)=C2
REMARK SMILES IDX 20 1 19 2 18 3 16 4 17 5 15 6 1 7 2 8 3 9 8 10 4 11 7 12
REMARK SMILES IDX 9 13 5 14 6 15 87 16 10 17 11 18 12 19 13 20 14 21 21 22
REMARK SMILES IDX 22 23 23 24 24 25 25 26 86 27 26 28 85 29 27 30 28 31 29 32
REMARK SMILES IDX 79 33 30 34 84 35 78 36 80 37 31 38 83 39 77 40 76 41 32 43
REMARK SMILES IDX 64 44 44 45 63 46 45 47 48 48 62 49 81 50 46 51 47 52 61 54
REMARK SMILES IDX 82 55 49 56 33 57 34 58 42 59 35 60 36 61 40 62 43 63 37 64
REMARK SMILES IDX 38 65 41 66 39 67 65 68 66 69 74 70 67 71 68 72 72 73 75 74
REMARK SMILES IDX 69 75 70 76 73 77 71 78 50 79 51 80 59 81 52 82 53 83 57 84
REMARK SMILES IDX 60 85 54 86 55 87 58 88 56 89
REMARK H PARENT 80 42 48 53
REMARK Flexibility Score: inf
ROOT
ATOM      1  C   UNL A   1      31.753  30.078  25.478  1.00  0.00     0.275 C 
ENDROOT
BRANCH   1   2
ATOM      2  C   UNL A   1      31.757  28.685  24.845  1.00  0.00     0.275 C 
BRANCH   2   3
ATOM      3  O   UNL A   1      32.435  27.725  25.686  1.00  0.00    -0.459 OA
BRANCH   3   4
ATOM      4  C   UNL A   1      31.640  26.798  26.266  1.00  0.00     0.338 C 
ATOM      5  O   UNL A   1      30.653  27.010  26.954  1.00  0.00    -0.246 OA
BRANCH   4   6
ATOM      6  C   UNL A   1      32.100  25.436  25.937  1.00  0.00     0.087 C 
ATOM      7  C   UNL A   1      32.679  20.744  23.877  1.00  0.00     0.048 C 
ATOM      8  C   UNL A   1      33.558  21.773  24.528  1.00  0.00    -0.007 A 
ATOM      9  C   UNL A   1      34.936  21.510  24.635  1.00  0.00     0.023 A 
ATOM     10  C   UNL A   1      33.044  22.967  25.055  1.00  0.00     0.130 A 
ATOM     11  C   UNL A   1      35.785  22.429  25.248  1.00  0.00     0.019 A 
ATOM     12  C   UNL A   1      33.908  23.889  25.651  1.00  0.00     0.019 A 
ATOM     13  O   UNL A   1      31.692  23.170  24.980  1.00  0.00    -0.475 OA
ATOM     14  Br  UNL A   1      37.636  22.069  25.376  1.00  0.00    -0.051 Br
ATOM     15  C   UNL A   1      35.279  23.617  25.758  1.00  0.00     0.027 A 
ATOM     16  C   UNL A   1      33.393  25.155  26.126  1.00  0.00     0.027 C 
ATOM     17  C   UNL A   1      31.149  24.491  25.264  1.00  0.00     0.316 C 
BRANCH  17  18
ATOM     18  C   UNL A   1      30.594  25.093  23.963  1.00  0.00     0.430 C 
ATOM     19  F   UNL A   1      31.550  25.771  23.286  1.00  0.00    -0.167 F 
ATOM     20  F   UNL A   1      30.139  24.128  23.126  1.00  0.00    -0.167 F 
ATOM     21  F   UNL A   1      29.571  25.947  24.192  1.00  0.00    -0.167 F 
ENDBRANCH  17  18
ENDBRANCH   4   6
ENDBRANCH   3   4
ENDBRANCH   2   3
ENDBRANCH   1   2
BRANCH   1  22
ATOM     22  O   UNL A   1      32.379  30.045  26.775  1.00  0.00    -0.458 OA
BRANCH  22  23
ATOM     23  C   UNL A   1      32.975  31.197  27.152  1.00  0.00     0.338 C 
ATOM     24  O   UNL A   1      32.467  32.301  27.251  1.00  0.00    -0.246 OA
BRANCH  23  25
ATOM     25  C   UNL A   1      34.372  30.948  27.541  1.00  0.00     0.060 A 
ATOM     26  C   UNL A   1      34.779  29.634  27.725  1.00  0.00     0.016 A 
ATOM     27  C   UNL A   1      35.194  31.994  27.950  1.00  0.00     0.016 A 
ATOM     28  C   UNL A   1      35.911  29.356  28.482  1.00  0.00     0.010 A 
ATOM     29  C   UNL A   1      36.420  31.707  28.565  1.00  0.00     0.010 A 
ATOM     30  C   UNL A   1      36.769  30.384  28.895  1.00  0.00    -0.014 A 
BRANCH  30  31
ATOM     31  C   UNL A   1      37.997  30.073  29.689  1.00  0.00     0.031 A 
ATOM     32  C   UNL A   1      39.092  29.216  29.101  1.00  0.00     0.074 A 
ATOM     33  C   UNL A   1      38.154  30.579  30.931  1.00  0.00     0.049 A 
ATOM     34  N   UNL A   1      40.127  28.672  29.693  1.00  0.00    -0.248 NA
ATOM     35  C   UNL A   1      39.009  28.919  27.661  1.00  0.00     0.031 C 
ATOM     36  C   UNL A   1      37.212  31.472  31.611  1.00  0.00     0.029 A 
ATOM     37  N   UNL A   1      39.171  30.427  31.844  1.00  0.00    -0.354 N 
ATOM     38  C   UNL A   1      40.778  27.926  28.717  1.00  0.00     0.074 A 
ATOM     39  C   UNL A   1      40.021  28.077  27.494  1.00  0.00     0.031 C 
ATOM     40  C   UNL A   1      37.720  31.838  32.795  1.00  0.00     0.029 A 
ATOM     41  C   UNL A   1      38.961  31.108  33.020  1.00  0.00     0.049 A 
ATOM     42  H   UNL A   1      39.973  29.884  31.671  1.00  0.00     0.167 HD
ATOM     43  C   UNL A   1      41.906  27.185  28.833  1.00  0.00     0.037 A 
ATOM     44  C   UNL A   1      39.650  31.108  34.177  1.00  0.00     0.037 A 
ATOM     45  C   UNL A   1      42.693  27.093  30.038  1.00  0.00     0.049 A 
ATOM     46  C   UNL A   1      40.863  30.230  34.299  1.00  0.00     0.074 A 
ATOM     47  C   UNL A   1      43.856  26.375  30.253  1.00  0.00     0.029 A 
ATOM     48  N   UNL A   1      42.409  27.758  31.221  1.00  0.00    -0.354 N 
ATOM     49  N   UNL A   1      41.426  29.469  33.394  1.00  0.00    -0.248 NA
ATOM     50  C   UNL A   1      41.522  30.191  35.612  1.00  0.00     0.031 C 
ATOM     51  C   UNL A   1      44.253  26.571  31.578  1.00  0.00     0.029 A 
ATOM     52  C   UNL A   1      43.367  27.453  32.174  1.00  0.00     0.049 A 
ATOM     53  H   UNL A   1      41.642  28.359  31.361  1.00  0.00     0.167 HD
ATOM     54  C   UNL A   1      42.509  28.869  34.020  1.00  0.00     0.074 A 
ATOM     55  C   UNL A   1      42.540  29.374  35.377  1.00  0.00     0.031 C 
ATOM     56  C   UNL A   1      43.390  27.972  33.517  1.00  0.00     0.037 A 
BRANCH  43  57
ATOM     57  C   UNL A   1      42.367  26.394  27.642  1.00  0.00     0.064 A 
ATOM     58  C   UNL A   1      43.371  26.862  26.783  1.00  0.00     0.173 A 
ATOM     59  C   UNL A   1      41.860  25.103  27.415  1.00  0.00     0.173 A 
ATOM     60  F   UNL A   1      43.881  28.091  26.949  1.00  0.00    -0.203 F 
ATOM     61  C   UNL A   1      43.843  26.072  25.736  1.00  0.00     0.198 A 
ATOM     62  C   UNL A   1      42.356  24.306  26.386  1.00  0.00     0.198 A 
ATOM     63  F   UNL A   1      40.905  24.602  28.213  1.00  0.00    -0.203 F 
ATOM     64  F   UNL A   1      44.784  26.551  24.911  1.00  0.00    -0.200 F 
ATOM     65  C   UNL A   1      43.344  24.791  25.547  1.00  0.00     0.200 A 
ATOM     66  F   UNL A   1      41.884  23.062  26.217  1.00  0.00    -0.200 F 
ATOM     67  F   UNL A   1      43.819  24.026  24.554  1.00  0.00    -0.200 F 
ENDBRANCH  43  57
BRANCH  44  68
ATOM     68  C   UNL A   1      39.176  31.927  35.326  1.00  0.00     0.064 A 
ATOM     69  C   UNL A   1      39.500  33.287  35.422  1.00  0.00     0.173 A 
ATOM     70  C   UNL A   1      38.376  31.375  36.340  1.00  0.00     0.173 A 
ATOM     71  F   UNL A   1      40.284  33.856  34.496  1.00  0.00    -0.203 F 
ATOM     72  C   UNL A   1      39.048  34.060  36.490  1.00  0.00     0.198 A 
ATOM     73  C   UNL A   1      37.894  32.157  37.385  1.00  0.00     0.198 A 
ATOM     74  F   UNL A   1      38.038  30.078  36.298  1.00  0.00    -0.203 F 
ATOM     75  F   UNL A   1      39.406  35.348  36.581  1.00  0.00    -0.200 F 
ATOM     76  C   UNL A   1      38.237  33.498  37.465  1.00  0.00     0.200 A 
ATOM     77  F   UNL A   1      37.094  31.613  38.313  1.00  0.00    -0.200 F 
ATOM     78  F   UNL A   1      37.789  34.246  38.482  1.00  0.00    -0.200 F 
ENDBRANCH  44  68
BRANCH  56  79
ATOM     79  C   UNL A   1      44.481  27.492  34.427  1.00  0.00     0.064 A 
ATOM     80  C   UNL A   1      44.340  26.321  35.187  1.00  0.00     0.173 A 
ATOM     81  C   UNL A   1      45.706  28.176  34.492  1.00  0.00     0.173 A 
ATOM     82  F   UNL A   1      43.183  25.642  35.170  1.00  0.00    -0.203 F 
ATOM     83  C   UNL A   1      45.379  25.860  35.989  1.00  0.00     0.198 A 
ATOM     84  C   UNL A   1      46.753  27.695  35.271  1.00  0.00     0.198 A 
ATOM     85  F   UNL A   1      45.892  29.297  33.779  1.00  0.00    -0.203 F 
ATOM     86  F   UNL A   1      45.210  24.761  36.735  1.00  0.00    -0.200 F 
ATOM     87  C   UNL A   1      46.588  26.541  36.022  1.00  0.00     0.200 A 
ATOM     88  F   UNL A   1      47.925  28.345  35.290  1.00  0.00    -0.200 F 
ATOM     89  F   UNL A   1      47.593  26.086  36.782  1.00  0.00    -0.200 F 
ENDBRANCH  56  79
ENDBRANCH  30  31
ENDBRANCH  23  25
ENDBRANCH  22  23
ENDBRANCH   1  22
TORSDOF 12
ENDMDL
MODEL 3
REMARK VINA RESULT:     -12.8      4.225      9.579
REMARK SMILES Cc1cc(Br)cc2c1O[C@H](C(F)(F)F)C(C(=O)OCCOC(=O)c1ccc(-c3c4nc(c(-c5c(F)c(F)c(F)c(F)c5F)c5ccc([nH]5)c(-c5c(F)c(F)c(F)c(F)c5F)c5nc(c(-c6c(F)c(F)c(F)c(F)c6F)c6ccc3[nH]6)C=C5)C=C4)cc1)=C2
REMARK SMILES IDX 20 1 19 2 18 3 16 4 17 5 15 6 1 7 2 8 3 9 8 10 4 11 7 12
REMARK SMILES IDX 9 13 5 14 6 15 87 16 10 17 11 18 12 19 13 20 14 21 21 22
REMARK SMILES IDX 22 23 23 24 24 25 25 26 86 27 26 28 85 29 27 30 28 31 29 32
REMARK SMILES IDX 79 33 30 34 84 35 78 36 80 37 31 38 83 39 77 40 76 41 32 43
REMARK SMILES IDX 64 44 44 45 63 46 45 47 48 48 62 49 81 50 46 51 47 52 61 54
REMARK SMILES IDX 82 55 49 56 33 57 34 58 42 59 35 60 36 61 40 62 43 63 37 64
REMARK SMILES IDX 38 65 41 66 39 67 65 68 66 69 74 70 67 71 68 72 72 73 75 74
REMARK SMILES IDX 69 75 70 76 73 77 71 78 50 79 51 80 59 81 52 82 53 83 57 84
REMARK SMILES IDX 60 85 54 86 55 87 58 88 56 89
REMARK H PARENT 80 42 48 53
REMARK Flexibility Score: inf
ROOT
ATOM      1  C   UNL A   1      36.493  20.661  25.005  1.00  0.00     0.275 C 
ENDROOT
BRANCH   1   2
ATOM      2  C   UNL A   1      35.150  21.394  24.983  1.00  0.00     0.275 C 
BRANCH   2   3
ATOM      3  O   UNL A   1      35.330  22.824  24.882  1.00  0.00    -0.459 OA
BRANCH   3   4
ATOM      4  C   UNL A   1      35.117  23.351  23.655  1.00  0.00     0.338 C 
ATOM      5  O   UNL A   1      35.622  22.983  22.605  1.00  0.00    -0.246 OA
BRANCH   4   6
ATOM      6  C   UNL A   1      34.139  24.452  23.722  1.00  0.00     0.087 C 
ATOM      7  C   UNL A   1      29.840  27.299  23.623  1.00  0.00     0.048 C 
ATOM      8  C   UNL A   1      31.158  27.326  24.342  1.00  0.00    -0.007 A 
ATOM      9  C   UNL A   1      31.386  28.339  25.291  1.00  0.00     0.023 A 
ATOM     10  C   UNL A   1      32.173  26.395  24.074  1.00  0.00     0.130 A 
ATOM     11  C   UNL A   1      32.602  28.413  25.967  1.00  0.00     0.019 A 
ATOM     12  C   UNL A   1      33.381  26.469  24.773  1.00  0.00     0.019 A 
ATOM     13  O   UNL A   1      31.938  25.452  23.110  1.00  0.00    -0.475 OA
ATOM     14  Br  UNL A   1      32.892  29.773  27.248  1.00  0.00    -0.051 Br
ATOM     15  C   UNL A   1      33.601  27.483  25.713  1.00  0.00     0.027 A 
ATOM     16  C   UNL A   1      34.399  25.463  24.556  1.00  0.00     0.027 C 
ATOM     17  C   UNL A   1      32.839  24.315  22.986  1.00  0.00     0.316 C 
BRANCH  17  18
ATOM     18  C   UNL A   1      32.093  23.039  23.408  1.00  0.00     0.430 C 
ATOM     19  F   UNL A   1      32.199  22.822  24.740  1.00  0.00    -0.167 F 
ATOM     20  F   UNL A   1      30.767  23.128  23.136  1.00  0.00    -0.167 F 
ATOM     21  F   UNL A   1      32.563  21.940  22.776  1.00  0.00    -0.167 F 
ENDBRANCH  17  18
ENDBRANCH   4   6
ENDBRANCH   3   4
ENDBRANCH   2   3
ENDBRANCH   1   2
BRANCH   1  22
ATOM     22  O   UNL A   1      37.583  21.604  24.989  1.00  0.00    -0.458 OA
BRANCH  22  23
ATOM     23  C   UNL A   1      38.653  21.255  25.734  1.00  0.00     0.338 C 
ATOM     24  O   UNL A   1      39.207  20.170  25.780  1.00  0.00    -0.246 OA
BRANCH  23  25
ATOM     25  C   UNL A   1      39.170  22.421  26.467  1.00  0.00     0.060 A 
ATOM     26  C   UNL A   1      38.634  23.669  26.181  1.00  0.00     0.016 A 
ATOM     27  C   UNL A   1      40.321  22.320  27.243  1.00  0.00     0.016 A 
ATOM     28  C   UNL A   1      39.343  24.821  26.502  1.00  0.00     0.010 A 
ATOM     29  C   UNL A   1      40.942  23.487  27.711  1.00  0.00     0.010 A 
ATOM     30  C   UNL A   1      40.496  24.756  27.296  1.00  0.00    -0.014 A 
BRANCH  30  31
ATOM     31  C   UNL A   1      41.239  26.003  27.657  1.00  0.00     0.031 A 
ATOM     32  C   UNL A   1      40.586  27.062  28.512  1.00  0.00     0.074 A 
ATOM     33  C   UNL A   1      42.512  26.183  27.245  1.00  0.00     0.049 A 
ATOM     34  N   UNL A   1      40.981  28.286  28.763  1.00  0.00    -0.248 NA
ATOM     35  C   UNL A   1      39.314  26.705  29.164  1.00  0.00     0.031 C 
ATOM     36  C   UNL A   1      43.297  25.224  26.465  1.00  0.00     0.029 A 
ATOM     37  N   UNL A   1      43.380  27.232  27.437  1.00  0.00    -0.354 N 
ATOM     38  C   UNL A   1      39.985  28.859  29.544  1.00  0.00     0.074 A 
ATOM     39  C   UNL A   1      38.959  27.855  29.723  1.00  0.00     0.031 C 
ATOM     40  C   UNL A   1      44.540  25.695  26.300  1.00  0.00     0.029 A 
ATOM     41  C   UNL A   1      44.609  27.043  26.848  1.00  0.00     0.049 A 
ATOM     42  H   UNL A   1      43.145  28.040  27.946  1.00  0.00     0.167 HD
ATOM     43  C   UNL A   1      39.935  30.108  30.066  1.00  0.00     0.037 A 
ATOM     44  C   UNL A   1      45.659  27.874  26.708  1.00  0.00     0.037 A 
ATOM     45  C   UNL A   1      40.991  31.081  29.940  1.00  0.00     0.049 A 
ATOM     46  C   UNL A   1      45.554  29.274  27.242  1.00  0.00     0.074 A 
ATOM     47  C   UNL A   1      41.038  32.370  30.439  1.00  0.00     0.029 A 
ATOM     48  N   UNL A   1      42.195  30.861  29.287  1.00  0.00    -0.354 N 
ATOM     49  N   UNL A   1      44.575  29.830  27.913  1.00  0.00    -0.248 NA
ATOM     50  C   UNL A   1      46.686  30.171  26.977  1.00  0.00     0.031 C 
ATOM     51  C   UNL A   1      42.251  32.946  30.052  1.00  0.00     0.029 A 
ATOM     52  C   UNL A   1      42.983  31.998  29.358  1.00  0.00     0.049 A 
ATOM     53  H   UNL A   1      42.451  30.021  28.842  1.00  0.00     0.167 HD
ATOM     54  C   UNL A   1      44.975  31.135  28.160  1.00  0.00     0.074 A 
ATOM     55  C   UNL A   1      46.299  31.282  27.589  1.00  0.00     0.031 C 
ATOM     56  C   UNL A   1      44.302  32.125  28.793  1.00  0.00     0.037 A 
BRANCH  43  57
ATOM     57  C   UNL A   1      38.697  30.522  30.811  1.00  0.00     0.064 A 
ATOM     58  C   UNL A   1      38.619  30.461  32.210  1.00  0.00     0.173 A 
ATOM     59  C   UNL A   1      37.609  31.076  30.117  1.00  0.00     0.173 A 
ATOM     60  F   UNL A   1      39.625  29.931  32.920  1.00  0.00    -0.203 F 
ATOM     61  C   UNL A   1      37.494  30.933  32.884  1.00  0.00     0.198 A 
ATOM     62  C   UNL A   1      36.500  31.573  30.797  1.00  0.00     0.198 A 
ATOM     63  F   UNL A   1      37.636  31.167  28.779  1.00  0.00    -0.203 F 
ATOM     64  F   UNL A   1      37.429  30.840  34.219  1.00  0.00    -0.200 F 
ATOM     65  C   UNL A   1      36.441  31.499  32.179  1.00  0.00     0.200 A 
ATOM     66  F   UNL A   1      35.493  32.136  30.113  1.00  0.00    -0.200 F 
ATOM     67  F   UNL A   1      35.372  31.973  32.833  1.00  0.00    -0.200 F 
ENDBRANCH  43  57
BRANCH  44  68
ATOM     68  C   UNL A   1      46.878  27.417  25.986  1.00  0.00     0.064 A 
ATOM     69  C   UNL A   1      47.019  27.628  24.608  1.00  0.00     0.173 A 
ATOM     70  C   UNL A   1      47.931  26.777  26.658  1.00  0.00     0.173 A 
ATOM     71  F   UNL A   1      46.030  28.209  23.914  1.00  0.00    -0.203 F 
ATOM     72  C   UNL A   1      48.164  27.211  23.930  1.00  0.00     0.198 A 
ATOM     73  C   UNL A   1      49.090  26.395  25.986  1.00  0.00     0.198 A 
ATOM     74  F   UNL A   1      47.847  26.547  27.976  1.00  0.00    -0.203 F 
ATOM     75  F   UNL A   1      48.256  27.388  22.605  1.00  0.00    -0.200 F 
ATOM     76  C   UNL A   1      49.202  26.606  24.621  1.00  0.00     0.200 A 
ATOM     77  F   UNL A   1      50.098  25.828  26.663  1.00  0.00    -0.200 F 
ATOM     78  F   UNL A   1      50.309  26.220  23.971  1.00  0.00    -0.200 F 
ENDBRANCH  44  68
BRANCH  56  79
ATOM     79  C   UNL A   1      44.989  33.451  28.927  1.00  0.00     0.064 A 
ATOM     80  C   UNL A   1      45.868  33.716  29.988  1.00  0.00     0.173 A 
ATOM     81  C   UNL A   1      44.816  34.444  27.950  1.00  0.00     0.173 A 
ATOM     82  F   UNL A   1      46.054  32.804  30.955  1.00  0.00    -0.203 F 
ATOM     83  C   UNL A   1      46.538  34.933  30.073  1.00  0.00     0.198 A 
ATOM     84  C   UNL A   1      45.512  35.647  28.023  1.00  0.00     0.198 A 
ATOM     85  F   UNL A   1      43.992  34.236  26.913  1.00  0.00    -0.203 F 
ATOM     86  F   UNL A   1      47.344  35.180  31.115  1.00  0.00    -0.200 F 
ATOM     87  C   UNL A   1      46.367  35.893  29.086  1.00  0.00     0.200 A 
ATOM     88  F   UNL A   1      45.358  36.567  27.061  1.00  0.00    -0.200 F 
ATOM     89  F   UNL A   1      47.027  37.057  29.162  1.00  0.00    -0.200 F 
ENDBRANCH  56  79
ENDBRANCH  30  31
ENDBRANCH  23  25
ENDBRANCH  22  23
ENDBRANCH   1  22
TORSDOF 12
ENDMDL
