MODEL 1
REMARK VINA RESULT:     -14.5      0.000      0.000
REMARK SMILES O=C(OCCOC(=O)[C@]1(NC(=O)C2CCN(C(=O)C3CC3)CC2)CCCc2ccccc21)c1ccc(-c2c3nc(c(-c4c(F)c(F)c(F)c(F)c4F)c4ccc([nH]4)c(-c4c(F)c(F)c(F)c(F)c4F)c4nc(c(-c5c(F)c(F)c(F)c(F)c5F)c5ccc2[nH]5)C=C4)C=C3)cc1
REMARK SMILES IDX 5 1 4 2 3 3 2 4 1 5 33 6 34 7 95 8 35 9 94 10 36 11 37 12
REMARK SMILES IDX 38 13 88 14 39 15 93 16 87 17 89 18 40 19 92 20 86 21 85 22
REMARK SMILES IDX 41 24 73 25 53 26 72 27 54 28 57 29 71 30 90 31 55 32 56 33
REMARK SMILES IDX 70 35 91 36 58 37 42 38 43 39 51 40 44 41 45 42 49 43 52 44
REMARK SMILES IDX 46 45 47 46 50 47 48 48 74 49 75 50 83 51 76 52 77 53 81 54
REMARK SMILES IDX 84 55 78 56 79 57 82 58 80 59 59 60 60 61 68 62 61 63 62 64
REMARK SMILES IDX 66 65 69 66 63 67 64 68 67 69 65 70 6 71 7 72 8 73 9 74
REMARK SMILES IDX 24 75 32 76 25 77 27 78 31 79 26 80 28 81 30 82 29 83 10 84
REMARK SMILES IDX 11 85 12 87 13 88 14 89 23 90 15 91 22 92 16 93 17 94 18 95
REMARK SMILES IDX 19 96 20 97 21 98
REMARK H PARENT 89 23 57 34 10 86
REMARK Flexibility Score: inf
ROOT
ATOM      1  C   UNL A   1      33.430  28.304  26.154  1.00  0.00     0.274 C 
ENDROOT
BRANCH   1   2
ATOM      2  C   UNL A   1      33.378  29.128  27.449  1.00  0.00     0.275 C 
BRANCH   2   3
ATOM      3  O   UNL A   1      34.059  30.390  27.300  1.00  0.00    -0.458 OA
BRANCH   3   4
ATOM      4  C   UNL A   1      34.746  30.803  28.397  1.00  0.00     0.338 C 
ATOM      5  O   UNL A   1      34.507  31.802  29.062  1.00  0.00    -0.246 OA
BRANCH   4   6
ATOM      6  C   UNL A   1      36.005  30.021  28.516  1.00  0.00     0.060 A 
ATOM      7  C   UNL A   1      36.900  29.903  27.463  1.00  0.00     0.016 A 
ATOM      8  C   UNL A   1      36.417  29.627  29.797  1.00  0.00     0.016 A 
ATOM      9  C   UNL A   1      38.215  29.527  27.740  1.00  0.00     0.010 A 
ATOM     10  C   UNL A   1      37.732  29.274  30.095  1.00  0.00     0.010 A 
ATOM     11  C   UNL A   1      38.654  29.283  29.064  1.00  0.00    -0.014 A 
BRANCH  11  12
ATOM     12  C   UNL A   1      40.065  28.888  29.236  1.00  0.00     0.031 A 
ATOM     13  C   UNL A   1      40.336  27.496  28.838  1.00  0.00     0.074 A 
ATOM     14  C   UNL A   1      41.058  29.768  29.455  1.00  0.00     0.049 A 
ATOM     15  N   UNL A   1      41.305  27.015  28.125  1.00  0.00    -0.248 NA
ATOM     16  C   UNL A   1      39.294  26.537  29.235  1.00  0.00     0.031 C 
ATOM     17  C   UNL A   1      40.916  31.093  30.033  1.00  0.00     0.029 A 
ATOM     18  N   UNL A   1      42.383  29.706  29.087  1.00  0.00    -0.354 N 
ATOM     19  C   UNL A   1      40.958  25.694  27.923  1.00  0.00     0.074 A 
ATOM     20  C   UNL A   1      39.693  25.457  28.587  1.00  0.00     0.031 C 
ATOM     21  C   UNL A   1      42.043  31.793  29.819  1.00  0.00     0.029 A 
ATOM     22  C   UNL A   1      42.980  30.955  29.083  1.00  0.00     0.049 A 
ATOM     23  H   UNL A   1      42.852  28.872  28.855  1.00  0.00     0.167 HD
ATOM     24  C   UNL A   1      41.672  24.759  27.263  1.00  0.00     0.037 A 
ATOM     25  C   UNL A   1      44.108  31.363  28.463  1.00  0.00     0.037 A 
ATOM     26  C   UNL A   1      43.013  24.999  26.822  1.00  0.00     0.049 A 
ATOM     27  C   UNL A   1      44.904  30.303  27.736  1.00  0.00     0.074 A 
ATOM     28  C   UNL A   1      43.954  24.102  26.363  1.00  0.00     0.029 A 
ATOM     29  N   UNL A   1      43.626  26.248  26.869  1.00  0.00    -0.354 N 
ATOM     30  N   UNL A   1      44.567  29.070  27.437  1.00  0.00    -0.248 NA
ATOM     31  C   UNL A   1      46.254  30.681  27.298  1.00  0.00     0.031 C 
ATOM     32  C   UNL A   1      45.162  24.797  26.206  1.00  0.00     0.029 A 
ATOM     33  C   UNL A   1      44.950  26.140  26.491  1.00  0.00     0.049 A 
ATOM     34  H   UNL A   1      43.182  27.085  27.133  1.00  0.00     0.167 HD
ATOM     35  C   UNL A   1      45.670  28.514  26.806  1.00  0.00     0.074 A 
ATOM     36  C   UNL A   1      46.655  29.575  26.689  1.00  0.00     0.031 C 
ATOM     37  C   UNL A   1      45.883  27.237  26.400  1.00  0.00     0.037 A 
BRANCH  24  38
ATOM     38  C   UNL A   1      41.035  23.411  27.206  1.00  0.00     0.064 A 
ATOM     39  C   UNL A   1      41.611  22.307  27.856  1.00  0.00     0.173 A 
ATOM     40  C   UNL A   1      39.986  23.180  26.307  1.00  0.00     0.173 A 
ATOM     41  F   UNL A   1      42.661  22.476  28.674  1.00  0.00    -0.203 F 
ATOM     42  C   UNL A   1      41.190  21.012  27.563  1.00  0.00     0.198 A 
ATOM     43  C   UNL A   1      39.557  21.885  26.032  1.00  0.00     0.198 A 
ATOM     44  F   UNL A   1      39.438  24.200  25.631  1.00  0.00    -0.203 F 
ATOM     45  F   UNL A   1      41.820  19.964  28.112  1.00  0.00    -0.200 F 
ATOM     46  C   UNL A   1      40.169  20.803  26.646  1.00  0.00     0.200 A 
ATOM     47  F   UNL A   1      38.591  21.682  25.125  1.00  0.00    -0.200 F 
ATOM     48  F   UNL A   1      39.806  19.555  26.320  1.00  0.00    -0.200 F 
ENDBRANCH  24  38
BRANCH  25  49
ATOM     49  C   UNL A   1      44.545  32.795  28.425  1.00  0.00     0.064 A 
ATOM     50  C   UNL A   1      44.356  33.570  27.265  1.00  0.00     0.173 A 
ATOM     51  C   UNL A   1      45.230  33.404  29.486  1.00  0.00     0.173 A 
ATOM     52  F   UNL A   1      43.714  33.048  26.208  1.00  0.00    -0.203 F 
ATOM     53  C   UNL A   1      44.873  34.862  27.153  1.00  0.00     0.198 A 
ATOM     54  C   UNL A   1      45.716  34.711  29.388  1.00  0.00     0.198 A 
ATOM     55  F   UNL A   1      45.453  32.725  30.621  1.00  0.00    -0.203 F 
ATOM     56  F   UNL A   1      44.739  35.539  26.004  1.00  0.00    -0.200 F 
ATOM     57  C   UNL A   1      45.553  35.432  28.215  1.00  0.00     0.200 A 
ATOM     58  F   UNL A   1      46.361  35.263  30.423  1.00  0.00    -0.200 F 
ATOM     59  F   UNL A   1      46.064  36.666  28.104  1.00  0.00    -0.200 F 
ENDBRANCH  25  49
BRANCH  37  60
ATOM     60  C   UNL A   1      47.234  26.921  25.835  1.00  0.00     0.064 A 
ATOM     61  C   UNL A   1      47.578  27.285  24.525  1.00  0.00     0.173 A 
ATOM     62  C   UNL A   1      48.218  26.336  26.643  1.00  0.00     0.173 A 
ATOM     63  F   UNL A   1      46.664  27.839  23.714  1.00  0.00    -0.203 F 
ATOM     64  C   UNL A   1      48.860  27.057  24.036  1.00  0.00     0.198 A 
ATOM     65  C   UNL A   1      49.508  26.141  26.161  1.00  0.00     0.198 A 
ATOM     66  F   UNL A   1      47.936  25.979  27.904  1.00  0.00    -0.203 F 
ATOM     67  F   UNL A   1      49.159  27.379  22.771  1.00  0.00    -0.200 F 
ATOM     68  C   UNL A   1      49.826  26.498  24.859  1.00  0.00     0.200 A 
ATOM     69  F   UNL A   1      50.447  25.617  26.961  1.00  0.00    -0.200 F 
ATOM     70  F   UNL A   1      51.068  26.301  24.394  1.00  0.00    -0.200 F 
ENDBRANCH  37  60
ENDBRANCH  11  12
ENDBRANCH   4   6
ENDBRANCH   3   4
ENDBRANCH   2   3
ENDBRANCH   1   2
BRANCH   1  71
ATOM     71  O   UNL A   1      33.436  26.900  26.453  1.00  0.00    -0.460 OA
BRANCH  71  72
ATOM     72  C   UNL A   1      32.321  26.134  26.326  1.00  0.00     0.336 C 
ATOM     73  O   UNL A   1      31.396  26.126  27.126  1.00  0.00    -0.249 OA
BRANCH  72  74
ATOM     74  C   UNL A   1      32.377  25.307  24.986  1.00  0.00     0.164 C 
ATOM     75  C   UNL A   1      31.077  24.477  24.793  1.00  0.00     0.046 C 
ATOM     76  C   UNL A   1      33.589  24.282  25.087  1.00  0.00    -0.008 A 
ATOM     77  C   UNL A   1      30.992  23.239  25.688  1.00  0.00     0.008 C 
ATOM     78  C   UNL A   1      33.439  22.905  25.354  1.00  0.00    -0.042 A 
ATOM     79  C   UNL A   1      34.909  24.746  25.094  1.00  0.00     0.007 A 
ATOM     80  C   UNL A   1      32.094  22.244  25.359  1.00  0.00     0.036 C 
ATOM     81  C   UNL A   1      34.567  22.079  25.607  1.00  0.00     0.004 A 
ATOM     82  C   UNL A   1      36.026  23.941  25.358  1.00  0.00     0.000 A 
ATOM     83  C   UNL A   1      35.856  22.597  25.617  1.00  0.00     0.000 A 
BRANCH  74  84
ATOM     84  N   UNL A   1      32.503  26.232  23.771  1.00  0.00    -0.336 N 
ATOM     85  C   UNL A   1      31.531  26.805  22.953  1.00  0.00     0.224 C 
ATOM     86  H   UNL A   1      33.428  26.460  23.527  1.00  0.00     0.164 HD
ATOM     87  O   UNL A   1      31.523  26.455  21.769  1.00  0.00    -0.275 OA
BRANCH  85  88
ATOM     88  C   UNL A   1      30.698  28.050  23.396  1.00  0.00     0.082 C 
ATOM     89  C   UNL A   1      29.220  27.738  23.707  1.00  0.00     0.035 C 
ATOM     90  C   UNL A   1      30.874  29.248  22.387  1.00  0.00     0.035 C 
ATOM     91  C   UNL A   1      28.181  28.349  22.761  1.00  0.00     0.120 C 
ATOM     92  C   UNL A   1      29.673  29.840  21.645  1.00  0.00     0.120 C 
ATOM     93  N   UNL A   1      28.488  29.741  22.454  1.00  0.00    -0.342 N 
ATOM     94  C   UNL A   1      27.739  30.755  23.056  1.00  0.00     0.225 C 
ATOM     95  O   UNL A   1      26.914  30.474  23.926  1.00  0.00    -0.275 OA
BRANCH  94  96
ATOM     96  C   UNL A   1      27.800  32.216  22.705  1.00  0.00     0.079 C 
ATOM     97  C   UNL A   1      28.990  33.130  22.793  1.00  0.00     0.014 C 
ATOM     98  C   UNL A   1      28.390  32.801  21.449  1.00  0.00     0.014 C 
ENDBRANCH  94  96
ENDBRANCH  85  88
ENDBRANCH  74  84
ENDBRANCH  72  74
ENDBRANCH  71  72
ENDBRANCH   1  71
TORSDOF 14
ENDMDL
MODEL 2
REMARK VINA RESULT:     -14.5      2.071      4.672
REMARK SMILES O=C(OCCOC(=O)[C@]1(NC(=O)C2CCN(C(=O)C3CC3)CC2)CCCc2ccccc21)c1ccc(-c2c3nc(c(-c4c(F)c(F)c(F)c(F)c4F)c4ccc([nH]4)c(-c4c(F)c(F)c(F)c(F)c4F)c4nc(c(-c5c(F)c(F)c(F)c(F)c5F)c5ccc2[nH]5)C=C4)C=C3)cc1
REMARK SMILES IDX 5 1 4 2 3 3 2 4 1 5 33 6 34 7 95 8 35 9 94 10 36 11 37 12
REMARK SMILES IDX 38 13 88 14 39 15 93 16 87 17 89 18 40 19 92 20 86 21 85 22
REMARK SMILES IDX 41 24 73 25 53 26 72 27 54 28 57 29 71 30 90 31 55 32 56 33
REMARK SMILES IDX 70 35 91 36 58 37 42 38 43 39 51 40 44 41 45 42 49 43 52 44
REMARK SMILES IDX 46 45 47 46 50 47 48 48 74 49 75 50 83 51 76 52 77 53 81 54
REMARK SMILES IDX 84 55 78 56 79 57 82 58 80 59 59 60 60 61 68 62 61 63 62 64
REMARK SMILES IDX 66 65 69 66 63 67 64 68 67 69 65 70 6 71 7 72 8 73 9 74
REMARK SMILES IDX 24 75 32 76 25 77 27 78 31 79 26 80 28 81 30 82 29 83 10 84
REMARK SMILES IDX 11 85 12 87 13 88 14 89 23 90 15 91 22 92 16 93 17 94 18 95
REMARK SMILES IDX 19 96 20 97 21 98
REMARK H PARENT 89 23 57 34 10 86
REMARK Flexibility Score: inf
ROOT
ATOM      1  C   UNL A   1      33.161  29.282  25.791  1.00  0.00     0.274 C 
ENDROOT
BRANCH   1   2
ATOM      2  C   UNL A   1      33.461  29.629  27.257  1.00  0.00     0.275 C 
BRANCH   2   3
ATOM      3  O   UNL A   1      34.204  30.860  27.367  1.00  0.00    -0.458 OA
BRANCH   3   4
ATOM      4  C   UNL A   1      34.798  31.065  28.572  1.00  0.00     0.338 C 
ATOM      5  O   UNL A   1      34.502  31.933  29.382  1.00  0.00    -0.246 OA
BRANCH   4   6
ATOM      6  C   UNL A   1      36.046  30.261  28.651  1.00  0.00     0.060 A 
ATOM      7  C   UNL A   1      36.932  30.170  27.588  1.00  0.00     0.016 A 
ATOM      8  C   UNL A   1      36.460  29.812  29.913  1.00  0.00     0.016 A 
ATOM      9  C   UNL A   1      38.244  29.765  27.842  1.00  0.00     0.010 A 
ATOM     10  C   UNL A   1      37.772  29.429  30.189  1.00  0.00     0.010 A 
ATOM     11  C   UNL A   1      38.688  29.463  29.153  1.00  0.00    -0.014 A 
BRANCH  11  12
ATOM     12  C   UNL A   1      40.093  29.042  29.300  1.00  0.00     0.031 A 
ATOM     13  C   UNL A   1      40.334  27.650  28.883  1.00  0.00     0.074 A 
ATOM     14  C   UNL A   1      41.105  29.902  29.513  1.00  0.00     0.049 A 
ATOM     15  N   UNL A   1      41.284  27.160  28.151  1.00  0.00    -0.248 NA
ATOM     16  C   UNL A   1      39.281  26.705  29.285  1.00  0.00     0.031 C 
ATOM     17  C   UNL A   1      40.995  31.222  30.107  1.00  0.00     0.029 A 
ATOM     18  N   UNL A   1      42.424  29.820  29.125  1.00  0.00    -0.354 N 
ATOM     19  C   UNL A   1      40.910  25.847  27.941  1.00  0.00     0.074 A 
ATOM     20  C   UNL A   1      39.651  25.625  28.620  1.00  0.00     0.031 C 
ATOM     21  C   UNL A   1      42.132  31.905  29.884  1.00  0.00     0.029 A 
ATOM     22  C   UNL A   1      43.043  31.058  29.126  1.00  0.00     0.049 A 
ATOM     23  H   UNL A   1      42.874  28.981  28.878  1.00  0.00     0.167 HD
ATOM     24  C   UNL A   1      41.597  24.907  27.260  1.00  0.00     0.037 A 
ATOM     25  C   UNL A   1      44.168  31.453  28.494  1.00  0.00     0.037 A 
ATOM     26  C   UNL A   1      42.936  25.127  26.802  1.00  0.00     0.049 A 
ATOM     27  C   UNL A   1      44.935  30.387  27.744  1.00  0.00     0.074 A 
ATOM     28  C   UNL A   1      43.854  24.219  26.320  1.00  0.00     0.029 A 
ATOM     29  N   UNL A   1      43.572  26.364  26.853  1.00  0.00    -0.354 N 
ATOM     30  N   UNL A   1      44.572  29.163  27.437  1.00  0.00    -0.248 NA
ATOM     31  C   UNL A   1      46.285  30.746  27.290  1.00  0.00     0.031 C 
ATOM     32  C   UNL A   1      45.071  24.894  26.153  1.00  0.00     0.029 A 
ATOM     33  C   UNL A   1      44.888  26.238  26.454  1.00  0.00     0.049 A 
ATOM     34  H   UNL A   1      43.146  27.207  27.132  1.00  0.00     0.167 HD
ATOM     35  C   UNL A   1      45.655  28.595  26.783  1.00  0.00     0.074 A 
ATOM     36  C   UNL A   1      46.657  29.639  26.663  1.00  0.00     0.031 C 
ATOM     37  C   UNL A   1      45.839  27.318  26.362  1.00  0.00     0.037 A 
BRANCH  24  38
ATOM     38  C   UNL A   1      40.935  23.571  27.198  1.00  0.00     0.064 A 
ATOM     39  C   UNL A   1      41.520  22.442  27.797  1.00  0.00     0.173 A 
ATOM     40  C   UNL A   1      39.846  23.378  26.339  1.00  0.00     0.173 A 
ATOM     41  F   UNL A   1      42.605  22.575  28.574  1.00  0.00    -0.203 F 
ATOM     42  C   UNL A   1      41.064  21.161  27.492  1.00  0.00     0.198 A 
ATOM     43  C   UNL A   1      39.384  22.098  26.052  1.00  0.00     0.198 A 
ATOM     44  F   UNL A   1      39.288  24.424  25.711  1.00  0.00    -0.203 F 
ATOM     45  F   UNL A   1      41.699  20.091  27.989  1.00  0.00    -0.200 F 
ATOM     46  C   UNL A   1      40.003  20.991  26.615  1.00  0.00     0.200 A 
ATOM     47  F   UNL A   1      38.377  21.933  25.182  1.00  0.00    -0.200 F 
ATOM     48  F   UNL A   1      39.605  19.757  26.275  1.00  0.00    -0.200 F 
ENDBRANCH  24  38
BRANCH  25  49
ATOM     49  C   UNL A   1      44.630  32.877  28.464  1.00  0.00     0.064 A 
ATOM     50  C   UNL A   1      45.317  33.430  29.561  1.00  0.00     0.173 A 
ATOM     51  C   UNL A   1      44.334  33.744  27.402  1.00  0.00     0.173 A 
ATOM     52  F   UNL A   1      45.626  32.660  30.615  1.00  0.00    -0.203 F 
ATOM     53  C   UNL A   1      45.639  34.788  29.617  1.00  0.00     0.198 A 
ATOM     54  C   UNL A   1      44.690  35.095  27.442  1.00  0.00     0.198 A 
ATOM     55  F   UNL A   1      43.677  33.290  26.325  1.00  0.00    -0.203 F 
ATOM     56  F   UNL A   1      46.223  35.292  30.713  1.00  0.00    -0.200 F 
ATOM     57  C   UNL A   1      45.325  35.620  28.557  1.00  0.00     0.200 A 
ATOM     58  F   UNL A   1      44.397  35.894  26.407  1.00  0.00    -0.200 F 
ATOM     59  F   UNL A   1      45.619  36.927  28.615  1.00  0.00    -0.200 F 
ENDBRANCH  25  49
BRANCH  37  60
ATOM     60  C   UNL A   1      47.176  26.985  25.773  1.00  0.00     0.064 A 
ATOM     61  C   UNL A   1      47.486  27.305  24.443  1.00  0.00     0.173 A 
ATOM     62  C   UNL A   1      48.181  26.428  26.575  1.00  0.00     0.173 A 
ATOM     63  F   UNL A   1      46.551  27.831  23.637  1.00  0.00    -0.203 F 
ATOM     64  C   UNL A   1      48.756  27.062  23.930  1.00  0.00     0.198 A 
ATOM     65  C   UNL A   1      49.458  26.218  26.068  1.00  0.00     0.198 A 
ATOM     66  F   UNL A   1      47.931  26.113  27.854  1.00  0.00    -0.203 F 
ATOM     67  F   UNL A   1      49.022  27.341  22.648  1.00  0.00    -0.200 F 
ATOM     68  C   UNL A   1      49.743  26.531  24.746  1.00  0.00     0.200 A 
ATOM     69  F   UNL A   1      50.418  25.721  26.861  1.00  0.00    -0.200 F 
ATOM     70  F   UNL A   1      50.973  26.319  24.257  1.00  0.00    -0.200 F 
ENDBRANCH  37  60
ENDBRANCH  11  12
ENDBRANCH   4   6
ENDBRANCH   3   4
ENDBRANCH   2   3
ENDBRANCH   1   2
BRANCH   1  71
ATOM     71  O   UNL A   1      33.746  28.018  25.446  1.00  0.00    -0.460 OA
BRANCH  71  72
ATOM     72  C   UNL A   1      34.000  27.672  24.156  1.00  0.00     0.336 C 
ATOM     73  O   UNL A   1      34.456  28.434  23.315  1.00  0.00    -0.249 OA
BRANCH  72  74
ATOM     74  C   UNL A   1      33.669  26.149  23.926  1.00  0.00     0.164 C 
ATOM     75  C   UNL A   1      33.823  25.770  22.426  1.00  0.00     0.046 C 
ATOM     76  C   UNL A   1      32.149  25.906  24.327  1.00  0.00    -0.008 A 
ATOM     77  C   UNL A   1      32.682  26.271  21.538  1.00  0.00     0.008 C 
ATOM     78  C   UNL A   1      31.098  25.768  23.395  1.00  0.00    -0.042 A 
ATOM     79  C   UNL A   1      31.746  26.000  25.663  1.00  0.00     0.007 A 
ATOM     80  C   UNL A   1      31.359  25.630  21.926  1.00  0.00     0.036 C 
ATOM     81  C   UNL A   1      29.743  25.731  23.818  1.00  0.00     0.004 A 
ATOM     82  C   UNL A   1      30.410  25.980  26.087  1.00  0.00     0.000 A 
ATOM     83  C   UNL A   1      29.399  25.845  25.159  1.00  0.00     0.000 A 
BRANCH  74  84
ATOM     84  N   UNL A   1      34.625  25.249  24.716  1.00  0.00    -0.336 N 
ATOM     85  C   UNL A   1      34.410  24.038  25.371  1.00  0.00     0.224 C 
ATOM     86  H   UNL A   1      35.548  25.585  24.770  1.00  0.00     0.164 HD
ATOM     87  O   UNL A   1      34.559  24.034  26.596  1.00  0.00    -0.275 OA
BRANCH  85  88
ATOM     88  C   UNL A   1      34.303  22.683  24.601  1.00  0.00     0.082 C 
ATOM     89  C   UNL A   1      32.966  22.486  23.859  1.00  0.00     0.035 C 
ATOM     90  C   UNL A   1      34.677  21.464  25.528  1.00  0.00     0.035 C 
ATOM     91  C   UNL A   1      32.055  21.371  24.382  1.00  0.00     0.120 C 
ATOM     92  C   UNL A   1      33.670  20.346  25.808  1.00  0.00     0.120 C 
ATOM     93  N   UNL A   1      32.807  20.155  24.673  1.00  0.00    -0.342 N 
ATOM     94  C   UNL A   1      32.722  19.072  23.796  1.00  0.00     0.225 C 
ATOM     95  O   UNL A   1      32.116  19.192  22.730  1.00  0.00    -0.275 OA
BRANCH  94  96
ATOM     96  C   UNL A   1      33.275  17.696  24.046  1.00  0.00     0.079 C 
ATOM     97  C   UNL A   1      33.990  16.804  23.069  1.00  0.00     0.014 C 
ATOM     98  C   UNL A   1      34.724  17.351  24.268  1.00  0.00     0.014 C 
ENDBRANCH  94  96
ENDBRANCH  85  88
ENDBRANCH  74  84
ENDBRANCH  72  74
ENDBRANCH  71  72
ENDBRANCH   1  71
TORSDOF 14
ENDMDL
MODEL 3
REMARK VINA RESULT:     -14.5      5.287     10.384
REMARK SMILES O=C(OCCOC(=O)[C@]1(NC(=O)C2CCN(C(=O)C3CC3)CC2)CCCc2ccccc21)c1ccc(-c2c3nc(c(-c4c(F)c(F)c(F)c(F)c4F)c4ccc([nH]4)c(-c4c(F)c(F)c(F)c(F)c4F)c4nc(c(-c5c(F)c(F)c(F)c(F)c5F)c5ccc2[nH]5)C=C4)C=C3)cc1
REMARK SMILES IDX 5 1 4 2 3 3 2 4 1 5 33 6 34 7 95 8 35 9 94 10 36 11 37 12
REMARK SMILES IDX 38 13 88 14 39 15 93 16 87 17 89 18 40 19 92 20 86 21 85 22
REMARK SMILES IDX 41 24 73 25 53 26 72 27 54 28 57 29 71 30 90 31 55 32 56 33
REMARK SMILES IDX 70 35 91 36 58 37 42 38 43 39 51 40 44 41 45 42 49 43 52 44
REMARK SMILES IDX 46 45 47 46 50 47 48 48 74 49 75 50 83 51 76 52 77 53 81 54
REMARK SMILES IDX 84 55 78 56 79 57 82 58 80 59 59 60 60 61 68 62 61 63 62 64
REMARK SMILES IDX 66 65 69 66 63 67 64 68 67 69 65 70 6 71 7 72 8 73 9 74
REMARK SMILES IDX 24 75 32 76 25 77 27 78 31 79 26 80 28 81 30 82 29 83 10 84
REMARK SMILES IDX 11 85 12 87 13 88 14 89 23 90 15 91 22 92 16 93 17 94 18 95
REMARK SMILES IDX 19 96 20 97 21 98
REMARK H PARENT 89 23 57 34 10 86
REMARK Flexibility Score: inf
ROOT
ATOM      1  C   UNL A   1      36.537  23.772  24.524  1.00  0.00     0.274 C 
ENDROOT
BRANCH   1   2
ATOM      2  C   UNL A   1      37.312  23.334  25.776  1.00  0.00     0.275 C 
BRANCH   2   3
ATOM      3  O   UNL A   1      38.666  22.956  25.452  1.00  0.00    -0.458 OA
BRANCH   3   4
ATOM      4  C   UNL A   1      39.539  23.007  26.492  1.00  0.00     0.338 C 
ATOM      5  O   UNL A   1      40.035  22.044  27.062  1.00  0.00    -0.246 OA
BRANCH   4   6
ATOM      6  C   UNL A   1      39.593  24.393  27.026  1.00  0.00     0.060 A 
ATOM      7  C   UNL A   1      38.947  24.756  28.198  1.00  0.00     0.016 A 
ATOM      8  C   UNL A   1      40.536  25.273  26.476  1.00  0.00     0.016 A 
ATOM      9  C   UNL A   1      39.357  25.916  28.857  1.00  0.00     0.010 A 
ATOM     10  C   UNL A   1      40.975  26.422  27.134  1.00  0.00     0.010 A 
ATOM     11  C   UNL A   1      40.420  26.713  28.367  1.00  0.00    -0.014 A 
BRANCH  11  12
ATOM     12  C   UNL A   1      40.764  27.918  29.145  1.00  0.00     0.031 A 
ATOM     13  C   UNL A   1      39.735  28.970  29.078  1.00  0.00     0.074 A 
ATOM     14  C   UNL A   1      41.758  27.957  30.048  1.00  0.00     0.049 A 
ATOM     15  N   UNL A   1      39.229  29.691  30.029  1.00  0.00    -0.248 NA
ATOM     16  C   UNL A   1      39.136  29.151  27.748  1.00  0.00     0.031 C 
ATOM     17  C   UNL A   1      42.922  27.089  30.078  1.00  0.00     0.029 A 
ATOM     18  N   UNL A   1      41.869  28.700  31.203  1.00  0.00    -0.354 N 
ATOM     19  C   UNL A   1      38.192  30.374  29.424  1.00  0.00     0.074 A 
ATOM     20  C   UNL A   1      38.146  29.978  28.032  1.00  0.00     0.031 C 
ATOM     21  C   UNL A   1      43.532  27.205  31.271  1.00  0.00     0.029 A 
ATOM     22  C   UNL A   1      42.789  28.159  32.083  1.00  0.00     0.049 A 
ATOM     23  H   UNL A   1      41.355  29.520  31.380  1.00  0.00     0.167 HD
ATOM     24  C   UNL A   1      37.378  31.284  29.996  1.00  0.00     0.037 A 
ATOM     25  C   UNL A   1      42.925  28.361  33.411  1.00  0.00     0.037 A 
ATOM     26  C   UNL A   1      37.615  31.796  31.313  1.00  0.00     0.049 A 
ATOM     27  C   UNL A   1      42.014  29.391  34.037  1.00  0.00     0.074 A 
ATOM     28  C   UNL A   1      37.045  32.880  31.944  1.00  0.00     0.029 A 
ATOM     29  N   UNL A   1      38.579  31.280  32.175  1.00  0.00    -0.354 N 
ATOM     30  N   UNL A   1      40.959  29.986  33.530  1.00  0.00    -0.248 NA
ATOM     31  C   UNL A   1      42.337  29.808  35.408  1.00  0.00     0.031 C 
ATOM     32  C   UNL A   1      37.720  33.067  33.159  1.00  0.00     0.029 A 
ATOM     33  C   UNL A   1      38.654  32.051  33.318  1.00  0.00     0.049 A 
ATOM     34  H   UNL A   1      39.126  30.482  31.997  1.00  0.00     0.167 HD
ATOM     35  C   UNL A   1      40.512  30.869  34.502  1.00  0.00     0.074 A 
ATOM     36  C   UNL A   1      41.361  30.667  35.662  1.00  0.00     0.031 C 
ATOM     37  C   UNL A   1      39.527  31.800  34.438  1.00  0.00     0.037 A 
BRANCH  24  38
ATOM     38  C   UNL A   1      36.340  31.854  29.087  1.00  0.00     0.064 A 
ATOM     39  C   UNL A   1      36.325  33.222  28.769  1.00  0.00     0.173 A 
ATOM     40  C   UNL A   1      35.230  31.077  28.732  1.00  0.00     0.173 A 
ATOM     41  F   UNL A   1      37.338  34.016  29.149  1.00  0.00    -0.203 F 
ATOM     42  C   UNL A   1      35.207  33.800  28.174  1.00  0.00     0.198 A 
ATOM     43  C   UNL A   1      34.123  31.656  28.121  1.00  0.00     0.198 A 
ATOM     44  F   UNL A   1      35.184  29.777  29.057  1.00  0.00    -0.203 F 
ATOM     45  F   UNL A   1      35.166  35.125  27.972  1.00  0.00    -0.200 F 
ATOM     46  C   UNL A   1      34.105  33.018  27.857  1.00  0.00     0.200 A 
ATOM     47  F   UNL A   1      33.048  30.906  27.842  1.00  0.00    -0.200 F 
ATOM     48  F   UNL A   1      33.006  33.585  27.340  1.00  0.00    -0.200 F 
ENDBRANCH  24  38
BRANCH  25  49
ATOM     49  C   UNL A   1      43.876  27.578  34.262  1.00  0.00     0.064 A 
ATOM     50  C   UNL A   1      43.451  26.409  34.922  1.00  0.00     0.173 A 
ATOM     51  C   UNL A   1      45.189  28.002  34.514  1.00  0.00     0.173 A 
ATOM     52  F   UNL A   1      42.205  25.949  34.733  1.00  0.00    -0.203 F 
ATOM     53  C   UNL A   1      44.275  25.736  35.827  1.00  0.00     0.198 A 
ATOM     54  C   UNL A   1      46.026  27.307  35.391  1.00  0.00     0.198 A 
ATOM     55  F   UNL A   1      45.663  29.110  33.925  1.00  0.00    -0.203 F 
ATOM     56  F   UNL A   1      43.806  24.672  36.494  1.00  0.00    -0.200 F 
ATOM     57  C   UNL A   1      45.562  26.185  36.061  1.00  0.00     0.200 A 
ATOM     58  F   UNL A   1      47.277  27.738  35.603  1.00  0.00    -0.200 F 
ATOM     59  F   UNL A   1      46.349  25.551  36.941  1.00  0.00    -0.200 F 
ENDBRANCH  25  49
BRANCH  37  60
ATOM     60  C   UNL A   1      39.349  32.682  35.636  1.00  0.00     0.064 A 
ATOM     61  C   UNL A   1      39.983  33.930  35.722  1.00  0.00     0.173 A 
ATOM     62  C   UNL A   1      38.465  32.313  36.659  1.00  0.00     0.173 A 
ATOM     63  F   UNL A   1      40.844  34.319  34.770  1.00  0.00    -0.203 F 
ATOM     64  C   UNL A   1      39.749  34.774  36.802  1.00  0.00     0.198 A 
ATOM     65  C   UNL A   1      38.208  33.174  37.720  1.00  0.00     0.198 A 
ATOM     66  F   UNL A   1      37.831  31.132  36.614  1.00  0.00    -0.203 F 
ATOM     67  F   UNL A   1      40.391  35.947  36.884  1.00  0.00    -0.200 F 
ATOM     68  C   UNL A   1      38.853  34.401  37.793  1.00  0.00     0.200 A 
ATOM     69  F   UNL A   1      37.329  32.822  38.668  1.00  0.00    -0.200 F 
ATOM     70  F   UNL A   1      38.611  35.226  38.821  1.00  0.00    -0.200 F 
ENDBRANCH  37  60
ENDBRANCH  11  12
ENDBRANCH   4   6
ENDBRANCH   3   4
ENDBRANCH   2   3
ENDBRANCH   1   2
BRANCH   1  71
ATOM     71  O   UNL A   1      35.306  24.410  24.895  1.00  0.00    -0.460 OA
BRANCH  71  72
ATOM     72  C   UNL A   1      34.286  24.572  24.012  1.00  0.00     0.336 C 
ATOM     73  O   UNL A   1      34.390  24.419  22.803  1.00  0.00    -0.249 OA
BRANCH  72  74
ATOM     74  C   UNL A   1      32.956  24.934  24.777  1.00  0.00     0.164 C 
ATOM     75  C   UNL A   1      31.718  24.357  24.035  1.00  0.00     0.046 C 
ATOM     76  C   UNL A   1      32.810  26.517  24.794  1.00  0.00    -0.008 A 
ATOM     77  C   UNL A   1      31.337  25.129  22.770  1.00  0.00     0.008 C 
ATOM     78  C   UNL A   1      31.940  27.240  23.950  1.00  0.00    -0.042 A 
ATOM     79  C   UNL A   1      33.693  27.302  25.544  1.00  0.00     0.007 A 
ATOM     80  C   UNL A   1      30.915  26.553  23.099  1.00  0.00     0.036 C 
ATOM     81  C   UNL A   1      31.985  28.658  23.891  1.00  0.00     0.004 A 
ATOM     82  C   UNL A   1      33.754  28.701  25.479  1.00  0.00     0.000 A 
ATOM     83  C   UNL A   1      32.895  29.386  24.647  1.00  0.00     0.000 A 
BRANCH  74  84
ATOM     84  N   UNL A   1      32.951  24.338  26.188  1.00  0.00    -0.336 N 
ATOM     85  C   UNL A   1      32.211  23.292  26.737  1.00  0.00     0.224 C 
ATOM     86  H   UNL A   1      33.577  24.768  26.814  1.00  0.00     0.164 HD
ATOM     87  O   UNL A   1      31.427  23.581  27.645  1.00  0.00    -0.275 OA
BRANCH  85  88
ATOM     88  C   UNL A   1      32.561  21.794  26.466  1.00  0.00     0.082 C 
ATOM     89  C   UNL A   1      34.074  21.501  26.413  1.00  0.00     0.035 C 
ATOM     90  C   UNL A   1      31.783  21.240  25.211  1.00  0.00     0.035 C 
ATOM     91  C   UNL A   1      34.638  21.073  25.053  1.00  0.00     0.120 C 
ATOM     92  C   UNL A   1      32.534  20.695  23.993  1.00  0.00     0.120 C 
ATOM     93  N   UNL A   1      33.776  20.095  24.399  1.00  0.00    -0.342 N 
ATOM     94  C   UNL A   1      34.162  18.753  24.373  1.00  0.00     0.225 C 
ATOM     95  O   UNL A   1      35.156  18.389  25.002  1.00  0.00    -0.275 OA
BRANCH  94  96
ATOM     96  C   UNL A   1      33.491  17.664  23.583  1.00  0.00     0.079 C 
ATOM     97  C   UNL A   1      34.148  16.579  22.776  1.00  0.00     0.014 C 
ATOM     98  C   UNL A   1      33.347  16.225  24.003  1.00  0.00     0.014 C 
ENDBRANCH  94  96
ENDBRANCH  85  88
ENDBRANCH  74  84
ENDBRANCH  72  74
ENDBRANCH  71  72
ENDBRANCH   1  71
TORSDOF 14
ENDMDL
