MODEL 1
REMARK VINA RESULT:     -12.1      0.000      0.000
REMARK SMILES CC[NH2+][C@@]1(C(=O)OCCOC(=O)c2ccc(-c3c4nc(c(-c5c(F)c(F)c(F)c(F)c5F)c5ccc([nH]5)c(-c5c(F)c(F)c(F)c(F)c5F)c5nc(c(-c6c(F)c(F)c(F)c(F)c6F)c6ccc3[nH]6)C=C5)C=C4)cc2)CC[C@@H]([NH+]2CCC(C)(CC)CC2)C1
REMARK SMILES IDX 8 1 7 2 5 3 6 4 4 5 76 6 88 7 77 8 78 9 3 10 2 13 1 14 79 15
REMARK SMILES IDX 80 16 87 17 81 19 86 20 82 21 83 22 84 23 85 24 9 25 10 26
REMARK SMILES IDX 11 27 12 28 13 29 14 30 75 31 15 32 74 33 16 34 17 35 18 36
REMARK SMILES IDX 68 37 19 38 73 39 67 40 69 41 20 42 72 43 66 44 65 45 21 47
REMARK SMILES IDX 53 48 33 49 52 50 34 51 37 52 51 53 70 54 35 55 36 56 50 58
REMARK SMILES IDX 71 59 38 60 22 61 23 62 31 63 24 64 25 65 29 66 32 67 26 68
REMARK SMILES IDX 27 69 30 70 28 71 54 72 55 73 63 74 56 75 57 76 61 77 64 78
REMARK SMILES IDX 58 79 59 80 62 81 60 82 39 83 40 84 48 85 41 86 42 87 46 88
REMARK SMILES IDX 49 89 43 90 44 91 47 92 45 93
REMARK H PARENT 3 11 3 12 79 18 69 46 37 57
REMARK Flexibility Score: inf
ROOT
ATOM      1  C   UNL A   1      30.938  29.696  24.414  1.00  0.00     0.274 C 
ENDROOT
BRANCH   1   2
ATOM      2  O   UNL A   1      31.782  29.068  23.430  1.00  0.00    -0.457 OA
BRANCH   2   3
ATOM      3  C   UNL A   1      31.242  28.021  22.749  1.00  0.00     0.368 C 
ATOM      4  O   UNL A   1      30.207  28.099  22.091  1.00  0.00    -0.245 OA
BRANCH   3   5
ATOM      5  C   UNL A   1      32.100  26.706  22.858  1.00  0.00     0.200 C 
ATOM      6  C   UNL A   1      31.121  25.585  23.240  1.00  0.00     0.087 C 
ATOM      7  C   UNL A   1      33.115  26.734  24.028  1.00  0.00     0.146 C 
ATOM      8  C   UNL A   1      31.041  25.680  24.761  1.00  0.00     0.072 C 
ATOM      9  C   UNL A   1      32.477  25.988  25.226  1.00  0.00     0.191 C 
BRANCH   5  10
ATOM     10  N   UNL A   1      32.773  26.597  21.531  1.00  0.00    -0.332 N 
ATOM     11  H   UNL A   1      32.321  27.274  20.917  1.00  0.00     0.347 HD
ATOM     12  H   UNL A   1      33.757  26.747  21.757  1.00  0.00     0.347 HD
BRANCH  10  13
ATOM     13  C   UNL A   1      32.787  25.331  20.818  1.00  0.00     0.257 C 
ATOM     14  C   UNL A   1      32.342  25.498  19.374  1.00  0.00     0.071 C 
ENDBRANCH  10  13
ENDBRANCH   5  10
BRANCH   9  15
ATOM     15  N   UNL A   1      33.167  24.818  25.805  1.00  0.00    -0.332 N 
ATOM     16  C   UNL A   1      34.324  24.313  25.065  1.00  0.00     0.263 C 
ATOM     17  C   UNL A   1      32.394  23.696  26.324  1.00  0.00     0.263 C 
ATOM     18  H   UNL A   1      33.486  25.311  26.639  1.00  0.00     0.348 HD
ATOM     19  C   UNL A   1      33.997  23.366  23.908  1.00  0.00     0.068 C 
ATOM     20  C   UNL A   1      31.861  22.774  25.234  1.00  0.00     0.068 C 
ATOM     21  C   UNL A   1      32.879  22.312  24.163  1.00  0.00    -0.022 C 
ATOM     22  C   UNL A   1      32.139  22.102  22.808  1.00  0.00     0.012 C 
BRANCH  21  23
ATOM     23  C   UNL A   1      33.452  20.908  24.516  1.00  0.00     0.004 C 
ATOM     24  C   UNL A   1      32.611  19.704  24.129  1.00  0.00     0.004 C 
ENDBRANCH  21  23
ENDBRANCH   9  15
ENDBRANCH   3   5
ENDBRANCH   2   3
ENDBRANCH   1   2
BRANCH   1  25
ATOM     25  C   UNL A   1      31.563  29.538  25.799  1.00  0.00     0.275 C 
BRANCH  25  26
ATOM     26  O   UNL A   1      32.876  30.129  25.813  1.00  0.00    -0.458 OA
BRANCH  26  27
ATOM     27  C   UNL A   1      33.117  31.018  26.800  1.00  0.00     0.338 C 
ATOM     28  O   UNL A   1      32.360  31.868  27.243  1.00  0.00    -0.246 OA
BRANCH  27  29
ATOM     29  C   UNL A   1      34.472  30.814  27.340  1.00  0.00     0.060 A 
ATOM     30  C   UNL A   1      34.930  29.523  27.578  1.00  0.00     0.016 A 
ATOM     31  C   UNL A   1      35.232  31.909  27.753  1.00  0.00     0.016 A 
ATOM     32  C   UNL A   1      36.083  29.330  28.337  1.00  0.00     0.010 A 
ATOM     33  C   UNL A   1      36.453  31.702  28.410  1.00  0.00     0.010 A 
ATOM     34  C   UNL A   1      36.880  30.407  28.752  1.00  0.00    -0.014 A 
BRANCH  34  35
ATOM     35  C   UNL A   1      38.124  30.191  29.556  1.00  0.00     0.031 A 
ATOM     36  C   UNL A   1      39.273  29.390  28.990  1.00  0.00     0.074 A 
ATOM     37  C   UNL A   1      38.258  30.708  30.795  1.00  0.00     0.049 A 
ATOM     38  N   UNL A   1      40.280  28.827  29.611  1.00  0.00    -0.248 NA
ATOM     39  C   UNL A   1      39.285  29.187  27.532  1.00  0.00     0.031 C 
ATOM     40  C   UNL A   1      37.290  31.572  31.472  1.00  0.00     0.029 A 
ATOM     41  N   UNL A   1      39.278  30.585  31.713  1.00  0.00    -0.354 N 
ATOM     42  C   UNL A   1      40.990  28.131  28.639  1.00  0.00     0.074 A 
ATOM     43  C   UNL A   1      40.318  28.368  27.379  1.00  0.00     0.031 C 
ATOM     44  C   UNL A   1      37.784  31.951  32.658  1.00  0.00     0.029 A 
ATOM     45  C   UNL A   1      39.038  31.247  32.892  1.00  0.00     0.049 A 
ATOM     46  H   UNL A   1      40.100  30.071  31.540  1.00  0.00     0.167 HD
ATOM     47  C   UNL A   1      42.089  27.354  28.793  1.00  0.00     0.037 A 
ATOM     48  C   UNL A   1      39.701  31.239  34.064  1.00  0.00     0.037 A 
ATOM     49  C   UNL A   1      42.805  27.192  30.033  1.00  0.00     0.049 A 
ATOM     50  C   UNL A   1      40.899  30.350  34.226  1.00  0.00     0.074 A 
ATOM     51  C   UNL A   1      43.920  26.412  30.295  1.00  0.00     0.029 A 
ATOM     52  N   UNL A   1      42.495  27.852  31.212  1.00  0.00    -0.354 N 
ATOM     53  N   UNL A   1      41.472  29.571  33.343  1.00  0.00    -0.248 NA
ATOM     54  C   UNL A   1      41.514  30.305  35.560  1.00  0.00     0.031 C 
ATOM     55  C   UNL A   1      44.273  26.588  31.637  1.00  0.00     0.029 A 
ATOM     56  C   UNL A   1      43.398  27.501  32.202  1.00  0.00     0.049 A 
ATOM     57  H   UNL A   1      41.744  28.478  31.328  1.00  0.00     0.167 HD
ATOM     58  C   UNL A   1      42.511  28.940  34.013  1.00  0.00     0.074 A 
ATOM     59  C   UNL A   1      42.505  29.445  35.369  1.00  0.00     0.031 C 
ATOM     60  C   UNL A   1      43.381  28.015  33.546  1.00  0.00     0.037 A 
BRANCH  47  61
ATOM     61  C   UNL A   1      42.572  26.576  27.604  1.00  0.00     0.064 A 
ATOM     62  C   UNL A   1      43.572  27.059  26.750  1.00  0.00     0.173 A 
ATOM     63  C   UNL A   1      42.059  25.292  27.355  1.00  0.00     0.173 A 
ATOM     64  F   UNL A   1      44.085  28.284  26.937  1.00  0.00    -0.203 F 
ATOM     65  C   UNL A   1      44.032  26.291  25.682  1.00  0.00     0.198 A 
ATOM     66  C   UNL A   1      42.538  24.517  26.301  1.00  0.00     0.198 A 
ATOM     67  F   UNL A   1      41.106  24.780  28.148  1.00  0.00    -0.203 F 
ATOM     68  F   UNL A   1      44.968  26.783  24.859  1.00  0.00    -0.200 F 
ATOM     69  C   UNL A   1      43.522  25.020  25.464  1.00  0.00     0.200 A 
ATOM     70  F   UNL A   1      42.051  23.285  26.101  1.00  0.00    -0.200 F 
ATOM     71  F   UNL A   1      43.975  24.278  24.442  1.00  0.00    -0.200 F 
ENDBRANCH  47  61
BRANCH  48  72
ATOM     72  C   UNL A   1      39.187  32.043  35.203  1.00  0.00     0.064 A 
ATOM     73  C   UNL A   1      38.446  31.444  36.230  1.00  0.00     0.173 A 
ATOM     74  C   UNL A   1      39.449  33.418  35.302  1.00  0.00     0.173 A 
ATOM     75  F   UNL A   1      38.143  30.140  36.164  1.00  0.00    -0.203 F 
ATOM     76  C   UNL A   1      37.992  32.189  37.317  1.00  0.00     0.198 A 
ATOM     77  C   UNL A   1      39.023  34.155  36.404  1.00  0.00     0.198 A 
ATOM     78  F   UNL A   1      40.149  34.039  34.341  1.00  0.00    -0.203 F 
ATOM     79  F   UNL A   1      37.261  31.600  38.272  1.00  0.00    -0.200 F 
ATOM     80  C   UNL A   1      38.291  33.541  37.409  1.00  0.00     0.200 A 
ATOM     81  F   UNL A   1      39.328  35.457  36.494  1.00  0.00    -0.200 F 
ATOM     82  F   UNL A   1      37.871  34.253  38.462  1.00  0.00    -0.200 F 
ENDBRANCH  48  72
BRANCH  60  83
ATOM     83  C   UNL A   1      44.414  27.507  34.503  1.00  0.00     0.064 A 
ATOM     84  C   UNL A   1      44.201  26.341  35.252  1.00  0.00     0.173 A 
ATOM     85  C   UNL A   1      45.638  28.174  34.648  1.00  0.00     0.173 A 
ATOM     86  F   UNL A   1      43.038  25.681  35.157  1.00  0.00    -0.203 F 
ATOM     87  C   UNL A   1      45.176  25.870  36.127  1.00  0.00     0.198 A 
ATOM     88  C   UNL A   1      46.616  27.690  35.510  1.00  0.00     0.198 A 
ATOM     89  F   UNL A   1      45.885  29.294  33.950  1.00  0.00    -0.203 F 
ATOM     90  F   UNL A   1      44.942  24.772  36.860  1.00  0.00    -0.200 F 
ATOM     91  C   UNL A   1      46.384  26.541  36.252  1.00  0.00     0.200 A 
ATOM     92  F   UNL A   1      47.784  28.336  35.627  1.00  0.00    -0.200 F 
ATOM     93  F   UNL A   1      47.321  26.084  37.093  1.00  0.00    -0.200 F 
ENDBRANCH  60  83
ENDBRANCH  34  35
ENDBRANCH  27  29
ENDBRANCH  26  27
ENDBRANCH  25  26
ENDBRANCH   1  25
TORSDOF 15
ENDMDL
MODEL 2
REMARK VINA RESULT:     -11.9      0.968      1.730
REMARK SMILES CC[NH2+][C@@]1(C(=O)OCCOC(=O)c2ccc(-c3c4nc(c(-c5c(F)c(F)c(F)c(F)c5F)c5ccc([nH]5)c(-c5c(F)c(F)c(F)c(F)c5F)c5nc(c(-c6c(F)c(F)c(F)c(F)c6F)c6ccc3[nH]6)C=C5)C=C4)cc2)CC[C@@H]([NH+]2CCC(C)(CC)CC2)C1
REMARK SMILES IDX 8 1 7 2 5 3 6 4 4 5 76 6 88 7 77 8 78 9 3 10 2 13 1 14 79 15
REMARK SMILES IDX 80 16 87 17 81 19 86 20 82 21 83 22 84 23 85 24 9 25 10 26
REMARK SMILES IDX 11 27 12 28 13 29 14 30 75 31 15 32 74 33 16 34 17 35 18 36
REMARK SMILES IDX 68 37 19 38 73 39 67 40 69 41 20 42 72 43 66 44 65 45 21 47
REMARK SMILES IDX 53 48 33 49 52 50 34 51 37 52 51 53 70 54 35 55 36 56 50 58
REMARK SMILES IDX 71 59 38 60 22 61 23 62 31 63 24 64 25 65 29 66 32 67 26 68
REMARK SMILES IDX 27 69 30 70 28 71 54 72 55 73 63 74 56 75 57 76 61 77 64 78
REMARK SMILES IDX 58 79 59 80 62 81 60 82 39 83 40 84 48 85 41 86 42 87 46 88
REMARK SMILES IDX 49 89 43 90 44 91 47 92 45 93
REMARK H PARENT 3 11 3 12 79 18 69 46 37 57
REMARK Flexibility Score: inf
ROOT
ATOM      1  C   UNL A   1      31.266  28.720  24.705  1.00  0.00     0.274 C 
ENDROOT
BRANCH   1   2
ATOM      2  O   UNL A   1      31.356  27.416  25.312  1.00  0.00    -0.457 OA
BRANCH   2   3
ATOM      3  C   UNL A   1      30.833  26.380  24.600  1.00  0.00     0.368 C 
ATOM      4  O   UNL A   1      29.697  26.381  24.132  1.00  0.00    -0.245 OA
BRANCH   3   5
ATOM      5  C   UNL A   1      31.848  25.193  24.404  1.00  0.00     0.200 C 
ATOM      6  C   UNL A   1      30.996  23.935  24.170  1.00  0.00     0.087 C 
ATOM      7  C   UNL A   1      32.658  24.864  25.683  1.00  0.00     0.146 C 
ATOM      8  C   UNL A   1      30.674  23.450  25.580  1.00  0.00     0.072 C 
ATOM      9  C   UNL A   1      31.963  23.677  26.394  1.00  0.00     0.191 C 
BRANCH   5  10
ATOM     10  N   UNL A   1      32.723  25.640  23.282  1.00  0.00    -0.332 N 
ATOM     11  H   UNL A   1      32.356  26.537  22.965  1.00  0.00     0.347 HD
ATOM     12  H   UNL A   1      33.655  25.630  23.696  1.00  0.00     0.347 HD
BRANCH  10  13
ATOM     13  C   UNL A   1      32.878  24.811  22.098  1.00  0.00     0.257 C 
ATOM     14  C   UNL A   1      32.528  25.575  20.831  1.00  0.00     0.071 C 
ENDBRANCH  10  13
ENDBRANCH   5  10
BRANCH   9  15
ATOM     15  N   UNL A   1      32.721  22.436  26.646  1.00  0.00    -0.332 N 
ATOM     16  C   UNL A   1      34.026  22.589  27.287  1.00  0.00     0.263 C 
ATOM     17  C   UNL A   1      32.802  21.408  25.615  1.00  0.00     0.263 C 
ATOM     18  H   UNL A   1      32.052  22.063  27.320  1.00  0.00     0.348 HD
ATOM     19  C   UNL A   1      35.182  22.931  26.343  1.00  0.00     0.068 C 
ATOM     20  C   UNL A   1      33.806  21.732  24.515  1.00  0.00     0.068 C 
ATOM     21  C   UNL A   1      35.214  22.182  24.978  1.00  0.00    -0.022 C 
ATOM     22  C   UNL A   1      35.804  23.176  23.932  1.00  0.00     0.012 C 
BRANCH  21  23
ATOM     23  C   UNL A   1      36.205  20.982  24.978  1.00  0.00     0.004 C 
ATOM     24  C   UNL A   1      37.686  21.312  25.034  1.00  0.00     0.004 C 
ENDBRANCH  21  23
ENDBRANCH   9  15
ENDBRANCH   3   5
ENDBRANCH   2   3
ENDBRANCH   1   2
BRANCH   1  25
ATOM     25  C   UNL A   1      31.430  29.794  25.779  1.00  0.00     0.275 C 
BRANCH  25  26
ATOM     26  O   UNL A   1      32.819  30.155  25.901  1.00  0.00    -0.458 OA
BRANCH  26  27
ATOM     27  C   UNL A   1      33.113  31.078  26.841  1.00  0.00     0.338 C 
ATOM     28  O   UNL A   1      32.400  31.981  27.251  1.00  0.00    -0.246 OA
BRANCH  27  29
ATOM     29  C   UNL A   1      34.465  30.840  27.374  1.00  0.00     0.060 A 
ATOM     30  C   UNL A   1      34.876  29.541  27.650  1.00  0.00     0.016 A 
ATOM     31  C   UNL A   1      35.270  31.918  27.743  1.00  0.00     0.016 A 
ATOM     32  C   UNL A   1      36.030  29.328  28.402  1.00  0.00     0.010 A 
ATOM     33  C   UNL A   1      36.491  31.686  28.394  1.00  0.00     0.010 A 
ATOM     34  C   UNL A   1      36.872  30.387  28.774  1.00  0.00    -0.014 A 
BRANCH  34  35
ATOM     35  C   UNL A   1      38.115  30.149  29.572  1.00  0.00     0.031 A 
ATOM     36  C   UNL A   1      39.248  29.331  29.000  1.00  0.00     0.074 A 
ATOM     37  C   UNL A   1      38.264  30.663  30.812  1.00  0.00     0.049 A 
ATOM     38  N   UNL A   1      40.249  28.750  29.616  1.00  0.00    -0.248 NA
ATOM     39  C   UNL A   1      39.251  29.128  27.542  1.00  0.00     0.031 C 
ATOM     40  C   UNL A   1      37.313  31.543  31.493  1.00  0.00     0.029 A 
ATOM     41  N   UNL A   1      39.285  30.522  31.724  1.00  0.00    -0.354 N 
ATOM     42  C   UNL A   1      40.943  28.043  28.640  1.00  0.00     0.074 A 
ATOM     43  C   UNL A   1      40.269  28.293  27.383  1.00  0.00     0.031 C 
ATOM     44  C   UNL A   1      37.819  31.912  32.677  1.00  0.00     0.029 A 
ATOM     45  C   UNL A   1      39.062  31.187  32.905  1.00  0.00     0.049 A 
ATOM     46  H   UNL A   1      40.098  29.995  31.547  1.00  0.00     0.167 HD
ATOM     47  C   UNL A   1      42.030  27.249  28.788  1.00  0.00     0.037 A 
ATOM     48  C   UNL A   1      39.730  31.167  34.074  1.00  0.00     0.037 A 
ATOM     49  C   UNL A   1      42.748  27.073  30.025  1.00  0.00     0.049 A 
ATOM     50  C   UNL A   1      40.914  30.258  34.229  1.00  0.00     0.074 A 
ATOM     51  C   UNL A   1      43.851  26.274  30.281  1.00  0.00     0.029 A 
ATOM     52  N   UNL A   1      42.455  27.737  31.206  1.00  0.00    -0.354 N 
ATOM     53  N   UNL A   1      41.470  29.471  33.344  1.00  0.00    -0.248 NA
ATOM     54  C   UNL A   1      41.534  30.202  35.561  1.00  0.00     0.031 C 
ATOM     55  C   UNL A   1      44.214  26.443  31.622  1.00  0.00     0.029 A 
ATOM     56  C   UNL A   1      43.356  27.370  32.192  1.00  0.00     0.049 A 
ATOM     57  H   UNL A   1      41.715  28.375  31.326  1.00  0.00     0.167 HD
ATOM     58  C   UNL A   1      42.501  28.822  34.008  1.00  0.00     0.074 A 
ATOM     59  C   UNL A   1      42.510  29.325  35.365  1.00  0.00     0.031 C 
ATOM     60  C   UNL A   1      43.354  27.882  33.536  1.00  0.00     0.037 A 
BRANCH  47  61
ATOM     61  C   UNL A   1      42.494  26.464  27.596  1.00  0.00     0.064 A 
ATOM     62  C   UNL A   1      43.512  26.922  26.749  1.00  0.00     0.173 A 
ATOM     63  C   UNL A   1      41.945  25.196  27.338  1.00  0.00     0.173 A 
ATOM     64  F   UNL A   1      44.059  28.131  26.946  1.00  0.00    -0.203 F 
ATOM     65  C   UNL A   1      43.953  26.147  25.678  1.00  0.00     0.198 A 
ATOM     66  C   UNL A   1      42.406  24.415  26.281  1.00  0.00     0.198 A 
ATOM     67  F   UNL A   1      40.974  24.708  28.124  1.00  0.00    -0.203 F 
ATOM     68  F   UNL A   1      44.906  26.617  24.861  1.00  0.00    -0.200 F 
ATOM     69  C   UNL A   1      43.406  24.893  25.450  1.00  0.00     0.200 A 
ATOM     70  F   UNL A   1      41.884  23.199  26.071  1.00  0.00    -0.200 F 
ATOM     71  F   UNL A   1      43.842  24.145  24.426  1.00  0.00    -0.200 F 
ENDBRANCH  47  61
BRANCH  48  72
ATOM     72  C   UNL A   1      39.235  31.978  35.216  1.00  0.00     0.064 A 
ATOM     73  C   UNL A   1      38.479  31.392  36.240  1.00  0.00     0.173 A 
ATOM     74  C   UNL A   1      39.529  33.346  35.321  1.00  0.00     0.173 A 
ATOM     75  F   UNL A   1      38.145  30.096  36.168  1.00  0.00    -0.203 F 
ATOM     76  C   UNL A   1      38.042  32.144  37.330  1.00  0.00     0.198 A 
ATOM     77  C   UNL A   1      39.120  34.088  36.426  1.00  0.00     0.198 A 
ATOM     78  F   UNL A   1      40.244  33.954  34.363  1.00  0.00    -0.203 F 
ATOM     79  F   UNL A   1      37.297  31.567  38.282  1.00  0.00    -0.200 F 
ATOM     80  C   UNL A   1      38.373  33.487  37.428  1.00  0.00     0.200 A 
ATOM     81  F   UNL A   1      39.455  35.382  36.522  1.00  0.00    -0.200 F 
ATOM     82  F   UNL A   1      37.969  34.204  38.484  1.00  0.00    -0.200 F 
ENDBRANCH  48  72
BRANCH  60  83
ATOM     83  C   UNL A   1      44.383  27.356  34.488  1.00  0.00     0.064 A 
ATOM     84  C   UNL A   1      45.614  28.004  34.660  1.00  0.00     0.173 A 
ATOM     85  C   UNL A   1      44.122  26.214  35.256  1.00  0.00     0.173 A 
ATOM     86  F   UNL A   1      45.912  29.091  33.932  1.00  0.00    -0.203 F 
ATOM     87  C   UNL A   1      46.556  27.514  35.560  1.00  0.00     0.198 A 
ATOM     88  C   UNL A   1      45.058  25.738  36.168  1.00  0.00     0.198 A 
ATOM     89  F   UNL A   1      42.956  25.562  35.125  1.00  0.00    -0.203 F 
ATOM     90  F   UNL A   1      47.741  28.128  35.687  1.00  0.00    -0.200 F 
ATOM     91  C   UNL A   1      46.276  26.386  36.317  1.00  0.00     0.200 A 
ATOM     92  F   UNL A   1      44.786  24.650  36.901  1.00  0.00    -0.200 F 
ATOM     93  F   UNL A   1      47.184  25.918  37.184  1.00  0.00    -0.200 F 
ENDBRANCH  60  83
ENDBRANCH  34  35
ENDBRANCH  27  29
ENDBRANCH  26  27
ENDBRANCH  25  26
ENDBRANCH   1  25
TORSDOF 15
ENDMDL
MODEL 3
REMARK VINA RESULT:     -11.8      1.090      2.185
REMARK SMILES CC[NH2+][C@@]1(C(=O)OCCOC(=O)c2ccc(-c3c4nc(c(-c5c(F)c(F)c(F)c(F)c5F)c5ccc([nH]5)c(-c5c(F)c(F)c(F)c(F)c5F)c5nc(c(-c6c(F)c(F)c(F)c(F)c6F)c6ccc3[nH]6)C=C5)C=C4)cc2)CC[C@@H]([NH+]2CCC(C)(CC)CC2)C1
REMARK SMILES IDX 8 1 7 2 5 3 6 4 4 5 76 6 88 7 77 8 78 9 3 10 2 13 1 14 79 15
REMARK SMILES IDX 80 16 87 17 81 19 86 20 82 21 83 22 84 23 85 24 9 25 10 26
REMARK SMILES IDX 11 27 12 28 13 29 14 30 75 31 15 32 74 33 16 34 17 35 18 36
REMARK SMILES IDX 68 37 19 38 73 39 67 40 69 41 20 42 72 43 66 44 65 45 21 47
REMARK SMILES IDX 53 48 33 49 52 50 34 51 37 52 51 53 70 54 35 55 36 56 50 58
REMARK SMILES IDX 71 59 38 60 22 61 23 62 31 63 24 64 25 65 29 66 32 67 26 68
REMARK SMILES IDX 27 69 30 70 28 71 54 72 55 73 63 74 56 75 57 76 61 77 64 78
REMARK SMILES IDX 58 79 59 80 62 81 60 82 39 83 40 84 48 85 41 86 42 87 46 88
REMARK SMILES IDX 49 89 43 90 44 91 47 92 45 93
REMARK H PARENT 3 11 3 12 79 18 69 46 37 57
REMARK Flexibility Score: inf
ROOT
ATOM      1  C   UNL A   1      31.250  28.915  24.624  1.00  0.00     0.274 C 
ENDROOT
BRANCH   1   2
ATOM      2  O   UNL A   1      32.154  27.864  25.015  1.00  0.00    -0.457 OA
BRANCH   2   3
ATOM      3  C   UNL A   1      31.655  26.918  25.858  1.00  0.00     0.368 C 
ATOM      4  O   UNL A   1      31.024  27.182  26.878  1.00  0.00    -0.245 OA
BRANCH   3   5
ATOM      5  C   UNL A   1      31.936  25.448  25.370  1.00  0.00     0.200 C 
ATOM      6  C   UNL A   1      33.050  24.902  26.277  1.00  0.00     0.087 C 
ATOM      7  C   UNL A   1      32.547  25.383  23.947  1.00  0.00     0.146 C 
ATOM      8  C   UNL A   1      34.332  25.388  25.609  1.00  0.00     0.072 C 
ATOM      9  C   UNL A   1      34.082  25.244  24.095  1.00  0.00     0.191 C 
BRANCH   5  10
ATOM     10  N   UNL A   1      30.607  24.777  25.445  1.00  0.00    -0.332 N 
ATOM     11  H   UNL A   1      29.908  25.517  25.508  1.00  0.00     0.347 HD
ATOM     12  H   UNL A   1      30.597  24.187  24.612  1.00  0.00     0.347 HD
BRANCH  10  13
ATOM     13  C   UNL A   1      30.319  23.839  26.517  1.00  0.00     0.257 C 
ATOM     14  C   UNL A   1      30.548  22.401  26.077  1.00  0.00     0.071 C 
ENDBRANCH  10  13
ENDBRANCH   5  10
BRANCH   9  15
ATOM     15  N   UNL A   1      34.767  24.081  23.498  1.00  0.00    -0.332 N 
ATOM     16  C   UNL A   1      33.932  22.922  23.187  1.00  0.00     0.263 C 
ATOM     17  C   UNL A   1      36.045  23.630  24.037  1.00  0.00     0.263 C 
ATOM     18  H   UNL A   1      35.015  24.564  22.634  1.00  0.00     0.348 HD
ATOM     19  C   UNL A   1      33.663  21.977  24.360  1.00  0.00     0.068 C 
ATOM     20  C   UNL A   1      35.908  22.819  25.320  1.00  0.00     0.068 C 
ATOM     21  C   UNL A   1      34.864  21.676  25.304  1.00  0.00    -0.022 C 
ATOM     22  C   UNL A   1      34.278  21.497  26.738  1.00  0.00     0.012 C 
BRANCH  21  23
ATOM     23  C   UNL A   1      35.545  20.312  24.988  1.00  0.00     0.004 C 
ATOM     24  C   UNL A   1      37.063  20.281  24.999  1.00  0.00     0.004 C 
ENDBRANCH  21  23
ENDBRANCH   9  15
ENDBRANCH   3   5
ENDBRANCH   2   3
ENDBRANCH   1   2
BRANCH   1  25
ATOM     25  C   UNL A   1      31.461  30.131  25.525  1.00  0.00     0.275 C 
BRANCH  25  26
ATOM     26  O   UNL A   1      32.853  30.243  25.877  1.00  0.00    -0.458 OA
BRANCH  26  27
ATOM     27  C   UNL A   1      33.147  31.108  26.871  1.00  0.00     0.338 C 
ATOM     28  O   UNL A   1      32.438  31.991  27.328  1.00  0.00    -0.246 OA
BRANCH  27  29
ATOM     29  C   UNL A   1      34.493  30.829  27.398  1.00  0.00     0.060 A 
ATOM     30  C   UNL A   1      34.817  29.541  27.809  1.00  0.00     0.016 A 
ATOM     31  C   UNL A   1      35.385  31.877  27.626  1.00  0.00     0.016 A 
ATOM     32  C   UNL A   1      35.975  29.327  28.556  1.00  0.00     0.010 A 
ATOM     33  C   UNL A   1      36.604  31.627  28.272  1.00  0.00     0.010 A 
ATOM     34  C   UNL A   1      36.902  30.353  28.788  1.00  0.00    -0.014 A 
BRANCH  34  35
ATOM     35  C   UNL A   1      38.148  30.112  29.581  1.00  0.00     0.031 A 
ATOM     36  C   UNL A   1      39.277  29.293  29.003  1.00  0.00     0.074 A 
ATOM     37  C   UNL A   1      38.302  30.624  30.821  1.00  0.00     0.049 A 
ATOM     38  N   UNL A   1      40.280  28.710  29.615  1.00  0.00    -0.248 NA
ATOM     39  C   UNL A   1      39.274  29.093  27.544  1.00  0.00     0.031 C 
ATOM     40  C   UNL A   1      37.356  31.504  31.507  1.00  0.00     0.029 A 
ATOM     41  N   UNL A   1      39.327  30.479  31.729  1.00  0.00    -0.354 N 
ATOM     42  C   UNL A   1      40.968  28.004  28.635  1.00  0.00     0.074 A 
ATOM     43  C   UNL A   1      40.290  28.256  27.381  1.00  0.00     0.031 C 
ATOM     44  C   UNL A   1      37.866  31.870  32.690  1.00  0.00     0.029 A 
ATOM     45  C   UNL A   1      39.109  31.143  32.912  1.00  0.00     0.049 A 
ATOM     46  H   UNL A   1      40.138  29.952  31.548  1.00  0.00     0.167 HD
ATOM     47  C   UNL A   1      42.055  27.207  28.777  1.00  0.00     0.037 A 
ATOM     48  C   UNL A   1      39.782  31.119  34.079  1.00  0.00     0.037 A 
ATOM     49  C   UNL A   1      42.778  27.028  30.011  1.00  0.00     0.049 A 
ATOM     50  C   UNL A   1      40.964  30.209  34.228  1.00  0.00     0.074 A 
ATOM     51  C   UNL A   1      43.880  26.227  30.262  1.00  0.00     0.029 A 
ATOM     52  N   UNL A   1      42.489  27.691  31.194  1.00  0.00    -0.354 N 
ATOM     53  N   UNL A   1      41.516  29.422  33.339  1.00  0.00    -0.248 NA
ATOM     54  C   UNL A   1      41.590  30.149  35.556  1.00  0.00     0.031 C 
ATOM     55  C   UNL A   1      44.249  26.393  31.601  1.00  0.00     0.029 A 
ATOM     56  C   UNL A   1      43.395  27.320  32.176  1.00  0.00     0.049 A 
ATOM     57  H   UNL A   1      41.751  28.330  31.318  1.00  0.00     0.167 HD
ATOM     58  C   UNL A   1      42.549  28.770  33.997  1.00  0.00     0.074 A 
ATOM     59  C   UNL A   1      42.563  29.271  35.355  1.00  0.00     0.031 C 
ATOM     60  C   UNL A   1      43.398  27.831  33.521  1.00  0.00     0.037 A 
BRANCH  47  61
ATOM     61  C   UNL A   1      42.513  26.424  27.582  1.00  0.00     0.064 A 
ATOM     62  C   UNL A   1      43.530  26.880  26.733  1.00  0.00     0.173 A 
ATOM     63  C   UNL A   1      41.959  25.159  27.322  1.00  0.00     0.173 A 
ATOM     64  F   UNL A   1      44.082  28.087  26.931  1.00  0.00    -0.203 F 
ATOM     65  C   UNL A   1      43.966  26.107  25.659  1.00  0.00     0.198 A 
ATOM     66  C   UNL A   1      42.414  24.378  26.262  1.00  0.00     0.198 A 
ATOM     67  F   UNL A   1      40.989  24.671  28.110  1.00  0.00    -0.203 F 
ATOM     68  F   UNL A   1      44.919  26.576  24.841  1.00  0.00    -0.200 F 
ATOM     69  C   UNL A   1      43.414  24.855  25.430  1.00  0.00     0.200 A 
ATOM     70  F   UNL A   1      41.888  23.164  26.051  1.00  0.00    -0.200 F 
ATOM     71  F   UNL A   1      43.844  24.108  24.403  1.00  0.00    -0.200 F 
ENDBRANCH  47  61
BRANCH  48  72
ATOM     72  C   UNL A   1      39.292  31.930  35.224  1.00  0.00     0.064 A 
ATOM     73  C   UNL A   1      39.623  33.286  35.339  1.00  0.00     0.173 A 
ATOM     74  C   UNL A   1      38.462  31.373  36.209  1.00  0.00     0.173 A 
ATOM     75  F   UNL A   1      40.440  33.855  34.441  1.00  0.00    -0.203 F 
ATOM     76  C   UNL A   1      39.137  34.057  36.394  1.00  0.00     0.198 A 
ATOM     77  C   UNL A   1      37.950  32.151  37.243  1.00  0.00     0.198 A 
ATOM     78  F   UNL A   1      38.121  30.078  36.146  1.00  0.00    -0.203 F 
ATOM     79  F   UNL A   1      39.490  35.345  36.498  1.00  0.00    -0.200 F 
ATOM     80  C   UNL A   1      38.291  33.492  37.338  1.00  0.00     0.200 A 
ATOM     81  F   UNL A   1      37.122  31.604  38.144  1.00  0.00    -0.200 F 
ATOM     82  F   UNL A   1      37.809  34.237  38.340  1.00  0.00    -0.200 F 
ENDBRANCH  48  72
BRANCH  60  83
ATOM     83  C   UNL A   1      44.430  27.301  34.468  1.00  0.00     0.064 A 
ATOM     84  C   UNL A   1      44.194  26.150  35.231  1.00  0.00     0.173 A 
ATOM     85  C   UNL A   1      45.675  27.934  34.589  1.00  0.00     0.173 A 
ATOM     86  F   UNL A   1      43.010  25.523  35.159  1.00  0.00    -0.203 F 
ATOM     87  C   UNL A   1      45.167  25.658  36.097  1.00  0.00     0.198 A 
ATOM     88  C   UNL A   1      46.651  27.430  35.442  1.00  0.00     0.198 A 
ATOM     89  F   UNL A   1      45.944  29.039  33.877  1.00  0.00    -0.203 F 
ATOM     90  F   UNL A   1      44.912  24.574  36.843  1.00  0.00    -0.200 F 
ATOM     91  C   UNL A   1      46.396  26.294  36.197  1.00  0.00     0.200 A 
ATOM     92  F   UNL A   1      47.839  28.042  35.536  1.00  0.00    -0.200 F 
ATOM     93  F   UNL A   1      47.331  25.818  37.030  1.00  0.00    -0.200 F 
ENDBRANCH  60  83
ENDBRANCH  34  35
ENDBRANCH  27  29
ENDBRANCH  26  27
ENDBRANCH  25  26
ENDBRANCH   1  25
TORSDOF 15
ENDMDL
