MODEL 1
REMARK VINA RESULT:     -12.5      0.000      0.000
REMARK SMILES Cc1ccc(-n2nc(C(=O)OCCOC(=O)c3ccc(-c4c5nc(c(-c6c(F)c(F)c(F)c(F)c6F)c6ccc([nH]6)c(-c6c(F)c(F)c(F)c(F)c6F)c6nc(c(-c7c(F)c(F)c(F)c(F)c7F)c7ccc4[nH]7)C=C6)C=C5)cc3)c(C)c(C#N)c2=O)cc1Cl
REMARK SMILES IDX 13 1 12 2 11 3 9 4 10 5 8 6 6 7 7 8 85 9 82 10 86 11 80 12
REMARK SMILES IDX 81 13 5 14 1 15 2 16 3 17 88 18 4 19 87 20 89 21 83 22 84 23
REMARK SMILES IDX 14 24 15 25 16 26 17 27 18 28 79 29 19 30 78 31 20 32 21 33
REMARK SMILES IDX 22 34 72 35 23 36 77 37 71 38 73 39 24 40 76 41 70 42 69 43
REMARK SMILES IDX 25 45 57 46 37 47 56 48 38 49 41 50 55 51 74 52 39 53 40 54
REMARK SMILES IDX 54 56 75 57 42 58 26 59 27 60 35 61 28 62 29 63 33 64 36 65
REMARK SMILES IDX 30 66 31 67 34 68 32 69 58 70 59 71 67 72 60 73 61 74 65 75
REMARK SMILES IDX 68 76 62 77 63 78 66 79 64 80 43 81 44 82 52 83 45 84 46 85
REMARK SMILES IDX 50 86 53 87 47 88 48 89 51 90 49 91
REMARK H PARENT 73 44 41 55
REMARK Flexibility Score: inf
ROOT
ATOM      1  C   UNL A   1      31.724  30.137  25.673  1.00  0.00     0.275 C 
ENDROOT
BRANCH   1   2
ATOM      2  C   UNL A   1      31.601  29.129  24.528  1.00  0.00     0.275 C 
BRANCH   2   3
ATOM      3  O   UNL A   1      32.602  28.098  24.670  1.00  0.00    -0.457 OA
BRANCH   3   4
ATOM      4  C   UNL A   1      32.399  26.945  24.009  1.00  0.00     0.359 C 
ATOM      5  O   UNL A   1      32.160  26.815  22.822  1.00  0.00    -0.244 OA
BRANCH   4   6
ATOM      6  C   UNL A   1      32.521  25.718  24.935  1.00  0.00     0.173 A 
ATOM      7  N   UNL A   1      33.809  23.963  25.661  1.00  0.00    -0.195 N 
ATOM      8  N   UNL A   1      33.693  25.156  25.001  1.00  0.00    -0.157 NA
ATOM      9  C   UNL A   1      32.732  23.268  26.199  1.00  0.00     0.289 A 
ATOM     10  C   UNL A   1      31.441  24.011  26.214  1.00  0.00     0.125 A 
ATOM     11  O   UNL A   1      32.797  22.140  26.683  1.00  0.00    -0.266 OA
ATOM     12  C   UNL A   1      31.303  25.209  25.617  1.00  0.00     0.007 A 
ATOM     13  C   UNL A   1      30.052  26.036  25.598  1.00  0.00     0.049 C 
BRANCH   7  14
ATOM     14  C   UNL A   1      35.102  23.377  25.605  1.00  0.00     0.070 A 
ATOM     15  C   UNL A   1      39.000  21.484  25.663  1.00  0.00     0.046 C 
ATOM     16  C   UNL A   1      37.654  22.158  25.646  1.00  0.00    -0.032 A 
ATOM     17  C   UNL A   1      36.519  21.429  25.267  1.00  0.00     0.007 A 
ATOM     18  C   UNL A   1      37.487  23.501  26.015  1.00  0.00     0.046 A 
ATOM     19  C   UNL A   1      35.253  22.026  25.272  1.00  0.00     0.029 A 
ATOM     20  C   UNL A   1      36.231  24.121  25.956  1.00  0.00     0.049 A 
ATOM     21  Cl  UNL A   1      38.810  24.418  26.634  1.00  0.00    -0.084 Cl
ENDBRANCH   7  14
BRANCH  10  22
ATOM     22  C   UNL A   1      30.361  23.390  26.901  1.00  0.00     0.105 C 
ATOM     23  N   UNL A   1      29.474  22.949  27.502  1.00  0.00    -0.192 NA
ENDBRANCH  10  22
ENDBRANCH   4   6
ENDBRANCH   3   4
ENDBRANCH   2   3
ENDBRANCH   1   2
BRANCH   1  24
ATOM     24  O   UNL A   1      32.979  29.970  26.357  1.00  0.00    -0.458 OA
BRANCH  24  25
ATOM     25  C   UNL A   1      33.409  31.070  27.014  1.00  0.00     0.338 C 
ATOM     26  O   UNL A   1      32.778  32.083  27.269  1.00  0.00    -0.246 OA
BRANCH  25  27
ATOM     27  C   UNL A   1      34.743  30.816  27.560  1.00  0.00     0.060 A 
ATOM     28  C   UNL A   1      35.081  29.497  27.837  1.00  0.00     0.016 A 
ATOM     29  C   UNL A   1      35.592  31.856  27.923  1.00  0.00     0.016 A 
ATOM     30  C   UNL A   1      36.203  29.206  28.592  1.00  0.00     0.010 A 
ATOM     31  C   UNL A   1      36.780  31.554  28.597  1.00  0.00     0.010 A 
ATOM     32  C   UNL A   1      37.070  30.230  28.979  1.00  0.00    -0.014 A 
BRANCH  32  33
ATOM     33  C   UNL A   1      38.248  29.896  29.817  1.00  0.00     0.031 A 
ATOM     34  C   UNL A   1      39.318  28.985  29.284  1.00  0.00     0.074 A 
ATOM     35  C   UNL A   1      38.385  30.468  31.030  1.00  0.00     0.049 A 
ATOM     36  N   UNL A   1      40.402  28.547  29.875  1.00  0.00    -0.248 NA
ATOM     37  C   UNL A   1      39.156  28.505  27.902  1.00  0.00     0.031 C 
ATOM     38  C   UNL A   1      37.442  31.415  31.628  1.00  0.00     0.029 A 
ATOM     39  N   UNL A   1      39.375  30.349  31.972  1.00  0.00    -0.354 N 
ATOM     40  C   UNL A   1      41.047  27.753  28.937  1.00  0.00     0.074 A 
ATOM     41  C   UNL A   1      40.217  27.726  27.754  1.00  0.00     0.031 C 
ATOM     42  C   UNL A   1      37.910  31.811  32.819  1.00  0.00     0.029 A 
ATOM     43  C   UNL A   1      39.140  31.086  33.108  1.00  0.00     0.049 A 
ATOM     44  H   UNL A   1      40.175  29.789  31.848  1.00  0.00     0.167 HD
ATOM     45  C   UNL A   1      42.238  27.119  29.050  1.00  0.00     0.037 A 
ATOM     46  C   UNL A   1      39.816  31.140  34.270  1.00  0.00     0.037 A 
ATOM     47  C   UNL A   1      43.055  27.148  30.233  1.00  0.00     0.049 A 
ATOM     48  C   UNL A   1      41.060  30.312  34.422  1.00  0.00     0.074 A 
ATOM     49  C   UNL A   1      44.264  26.519  30.460  1.00  0.00     0.029 A 
ATOM     50  N   UNL A   1      42.737  27.837  31.396  1.00  0.00    -0.354 N 
ATOM     51  N   UNL A   1      41.658  29.553  33.537  1.00  0.00    -0.248 NA
ATOM     52  C   UNL A   1      41.717  30.337  35.735  1.00  0.00     0.031 C 
ATOM     53  C   UNL A   1      44.644  26.767  31.781  1.00  0.00     0.029 A 
ATOM     54  C   UNL A   1      43.706  27.612  32.358  1.00  0.00     0.049 A 
ATOM     55  H   UNL A   1      41.941  28.404  31.517  1.00  0.00     0.167 HD
ATOM     56  C   UNL A   1      42.768  29.021  34.176  1.00  0.00     0.074 A 
ATOM     57  C   UNL A   1      42.773  29.564  35.520  1.00  0.00     0.031 C 
ATOM     58  C   UNL A   1      43.696  28.159  33.693  1.00  0.00     0.037 A 
BRANCH  45  59
ATOM     59  C   UNL A   1      42.710  26.308  27.878  1.00  0.00     0.064 A 
ATOM     60  C   UNL A   1      42.303  24.979  27.683  1.00  0.00     0.173 A 
ATOM     61  C   UNL A   1      43.548  26.885  26.911  1.00  0.00     0.173 A 
ATOM     62  F   UNL A   1      41.513  24.375  28.582  1.00  0.00    -0.203 F 
ATOM     63  C   UNL A   1      42.734  24.253  26.574  1.00  0.00     0.198 A 
ATOM     64  C   UNL A   1      43.950  26.167  25.789  1.00  0.00     0.198 A 
ATOM     65  F   UNL A   1      43.965  28.152  27.047  1.00  0.00    -0.203 F 
ATOM     66  F   UNL A   1      42.369  22.972  26.430  1.00  0.00    -0.200 F 
ATOM     67  C   UNL A   1      43.550  24.850  25.625  1.00  0.00     0.200 A 
ATOM     68  F   UNL A   1      44.726  26.751  24.865  1.00  0.00    -0.200 F 
ATOM     69  F   UNL A   1      43.952  24.155  24.551  1.00  0.00    -0.200 F 
ENDBRANCH  45  59
BRANCH  46  70
ATOM     70  C   UNL A   1      39.305  31.993  35.375  1.00  0.00     0.064 A 
ATOM     71  C   UNL A   1      38.458  31.471  36.360  1.00  0.00     0.173 A 
ATOM     72  C   UNL A   1      39.693  33.338  35.496  1.00  0.00     0.173 A 
ATOM     73  F   UNL A   1      38.040  30.199  36.278  1.00  0.00    -0.203 F 
ATOM     74  C   UNL A   1      38.019  32.258  37.423  1.00  0.00     0.198 A 
ATOM     75  C   UNL A   1      39.282  34.114  36.577  1.00  0.00     0.198 A 
ATOM     76  F   UNL A   1      40.504  33.889  34.580  1.00  0.00    -0.203 F 
ATOM     77  F   UNL A   1      37.186  31.741  38.337  1.00  0.00    -0.200 F 
ATOM     78  C   UNL A   1      38.442  33.574  37.538  1.00  0.00     0.200 A 
ATOM     79  F   UNL A   1      39.709  35.379  36.693  1.00  0.00    -0.200 F 
ATOM     80  F   UNL A   1      38.038  34.322  38.574  1.00  0.00    -0.200 F 
ENDBRANCH  46  70
BRANCH  58  81
ATOM     81  C   UNL A   1      44.808  27.750  34.614  1.00  0.00     0.064 A 
ATOM     82  C   UNL A   1      45.977  28.515  34.736  1.00  0.00     0.173 A 
ATOM     83  C   UNL A   1      44.669  26.625  35.443  1.00  0.00     0.173 A 
ATOM     84  F   UNL A   1      46.166  29.591  33.957  1.00  0.00    -0.203 F 
ATOM     85  C   UNL A   1      46.971  28.162  35.644  1.00  0.00     0.198 A 
ATOM     86  C   UNL A   1      45.647  26.297  36.375  1.00  0.00     0.198 A 
ATOM     87  F   UNL A   1      43.567  25.864  35.370  1.00  0.00    -0.203 F 
ATOM     88  F   UNL A   1      48.097  28.885  35.717  1.00  0.00    -0.200 F 
ATOM     89  C   UNL A   1      46.800  27.061  36.472  1.00  0.00     0.200 A 
ATOM     90  F   UNL A   1      45.471  25.245  37.187  1.00  0.00    -0.200 F 
ATOM     91  F   UNL A   1      47.748  26.738  37.362  1.00  0.00    -0.200 F 
ENDBRANCH  58  81
ENDBRANCH  32  33
ENDBRANCH  25  27
ENDBRANCH  24  25
ENDBRANCH   1  24
TORSDOF 13
ENDMDL
MODEL 2
REMARK VINA RESULT:     -12.4      4.170      9.693
REMARK SMILES Cc1ccc(-n2nc(C(=O)OCCOC(=O)c3ccc(-c4c5nc(c(-c6c(F)c(F)c(F)c(F)c6F)c6ccc([nH]6)c(-c6c(F)c(F)c(F)c(F)c6F)c6nc(c(-c7c(F)c(F)c(F)c(F)c7F)c7ccc4[nH]7)C=C6)C=C5)cc3)c(C)c(C#N)c2=O)cc1Cl
REMARK SMILES IDX 13 1 12 2 11 3 9 4 10 5 8 6 6 7 7 8 85 9 82 10 86 11 80 12
REMARK SMILES IDX 81 13 5 14 1 15 2 16 3 17 88 18 4 19 87 20 89 21 83 22 84 23
REMARK SMILES IDX 14 24 15 25 16 26 17 27 18 28 79 29 19 30 78 31 20 32 21 33
REMARK SMILES IDX 22 34 72 35 23 36 77 37 71 38 73 39 24 40 76 41 70 42 69 43
REMARK SMILES IDX 25 45 57 46 37 47 56 48 38 49 41 50 55 51 74 52 39 53 40 54
REMARK SMILES IDX 54 56 75 57 42 58 26 59 27 60 35 61 28 62 29 63 33 64 36 65
REMARK SMILES IDX 30 66 31 67 34 68 32 69 58 70 59 71 67 72 60 73 61 74 65 75
REMARK SMILES IDX 68 76 62 77 63 78 66 79 64 80 43 81 44 82 52 83 45 84 46 85
REMARK SMILES IDX 50 86 53 87 47 88 48 89 51 90 49 91
REMARK H PARENT 73 44 41 55
REMARK Flexibility Score: inf
ROOT
ATOM      1  C   UNL A   1      36.311  21.113  25.292  1.00  0.00     0.275 C 
ENDROOT
BRANCH   1   2
ATOM      2  C   UNL A   1      35.252  21.640  26.264  1.00  0.00     0.275 C 
BRANCH   2   3
ATOM      3  O   UNL A   1      35.142  23.074  26.139  1.00  0.00    -0.457 OA
BRANCH   3   4
ATOM      4  C   UNL A   1      33.904  23.595  26.085  1.00  0.00     0.359 C 
ATOM      5  O   UNL A   1      32.922  23.212  26.696  1.00  0.00    -0.244 OA
BRANCH   4   6
ATOM      6  C   UNL A   1      33.828  24.810  25.140  1.00  0.00     0.173 A 
ATOM      7  N   UNL A   1      33.665  27.090  24.927  1.00  0.00    -0.195 N 
ATOM      8  N   UNL A   1      33.909  25.984  25.696  1.00  0.00    -0.157 NA
ATOM      9  C   UNL A   1      33.253  27.035  23.601  1.00  0.00     0.289 A 
ATOM     10  C   UNL A   1      33.302  25.683  22.977  1.00  0.00     0.125 A 
ATOM     11  O   UNL A   1      32.908  28.008  22.934  1.00  0.00    -0.266 OA
ATOM     12  C   UNL A   1      33.587  24.580  23.691  1.00  0.00     0.007 A 
ATOM     13  C   UNL A   1      33.678  23.186  23.145  1.00  0.00     0.049 C 
BRANCH   7  14
ATOM     14  C   UNL A   1      33.686  28.321  25.636  1.00  0.00     0.070 A 
ATOM     15  C   UNL A   1      33.656  31.953  28.001  1.00  0.00     0.046 C 
ATOM     16  C   UNL A   1      33.652  30.697  27.170  1.00  0.00    -0.032 A 
ATOM     17  C   UNL A   1      34.704  29.781  27.294  1.00  0.00     0.007 A 
ATOM     18  C   UNL A   1      32.614  30.399  26.274  1.00  0.00     0.046 A 
ATOM     19  C   UNL A   1      34.706  28.592  26.554  1.00  0.00     0.029 A 
ATOM     20  C   UNL A   1      32.647  29.242  25.481  1.00  0.00     0.049 A 
ATOM     21  Cl  UNL A   1      31.216  31.403  26.176  1.00  0.00    -0.084 Cl
ENDBRANCH   7  14
BRANCH  10  22
ATOM     22  C   UNL A   1      33.040  25.622  21.579  1.00  0.00     0.105 C 
ATOM     23  N   UNL A   1      32.903  25.578  20.430  1.00  0.00    -0.192 NA
ENDBRANCH  10  22
ENDBRANCH   4   6
ENDBRANCH   3   4
ENDBRANCH   2   3
ENDBRANCH   1   2
BRANCH   1  24
ATOM     24  O   UNL A   1      37.413  22.033  25.201  1.00  0.00    -0.458 OA
BRANCH  24  25
ATOM     25  C   UNL A   1      38.526  21.641  25.862  1.00  0.00     0.338 C 
ATOM     26  O   UNL A   1      39.046  20.538  25.861  1.00  0.00    -0.246 OA
BRANCH  25  27
ATOM     27  C   UNL A   1      39.158  22.810  26.475  1.00  0.00     0.060 A 
ATOM     28  C   UNL A   1      38.659  24.062  26.136  1.00  0.00     0.016 A 
ATOM     29  C   UNL A   1      40.304  22.693  27.256  1.00  0.00     0.016 A 
ATOM     30  C   UNL A   1      39.364  25.207  26.459  1.00  0.00     0.010 A 
ATOM     31  C   UNL A   1      40.961  23.856  27.670  1.00  0.00     0.010 A 
ATOM     32  C   UNL A   1      40.522  25.120  27.235  1.00  0.00    -0.014 A 
BRANCH  32  33
ATOM     33  C   UNL A   1      41.278  26.360  27.538  1.00  0.00     0.031 A 
ATOM     34  C   UNL A   1      40.638  27.455  28.345  1.00  0.00     0.074 A 
ATOM     35  C   UNL A   1      42.563  26.469  27.146  1.00  0.00     0.049 A 
ATOM     36  N   UNL A   1      41.120  28.624  28.683  1.00  0.00    -0.248 NA
ATOM     37  C   UNL A   1      39.276  27.203  28.846  1.00  0.00     0.031 C 
ATOM     38  C   UNL A   1      43.310  25.447  26.410  1.00  0.00     0.029 A 
ATOM     39  N   UNL A   1      43.472  27.481  27.320  1.00  0.00    -0.354 N 
ATOM     40  C   UNL A   1      40.128  29.237  29.437  1.00  0.00     0.074 A 
ATOM     41  C   UNL A   1      38.999  28.337  29.472  1.00  0.00     0.031 C 
ATOM     42  C   UNL A   1      44.567  25.870  26.221  1.00  0.00     0.029 A 
ATOM     43  C   UNL A   1      44.693  27.224  26.745  1.00  0.00     0.049 A 
ATOM     44  H   UNL A   1      43.270  28.312  27.808  1.00  0.00     0.167 HD
ATOM     45  C   UNL A   1      40.169  30.437  30.062  1.00  0.00     0.037 A 
ATOM     46  C   UNL A   1      45.781  28.006  26.615  1.00  0.00     0.037 A 
ATOM     47  C   UNL A   1      41.297  31.328  30.018  1.00  0.00     0.049 A 
ATOM     48  C   UNL A   1      45.747  29.392  27.193  1.00  0.00     0.074 A 
ATOM     49  C   UNL A   1      41.431  32.578  30.594  1.00  0.00     0.029 A 
ATOM     50  N   UNL A   1      42.486  31.066  29.349  1.00  0.00    -0.354 N 
ATOM     51  N   UNL A   1      44.803  29.970  27.893  1.00  0.00    -0.248 NA
ATOM     52  C   UNL A   1      46.924  30.239  26.954  1.00  0.00     0.031 C 
ATOM     53  C   UNL A   1      42.669  33.102  30.215  1.00  0.00     0.029 A 
ATOM     54  C   UNL A   1      43.339  32.150  29.461  1.00  0.00     0.049 A 
ATOM     55  H   UNL A   1      42.691  30.232  28.868  1.00  0.00     0.167 HD
ATOM     56  C   UNL A   1      45.272  31.241  28.193  1.00  0.00     0.074 A 
ATOM     57  C   UNL A   1      46.598  31.340  27.616  1.00  0.00     0.031 C 
ATOM     58  C   UNL A   1      44.657  32.235  28.880  1.00  0.00     0.037 A 
BRANCH  45  59
ATOM     59  C   UNL A   1      38.945  30.875  30.812  1.00  0.00     0.064 A 
ATOM     60  C   UNL A   1      37.878  31.528  30.175  1.00  0.00     0.173 A 
ATOM     61  C   UNL A   1      38.818  30.596  32.182  1.00  0.00     0.173 A 
ATOM     62  F   UNL A   1      37.953  31.831  28.871  1.00  0.00    -0.203 F 
ATOM     63  C   UNL A   1      36.740  31.904  30.887  1.00  0.00     0.198 A 
ATOM     64  C   UNL A   1      37.666  30.944  32.881  1.00  0.00     0.198 A 
ATOM     65  F   UNL A   1      39.806  29.971  32.838  1.00  0.00    -0.203 F 
ATOM     66  F   UNL A   1      35.752  32.566  30.269  1.00  0.00    -0.200 F 
ATOM     67  C   UNL A   1      36.631  31.603  32.236  1.00  0.00     0.200 A 
ATOM     68  F   UNL A   1      37.557  30.638  34.181  1.00  0.00    -0.200 F 
ATOM     69  F   UNL A   1      35.530  31.952  32.916  1.00  0.00    -0.200 F 
ENDBRANCH  45  59
BRANCH  46  70
ATOM     70  C   UNL A   1      46.971  27.491  25.888  1.00  0.00     0.064 A 
ATOM     71  C   UNL A   1      47.093  27.644  24.501  1.00  0.00     0.173 A 
ATOM     72  C   UNL A   1      48.033  26.876  26.572  1.00  0.00     0.173 A 
ATOM     73  F   UNL A   1      46.097  28.203  23.799  1.00  0.00    -0.203 F 
ATOM     74  C   UNL A   1      48.231  27.205  23.827  1.00  0.00     0.198 A 
ATOM     75  C   UNL A   1      49.184  26.469  25.902  1.00  0.00     0.198 A 
ATOM     76  F   UNL A   1      47.967  26.704  27.900  1.00  0.00    -0.203 F 
ATOM     77  F   UNL A   1      48.311  27.339  22.496  1.00  0.00    -0.200 F 
ATOM     78  C   UNL A   1      49.280  26.630  24.528  1.00  0.00     0.200 A 
ATOM     79  F   UNL A   1      50.202  25.932  26.587  1.00  0.00    -0.200 F 
ATOM     80  F   UNL A   1      50.384  26.231  23.881  1.00  0.00    -0.200 F 
ENDBRANCH  46  70
BRANCH  58  81
ATOM     81  C   UNL A   1      45.410  33.520  29.063  1.00  0.00     0.064 A 
ATOM     82  C   UNL A   1      46.298  33.703  30.133  1.00  0.00     0.173 A 
ATOM     83  C   UNL A   1      45.303  34.548  28.112  1.00  0.00     0.173 A 
ATOM     84  F   UNL A   1      46.425  32.758  31.076  1.00  0.00    -0.203 F 
ATOM     85  C   UNL A   1      47.041  34.874  30.252  1.00  0.00     0.198 A 
ATOM     86  C   UNL A   1      46.075  35.700  28.215  1.00  0.00     0.198 A 
ATOM     87  F   UNL A   1      44.474  34.419  27.067  1.00  0.00    -0.203 F 
ATOM     88  F   UNL A   1      47.855  35.045  31.303  1.00  0.00    -0.200 F 
ATOM     89  C   UNL A   1      46.940  35.866  29.286  1.00  0.00     0.200 A 
ATOM     90  F   UNL A   1      45.990  36.648  27.271  1.00  0.00    -0.200 F 
ATOM     91  F   UNL A   1      47.674  36.981  29.391  1.00  0.00    -0.200 F 
ENDBRANCH  58  81
ENDBRANCH  32  33
ENDBRANCH  25  27
ENDBRANCH  24  25
ENDBRANCH   1  24
TORSDOF 13
ENDMDL
MODEL 3
REMARK VINA RESULT:     -12.3      4.123      9.600
REMARK SMILES Cc1ccc(-n2nc(C(=O)OCCOC(=O)c3ccc(-c4c5nc(c(-c6c(F)c(F)c(F)c(F)c6F)c6ccc([nH]6)c(-c6c(F)c(F)c(F)c(F)c6F)c6nc(c(-c7c(F)c(F)c(F)c(F)c7F)c7ccc4[nH]7)C=C6)C=C5)cc3)c(C)c(C#N)c2=O)cc1Cl
REMARK SMILES IDX 13 1 12 2 11 3 9 4 10 5 8 6 6 7 7 8 85 9 82 10 86 11 80 12
REMARK SMILES IDX 81 13 5 14 1 15 2 16 3 17 88 18 4 19 87 20 89 21 83 22 84 23
REMARK SMILES IDX 14 24 15 25 16 26 17 27 18 28 79 29 19 30 78 31 20 32 21 33
REMARK SMILES IDX 22 34 72 35 23 36 77 37 71 38 73 39 24 40 76 41 70 42 69 43
REMARK SMILES IDX 25 45 57 46 37 47 56 48 38 49 41 50 55 51 74 52 39 53 40 54
REMARK SMILES IDX 54 56 75 57 42 58 26 59 27 60 35 61 28 62 29 63 33 64 36 65
REMARK SMILES IDX 30 66 31 67 34 68 32 69 58 70 59 71 67 72 60 73 61 74 65 75
REMARK SMILES IDX 68 76 62 77 63 78 66 79 64 80 43 81 44 82 52 83 45 84 46 85
REMARK SMILES IDX 50 86 53 87 47 88 48 89 51 90 49 91
REMARK H PARENT 73 44 41 55
REMARK Flexibility Score: inf
ROOT
ATOM      1  C   UNL A   1      36.512  20.975  25.335  1.00  0.00     0.275 C 
ENDROOT
BRANCH   1   2
ATOM      2  C   UNL A   1      35.288  21.454  26.119  1.00  0.00     0.275 C 
BRANCH   2   3
ATOM      3  O   UNL A   1      35.064  22.859  25.869  1.00  0.00    -0.457 OA
BRANCH   3   4
ATOM      4  C   UNL A   1      33.796  23.252  25.659  1.00  0.00     0.359 C 
ATOM      5  O   UNL A   1      32.784  22.720  26.082  1.00  0.00    -0.244 OA
BRANCH   4   6
ATOM      6  C   UNL A   1      33.721  24.529  24.798  1.00  0.00     0.173 A 
ATOM      7  N   UNL A   1      33.482  26.811  24.738  1.00  0.00    -0.195 N 
ATOM      8  N   UNL A   1      33.729  25.661  25.439  1.00  0.00    -0.157 NA
ATOM      9  C   UNL A   1      33.141  26.837  23.391  1.00  0.00     0.289 A 
ATOM     10  C   UNL A   1      33.274  25.537  22.677  1.00  0.00     0.125 A 
ATOM     11  O   UNL A   1      32.794  27.843  22.777  1.00  0.00    -0.266 OA
ATOM     12  C   UNL A   1      33.564  24.396  23.327  1.00  0.00     0.007 A 
ATOM     13  C   UNL A   1      33.737  23.048  22.690  1.00  0.00     0.049 C 
BRANCH   7  14
ATOM     14  C   UNL A   1      33.419  27.988  25.532  1.00  0.00     0.070 A 
ATOM     15  C   UNL A   1      33.330  31.707  27.755  1.00  0.00     0.046 C 
ATOM     16  C   UNL A   1      33.374  30.409  26.993  1.00  0.00    -0.032 A 
ATOM     17  C   UNL A   1      32.376  30.123  26.054  1.00  0.00     0.007 A 
ATOM     18  C   UNL A   1      34.400  29.470  27.179  1.00  0.00     0.046 A 
ATOM     19  C   UNL A   1      32.413  28.936  25.312  1.00  0.00     0.029 A 
ATOM     20  C   UNL A   1      34.403  28.249  26.487  1.00  0.00     0.049 A 
ATOM     21  Cl  UNL A   1      35.741  29.816  28.206  1.00  0.00    -0.084 Cl
ENDBRANCH   7  14
BRANCH  10  22
ATOM     22  C   UNL A   1      33.087  25.567  21.266  1.00  0.00     0.105 C 
ATOM     23  N   UNL A   1      32.903  25.522  20.124  1.00  0.00    -0.192 NA
ENDBRANCH  10  22
ENDBRANCH   4   6
ENDBRANCH   3   4
ENDBRANCH   2   3
ENDBRANCH   1   2
BRANCH   1  24
ATOM     24  O   UNL A   1      37.537  21.985  25.337  1.00  0.00    -0.458 OA
BRANCH  24  25
ATOM     25  C   UNL A   1      38.670  21.632  25.985  1.00  0.00     0.338 C 
ATOM     26  O   UNL A   1      39.226  20.547  25.981  1.00  0.00    -0.246 OA
BRANCH  25  27
ATOM     27  C   UNL A   1      39.271  22.823  26.587  1.00  0.00     0.060 A 
ATOM     28  C   UNL A   1      38.786  24.061  26.182  1.00  0.00     0.016 A 
ATOM     29  C   UNL A   1      40.379  22.736  27.424  1.00  0.00     0.016 A 
ATOM     30  C   UNL A   1      39.474  25.219  26.498  1.00  0.00     0.010 A 
ATOM     31  C   UNL A   1      41.014  23.914  27.829  1.00  0.00     0.010 A 
ATOM     32  C   UNL A   1      40.594  25.162  27.330  1.00  0.00    -0.014 A 
BRANCH  32  33
ATOM     33  C   UNL A   1      41.333  26.414  27.627  1.00  0.00     0.031 A 
ATOM     34  C   UNL A   1      40.676  27.507  28.422  1.00  0.00     0.074 A 
ATOM     35  C   UNL A   1      42.618  26.536  27.238  1.00  0.00     0.049 A 
ATOM     36  N   UNL A   1      41.142  28.685  28.753  1.00  0.00    -0.248 NA
ATOM     37  C   UNL A   1      39.316  27.242  28.920  1.00  0.00     0.031 C 
ATOM     38  C   UNL A   1      43.381  25.518  26.513  1.00  0.00     0.029 A 
ATOM     39  N   UNL A   1      43.514  27.561  27.407  1.00  0.00    -0.354 N 
ATOM     40  C   UNL A   1      40.140  29.291  29.498  1.00  0.00     0.074 A 
ATOM     41  C   UNL A   1      39.022  28.377  29.536  1.00  0.00     0.031 C 
ATOM     42  C   UNL A   1      44.633  25.955  26.325  1.00  0.00     0.029 A 
ATOM     43  C   UNL A   1      44.740  27.315  26.838  1.00  0.00     0.049 A 
ATOM     44  H   UNL A   1      43.300  28.393  27.888  1.00  0.00     0.167 HD
ATOM     45  C   UNL A   1      40.164  30.497  30.113  1.00  0.00     0.037 A 
ATOM     46  C   UNL A   1      45.818  28.109  26.706  1.00  0.00     0.037 A 
ATOM     47  C   UNL A   1      41.280  31.401  30.067  1.00  0.00     0.049 A 
ATOM     48  C   UNL A   1      45.765  29.500  27.273  1.00  0.00     0.074 A 
ATOM     49  C   UNL A   1      41.395  32.657  30.633  1.00  0.00     0.029 A 
ATOM     50  N   UNL A   1      42.474  31.149  29.404  1.00  0.00    -0.354 N 
ATOM     51  N   UNL A   1      44.811  30.072  27.965  1.00  0.00    -0.248 NA
ATOM     52  C   UNL A   1      46.931  30.359  27.032  1.00  0.00     0.031 C 
ATOM     53  C   UNL A   1      42.628  33.195  30.254  1.00  0.00     0.029 A 
ATOM     54  C   UNL A   1      43.314  32.245  29.510  1.00  0.00     0.049 A 
ATOM     55  H   UNL A   1      42.692  30.314  28.930  1.00  0.00     0.167 HD
ATOM     56  C   UNL A   1      45.262  31.350  28.256  1.00  0.00     0.074 A 
ATOM     57  C   UNL A   1      46.589  31.462  27.684  1.00  0.00     0.031 C 
ATOM     58  C   UNL A   1      44.632  32.342  28.933  1.00  0.00     0.037 A 
BRANCH  45  59
ATOM     59  C   UNL A   1      38.931  30.925  30.855  1.00  0.00     0.064 A 
ATOM     60  C   UNL A   1      38.762  30.670  32.225  1.00  0.00     0.173 A 
ATOM     61  C   UNL A   1      37.921  31.642  30.193  1.00  0.00     0.173 A 
ATOM     62  F   UNL A   1      39.689  29.977  32.903  1.00  0.00    -0.203 F 
ATOM     63  C   UNL A   1      37.619  31.098  32.898  1.00  0.00     0.198 A 
ATOM     64  C   UNL A   1      36.797  32.096  30.877  1.00  0.00     0.198 A 
ATOM     65  F   UNL A   1      38.034  31.916  28.886  1.00  0.00    -0.203 F 
ATOM     66  F   UNL A   1      37.458  30.806  34.196  1.00  0.00    -0.200 F 
ATOM     67  C   UNL A   1      36.644  31.818  32.226  1.00  0.00     0.200 A 
ATOM     68  F   UNL A   1      35.863  32.805  30.228  1.00  0.00    -0.200 F 
ATOM     69  F   UNL A   1      35.552  32.243  32.878  1.00  0.00    -0.200 F 
ENDBRANCH  45  59
BRANCH  46  70
ATOM     70  C   UNL A   1      47.017  27.604  25.987  1.00  0.00     0.064 A 
ATOM     71  C   UNL A   1      47.120  27.703  24.594  1.00  0.00     0.173 A 
ATOM     72  C   UNL A   1      48.106  27.053  26.684  1.00  0.00     0.173 A 
ATOM     73  F   UNL A   1      46.100  28.200  23.881  1.00  0.00    -0.203 F 
ATOM     74  C   UNL A   1      48.266  27.274  23.926  1.00  0.00     0.198 A 
ATOM     75  C   UNL A   1      49.263  26.656  26.018  1.00  0.00     0.198 A 
ATOM     76  F   UNL A   1      48.059  26.935  28.019  1.00  0.00    -0.203 F 
ATOM     77  F   UNL A   1      48.328  27.355  22.590  1.00  0.00    -0.200 F 
ATOM     78  C   UNL A   1      49.340  26.764  24.639  1.00  0.00     0.200 A 
ATOM     79  F   UNL A   1      50.306  26.182  26.714  1.00  0.00    -0.200 F 
ATOM     80  F   UNL A   1      50.450  26.375  23.996  1.00  0.00    -0.200 F 
ENDBRANCH  46  70
BRANCH  58  81
ATOM     81  C   UNL A   1      45.368  33.638  29.108  1.00  0.00     0.064 A 
ATOM     82  C   UNL A   1      45.218  34.694  28.199  1.00  0.00     0.173 A 
ATOM     83  C   UNL A   1      46.168  33.854  30.241  1.00  0.00     0.173 A 
ATOM     84  F   UNL A   1      44.476  34.534  27.092  1.00  0.00    -0.203 F 
ATOM     85  C   UNL A   1      45.852  35.915  28.410  1.00  0.00     0.198 A 
ATOM     86  C   UNL A   1      46.770  35.087  30.468  1.00  0.00     0.198 A 
ATOM     87  F   UNL A   1      46.339  32.878  31.145  1.00  0.00    -0.203 F 
ATOM     88  F   UNL A   1      45.726  36.899  27.509  1.00  0.00    -0.200 F 
ATOM     89  C   UNL A   1      46.617  36.116  29.551  1.00  0.00     0.200 A 
ATOM     90  F   UNL A   1      47.492  35.284  31.580  1.00  0.00    -0.200 F 
ATOM     91  F   UNL A   1      47.206  37.299  29.763  1.00  0.00    -0.200 F 
ENDBRANCH  58  81
ENDBRANCH  32  33
ENDBRANCH  25  27
ENDBRANCH  24  25
ENDBRANCH   1  24
TORSDOF 13
ENDMDL
