MODEL 1
REMARK VINA RESULT:     -11.7      0.000      0.000
REMARK SMILES Cc1ccc(NC(=O)C[C@H]([NH2+]Cc2cccnc2)C(=O)OCCOC(=O)c2ccc(-c3c4nc(c(-c5c(F)c(F)c(F)c(F)c5F)c5ccc([nH]5)c(-c5c(F)c(F)c(F)c(F)c5F)c5nc(c(-c6c(F)c(F)c(F)c(F)c6F)c6ccc3[nH]6)C=C5)C=C4)cc2)cc1Cl
REMARK SMILES IDX 22 1 21 2 19 3 20 4 10 5 9 6 7 7 6 8 8 10 5 11 1 12 2 13
REMARK SMILES IDX 3 14 91 15 4 16 90 17 92 18 11 19 12 22 13 23 14 24 18 25
REMARK SMILES IDX 15 26 17 27 16 28 23 29 24 30 25 31 26 32 27 33 28 34 89 35
REMARK SMILES IDX 29 36 88 37 30 38 31 39 32 40 82 41 33 42 87 43 81 44 83 45
REMARK SMILES IDX 34 46 86 47 80 48 79 49 35 51 67 52 47 53 66 54 48 55 51 56
REMARK SMILES IDX 65 57 84 58 49 59 50 60 64 62 85 63 52 64 36 65 37 66 45 67
REMARK SMILES IDX 38 68 39 69 43 70 46 71 40 72 41 73 44 74 42 75 68 76 69 77
REMARK SMILES IDX 77 78 70 79 71 80 75 81 78 82 72 83 73 84 76 85 74 86 53 87
REMARK SMILES IDX 54 88 62 89 55 90 56 91 60 92 63 93 57 94 58 95 61 96 59 97
REMARK H PARENT 6 9 11 20 11 21 83 50 51 61
REMARK Flexibility Score: inf
ROOT
ATOM      1  C   UNL A   1      31.333  30.084  25.101  1.00  0.00     0.274 C 
ENDROOT
BRANCH   1   2
ATOM      2  O   UNL A   1      31.327  28.679  24.770  1.00  0.00    -0.458 OA
BRANCH   2   3
ATOM      3  C   UNL A   1      32.295  28.208  23.942  1.00  0.00     0.365 C 
ATOM      4  O   UNL A   1      33.064  28.922  23.306  1.00  0.00    -0.245 OA
BRANCH   3   5
ATOM      5  C   UNL A   1      32.330  26.665  23.855  1.00  0.00     0.303 C 
BRANCH   5   6
ATOM      6  C   UNL A   1      31.207  26.073  24.686  1.00  0.00     0.177 C 
BRANCH   6   7
ATOM      7  C   UNL A   1      31.370  25.437  26.056  1.00  0.00     0.231 C 
ATOM      8  N   UNL A   1      31.539  24.140  26.397  1.00  0.00    -0.326 N 
ATOM      9  H   UNL A   1      31.175  23.993  27.300  1.00  0.00     0.169 HD
ATOM     10  O   UNL A   1      31.097  26.172  27.026  1.00  0.00    -0.274 OA
BRANCH   8  11
ATOM     11  C   UNL A   1      32.057  22.928  25.904  1.00  0.00     0.042 A 
ATOM     12  C   UNL A   1      34.071  19.259  24.690  1.00  0.00     0.046 C 
ATOM     13  C   UNL A   1      33.379  20.526  25.099  1.00  0.00    -0.032 A 
ATOM     14  C   UNL A   1      33.625  21.096  26.349  1.00  0.00     0.007 A 
ATOM     15  C   UNL A   1      32.471  21.170  24.259  1.00  0.00     0.046 A 
ATOM     16  C   UNL A   1      32.971  22.274  26.740  1.00  0.00     0.026 A 
ATOM     17  C   UNL A   1      31.858  22.376  24.647  1.00  0.00     0.047 A 
ATOM     18  Cl  UNL A   1      32.089  20.480  22.716  1.00  0.00    -0.084 Cl
ENDBRANCH   8  11
ENDBRANCH   6   7
ENDBRANCH   5   6
BRANCH   5  19
ATOM     19  N   UNL A   1      33.648  26.067  24.104  1.00  0.00    -0.330 N 
ATOM     20  H   UNL A   1      33.663  25.748  25.073  1.00  0.00     0.347 HD
ATOM     21  H   UNL A   1      34.319  26.803  23.884  1.00  0.00     0.347 HD
BRANCH  19  22
ATOM     22  C   UNL A   1      34.032  24.940  23.264  1.00  0.00     0.299 C 
BRANCH  22  23
ATOM     23  C   UNL A   1      35.041  24.066  23.961  1.00  0.00     0.024 A 
ATOM     24  C   UNL A   1      35.625  22.965  23.331  1.00  0.00     0.013 A 
ATOM     25  C   UNL A   1      35.470  24.352  25.257  1.00  0.00     0.120 A 
ATOM     26  C   UNL A   1      36.585  22.210  24.002  1.00  0.00     0.021 A 
ATOM     27  N   UNL A   1      36.390  23.631  25.940  1.00  0.00    -0.264 NA
ATOM     28  C   UNL A   1      36.931  22.579  25.292  1.00  0.00     0.111 A 
ENDBRANCH  22  23
ENDBRANCH  19  22
ENDBRANCH   5  19
ENDBRANCH   3   5
ENDBRANCH   2   3
ENDBRANCH   1   2
BRANCH   1  29
ATOM     29  C   UNL A   1      31.858  30.355  26.516  1.00  0.00     0.275 C 
BRANCH  29  30
ATOM     30  O   UNL A   1      33.292  30.486  26.539  1.00  0.00    -0.458 OA
BRANCH  30  31
ATOM     31  C   UNL A   1      33.731  31.536  27.264  1.00  0.00     0.338 C 
ATOM     32  O   UNL A   1      33.126  32.556  27.528  1.00  0.00    -0.246 OA
BRANCH  31  33
ATOM     33  C   UNL A   1      35.012  31.256  27.904  1.00  0.00     0.060 A 
ATOM     34  C   UNL A   1      35.146  29.994  28.497  1.00  0.00     0.016 A 
ATOM     35  C   UNL A   1      36.009  32.221  28.009  1.00  0.00     0.016 A 
ATOM     36  C   UNL A   1      36.295  29.677  29.193  1.00  0.00     0.010 A 
ATOM     37  C   UNL A   1      37.167  31.902  28.712  1.00  0.00     0.010 A 
ATOM     38  C   UNL A   1      37.309  30.631  29.297  1.00  0.00    -0.014 A 
BRANCH  38  39
ATOM     39  C   UNL A   1      38.542  30.281  30.015  1.00  0.00     0.031 A 
ATOM     40  C   UNL A   1      39.497  29.311  29.407  1.00  0.00     0.074 A 
ATOM     41  C   UNL A   1      38.762  30.841  31.214  1.00  0.00     0.049 A 
ATOM     42  N   UNL A   1      40.551  28.753  29.936  1.00  0.00    -0.248 NA
ATOM     43  C   UNL A   1      39.227  28.909  28.018  1.00  0.00     0.031 C 
ATOM     44  C   UNL A   1      37.898  31.843  31.843  1.00  0.00     0.029 A 
ATOM     45  N   UNL A   1      39.757  30.630  32.127  1.00  0.00    -0.354 N 
ATOM     46  C   UNL A   1      41.055  27.909  28.959  1.00  0.00     0.074 A 
ATOM     47  C   UNL A   1      40.194  28.030  27.802  1.00  0.00     0.031 C 
ATOM     48  C   UNL A   1      38.382  32.132  33.059  1.00  0.00     0.029 A 
ATOM     49  C   UNL A   1      39.553  31.297  33.307  1.00  0.00     0.049 A 
ATOM     50  H   UNL A   1      40.540  30.059  31.954  1.00  0.00     0.167 HD
ATOM     51  C   UNL A   1      42.137  27.100  29.043  1.00  0.00     0.037 A 
ATOM     52  C   UNL A   1      40.208  31.196  34.477  1.00  0.00     0.037 A 
ATOM     53  C   UNL A   1      42.971  27.008  30.213  1.00  0.00     0.049 A 
ATOM     54  C   UNL A   1      41.374  30.254  34.562  1.00  0.00     0.074 A 
ATOM     55  C   UNL A   1      44.108  26.248  30.408  1.00  0.00     0.029 A 
ATOM     56  N   UNL A   1      42.741  27.701  31.396  1.00  0.00    -0.354 N 
ATOM     57  N   UNL A   1      41.858  29.458  33.639  1.00  0.00    -0.248 NA
ATOM     58  C   UNL A   1      42.083  30.191  35.846  1.00  0.00     0.031 C 
ATOM     59  C   UNL A   1      44.538  26.443  31.725  1.00  0.00     0.029 A 
ATOM     60  C   UNL A   1      43.700  27.364  32.336  1.00  0.00     0.049 A 
ATOM     61  H   UNL A   1      42.005  28.338  31.544  1.00  0.00     0.167 HD
ATOM     62  C   UNL A   1      42.938  28.811  34.218  1.00  0.00     0.074 A 
ATOM     63  C   UNL A   1      43.041  29.315  35.575  1.00  0.00     0.031 C 
ATOM     64  C   UNL A   1      43.772  27.888  33.678  1.00  0.00     0.037 A 
BRANCH  51  65
ATOM     65  C   UNL A   1      42.433  26.221  27.866  1.00  0.00     0.064 A 
ATOM     66  C   UNL A   1      43.362  26.583  26.879  1.00  0.00     0.173 A 
ATOM     67  C   UNL A   1      41.767  24.993  27.721  1.00  0.00     0.173 A 
ATOM     68  F   UNL A   1      44.010  27.754  26.960  1.00  0.00    -0.203 F 
ATOM     69  C   UNL A   1      43.591  25.763  25.775  1.00  0.00     0.198 A 
ATOM     70  C   UNL A   1      42.018  24.165  26.631  1.00  0.00     0.198 A 
ATOM     71  F   UNL A   1      40.867  24.601  28.635  1.00  0.00    -0.203 F 
ATOM     72  F   UNL A   1      44.442  26.154  24.819  1.00  0.00    -0.200 F 
ATOM     73  C   UNL A   1      42.922  24.554  25.655  1.00  0.00     0.200 A 
ATOM     74  F   UNL A   1      41.375  22.994  26.520  1.00  0.00    -0.200 F 
ATOM     75  F   UNL A   1      43.141  23.769  24.591  1.00  0.00    -0.200 F 
ENDBRANCH  51  65
BRANCH  52  76
ATOM     76  C   UNL A   1      39.734  31.980  35.642  1.00  0.00     0.064 A 
ATOM     77  C   UNL A   1      40.257  33.247  35.922  1.00  0.00     0.173 A 
ATOM     78  C   UNL A   1      38.698  31.502  36.460  1.00  0.00     0.173 A 
ATOM     79  F   UNL A   1      41.258  33.738  35.177  1.00  0.00    -0.203 F 
ATOM     80  C   UNL A   1      39.762  34.009  36.979  1.00  0.00     0.198 A 
ATOM     81  C   UNL A   1      38.187  32.275  37.499  1.00  0.00     0.198 A 
ATOM     82  F   UNL A   1      38.157  30.297  36.225  1.00  0.00    -0.203 F 
ATOM     83  F   UNL A   1      40.293  35.212  37.240  1.00  0.00    -0.200 F 
ATOM     84  C   UNL A   1      38.721  33.528  37.760  1.00  0.00     0.200 A 
ATOM     85  F   UNL A   1      37.170  31.812  38.239  1.00  0.00    -0.200 F 
ATOM     86  F   UNL A   1      38.233  34.270  38.763  1.00  0.00    -0.200 F 
ENDBRANCH  52  76
BRANCH  64  87
ATOM     87  C   UNL A   1      44.883  27.386  34.547  1.00  0.00     0.064 A 
ATOM     88  C   UNL A   1      46.109  28.059  34.632  1.00  0.00     0.173 A 
ATOM     89  C   UNL A   1      44.691  26.254  35.355  1.00  0.00     0.173 A 
ATOM     90  F   UNL A   1      46.343  29.136  33.865  1.00  0.00    -0.203 F 
ATOM     91  C   UNL A   1      47.110  27.612  35.490  1.00  0.00     0.198 A 
ATOM     92  C   UNL A   1      45.683  25.826  36.229  1.00  0.00     0.198 A 
ATOM     93  F   UNL A   1      43.532  25.581  35.310  1.00  0.00    -0.203 F 
ATOM     94  F   UNL A   1      48.286  28.251  35.535  1.00  0.00    -0.200 F 
ATOM     95  C   UNL A   1      46.892  26.502  36.295  1.00  0.00     0.200 A 
ATOM     96  F   UNL A   1      45.468  24.761  37.014  1.00  0.00    -0.200 F 
ATOM     97  F   UNL A   1      47.851  26.082  37.131  1.00  0.00    -0.200 F 
ENDBRANCH  64  87
ENDBRANCH  38  39
ENDBRANCH  31  33
ENDBRANCH  30  31
ENDBRANCH  29  30
ENDBRANCH   1  29
TORSDOF 17
ENDMDL
MODEL 2
REMARK VINA RESULT:     -11.6      1.147      2.553
REMARK SMILES Cc1ccc(NC(=O)C[C@H]([NH2+]Cc2cccnc2)C(=O)OCCOC(=O)c2ccc(-c3c4nc(c(-c5c(F)c(F)c(F)c(F)c5F)c5ccc([nH]5)c(-c5c(F)c(F)c(F)c(F)c5F)c5nc(c(-c6c(F)c(F)c(F)c(F)c6F)c6ccc3[nH]6)C=C5)C=C4)cc2)cc1Cl
REMARK SMILES IDX 22 1 21 2 19 3 20 4 10 5 9 6 7 7 6 8 8 10 5 11 1 12 2 13
REMARK SMILES IDX 3 14 91 15 4 16 90 17 92 18 11 19 12 22 13 23 14 24 18 25
REMARK SMILES IDX 15 26 17 27 16 28 23 29 24 30 25 31 26 32 27 33 28 34 89 35
REMARK SMILES IDX 29 36 88 37 30 38 31 39 32 40 82 41 33 42 87 43 81 44 83 45
REMARK SMILES IDX 34 46 86 47 80 48 79 49 35 51 67 52 47 53 66 54 48 55 51 56
REMARK SMILES IDX 65 57 84 58 49 59 50 60 64 62 85 63 52 64 36 65 37 66 45 67
REMARK SMILES IDX 38 68 39 69 43 70 46 71 40 72 41 73 44 74 42 75 68 76 69 77
REMARK SMILES IDX 77 78 70 79 71 80 75 81 78 82 72 83 73 84 76 85 74 86 53 87
REMARK SMILES IDX 54 88 62 89 55 90 56 91 60 92 63 93 57 94 58 95 61 96 59 97
REMARK H PARENT 6 9 11 20 11 21 83 50 51 61
REMARK Flexibility Score: inf
ROOT
ATOM      1  C   UNL A   1      31.903  29.364  24.429  1.00  0.00     0.274 C 
ENDROOT
BRANCH   1   2
ATOM      2  O   UNL A   1      30.546  29.123  24.000  1.00  0.00    -0.458 OA
BRANCH   2   3
ATOM      3  C   UNL A   1      30.332  28.209  23.020  1.00  0.00     0.365 C 
ATOM      4  O   UNL A   1      29.717  28.441  21.984  1.00  0.00    -0.245 OA
BRANCH   3   5
ATOM      5  C   UNL A   1      30.929  26.819  23.338  1.00  0.00     0.303 C 
BRANCH   5   6
ATOM      6  C   UNL A   1      31.658  26.277  22.123  1.00  0.00     0.177 C 
BRANCH   6   7
ATOM      7  C   UNL A   1      33.140  25.947  22.063  1.00  0.00     0.231 C 
ATOM      8  N   UNL A   1      33.829  24.938  22.642  1.00  0.00    -0.326 N 
ATOM      9  H   UNL A   1      34.758  25.227  22.796  1.00  0.00     0.169 HD
ATOM     10  O   UNL A   1      33.873  26.841  21.596  1.00  0.00    -0.274 OA
BRANCH   8  11
ATOM     11  C   UNL A   1      33.673  23.616  23.101  1.00  0.00     0.042 A 
ATOM     12  C   UNL A   1      32.682  19.632  24.561  1.00  0.00     0.046 C 
ATOM     13  C   UNL A   1      33.028  21.006  24.066  1.00  0.00    -0.032 A 
ATOM     14  C   UNL A   1      32.080  21.775  23.390  1.00  0.00     0.007 A 
ATOM     15  C   UNL A   1      34.295  21.556  24.257  1.00  0.00     0.046 A 
ATOM     16  C   UNL A   1      32.403  23.055  22.916  1.00  0.00     0.026 A 
ATOM     17  C   UNL A   1      34.589  22.860  23.816  1.00  0.00     0.047 A 
ATOM     18  Cl  UNL A   1      35.526  20.626  25.045  1.00  0.00    -0.084 Cl
ENDBRANCH   8  11
ENDBRANCH   6   7
ENDBRANCH   5   6
BRANCH   5  19
ATOM     19  N   UNL A   1      29.989  25.873  23.952  1.00  0.00    -0.330 N 
ATOM     20  H   UNL A   1      30.262  24.934  23.660  1.00  0.00     0.347 HD
ATOM     21  H   UNL A   1      29.067  26.171  23.632  1.00  0.00     0.347 HD
BRANCH  19  22
ATOM     22  C   UNL A   1      29.905  25.875  25.406  1.00  0.00     0.299 C 
BRANCH  22  23
ATOM     23  C   UNL A   1      30.826  24.842  26.002  1.00  0.00     0.024 A 
ATOM     24  C   UNL A   1      32.198  25.064  26.135  1.00  0.00     0.013 A 
ATOM     25  C   UNL A   1      30.332  23.632  26.489  1.00  0.00     0.120 A 
ATOM     26  C   UNL A   1      33.003  24.094  26.730  1.00  0.00     0.021 A 
ATOM     27  N   UNL A   1      31.090  22.665  27.059  1.00  0.00    -0.264 NA
ATOM     28  C   UNL A   1      32.409  22.924  27.172  1.00  0.00     0.111 A 
ENDBRANCH  22  23
ENDBRANCH  19  22
ENDBRANCH   5  19
ENDBRANCH   3   5
ENDBRANCH   2   3
ENDBRANCH   1   2
BRANCH   1  29
ATOM     29  C   UNL A   1      31.976  30.157  25.740  1.00  0.00     0.275 C 
BRANCH  29  30
ATOM     30  O   UNL A   1      33.267  30.038  26.367  1.00  0.00    -0.458 OA
BRANCH  30  31
ATOM     31  C   UNL A   1      33.628  31.125  27.080  1.00  0.00     0.338 C 
ATOM     32  O   UNL A   1      32.965  32.120  27.298  1.00  0.00    -0.246 OA
BRANCH  31  33
ATOM     33  C   UNL A   1      34.898  30.925  27.769  1.00  0.00     0.060 A 
ATOM     34  C   UNL A   1      35.120  29.649  28.302  1.00  0.00     0.016 A 
ATOM     35  C   UNL A   1      35.797  31.967  27.975  1.00  0.00     0.016 A 
ATOM     36  C   UNL A   1      36.260  29.396  29.039  1.00  0.00     0.010 A 
ATOM     37  C   UNL A   1      36.946  31.713  28.719  1.00  0.00     0.010 A 
ATOM     38  C   UNL A   1      37.176  30.429  29.244  1.00  0.00    -0.014 A 
BRANCH  38  39
ATOM     39  C   UNL A   1      38.402  30.150  30.004  1.00  0.00     0.031 A 
ATOM     40  C   UNL A   1      39.430  29.234  29.433  1.00  0.00     0.074 A 
ATOM     41  C   UNL A   1      38.549  30.725  31.208  1.00  0.00     0.049 A 
ATOM     42  N   UNL A   1      40.495  28.738  30.001  1.00  0.00    -0.248 NA
ATOM     43  C   UNL A   1      39.230  28.815  28.038  1.00  0.00     0.031 C 
ATOM     44  C   UNL A   1      37.609  31.677  31.803  1.00  0.00     0.029 A 
ATOM     45  N   UNL A   1      39.523  30.572  32.155  1.00  0.00    -0.354 N 
ATOM     46  C   UNL A   1      41.079  27.921  29.045  1.00  0.00     0.074 A 
ATOM     47  C   UNL A   1      40.252  27.990  27.858  1.00  0.00     0.031 C 
ATOM     48  C   UNL A   1      38.034  31.996  33.034  1.00  0.00     0.029 A 
ATOM     49  C   UNL A   1      39.241  31.229  33.325  1.00  0.00     0.049 A 
ATOM     50  H   UNL A   1      40.342  30.045  32.011  1.00  0.00     0.167 HD
ATOM     51  C   UNL A   1      42.201  27.175  29.168  1.00  0.00     0.037 A 
ATOM     52  C   UNL A   1      39.860  31.167  34.517  1.00  0.00     0.037 A 
ATOM     53  C   UNL A   1      42.997  27.132  30.366  1.00  0.00     0.049 A 
ATOM     54  C   UNL A   1      41.074  30.292  34.645  1.00  0.00     0.074 A 
ATOM     55  C   UNL A   1      44.168  26.437  30.603  1.00  0.00     0.029 A 
ATOM     56  N   UNL A   1      42.689  27.814  31.538  1.00  0.00    -0.354 N 
ATOM     57  N   UNL A   1      41.633  29.523  33.743  1.00  0.00    -0.248 NA
ATOM     58  C   UNL A   1      41.740  30.272  35.953  1.00  0.00     0.031 C 
ATOM     59  C   UNL A   1      44.541  26.659  31.934  1.00  0.00     0.029 A 
ATOM     60  C   UNL A   1      43.633  27.533  32.512  1.00  0.00     0.049 A 
ATOM     61  H   UNL A   1      41.914  28.409  31.659  1.00  0.00     0.167 HD
ATOM     62  C   UNL A   1      42.727  28.939  34.361  1.00  0.00     0.074 A 
ATOM     63  C   UNL A   1      42.755  29.451  35.718  1.00  0.00     0.031 C 
ATOM     64  C   UNL A   1      43.629  28.063  33.853  1.00  0.00     0.037 A 
BRANCH  51  65
ATOM     65  C   UNL A   1      42.585  26.311  28.005  1.00  0.00     0.064 A 
ATOM     66  C   UNL A   1      43.514  26.728  27.041  1.00  0.00     0.173 A 
ATOM     67  C   UNL A   1      42.007  25.041  27.852  1.00  0.00     0.173 A 
ATOM     68  F   UNL A   1      44.080  27.941  27.130  1.00  0.00    -0.203 F 
ATOM     69  C   UNL A   1      43.826  25.920  25.949  1.00  0.00     0.198 A 
ATOM     70  C   UNL A   1      42.341  24.225  26.775  1.00  0.00     0.198 A 
ATOM     71  F   UNL A   1      41.111  24.594  28.745  1.00  0.00    -0.203 F 
ATOM     72  F   UNL A   1      44.675  26.362  25.012  1.00  0.00    -0.200 F 
ATOM     73  C   UNL A   1      43.242  24.668  25.820  1.00  0.00     0.200 A 
ATOM     74  F   UNL A   1      41.781  23.013  26.656  1.00  0.00    -0.200 F 
ATOM     75  F   UNL A   1      43.541  23.894  24.768  1.00  0.00    -0.200 F 
ENDBRANCH  51  65
BRANCH  52  76
ATOM     76  C   UNL A   1      39.303  31.926  35.662  1.00  0.00     0.064 A 
ATOM     77  C   UNL A   1      38.398  31.334  36.550  1.00  0.00     0.173 A 
ATOM     78  C   UNL A   1      39.720  33.240  35.928  1.00  0.00     0.173 A 
ATOM     79  F   UNL A   1      37.961  30.086  36.328  1.00  0.00    -0.203 F 
ATOM     80  C   UNL A   1      37.929  32.029  37.663  1.00  0.00     0.198 A 
ATOM     81  C   UNL A   1      39.270  33.923  37.054  1.00  0.00     0.198 A 
ATOM     82  F   UNL A   1      40.594  33.846  35.110  1.00  0.00    -0.203 F 
ATOM     83  F   UNL A   1      37.048  31.447  38.489  1.00  0.00    -0.200 F 
ATOM     84  C   UNL A   1      38.373  33.318  37.920  1.00  0.00     0.200 A 
ATOM     85  F   UNL A   1      39.716  35.162  37.307  1.00  0.00    -0.200 F 
ATOM     86  F   UNL A   1      37.936  33.977  39.002  1.00  0.00    -0.200 F 
ENDBRANCH  52  76
BRANCH  64  87
ATOM     87  C   UNL A   1      44.736  27.626  34.762  1.00  0.00     0.064 A 
ATOM     88  C   UNL A   1      44.616  26.486  35.568  1.00  0.00     0.173 A 
ATOM     89  C   UNL A   1      45.956  28.319  34.772  1.00  0.00     0.173 A 
ATOM     90  F   UNL A   1      43.462  25.801  35.602  1.00  0.00    -0.203 F 
ATOM     91  C   UNL A   1      45.678  26.059  36.361  1.00  0.00     0.198 A 
ATOM     92  C   UNL A   1      47.022  27.876  35.546  1.00  0.00     0.198 A 
ATOM     93  F   UNL A   1      46.118  29.413  34.013  1.00  0.00    -0.203 F 
ATOM     94  F   UNL A   1      45.534  24.985  37.148  1.00  0.00    -0.200 F 
ATOM     95  C   UNL A   1      46.882  26.749  36.342  1.00  0.00     0.200 A 
ATOM     96  F   UNL A   1      48.189  28.535  35.518  1.00  0.00    -0.200 F 
ATOM     97  F   UNL A   1      47.908  26.327  37.095  1.00  0.00    -0.200 F 
ENDBRANCH  64  87
ENDBRANCH  38  39
ENDBRANCH  31  33
ENDBRANCH  30  31
ENDBRANCH  29  30
ENDBRANCH   1  29
TORSDOF 17
ENDMDL
MODEL 3
REMARK VINA RESULT:     -11.5      4.535      9.486
REMARK SMILES Cc1ccc(NC(=O)C[C@H]([NH2+]Cc2cccnc2)C(=O)OCCOC(=O)c2ccc(-c3c4nc(c(-c5c(F)c(F)c(F)c(F)c5F)c5ccc([nH]5)c(-c5c(F)c(F)c(F)c(F)c5F)c5nc(c(-c6c(F)c(F)c(F)c(F)c6F)c6ccc3[nH]6)C=C5)C=C4)cc2)cc1Cl
REMARK SMILES IDX 22 1 21 2 19 3 20 4 10 5 9 6 7 7 6 8 8 10 5 11 1 12 2 13
REMARK SMILES IDX 3 14 91 15 4 16 90 17 92 18 11 19 12 22 13 23 14 24 18 25
REMARK SMILES IDX 15 26 17 27 16 28 23 29 24 30 25 31 26 32 27 33 28 34 89 35
REMARK SMILES IDX 29 36 88 37 30 38 31 39 32 40 82 41 33 42 87 43 81 44 83 45
REMARK SMILES IDX 34 46 86 47 80 48 79 49 35 51 67 52 47 53 66 54 48 55 51 56
REMARK SMILES IDX 65 57 84 58 49 59 50 60 64 62 85 63 52 64 36 65 37 66 45 67
REMARK SMILES IDX 38 68 39 69 43 70 46 71 40 72 41 73 44 74 42 75 68 76 69 77
REMARK SMILES IDX 77 78 70 79 71 80 75 81 78 82 72 83 73 84 76 85 74 86 53 87
REMARK SMILES IDX 54 88 62 89 55 90 56 91 60 92 63 93 57 94 58 95 61 96 59 97
REMARK H PARENT 6 9 11 20 11 21 83 50 51 61
REMARK Flexibility Score: inf
ROOT
ATOM      1  C   UNL A   1      35.908  20.624  25.052  1.00  0.00     0.274 C 
ENDROOT
BRANCH   1   2
ATOM      2  O   UNL A   1      35.380  21.373  26.167  1.00  0.00    -0.458 OA
BRANCH   2   3
ATOM      3  C   UNL A   1      34.033  21.487  26.287  1.00  0.00     0.365 C 
ATOM      4  O   UNL A   1      33.241  20.584  26.037  1.00  0.00    -0.245 OA
BRANCH   3   5
ATOM      5  C   UNL A   1      33.576  22.887  26.758  1.00  0.00     0.303 C 
BRANCH   5   6
ATOM      6  C   UNL A   1      32.135  22.831  27.229  1.00  0.00     0.177 C 
BRANCH   6   7
ATOM      7  C   UNL A   1      30.914  23.003  26.340  1.00  0.00     0.231 C 
ATOM      8  N   UNL A   1      30.264  24.127  25.966  1.00  0.00    -0.326 N 
ATOM      9  H   UNL A   1      29.319  23.912  25.791  1.00  0.00     0.169 HD
ATOM     10  O   UNL A   1      30.281  21.958  26.086  1.00  0.00    -0.274 OA
BRANCH   8  11
ATOM     11  C   UNL A   1      30.475  25.501  25.741  1.00  0.00     0.042 A 
ATOM     12  C   UNL A   1      31.125  29.637  24.533  1.00  0.00     0.046 C 
ATOM     13  C   UNL A   1      30.910  28.212  24.952  1.00  0.00    -0.032 A 
ATOM     14  C   UNL A   1      30.270  27.311  24.099  1.00  0.00     0.007 A 
ATOM     15  C   UNL A   1      31.331  27.743  26.197  1.00  0.00     0.046 A 
ATOM     16  C   UNL A   1      30.057  25.982  24.493  1.00  0.00     0.026 A 
ATOM     17  C   UNL A   1      31.150  26.394  26.557  1.00  0.00     0.047 A 
ATOM     18  Cl  UNL A   1      32.085  28.830  27.315  1.00  0.00    -0.084 Cl
ENDBRANCH   8  11
ENDBRANCH   6   7
ENDBRANCH   5   6
BRANCH   5  19
ATOM     19  N   UNL A   1      33.863  23.976  25.815  1.00  0.00    -0.330 N 
ATOM     20  H   UNL A   1      34.836  24.251  25.950  1.00  0.00     0.347 HD
ATOM     21  H   UNL A   1      33.179  24.701  26.031  1.00  0.00     0.347 HD
BRANCH  19  22
ATOM     22  C   UNL A   1      33.679  23.690  24.399  1.00  0.00     0.299 C 
BRANCH  22  23
ATOM     23  C   UNL A   1      33.623  24.962  23.593  1.00  0.00     0.024 A 
ATOM     24  C   UNL A   1      33.901  26.207  24.160  1.00  0.00     0.013 A 
ATOM     25  C   UNL A   1      33.333  24.939  22.229  1.00  0.00     0.120 A 
ATOM     26  C   UNL A   1      33.877  27.352  23.365  1.00  0.00     0.021 A 
ATOM     27  N   UNL A   1      33.288  26.034  21.434  1.00  0.00    -0.264 NA
ATOM     28  C   UNL A   1      33.569  27.216  22.021  1.00  0.00     0.111 A 
ENDBRANCH  22  23
ENDBRANCH  19  22
ENDBRANCH   5  19
ENDBRANCH   3   5
ENDBRANCH   2   3
ENDBRANCH   1   2
BRANCH   1  29
ATOM     29  C   UNL A   1      37.343  21.031  24.695  1.00  0.00     0.275 C 
BRANCH  29  30
ATOM     30  O   UNL A   1      37.852  22.041  25.586  1.00  0.00    -0.458 OA
BRANCH  30  31
ATOM     31  C   UNL A   1      39.015  21.706  26.182  1.00  0.00     0.338 C 
ATOM     32  O   UNL A   1      39.562  20.620  26.177  1.00  0.00    -0.246 OA
BRANCH  31  33
ATOM     33  C   UNL A   1      39.708  22.873  26.716  1.00  0.00     0.060 A 
ATOM     34  C   UNL A   1      39.376  24.108  26.143  1.00  0.00     0.016 A 
ATOM     35  C   UNL A   1      40.714  22.760  27.671  1.00  0.00     0.016 A 
ATOM     36  C   UNL A   1      40.041  25.252  26.533  1.00  0.00     0.010 A 
ATOM     37  C   UNL A   1      41.385  23.914  28.065  1.00  0.00     0.010 A 
ATOM     38  C   UNL A   1      41.045  25.156  27.499  1.00  0.00    -0.014 A 
BRANCH  38  39
ATOM     39  C   UNL A   1      41.732  26.379  27.934  1.00  0.00     0.031 A 
ATOM     40  C   UNL A   1      40.974  27.424  28.679  1.00  0.00     0.074 A 
ATOM     41  C   UNL A   1      43.030  26.523  27.628  1.00  0.00     0.049 A 
ATOM     42  N   UNL A   1      41.345  28.630  29.011  1.00  0.00    -0.248 NA
ATOM     43  C   UNL A   1      39.611  27.067  29.103  1.00  0.00     0.031 C 
ATOM     44  C   UNL A   1      43.849  25.515  26.951  1.00  0.00     0.029 A 
ATOM     45  N   UNL A   1      43.879  27.577  27.819  1.00  0.00    -0.354 N 
ATOM     46  C   UNL A   1      40.254  29.190  29.656  1.00  0.00     0.074 A 
ATOM     47  C   UNL A   1      39.205  28.192  29.672  1.00  0.00     0.031 C 
ATOM     48  C   UNL A   1      45.076  26.016  26.748  1.00  0.00     0.029 A 
ATOM     49  C   UNL A   1      45.105  27.392  27.233  1.00  0.00     0.049 A 
ATOM     50  H   UNL A   1      43.635  28.386  28.325  1.00  0.00     0.167 HD
ATOM     51  C   UNL A   1      40.148  30.437  30.172  1.00  0.00     0.037 A 
ATOM     52  C   UNL A   1      46.115  28.262  27.058  1.00  0.00     0.037 A 
ATOM     53  C   UNL A   1      41.215  31.403  30.136  1.00  0.00     0.049 A 
ATOM     54  C   UNL A   1      45.956  29.656  27.593  1.00  0.00     0.074 A 
ATOM     55  C   UNL A   1      41.238  32.686  30.648  1.00  0.00     0.029 A 
ATOM     56  N   UNL A   1      42.451  31.186  29.539  1.00  0.00    -0.354 N 
ATOM     57  N   UNL A   1      44.928  30.189  28.209  1.00  0.00    -0.248 NA
ATOM     58  C   UNL A   1      47.090  30.570  27.409  1.00  0.00     0.031 C 
ATOM     59  C   UNL A   1      42.470  33.262  30.318  1.00  0.00     0.029 A 
ATOM     60  C   UNL A   1      43.235  32.321  29.645  1.00  0.00     0.049 A 
ATOM     61  H   UNL A   1      42.729  30.347  29.103  1.00  0.00     0.167 HD
ATOM     62  C   UNL A   1      45.292  31.494  28.504  1.00  0.00     0.074 A 
ATOM     63  C   UNL A   1      46.642  31.668  28.003  1.00  0.00     0.031 C 
ATOM     64  C   UNL A   1      44.578  32.458  29.134  1.00  0.00     0.037 A 
BRANCH  51  65
ATOM     65  C   UNL A   1      38.826  30.832  30.755  1.00  0.00     0.064 A 
ATOM     66  C   UNL A   1      37.760  31.273  29.957  1.00  0.00     0.173 A 
ATOM     67  C   UNL A   1      38.624  30.772  32.143  1.00  0.00     0.173 A 
ATOM     68  F   UNL A   1      37.908  31.368  28.627  1.00  0.00    -0.203 F 
ATOM     69  C   UNL A   1      36.553  31.670  30.528  1.00  0.00     0.198 A 
ATOM     70  C   UNL A   1      37.407  31.143  32.708  1.00  0.00     0.198 A 
ATOM     71  F   UNL A   1      39.610  30.359  32.952  1.00  0.00    -0.203 F 
ATOM     72  F   UNL A   1      35.568  32.139  29.750  1.00  0.00    -0.200 F 
ATOM     73  C   UNL A   1      36.376  31.600  31.902  1.00  0.00     0.200 A 
ATOM     74  F   UNL A   1      37.237  31.069  34.035  1.00  0.00    -0.200 F 
ATOM     75  F   UNL A   1      35.215  31.985  32.450  1.00  0.00    -0.200 F 
ENDBRANCH  51  65
BRANCH  52  76
ATOM     76  C   UNL A   1      47.322  27.830  26.313  1.00  0.00     0.064 A 
ATOM     77  C   UNL A   1      48.449  27.343  26.983  1.00  0.00     0.173 A 
ATOM     78  C   UNL A   1      47.343  27.835  24.909  1.00  0.00     0.173 A 
ATOM     79  F   UNL A   1      48.480  27.334  28.323  1.00  0.00    -0.203 F 
ATOM     80  C   UNL A   1      49.556  26.876  26.277  1.00  0.00     0.198 A 
ATOM     81  C   UNL A   1      48.439  27.344  24.205  1.00  0.00     0.198 A 
ATOM     82  F   UNL A   1      46.281  28.283  24.223  1.00  0.00    -0.203 F 
ATOM     83  F   UNL A   1      50.632  26.432  26.941  1.00  0.00    -0.200 F 
ATOM     84  C   UNL A   1      49.546  26.867  24.889  1.00  0.00     0.200 A 
ATOM     85  F   UNL A   1      48.416  27.321  22.865  1.00  0.00    -0.200 F 
ATOM     86  F   UNL A   1      50.603  26.398  24.212  1.00  0.00    -0.200 F 
ENDBRANCH  52  76
BRANCH  64  87
ATOM     87  C   UNL A   1      45.254  33.778  29.342  1.00  0.00     0.064 A 
ATOM     88  C   UNL A   1      45.126  34.821  28.415  1.00  0.00     0.173 A 
ATOM     89  C   UNL A   1      45.983  34.021  30.516  1.00  0.00     0.173 A 
ATOM     90  F   UNL A   1      44.452  34.629  27.271  1.00  0.00    -0.203 F 
ATOM     91  C   UNL A   1      45.712  36.061  28.653  1.00  0.00     0.198 A 
ATOM     92  C   UNL A   1      46.546  35.268  30.761  1.00  0.00     0.198 A 
ATOM     93  F   UNL A   1      46.128  33.053  31.433  1.00  0.00    -0.203 F 
ATOM     94  F   UNL A   1      45.604  37.037  27.741  1.00  0.00    -0.200 F 
ATOM     95  C   UNL A   1      46.412  36.286  29.830  1.00  0.00     0.200 A 
ATOM     96  F   UNL A   1      47.212  35.488  31.903  1.00  0.00    -0.200 F 
ATOM     97  F   UNL A   1      46.963  37.486  30.063  1.00  0.00    -0.200 F 
ENDBRANCH  64  87
ENDBRANCH  38  39
ENDBRANCH  31  33
ENDBRANCH  30  31
ENDBRANCH  29  30
ENDBRANCH   1  29
TORSDOF 17
ENDMDL
