MODEL 1
REMARK VINA RESULT:     -12.0      0.000      0.000
REMARK SMILES O=C(OCCOC(=O)c1ccc(-c2ccn(C(F)F)c(=O)c2)cc1O)c1ccc(-c2c3nc(c(-c4c(F)c(F)c(F)c(F)c4F)c4ccc([nH]4)c(-c4c(F)c(F)c(F)c(F)c4F)c4nc(c(-c5c(F)c(F)c(F)c(F)c5F)c5ccc2[nH]5)C=C4)C=C3)cc1
REMARK SMILES IDX 4 1 3 2 2 3 1 4 26 5 27 6 88 7 28 8 87 9 29 10 30 11 31 12
REMARK SMILES IDX 81 13 32 14 86 15 80 16 82 17 33 18 85 19 79 20 78 21 34 23
REMARK SMILES IDX 66 24 46 25 65 26 47 27 50 28 64 29 83 30 48 31 49 32 63 34
REMARK SMILES IDX 84 35 51 36 35 37 36 38 44 39 37 40 38 41 42 42 45 43 39 44
REMARK SMILES IDX 40 45 43 46 41 47 67 48 68 49 76 50 69 51 70 52 74 53 77 54
REMARK SMILES IDX 71 55 72 56 75 57 73 58 52 59 53 60 61 61 54 62 55 63 59 64
REMARK SMILES IDX 62 65 56 66 57 67 60 68 58 69 5 70 6 71 7 72 8 73 9 74 10 75
REMARK SMILES IDX 24 76 11 77 23 78 12 79 25 80 13 82 14 83 22 84 15 85 20 86
REMARK SMILES IDX 16 87 21 88 17 89 18 90 19 91
REMARK H PARENT 82 22 50 33 25 81
REMARK Flexibility Score: inf
ROOT
ATOM      1  C   UNL A   1      43.503  21.876  25.311  1.00  0.00     0.275 C 
ENDROOT
BRANCH   1   2
ATOM      2  O   UNL A   1      43.087  23.204  24.956  1.00  0.00    -0.458 OA
BRANCH   2   3
ATOM      3  C   UNL A   1      43.733  24.371  25.193  1.00  0.00     0.338 C 
ATOM      4  O   UNL A   1      44.791  24.612  24.617  1.00  0.00    -0.246 OA
BRANCH   3   5
ATOM      5  C   UNL A   1      43.324  25.276  26.306  1.00  0.00     0.060 A 
ATOM      6  C   UNL A   1      42.252  24.834  27.090  1.00  0.00     0.016 A 
ATOM      7  C   UNL A   1      43.941  26.480  26.654  1.00  0.00     0.016 A 
ATOM      8  C   UNL A   1      41.738  25.634  28.111  1.00  0.00     0.010 A 
ATOM      9  C   UNL A   1      43.422  27.285  27.678  1.00  0.00     0.010 A 
ATOM     10  C   UNL A   1      42.293  26.887  28.396  1.00  0.00    -0.014 A 
BRANCH  10  11
ATOM     11  C   UNL A   1      41.785  27.696  29.531  1.00  0.00     0.031 A 
ATOM     12  C   UNL A   1      40.648  28.668  29.387  1.00  0.00     0.074 A 
ATOM     13  C   UNL A   1      42.376  27.555  30.730  1.00  0.00     0.049 A 
ATOM     14  N   UNL A   1      39.967  29.287  30.319  1.00  0.00    -0.248 NA
ATOM     15  C   UNL A   1      40.190  28.963  28.027  1.00  0.00     0.031 C 
ATOM     16  C   UNL A   1      43.497  26.659  31.011  1.00  0.00     0.029 A 
ATOM     17  N   UNL A   1      42.126  28.174  31.924  1.00  0.00    -0.354 N 
ATOM     18  C   UNL A   1      38.926  29.932  29.666  1.00  0.00     0.074 A 
ATOM     19  C   UNL A   1      39.112  29.704  28.250  1.00  0.00     0.031 C 
ATOM     20  C   UNL A   1      43.845  26.793  32.298  1.00  0.00     0.029 A 
ATOM     21  C   UNL A   1      43.001  27.812  32.913  1.00  0.00     0.049 A 
ATOM     22  H   UNL A   1      41.392  28.816  32.058  1.00  0.00     0.167 HD
ATOM     23  C   UNL A   1      37.901  30.638  30.201  1.00  0.00     0.037 A 
ATOM     24  C   UNL A   1      43.134  28.276  34.168  1.00  0.00     0.037 A 
ATOM     25  C   UNL A   1      37.858  31.070  31.574  1.00  0.00     0.049 A 
ATOM     26  C   UNL A   1      42.176  29.314  34.668  1.00  0.00     0.074 A 
ATOM     27  C   UNL A   1      36.927  31.877  32.203  1.00  0.00     0.029 A 
ATOM     28  N   UNL A   1      38.850  30.803  32.508  1.00  0.00    -0.354 N 
ATOM     29  N   UNL A   1      41.124  29.821  34.074  1.00  0.00    -0.248 NA
ATOM     30  C   UNL A   1      42.430  29.851  36.009  1.00  0.00     0.031 C 
ATOM     31  C   UNL A   1      37.412  32.182  33.483  1.00  0.00     0.029 A 
ATOM     32  C   UNL A   1      38.608  31.509  33.675  1.00  0.00     0.049 A 
ATOM     33  H   UNL A   1      39.614  30.199  32.361  1.00  0.00     0.167 HD
ATOM     34  C   UNL A   1      40.578  30.728  34.969  1.00  0.00     0.074 A 
ATOM     35  C   UNL A   1      41.416  30.693  36.153  1.00  0.00     0.031 C 
ATOM     36  C   UNL A   1      39.480  31.512  34.823  1.00  0.00     0.037 A 
BRANCH  23  37
ATOM     37  C   UNL A   1      36.777  31.019  29.285  1.00  0.00     0.064 A 
ATOM     38  C   UNL A   1      35.835  30.061  28.872  1.00  0.00     0.173 A 
ATOM     39  C   UNL A   1      36.606  32.339  28.845  1.00  0.00     0.173 A 
ATOM     40  F   UNL A   1      35.954  28.783  29.262  1.00  0.00    -0.203 F 
ATOM     41  C   UNL A   1      34.770  30.412  28.045  1.00  0.00     0.198 A 
ATOM     42  C   UNL A   1      35.533  32.688  28.028  1.00  0.00     0.198 A 
ATOM     43  F   UNL A   1      37.477  33.290  29.209  1.00  0.00    -0.203 F 
ATOM     44  F   UNL A   1      33.894  29.477  27.651  1.00  0.00    -0.200 F 
ATOM     45  C   UNL A   1      34.618  31.726  27.626  1.00  0.00     0.200 A 
ATOM     46  F   UNL A   1      35.384  33.958  27.626  1.00  0.00    -0.200 F 
ATOM     47  F   UNL A   1      33.591  32.062  26.833  1.00  0.00    -0.200 F 
ENDBRANCH  23  37
BRANCH  24  48
ATOM     48  C   UNL A   1      44.246  27.753  34.995  1.00  0.00     0.064 A 
ATOM     49  C   UNL A   1      45.489  28.394  35.021  1.00  0.00     0.173 A 
ATOM     50  C   UNL A   1      44.045  26.669  35.865  1.00  0.00     0.173 A 
ATOM     51  F   UNL A   1      45.733  29.417  34.189  1.00  0.00    -0.203 F 
ATOM     52  C   UNL A   1      46.483  27.988  35.909  1.00  0.00     0.198 A 
ATOM     53  C   UNL A   1      45.030  26.280  36.768  1.00  0.00     0.198 A 
ATOM     54  F   UNL A   1      42.869  26.024  35.874  1.00  0.00    -0.203 F 
ATOM     55  F   UNL A   1      47.665  28.618  35.920  1.00  0.00    -0.200 F 
ATOM     56  C   UNL A   1      46.247  26.944  36.792  1.00  0.00     0.200 A 
ATOM     57  F   UNL A   1      44.790  25.284  37.631  1.00  0.00    -0.200 F 
ATOM     58  F   UNL A   1      47.190  26.580  37.672  1.00  0.00    -0.200 F 
ENDBRANCH  24  48
BRANCH  36  59
ATOM     59  C   UNL A   1      39.150  32.430  35.964  1.00  0.00     0.064 A 
ATOM     60  C   UNL A   1      39.666  33.735  36.020  1.00  0.00     0.173 A 
ATOM     61  C   UNL A   1      38.305  32.012  37.002  1.00  0.00     0.173 A 
ATOM     62  F   UNL A   1      40.488  34.177  35.057  1.00  0.00    -0.203 F 
ATOM     63  C   UNL A   1      39.373  34.574  37.092  1.00  0.00     0.198 A 
ATOM     64  C   UNL A   1      37.991  32.865  38.056  1.00  0.00     0.198 A 
ATOM     65  F   UNL A   1      37.777  30.779  36.991  1.00  0.00    -0.203 F 
ATOM     66  F   UNL A   1      39.921  35.795  37.151  1.00  0.00    -0.200 F 
ATOM     67  C   UNL A   1      38.533  34.140  38.105  1.00  0.00     0.200 A 
ATOM     68  F   UNL A   1      37.166  32.450  39.028  1.00  0.00    -0.200 F 
ATOM     69  F   UNL A   1      38.252  34.949  39.136  1.00  0.00    -0.200 F 
ENDBRANCH  36  59
ENDBRANCH  10  11
ENDBRANCH   3   5
ENDBRANCH   2   3
ENDBRANCH   1   2
BRANCH   1  70
ATOM     70  C   UNL A   1      42.457  21.063  26.081  1.00  0.00     0.275 C 
BRANCH  70  71
ATOM     71  O   UNL A   1      41.094  21.394  25.757  1.00  0.00    -0.458 OA
BRANCH  71  72
ATOM     72  C   UNL A   1      40.318  21.746  26.821  1.00  0.00     0.342 C 
ATOM     73  O   UNL A   1      40.651  21.753  27.992  1.00  0.00    -0.246 OA
BRANCH  72  74
ATOM     74  C   UNL A   1      39.004  22.219  26.335  1.00  0.00     0.101 A 
ATOM     75  C   UNL A   1      38.613  23.520  26.676  1.00  0.00     0.020 A 
ATOM     76  C   UNL A   1      38.167  21.445  25.529  1.00  0.00     0.130 A 
ATOM     77  C   UNL A   1      37.450  24.078  26.126  1.00  0.00     0.010 A 
ATOM     78  C   UNL A   1      36.985  21.991  25.019  1.00  0.00     0.055 A 
ATOM     79  C   UNL A   1      36.641  23.330  25.259  1.00  0.00    -0.014 A 
BRANCH  76  80
ATOM     80  O   UNL A   1      38.442  20.152  25.170  1.00  0.00    -0.507 OA
ATOM     81  H   UNL A   1      38.614  19.941  24.274  1.00  0.00     0.293 HD
ENDBRANCH  76  80
BRANCH  79  82
ATOM     82  C   UNL A   1      35.488  23.924  24.542  1.00  0.00    -0.011 A 
ATOM     83  C   UNL A   1      34.672  24.989  25.096  1.00  0.00     0.027 A 
ATOM     84  C   UNL A   1      35.120  23.397  23.359  1.00  0.00     0.080 A 
ATOM     85  C   UNL A   1      33.570  25.412  24.464  1.00  0.00     0.095 A 
ATOM     86  C   UNL A   1      33.899  23.855  22.638  1.00  0.00     0.255 A 
ATOM     87  N   UNL A   1      33.179  24.860  23.258  1.00  0.00    -0.258 N 
ATOM     88  O   UNL A   1      33.623  23.324  21.567  1.00  0.00    -0.269 OA
BRANCH  87  89
ATOM     89  C   UNL A   1      31.979  25.304  22.598  1.00  0.00     0.451 C 
ATOM     90  F   UNL A   1      30.953  24.445  22.821  1.00  0.00    -0.185 F 
ATOM     91  F   UNL A   1      31.600  26.528  23.040  1.00  0.00    -0.185 F 
ENDBRANCH  87  89
ENDBRANCH  79  82
ENDBRANCH  72  74
ENDBRANCH  71  72
ENDBRANCH  70  71
ENDBRANCH   1  70
TORSDOF 14
ENDMDL
MODEL 2
REMARK VINA RESULT:     -11.9      0.169      1.145
REMARK SMILES O=C(OCCOC(=O)c1ccc(-c2ccn(C(F)F)c(=O)c2)cc1O)c1ccc(-c2c3nc(c(-c4c(F)c(F)c(F)c(F)c4F)c4ccc([nH]4)c(-c4c(F)c(F)c(F)c(F)c4F)c4nc(c(-c5c(F)c(F)c(F)c(F)c5F)c5ccc2[nH]5)C=C4)C=C3)cc1
REMARK SMILES IDX 4 1 3 2 2 3 1 4 26 5 27 6 88 7 28 8 87 9 29 10 30 11 31 12
REMARK SMILES IDX 81 13 32 14 86 15 80 16 82 17 33 18 85 19 79 20 78 21 34 23
REMARK SMILES IDX 66 24 46 25 65 26 47 27 50 28 64 29 83 30 48 31 49 32 63 34
REMARK SMILES IDX 84 35 51 36 35 37 36 38 44 39 37 40 38 41 42 42 45 43 39 44
REMARK SMILES IDX 40 45 43 46 41 47 67 48 68 49 76 50 69 51 70 52 74 53 77 54
REMARK SMILES IDX 71 55 72 56 75 57 73 58 52 59 53 60 61 61 54 62 55 63 59 64
REMARK SMILES IDX 62 65 56 66 57 67 60 68 58 69 5 70 6 71 7 72 8 73 9 74 10 75
REMARK SMILES IDX 24 76 11 77 23 78 12 79 25 80 13 82 14 83 22 84 15 85 20 86
REMARK SMILES IDX 16 87 21 88 17 89 18 90 19 91
REMARK H PARENT 82 22 50 33 25 81
REMARK Flexibility Score: inf
ROOT
ATOM      1  C   UNL A   1      43.489  21.876  25.307  1.00  0.00     0.275 C 
ENDROOT
BRANCH   1   2
ATOM      2  O   UNL A   1      43.078  23.208  24.959  1.00  0.00    -0.458 OA
BRANCH   2   3
ATOM      3  C   UNL A   1      43.728  24.371  25.201  1.00  0.00     0.338 C 
ATOM      4  O   UNL A   1      44.789  24.608  24.629  1.00  0.00    -0.246 OA
BRANCH   3   5
ATOM      5  C   UNL A   1      43.320  25.276  26.314  1.00  0.00     0.060 A 
ATOM      6  C   UNL A   1      42.242  24.837  27.093  1.00  0.00     0.016 A 
ATOM      7  C   UNL A   1      43.941  26.475  26.667  1.00  0.00     0.016 A 
ATOM      8  C   UNL A   1      41.728  25.638  28.113  1.00  0.00     0.010 A 
ATOM      9  C   UNL A   1      43.422  27.281  27.691  1.00  0.00     0.010 A 
ATOM     10  C   UNL A   1      42.288  26.887  28.404  1.00  0.00    -0.014 A 
BRANCH  10  11
ATOM     11  C   UNL A   1      41.779  27.696  29.538  1.00  0.00     0.031 A 
ATOM     12  C   UNL A   1      40.644  28.669  29.393  1.00  0.00     0.074 A 
ATOM     13  C   UNL A   1      42.368  27.553  30.738  1.00  0.00     0.049 A 
ATOM     14  N   UNL A   1      39.962  29.289  30.325  1.00  0.00    -0.248 NA
ATOM     15  C   UNL A   1      40.188  28.966  28.033  1.00  0.00     0.031 C 
ATOM     16  C   UNL A   1      43.487  26.656  31.020  1.00  0.00     0.029 A 
ATOM     17  N   UNL A   1      42.117  28.172  31.932  1.00  0.00    -0.354 N 
ATOM     18  C   UNL A   1      38.923  29.935  29.671  1.00  0.00     0.074 A 
ATOM     19  C   UNL A   1      39.111  29.708  28.255  1.00  0.00     0.031 C 
ATOM     20  C   UNL A   1      43.834  26.788  32.307  1.00  0.00     0.029 A 
ATOM     21  C   UNL A   1      42.991  27.808  32.922  1.00  0.00     0.049 A 
ATOM     22  H   UNL A   1      41.384  28.815  32.066  1.00  0.00     0.167 HD
ATOM     23  C   UNL A   1      37.899  30.642  30.205  1.00  0.00     0.037 A 
ATOM     24  C   UNL A   1      43.122  28.271  34.178  1.00  0.00     0.037 A 
ATOM     25  C   UNL A   1      37.854  31.074  31.578  1.00  0.00     0.049 A 
ATOM     26  C   UNL A   1      42.164  29.309  34.677  1.00  0.00     0.074 A 
ATOM     27  C   UNL A   1      36.923  31.882  32.206  1.00  0.00     0.029 A 
ATOM     28  N   UNL A   1      38.844  30.804  32.513  1.00  0.00    -0.354 N 
ATOM     29  N   UNL A   1      41.114  29.819  34.082  1.00  0.00    -0.248 NA
ATOM     30  C   UNL A   1      42.418  29.845  36.019  1.00  0.00     0.031 C 
ATOM     31  C   UNL A   1      37.406  32.185  33.487  1.00  0.00     0.029 A 
ATOM     32  C   UNL A   1      38.601  31.510  33.680  1.00  0.00     0.049 A 
ATOM     33  H   UNL A   1      39.607  30.200  32.367  1.00  0.00     0.167 HD
ATOM     34  C   UNL A   1      40.569  30.726  34.977  1.00  0.00     0.074 A 
ATOM     35  C   UNL A   1      41.404  30.688  36.162  1.00  0.00     0.031 C 
ATOM     36  C   UNL A   1      39.472  31.512  34.830  1.00  0.00     0.037 A 
BRANCH  23  37
ATOM     37  C   UNL A   1      36.777  31.026  29.287  1.00  0.00     0.064 A 
ATOM     38  C   UNL A   1      35.833  30.070  28.873  1.00  0.00     0.173 A 
ATOM     39  C   UNL A   1      36.608  32.346  28.848  1.00  0.00     0.173 A 
ATOM     40  F   UNL A   1      35.949  28.791  29.262  1.00  0.00    -0.203 F 
ATOM     41  C   UNL A   1      34.770  30.423  28.045  1.00  0.00     0.198 A 
ATOM     42  C   UNL A   1      35.537  32.698  28.029  1.00  0.00     0.198 A 
ATOM     43  F   UNL A   1      37.481  33.295  29.213  1.00  0.00    -0.203 F 
ATOM     44  F   UNL A   1      33.893  29.490  27.648  1.00  0.00    -0.200 F 
ATOM     45  C   UNL A   1      34.621  31.737  27.625  1.00  0.00     0.200 A 
ATOM     46  F   UNL A   1      35.391  33.968  27.627  1.00  0.00    -0.200 F 
ATOM     47  F   UNL A   1      33.596  32.075  26.831  1.00  0.00    -0.200 F 
ENDBRANCH  23  37
BRANCH  24  48
ATOM     48  C   UNL A   1      44.232  27.745  35.006  1.00  0.00     0.064 A 
ATOM     49  C   UNL A   1      44.061  26.609  35.803  1.00  0.00     0.173 A 
ATOM     50  C   UNL A   1      45.518  28.303  34.922  1.00  0.00     0.173 A 
ATOM     51  F   UNL A   1      42.846  26.058  35.934  1.00  0.00    -0.203 F 
ATOM     52  C   UNL A   1      45.143  26.031  36.464  1.00  0.00     0.198 A 
ATOM     53  C   UNL A   1      46.602  27.711  35.562  1.00  0.00     0.198 A 
ATOM     54  F   UNL A   1      45.729  29.394  34.168  1.00  0.00    -0.203 F 
ATOM     55  F   UNL A   1      44.958  24.941  37.221  1.00  0.00    -0.200 F 
ATOM     56  C   UNL A   1      46.414  26.572  36.330  1.00  0.00     0.200 A 
ATOM     57  F   UNL A   1      47.829  28.227  35.414  1.00  0.00    -0.200 F 
ATOM     58  F   UNL A   1      47.460  25.993  36.935  1.00  0.00    -0.200 F 
ENDBRANCH  24  48
BRANCH  36  59
ATOM     59  C   UNL A   1      39.141  32.429  35.970  1.00  0.00     0.064 A 
ATOM     60  C   UNL A   1      39.652  33.736  36.024  1.00  0.00     0.173 A 
ATOM     61  C   UNL A   1      38.301  32.008  37.011  1.00  0.00     0.173 A 
ATOM     62  F   UNL A   1      40.469  34.181  35.058  1.00  0.00    -0.203 F 
ATOM     63  C   UNL A   1      39.359  34.574  37.096  1.00  0.00     0.198 A 
ATOM     64  C   UNL A   1      37.987  32.861  38.066  1.00  0.00     0.198 A 
ATOM     65  F   UNL A   1      37.778  30.773  37.003  1.00  0.00    -0.203 F 
ATOM     66  F   UNL A   1      39.902  35.798  37.152  1.00  0.00    -0.200 F 
ATOM     67  C   UNL A   1      38.524  34.139  38.112  1.00  0.00     0.200 A 
ATOM     68  F   UNL A   1      37.167  32.444  39.041  1.00  0.00    -0.200 F 
ATOM     69  F   UNL A   1      38.242  34.947  39.144  1.00  0.00    -0.200 F 
ENDBRANCH  36  59
ENDBRANCH  10  11
ENDBRANCH   3   5
ENDBRANCH   2   3
ENDBRANCH   1   2
BRANCH   1  70
ATOM     70  C   UNL A   1      42.440  21.063  26.072  1.00  0.00     0.275 C 
BRANCH  70  71
ATOM     71  O   UNL A   1      41.078  21.397  25.747  1.00  0.00    -0.458 OA
BRANCH  71  72
ATOM     72  C   UNL A   1      40.300  21.744  26.810  1.00  0.00     0.342 C 
ATOM     73  O   UNL A   1      40.630  21.746  27.982  1.00  0.00    -0.246 OA
BRANCH  72  74
ATOM     74  C   UNL A   1      38.986  22.216  26.324  1.00  0.00     0.101 A 
ATOM     75  C   UNL A   1      38.590  23.513  26.674  1.00  0.00     0.020 A 
ATOM     76  C   UNL A   1      38.153  21.446  25.509  1.00  0.00     0.130 A 
ATOM     77  C   UNL A   1      37.426  24.072  26.125  1.00  0.00     0.010 A 
ATOM     78  C   UNL A   1      36.971  21.992  24.999  1.00  0.00     0.055 A 
ATOM     79  C   UNL A   1      36.623  23.328  25.250  1.00  0.00    -0.014 A 
BRANCH  76  80
ATOM     80  O   UNL A   1      38.434  20.157  25.141  1.00  0.00    -0.507 OA
ATOM     81  H   UNL A   1      38.610  19.954  24.243  1.00  0.00     0.293 HD
ENDBRANCH  76  80
BRANCH  79  82
ATOM     82  C   UNL A   1      35.469  23.924  24.534  1.00  0.00    -0.011 A 
ATOM     83  C   UNL A   1      34.657  24.992  25.087  1.00  0.00     0.027 A 
ATOM     84  C   UNL A   1      35.098  23.397  23.352  1.00  0.00     0.080 A 
ATOM     85  C   UNL A   1      33.556  25.418  24.456  1.00  0.00     0.095 A 
ATOM     86  C   UNL A   1      33.877  23.857  22.633  1.00  0.00     0.255 A 
ATOM     87  N   UNL A   1      33.161  24.864  23.252  1.00  0.00    -0.258 N 
ATOM     88  O   UNL A   1      33.597  23.325  21.563  1.00  0.00    -0.269 OA
BRANCH  87  89
ATOM     89  C   UNL A   1      31.961  25.311  22.594  1.00  0.00     0.451 C 
ATOM     90  F   UNL A   1      30.932  24.455  22.820  1.00  0.00    -0.185 F 
ATOM     91  F   UNL A   1      31.587  26.536  23.034  1.00  0.00    -0.185 F 
ENDBRANCH  87  89
ENDBRANCH  79  82
ENDBRANCH  72  74
ENDBRANCH  71  72
ENDBRANCH  70  71
ENDBRANCH   1  70
TORSDOF 14
ENDMDL
MODEL 3
REMARK VINA RESULT:     -11.9      3.577      8.531
REMARK SMILES O=C(OCCOC(=O)c1ccc(-c2ccn(C(F)F)c(=O)c2)cc1O)c1ccc(-c2c3nc(c(-c4c(F)c(F)c(F)c(F)c4F)c4ccc([nH]4)c(-c4c(F)c(F)c(F)c(F)c4F)c4nc(c(-c5c(F)c(F)c(F)c(F)c5F)c5ccc2[nH]5)C=C4)C=C3)cc1
REMARK SMILES IDX 4 1 3 2 2 3 1 4 26 5 27 6 88 7 28 8 87 9 29 10 30 11 31 12
REMARK SMILES IDX 81 13 32 14 86 15 80 16 82 17 33 18 85 19 79 20 78 21 34 23
REMARK SMILES IDX 66 24 46 25 65 26 47 27 50 28 64 29 83 30 48 31 49 32 63 34
REMARK SMILES IDX 84 35 51 36 35 37 36 38 44 39 37 40 38 41 42 42 45 43 39 44
REMARK SMILES IDX 40 45 43 46 41 47 67 48 68 49 76 50 69 51 70 52 74 53 77 54
REMARK SMILES IDX 71 55 72 56 75 57 73 58 52 59 53 60 61 61 54 62 55 63 59 64
REMARK SMILES IDX 62 65 56 66 57 67 60 68 58 69 5 70 6 71 7 72 8 73 9 74 10 75
REMARK SMILES IDX 24 76 11 77 23 78 12 79 25 80 13 82 14 83 22 84 15 85 20 86
REMARK SMILES IDX 16 87 21 88 17 89 18 90 19 91
REMARK H PARENT 82 22 50 33 25 81
REMARK Flexibility Score: inf
ROOT
ATOM      1  C   UNL A   1      32.582  33.112  27.085  1.00  0.00     0.275 C 
ENDROOT
BRANCH   1   2
ATOM      2  O   UNL A   1      32.237  34.207  27.948  1.00  0.00    -0.458 OA
BRANCH   2   3
ATOM      3  C   UNL A   1      33.016  34.816  28.873  1.00  0.00     0.338 C 
ATOM      4  O   UNL A   1      32.827  35.998  29.149  1.00  0.00    -0.246 OA
BRANCH   3   5
ATOM      5  C   UNL A   1      34.248  34.166  29.405  1.00  0.00     0.060 A 
ATOM      6  C   UNL A   1      34.067  33.329  30.514  1.00  0.00     0.016 A 
ATOM      7  C   UNL A   1      35.533  34.280  28.871  1.00  0.00     0.016 A 
ATOM      8  C   UNL A   1      35.160  32.728  31.139  1.00  0.00     0.010 A 
ATOM      9  C   UNL A   1      36.632  33.677  29.501  1.00  0.00     0.010 A 
ATOM     10  C   UNL A   1      36.462  32.922  30.664  1.00  0.00    -0.014 A 
BRANCH  10  11
ATOM     11  C   UNL A   1      37.607  32.220  31.292  1.00  0.00     0.031 A 
ATOM     12  C   UNL A   1      38.256  31.015  30.673  1.00  0.00     0.074 A 
ATOM     13  C   UNL A   1      38.071  32.681  32.467  1.00  0.00     0.049 A 
ATOM     14  N   UNL A   1      39.381  30.424  30.995  1.00  0.00    -0.248 NA
ATOM     15  C   UNL A   1      37.579  30.408  29.525  1.00  0.00     0.031 C 
ATOM     16  C   UNL A   1      37.530  33.832  33.188  1.00  0.00     0.029 A 
ATOM     17  N   UNL A   1      39.087  32.227  33.262  1.00  0.00    -0.354 N 
ATOM     18  C   UNL A   1      39.606  29.471  30.012  1.00  0.00     0.074 A 
ATOM     19  C   UNL A   1      38.460  29.498  29.130  1.00  0.00     0.031 C 
ATOM     20  C   UNL A   1      38.216  33.990  34.328  1.00  0.00     0.029 A 
ATOM     21  C   UNL A   1      39.210  32.928  34.433  1.00  0.00     0.049 A 
ATOM     22  H   UNL A   1      39.670  31.472  33.019  1.00  0.00     0.167 HD
ATOM     23  C   UNL A   1      40.677  28.658  29.855  1.00  0.00     0.037 A 
ATOM     24  C   UNL A   1      40.011  32.716  35.492  1.00  0.00     0.037 A 
ATOM     25  C   UNL A   1      41.686  28.458  30.862  1.00  0.00     0.049 A 
ATOM     26  C   UNL A   1      41.001  31.592  35.445  1.00  0.00     0.074 A 
ATOM     27  C   UNL A   1      42.758  27.582  30.859  1.00  0.00     0.029 A 
ATOM     28  N   UNL A   1      41.686  29.084  32.101  1.00  0.00    -0.354 N 
ATOM     29  N   UNL A   1      41.281  30.778  34.457  1.00  0.00    -0.248 NA
ATOM     30  C   UNL A   1      41.778  31.351  36.666  1.00  0.00     0.031 C 
ATOM     31  C   UNL A   1      43.339  27.605  32.135  1.00  0.00     0.029 A 
ATOM     32  C   UNL A   1      42.674  28.543  32.908  1.00  0.00     0.049 A 
ATOM     33  H   UNL A   1      41.072  29.806  32.367  1.00  0.00     0.167 HD
ATOM     34  C   UNL A   1      42.276  29.934  34.926  1.00  0.00     0.074 A 
ATOM     35  C   UNL A   1      42.555  30.344  36.289  1.00  0.00     0.031 C 
ATOM     36  C   UNL A   1      42.903  28.918  34.282  1.00  0.00     0.037 A 
BRANCH  23  37
ATOM     37  C   UNL A   1      40.777  27.897  28.566  1.00  0.00     0.064 A 
ATOM     38  C   UNL A   1      41.528  28.404  27.492  1.00  0.00     0.173 A 
ATOM     39  C   UNL A   1      40.165  26.646  28.405  1.00  0.00     0.173 A 
ATOM     40  F   UNL A   1      42.131  29.598  27.593  1.00  0.00    -0.203 F 
ATOM     41  C   UNL A   1      41.652  27.691  26.302  1.00  0.00     0.198 A 
ATOM     42  C   UNL A   1      40.302  25.930  27.217  1.00  0.00     0.198 A 
ATOM     43  F   UNL A   1      39.438  26.117  29.398  1.00  0.00    -0.203 F 
ATOM     44  F   UNL A   1      42.359  28.204  25.285  1.00  0.00    -0.200 F 
ATOM     45  C   UNL A   1      41.041  26.453  26.166  1.00  0.00     0.200 A 
ATOM     46  F   UNL A   1      39.715  24.732  27.088  1.00  0.00    -0.200 F 
ATOM     47  F   UNL A   1      41.164  25.766  25.022  1.00  0.00    -0.200 F 
ENDBRANCH  23  37
BRANCH  24  48
ATOM     48  C   UNL A   1      39.859  33.597  36.673  1.00  0.00     0.064 A 
ATOM     49  C   UNL A   1      40.497  34.840  36.732  1.00  0.00     0.173 A 
ATOM     50  C   UNL A   1      38.977  33.259  37.712  1.00  0.00     0.173 A 
ATOM     51  F   UNL A   1      41.367  35.194  35.775  1.00  0.00    -0.203 F 
ATOM     52  C   UNL A   1      40.235  35.728  37.774  1.00  0.00     0.198 A 
ATOM     53  C   UNL A   1      38.698  34.156  38.739  1.00  0.00     0.198 A 
ATOM     54  F   UNL A   1      38.343  32.076  37.697  1.00  0.00    -0.203 F 
ATOM     55  F   UNL A   1      40.855  36.915  37.810  1.00  0.00    -0.200 F 
ATOM     56  C   UNL A   1      39.325  35.392  38.766  1.00  0.00     0.200 A 
ATOM     57  F   UNL A   1      37.805  33.834  39.683  1.00  0.00    -0.200 F 
ATOM     58  F   UNL A   1      39.046  36.262  39.746  1.00  0.00    -0.200 F 
ENDBRANCH  24  48
BRANCH  36  59
ATOM     59  C   UNL A   1      43.926  28.150  35.066  1.00  0.00     0.064 A 
ATOM     60  C   UNL A   1      45.259  28.584  35.142  1.00  0.00     0.173 A 
ATOM     61  C   UNL A   1      43.574  26.981  35.756  1.00  0.00     0.173 A 
ATOM     62  F   UNL A   1      45.647  29.690  34.490  1.00  0.00    -0.203 F 
ATOM     63  C   UNL A   1      46.209  27.855  35.854  1.00  0.00     0.198 A 
ATOM     64  C   UNL A   1      44.521  26.272  36.491  1.00  0.00     0.198 A 
ATOM     65  F   UNL A   1      42.312  26.529  35.725  1.00  0.00    -0.203 F 
ATOM     66  F   UNL A   1      47.486  28.259  35.867  1.00  0.00    -0.200 F 
ATOM     67  C   UNL A   1      45.838  26.704  36.531  1.00  0.00     0.200 A 
ATOM     68  F   UNL A   1      44.158  25.168  37.158  1.00  0.00    -0.200 F 
ATOM     69  F   UNL A   1      46.753  26.004  37.215  1.00  0.00    -0.200 F 
ENDBRANCH  36  59
ENDBRANCH  10  11
ENDBRANCH   3   5
ENDBRANCH   2   3
ENDBRANCH   1   2
BRANCH   1  70
ATOM     70  C   UNL A   1      31.433  32.144  26.789  1.00  0.00     0.275 C 
BRANCH  70  71
ATOM     71  O   UNL A   1      31.801  30.753  26.846  1.00  0.00    -0.458 OA
BRANCH  71  72
ATOM     72  C   UNL A   1      31.459  30.021  25.748  1.00  0.00     0.342 C 
ATOM     73  O   UNL A   1      30.770  30.391  24.814  1.00  0.00    -0.246 OA
BRANCH  72  74
ATOM     74  C   UNL A   1      32.131  28.706  25.807  1.00  0.00     0.101 A 
ATOM     75  C   UNL A   1      31.325  27.560  25.773  1.00  0.00     0.020 A 
ATOM     76  C   UNL A   1      33.519  28.561  25.854  1.00  0.00     0.130 A 
ATOM     77  C   UNL A   1      31.907  26.287  25.677  1.00  0.00     0.010 A 
ATOM     78  C   UNL A   1      34.093  27.287  25.803  1.00  0.00     0.055 A 
ATOM     79  C   UNL A   1      33.300  26.140  25.653  1.00  0.00    -0.014 A 
BRANCH  76  80
ATOM     80  O   UNL A   1      34.389  29.616  25.926  1.00  0.00    -0.507 OA
ATOM     81  H   UNL A   1      34.502  30.076  26.735  1.00  0.00     0.293 HD
ENDBRANCH  76  80
BRANCH  79  82
ATOM     82  C   UNL A   1      33.954  24.832  25.406  1.00  0.00    -0.011 A 
ATOM     83  C   UNL A   1      34.057  23.793  26.414  1.00  0.00     0.027 A 
ATOM     84  C   UNL A   1      34.559  24.624  24.221  1.00  0.00     0.080 A 
ATOM     85  C   UNL A   1      34.758  22.676  26.182  1.00  0.00     0.095 A 
ATOM     86  C   UNL A   1      35.343  23.388  23.943  1.00  0.00     0.255 A 
ATOM     87  N   UNL A   1      35.398  22.469  24.974  1.00  0.00    -0.258 N 
ATOM     88  O   UNL A   1      35.873  23.272  22.843  1.00  0.00    -0.269 OA
BRANCH  87  89
ATOM     89  C   UNL A   1      36.171  21.276  24.744  1.00  0.00     0.451 C 
ATOM     90  F   UNL A   1      37.155  21.147  25.669  1.00  0.00    -0.185 F 
ATOM     91  F   UNL A   1      35.394  20.168  24.806  1.00  0.00    -0.185 F 
ENDBRANCH  87  89
ENDBRANCH  79  82
ENDBRANCH  72  74
ENDBRANCH  71  72
ENDBRANCH  70  71
ENDBRANCH   1  70
TORSDOF 14
ENDMDL
