MODEL 1
REMARK VINA RESULT:     -12.4      0.000      0.000
REMARK SMILES Cc1cc(S(=O)(=O)N[C@@H](CO)C(=O)OCCOC(=O)c2ccc(-c3c4nc(c(-c5c(F)c(F)c(F)c(F)c5F)c5ccc([nH]5)c(-c5c(F)c(F)c(F)c(F)c5F)c5nc(c(-c6c(F)c(F)c(F)c(F)c6F)c6ccc3[nH]6)C=C5)C=C4)cc2)ccc1OC(C)C
REMARK SMILES IDX 14 1 12 2 13 3 9 4 8 5 5 7 6 8 7 9 4 10 1 11 2 12 3 13 85 14
REMARK SMILES IDX 84 15 83 16 86 17 87 18 88 19 89 20 10 21 11 22 15 24 16 25
REMARK SMILES IDX 17 26 18 27 19 28 20 29 21 30 82 31 22 32 81 33 23 34 24 35
REMARK SMILES IDX 25 36 75 37 26 38 80 39 74 40 76 41 27 42 79 43 73 44 72 45
REMARK SMILES IDX 28 47 60 48 40 49 59 50 41 51 44 52 58 53 77 54 42 55 43 56
REMARK SMILES IDX 57 58 78 59 45 60 29 61 30 62 38 63 31 64 32 65 36 66 39 67
REMARK SMILES IDX 33 68 34 69 37 70 35 71 61 72 62 73 70 74 63 75 64 76 68 77
REMARK SMILES IDX 71 78 65 79 66 80 69 81 67 82 46 83 47 84 55 85 48 86 49 87
REMARK SMILES IDX 53 88 56 89 50 90 51 91 54 92 52 93
REMARK H PARENT 8 6 11 23 76 46 44 57
REMARK Flexibility Score: inf
ROOT
ATOM      1  O   UNL A   1      32.964  29.406  24.674  1.00  0.00    -0.461 OA
ENDROOT
BRANCH   1   2
ATOM      2  C   UNL A   1      33.046  28.674  23.513  1.00  0.00     0.326 C 
ATOM      3  O   UNL A   1      34.030  28.673  22.791  1.00  0.00    -0.250 OA
BRANCH   2   4
ATOM      4  C   UNL A   1      31.778  27.828  23.351  1.00  0.00     0.205 C 
BRANCH   4   5
ATOM      5  N   UNL A   1      31.312  27.513  24.710  1.00  0.00    -0.194 NA
ATOM      6  H   UNL A   1      32.052  27.849  25.328  1.00  0.00     0.142 HD
BRANCH   5   7
ATOM      7  S   UNL A   1      30.914  26.025  25.290  1.00  0.00     0.241 S 
ATOM      8  O   UNL A   1      30.133  25.371  24.274  1.00  0.00    -0.207 OA
ATOM      9  O   UNL A   1      30.390  26.258  26.621  1.00  0.00    -0.207 OA
BRANCH   7  10
ATOM     10  C   UNL A   1      32.428  25.129  25.494  1.00  0.00     0.083 A 
ATOM     11  C   UNL A   1      33.314  22.210  27.691  1.00  0.00     0.048 C 
ATOM     12  C   UNL A   1      33.575  23.319  26.712  1.00  0.00    -0.008 A 
ATOM     13  C   UNL A   1      32.407  24.047  26.377  1.00  0.00     0.029 A 
ATOM     14  C   UNL A   1      34.780  23.677  26.091  1.00  0.00     0.122 A 
ATOM     15  C   UNL A   1      34.768  24.752  25.169  1.00  0.00     0.048 A 
ATOM     16  C   UNL A   1      33.616  25.491  24.879  1.00  0.00     0.025 A 
BRANCH  14  17
ATOM     17  O   UNL A   1      36.038  23.162  26.184  1.00  0.00    -0.491 OA
BRANCH  17  18
ATOM     18  C   UNL A   1      36.640  22.188  25.336  1.00  0.00     0.167 C 
ATOM     19  C   UNL A   1      38.105  21.880  25.654  1.00  0.00     0.052 C 
ATOM     20  C   UNL A   1      35.710  21.005  25.072  1.00  0.00     0.052 C 
ENDBRANCH  17  18
ENDBRANCH  14  17
ENDBRANCH   7  10
ENDBRANCH   5   7
ENDBRANCH   4   5
BRANCH   4  21
ATOM     21  C   UNL A   1      30.776  28.485  22.401  1.00  0.00     0.188 C 
BRANCH  21  22
ATOM     22  O   UNL A   1      31.205  29.756  21.932  1.00  0.00    -0.394 OA
ATOM     23  H   UNL A   1      32.162  29.737  21.778  1.00  0.00     0.210 HD
ENDBRANCH  21  22
ENDBRANCH   4  21
ENDBRANCH   2   4
ENDBRANCH   1   2
BRANCH   1  24
ATOM     24  C   UNL A   1      34.053  29.193  25.575  1.00  0.00     0.274 C 
BRANCH  24  25
ATOM     25  C   UNL A   1      33.587  29.264  27.034  1.00  0.00     0.275 C 
BRANCH  25  26
ATOM     26  O   UNL A   1      34.574  29.603  28.053  1.00  0.00    -0.458 OA
BRANCH  26  27
ATOM     27  C   UNL A   1      35.652  30.424  27.997  1.00  0.00     0.338 C 
ATOM     28  O   UNL A   1      35.533  31.638  27.889  1.00  0.00    -0.246 OA
BRANCH  27  29
ATOM     29  C   UNL A   1      36.994  29.837  28.169  1.00  0.00     0.060 A 
ATOM     30  C   UNL A   1      37.249  29.022  29.284  1.00  0.00     0.016 A 
ATOM     31  C   UNL A   1      37.966  30.011  27.195  1.00  0.00     0.016 A 
ATOM     32  C   UNL A   1      38.403  28.232  29.329  1.00  0.00     0.010 A 
ATOM     33  C   UNL A   1      39.064  29.175  27.196  1.00  0.00     0.010 A 
ATOM     34  C   UNL A   1      39.290  28.274  28.252  1.00  0.00    -0.014 A 
BRANCH  34  35
ATOM     35  C   UNL A   1      40.595  27.604  28.239  1.00  0.00     0.031 A 
ATOM     36  C   UNL A   1      40.821  26.172  27.928  1.00  0.00     0.074 A 
ATOM     37  C   UNL A   1      41.626  28.416  28.557  1.00  0.00     0.049 A 
ATOM     38  N   UNL A   1      41.861  25.505  28.309  1.00  0.00    -0.248 NA
ATOM     39  C   UNL A   1      39.890  25.355  27.163  1.00  0.00     0.031 C 
ATOM     40  C   UNL A   1      43.056  28.165  28.539  1.00  0.00     0.029 A 
ATOM     41  N   UNL A   1      41.499  29.645  29.233  1.00  0.00    -0.354 N 
ATOM     42  C   UNL A   1      41.846  24.275  27.681  1.00  0.00     0.074 A 
ATOM     43  C   UNL A   1      40.570  24.211  27.012  1.00  0.00     0.031 C 
ATOM     44  C   UNL A   1      43.629  28.980  29.445  1.00  0.00     0.029 A 
ATOM     45  C   UNL A   1      42.551  29.656  30.159  1.00  0.00     0.049 A 
ATOM     46  H   UNL A   1      40.820  30.342  29.087  1.00  0.00     0.167 HD
ATOM     47  C   UNL A   1      42.958  23.485  27.707  1.00  0.00     0.037 A 
ATOM     48  C   UNL A   1      42.256  29.532  31.487  1.00  0.00     0.037 A 
ATOM     49  C   UNL A   1      43.995  24.077  28.538  1.00  0.00     0.049 A 
ATOM     50  C   UNL A   1      42.885  28.318  32.124  1.00  0.00     0.074 A 
ATOM     51  C   UNL A   1      45.043  24.942  28.277  1.00  0.00     0.029 A 
ATOM     52  N   UNL A   1      43.816  24.076  29.907  1.00  0.00    -0.354 N 
ATOM     53  N   UNL A   1      43.335  27.294  31.452  1.00  0.00    -0.248 NA
ATOM     54  C   UNL A   1      42.986  28.132  33.571  1.00  0.00     0.031 C 
ATOM     55  C   UNL A   1      45.431  25.537  29.509  1.00  0.00     0.029 A 
ATOM     56  C   UNL A   1      44.635  25.009  30.509  1.00  0.00     0.049 A 
ATOM     57  H   UNL A   1      43.189  23.490  30.389  1.00  0.00     0.167 HD
ATOM     58  C   UNL A   1      43.845  26.381  32.326  1.00  0.00     0.074 A 
ATOM     59  C   UNL A   1      43.557  26.919  33.643  1.00  0.00     0.031 C 
ATOM     60  C   UNL A   1      44.491  25.255  31.926  1.00  0.00     0.037 A 
BRANCH  47  61
ATOM     61  C   UNL A   1      43.196  22.281  26.829  1.00  0.00     0.064 A 
ATOM     62  C   UNL A   1      42.421  21.111  26.998  1.00  0.00     0.173 A 
ATOM     63  C   UNL A   1      44.176  22.207  25.824  1.00  0.00     0.173 A 
ATOM     64  F   UNL A   1      41.412  21.063  27.878  1.00  0.00    -0.203 F 
ATOM     65  C   UNL A   1      42.663  19.938  26.276  1.00  0.00     0.198 A 
ATOM     66  C   UNL A   1      44.447  21.018  25.132  1.00  0.00     0.198 A 
ATOM     67  F   UNL A   1      44.868  23.293  25.453  1.00  0.00    -0.203 F 
ATOM     68  F   UNL A   1      41.894  18.859  26.483  1.00  0.00    -0.200 F 
ATOM     69  C   UNL A   1      43.695  19.883  25.365  1.00  0.00     0.200 A 
ATOM     70  F   UNL A   1      45.443  20.981  24.234  1.00  0.00    -0.200 F 
ATOM     71  F   UNL A   1      43.955  18.746  24.704  1.00  0.00    -0.200 F 
ENDBRANCH  47  61
BRANCH  48  72
ATOM     72  C   UNL A   1      40.930  30.102  31.890  1.00  0.00     0.064 A 
ATOM     73  C   UNL A   1      39.856  29.229  32.170  1.00  0.00     0.173 A 
ATOM     74  C   UNL A   1      40.765  31.443  32.259  1.00  0.00     0.173 A 
ATOM     75  F   UNL A   1      39.939  27.929  31.841  1.00  0.00    -0.203 F 
ATOM     76  C   UNL A   1      38.730  29.652  32.876  1.00  0.00     0.198 A 
ATOM     77  C   UNL A   1      39.621  31.872  32.938  1.00  0.00     0.198 A 
ATOM     78  F   UNL A   1      41.737  32.339  32.035  1.00  0.00    -0.203 F 
ATOM     79  F   UNL A   1      37.783  28.767  33.220  1.00  0.00    -0.200 F 
ATOM     80  C   UNL A   1      38.619  30.972  33.271  1.00  0.00     0.200 A 
ATOM     81  F   UNL A   1      39.520  33.150  33.332  1.00  0.00    -0.200 F 
ATOM     82  F   UNL A   1      37.566  31.373  33.995  1.00  0.00    -0.200 F 
ENDBRANCH  48  72
BRANCH  60  83
ATOM     83  C   UNL A   1      45.098  24.313  32.899  1.00  0.00     0.064 A 
ATOM     84  C   UNL A   1      44.404  23.183  33.352  1.00  0.00     0.173 A 
ATOM     85  C   UNL A   1      46.345  24.585  33.486  1.00  0.00     0.173 A 
ATOM     86  F   UNL A   1      43.189  22.887  32.863  1.00  0.00    -0.203 F 
ATOM     87  C   UNL A   1      44.948  22.343  34.319  1.00  0.00     0.198 A 
ATOM     88  C   UNL A   1      46.867  23.769  34.483  1.00  0.00     0.198 A 
ATOM     89  F   UNL A   1      47.080  25.636  33.090  1.00  0.00    -0.203 F 
ATOM     90  F   UNL A   1      44.281  21.244  34.696  1.00  0.00    -0.200 F 
ATOM     91  C   UNL A   1      46.173  22.642  34.891  1.00  0.00     0.200 A 
ATOM     92  F   UNL A   1      48.045  24.074  35.044  1.00  0.00    -0.200 F 
ATOM     93  F   UNL A   1      46.689  21.842  35.833  1.00  0.00    -0.200 F 
ENDBRANCH  60  83
ENDBRANCH  34  35
ENDBRANCH  27  29
ENDBRANCH  26  27
ENDBRANCH  25  26
ENDBRANCH  24  25
ENDBRANCH   1  24
TORSDOF 18
ENDMDL
MODEL 2
REMARK VINA RESULT:     -12.1      1.334      2.023
REMARK SMILES Cc1cc(S(=O)(=O)N[C@@H](CO)C(=O)OCCOC(=O)c2ccc(-c3c4nc(c(-c5c(F)c(F)c(F)c(F)c5F)c5ccc([nH]5)c(-c5c(F)c(F)c(F)c(F)c5F)c5nc(c(-c6c(F)c(F)c(F)c(F)c6F)c6ccc3[nH]6)C=C5)C=C4)cc2)ccc1OC(C)C
REMARK SMILES IDX 14 1 12 2 13 3 9 4 8 5 5 7 6 8 7 9 4 10 1 11 2 12 3 13 85 14
REMARK SMILES IDX 84 15 83 16 86 17 87 18 88 19 89 20 10 21 11 22 15 24 16 25
REMARK SMILES IDX 17 26 18 27 19 28 20 29 21 30 82 31 22 32 81 33 23 34 24 35
REMARK SMILES IDX 25 36 75 37 26 38 80 39 74 40 76 41 27 42 79 43 73 44 72 45
REMARK SMILES IDX 28 47 60 48 40 49 59 50 41 51 44 52 58 53 77 54 42 55 43 56
REMARK SMILES IDX 57 58 78 59 45 60 29 61 30 62 38 63 31 64 32 65 36 66 39 67
REMARK SMILES IDX 33 68 34 69 37 70 35 71 61 72 62 73 70 74 63 75 64 76 68 77
REMARK SMILES IDX 71 78 65 79 66 80 69 81 67 82 46 83 47 84 55 85 48 86 49 87
REMARK SMILES IDX 53 88 56 89 50 90 51 91 54 92 52 93
REMARK H PARENT 8 6 11 23 76 46 44 57
REMARK Flexibility Score: inf
ROOT
ATOM      1  O   UNL A   1      33.014  29.242  24.563  1.00  0.00    -0.461 OA
ENDROOT
BRANCH   1   2
ATOM      2  C   UNL A   1      31.907  28.458  24.343  1.00  0.00     0.326 C 
ATOM      3  O   UNL A   1      31.275  27.924  25.242  1.00  0.00    -0.250 OA
BRANCH   2   4
ATOM      4  C   UNL A   1      31.570  28.455  22.847  1.00  0.00     0.205 C 
BRANCH   4   5
ATOM      5  N   UNL A   1      31.344  27.050  22.475  1.00  0.00    -0.194 NA
ATOM      6  H   UNL A   1      31.057  26.590  23.339  1.00  0.00     0.142 HD
BRANCH   5   7
ATOM      7  S   UNL A   1      32.440  26.030  21.791  1.00  0.00     0.241 S 
ATOM      8  O   UNL A   1      33.746  26.575  22.053  1.00  0.00    -0.207 OA
ATOM      9  O   UNL A   1      31.965  25.805  20.441  1.00  0.00    -0.207 OA
BRANCH   7  10
ATOM     10  C   UNL A   1      32.301  24.482  22.639  1.00  0.00     0.083 A 
ATOM     11  C   UNL A   1      30.763  23.589  25.951  1.00  0.00     0.048 C 
ATOM     12  C   UNL A   1      31.533  23.341  24.685  1.00  0.00    -0.008 A 
ATOM     13  C   UNL A   1      31.618  24.487  23.857  1.00  0.00     0.029 A 
ATOM     14  C   UNL A   1      32.119  22.151  24.231  1.00  0.00     0.122 A 
ATOM     15  C   UNL A   1      32.771  22.160  22.974  1.00  0.00     0.048 A 
ATOM     16  C   UNL A   1      32.885  23.309  22.185  1.00  0.00     0.025 A 
BRANCH  14  17
ATOM     17  O   UNL A   1      32.180  20.904  24.775  1.00  0.00    -0.491 OA
BRANCH  17  18
ATOM     18  C   UNL A   1      33.257  20.332  25.511  1.00  0.00     0.167 C 
ATOM     19  C   UNL A   1      34.085  19.303  24.740  1.00  0.00     0.052 C 
ATOM     20  C   UNL A   1      34.012  21.379  26.329  1.00  0.00     0.052 C 
ENDBRANCH  17  18
ENDBRANCH  14  17
ENDBRANCH   7  10
ENDBRANCH   5   7
ENDBRANCH   4   5
BRANCH   4  21
ATOM     21  C   UNL A   1      30.462  29.456  22.515  1.00  0.00     0.188 C 
BRANCH  21  22
ATOM     22  O   UNL A   1      30.625  30.063  21.240  1.00  0.00    -0.394 OA
ATOM     23  H   UNL A   1      29.906  30.696  21.090  1.00  0.00     0.210 HD
ENDBRANCH  21  22
ENDBRANCH   4  21
ENDBRANCH   2   4
ENDBRANCH   1   2
BRANCH   1  24
ATOM     24  C   UNL A   1      33.107  29.757  25.894  1.00  0.00     0.274 C 
BRANCH  24  25
ATOM     25  C   UNL A   1      34.346  29.211  26.612  1.00  0.00     0.275 C 
BRANCH  25  26
ATOM     26  O   UNL A   1      34.595  29.651  27.981  1.00  0.00    -0.458 OA
BRANCH  26  27
ATOM     27  C   UNL A   1      35.591  30.413  28.494  1.00  0.00     0.338 C 
ATOM     28  O   UNL A   1      35.385  31.542  28.921  1.00  0.00    -0.246 OA
BRANCH  27  29
ATOM     29  C   UNL A   1      36.936  29.821  28.624  1.00  0.00     0.060 A 
ATOM     30  C   UNL A   1      37.203  28.955  29.698  1.00  0.00     0.016 A 
ATOM     31  C   UNL A   1      37.897  30.042  27.649  1.00  0.00     0.016 A 
ATOM     32  C   UNL A   1      38.358  28.166  29.693  1.00  0.00     0.010 A 
ATOM     33  C   UNL A   1      38.996  29.208  27.600  1.00  0.00     0.010 A 
ATOM     34  C   UNL A   1      39.234  28.259  28.610  1.00  0.00    -0.014 A 
BRANCH  34  35
ATOM     35  C   UNL A   1      40.540  27.593  28.552  1.00  0.00     0.031 A 
ATOM     36  C   UNL A   1      40.761  26.168  28.205  1.00  0.00     0.074 A 
ATOM     37  C   UNL A   1      41.576  28.400  28.864  1.00  0.00     0.049 A 
ATOM     38  N   UNL A   1      41.810  25.495  28.547  1.00  0.00    -0.248 NA
ATOM     39  C   UNL A   1      39.814  25.367  27.444  1.00  0.00     0.031 C 
ATOM     40  C   UNL A   1      43.006  28.152  28.807  1.00  0.00     0.029 A 
ATOM     41  N   UNL A   1      41.463  29.613  29.569  1.00  0.00    -0.354 N 
ATOM     42  C   UNL A   1      41.782  24.279  27.892  1.00  0.00     0.074 A 
ATOM     43  C   UNL A   1      40.492  24.228  27.253  1.00  0.00     0.031 C 
ATOM     44  C   UNL A   1      43.599  28.949  29.717  1.00  0.00     0.029 A 
ATOM     45  C   UNL A   1      42.536  29.607  30.470  1.00  0.00     0.049 A 
ATOM     46  H   UNL A   1      40.780  30.312  29.454  1.00  0.00     0.167 HD
ATOM     47  C   UNL A   1      42.897  23.491  27.876  1.00  0.00     0.037 A 
ATOM     48  C   UNL A   1      42.272  29.453  31.802  1.00  0.00     0.037 A 
ATOM     49  C   UNL A   1      43.951  24.068  28.695  1.00  0.00     0.049 A 
ATOM     50  C   UNL A   1      42.918  28.227  32.397  1.00  0.00     0.074 A 
ATOM     51  C   UNL A   1      44.992  24.940  28.429  1.00  0.00     0.029 A 
ATOM     52  N   UNL A   1      43.805  24.037  30.068  1.00  0.00    -0.354 N 
ATOM     53  N   UNL A   1      43.354  27.219  31.693  1.00  0.00    -0.248 NA
ATOM     54  C   UNL A   1      43.053  28.010  33.837  1.00  0.00     0.031 C 
ATOM     55  C   UNL A   1      45.408  25.509  29.664  1.00  0.00     0.029 A 
ATOM     56  C   UNL A   1      44.636  24.958  30.671  1.00  0.00     0.049 A 
ATOM     57  H   UNL A   1      43.190  23.438  30.551  1.00  0.00     0.167 HD
ATOM     58  C   UNL A   1      43.886  26.288  32.535  1.00  0.00     0.074 A 
ATOM     59  C   UNL A   1      43.628  26.797  33.869  1.00  0.00     0.031 C 
ATOM     60  C   UNL A   1      44.524  25.172  32.096  1.00  0.00     0.037 A 
BRANCH  47  61
ATOM     61  C   UNL A   1      43.116  22.307  26.967  1.00  0.00     0.064 A 
ATOM     62  C   UNL A   1      42.343  21.134  27.124  1.00  0.00     0.173 A 
ATOM     63  C   UNL A   1      44.077  22.256  25.941  1.00  0.00     0.173 A 
ATOM     64  F   UNL A   1      41.352  21.067  28.022  1.00  0.00    -0.203 F 
ATOM     65  C   UNL A   1      42.569  19.978  26.372  1.00  0.00     0.198 A 
ATOM     66  C   UNL A   1      44.333  21.082  25.217  1.00  0.00     0.198 A 
ATOM     67  F   UNL A   1      44.762  23.349  25.582  1.00  0.00    -0.203 F 
ATOM     68  F   UNL A   1      41.804  18.895  26.568  1.00  0.00    -0.200 F 
ATOM     69  C   UNL A   1      43.584  19.942  25.439  1.00  0.00     0.200 A 
ATOM     70  F   UNL A   1      45.311  21.065  24.300  1.00  0.00    -0.200 F 
ATOM     71  F   UNL A   1      43.830  18.820  24.748  1.00  0.00    -0.200 F 
ENDBRANCH  47  61
BRANCH  48  72
ATOM     72  C   UNL A   1      40.955  30.012  32.248  1.00  0.00     0.064 A 
ATOM     73  C   UNL A   1      40.689  31.388  32.069  1.00  0.00     0.173 A 
ATOM     74  C   UNL A   1      39.868  29.200  32.595  1.00  0.00     0.173 A 
ATOM     75  F   UNL A   1      41.684  32.230  31.739  1.00  0.00    -0.203 F 
ATOM     76  C   UNL A   1      39.394  31.898  32.127  1.00  0.00     0.198 A 
ATOM     77  C   UNL A   1      38.574  29.721  32.684  1.00  0.00     0.198 A 
ATOM     78  F   UNL A   1      40.030  27.882  32.780  1.00  0.00    -0.203 F 
ATOM     79  F   UNL A   1      39.169  33.190  31.840  1.00  0.00    -0.200 F 
ATOM     80  C   UNL A   1      38.334  31.062  32.422  1.00  0.00     0.200 A 
ATOM     81  F   UNL A   1      37.546  28.906  32.959  1.00  0.00    -0.200 F 
ATOM     82  F   UNL A   1      37.081  31.535  32.426  1.00  0.00    -0.200 F 
ENDBRANCH  48  72
BRANCH  60  83
ATOM     83  C   UNL A   1      45.155  24.211  33.034  1.00  0.00     0.064 A 
ATOM     84  C   UNL A   1      44.481  23.061  33.463  1.00  0.00     0.173 A 
ATOM     85  C   UNL A   1      46.407  24.481  33.611  1.00  0.00     0.173 A 
ATOM     86  F   UNL A   1      43.263  22.764  32.983  1.00  0.00    -0.203 F 
ATOM     87  C   UNL A   1      45.048  22.201  34.399  1.00  0.00     0.198 A 
ATOM     88  C   UNL A   1      46.952  23.644  34.578  1.00  0.00     0.198 A 
ATOM     89  F   UNL A   1      47.125  25.551  33.234  1.00  0.00    -0.203 F 
ATOM     90  F   UNL A   1      44.399  21.084  34.754  1.00  0.00    -0.200 F 
ATOM     91  C   UNL A   1      46.278  22.498  34.963  1.00  0.00     0.200 A 
ATOM     92  F   UNL A   1      48.134  23.948  35.131  1.00  0.00    -0.200 F 
ATOM     93  F   UNL A   1      46.816  21.678  35.875  1.00  0.00    -0.200 F 
ENDBRANCH  60  83
ENDBRANCH  34  35
ENDBRANCH  27  29
ENDBRANCH  26  27
ENDBRANCH  25  26
ENDBRANCH  24  25
ENDBRANCH   1  24
TORSDOF 18
ENDMDL
MODEL 3
REMARK VINA RESULT:     -12.0      1.513      2.522
REMARK SMILES Cc1cc(S(=O)(=O)N[C@@H](CO)C(=O)OCCOC(=O)c2ccc(-c3c4nc(c(-c5c(F)c(F)c(F)c(F)c5F)c5ccc([nH]5)c(-c5c(F)c(F)c(F)c(F)c5F)c5nc(c(-c6c(F)c(F)c(F)c(F)c6F)c6ccc3[nH]6)C=C5)C=C4)cc2)ccc1OC(C)C
REMARK SMILES IDX 14 1 12 2 13 3 9 4 8 5 5 7 6 8 7 9 4 10 1 11 2 12 3 13 85 14
REMARK SMILES IDX 84 15 83 16 86 17 87 18 88 19 89 20 10 21 11 22 15 24 16 25
REMARK SMILES IDX 17 26 18 27 19 28 20 29 21 30 82 31 22 32 81 33 23 34 24 35
REMARK SMILES IDX 25 36 75 37 26 38 80 39 74 40 76 41 27 42 79 43 73 44 72 45
REMARK SMILES IDX 28 47 60 48 40 49 59 50 41 51 44 52 58 53 77 54 42 55 43 56
REMARK SMILES IDX 57 58 78 59 45 60 29 61 30 62 38 63 31 64 32 65 36 66 39 67
REMARK SMILES IDX 33 68 34 69 37 70 35 71 61 72 62 73 70 74 63 75 64 76 68 77
REMARK SMILES IDX 71 78 65 79 66 80 69 81 67 82 46 83 47 84 55 85 48 86 49 87
REMARK SMILES IDX 53 88 56 89 50 90 51 91 54 92 52 93
REMARK H PARENT 8 6 11 23 76 46 44 57
REMARK Flexibility Score: inf
ROOT
ATOM      1  O   UNL A   1      33.337  28.609  24.579  1.00  0.00    -0.461 OA
ENDROOT
BRANCH   1   2
ATOM      2  C   UNL A   1      32.119  28.001  24.386  1.00  0.00     0.326 C 
ATOM      3  O   UNL A   1      31.101  28.342  24.965  1.00  0.00    -0.250 OA
BRANCH   2   4
ATOM      4  C   UNL A   1      32.249  26.933  23.292  1.00  0.00     0.205 C 
BRANCH   4   5
ATOM      5  N   UNL A   1      32.493  25.659  23.983  1.00  0.00    -0.194 NA
ATOM      6  H   UNL A   1      32.407  25.875  24.977  1.00  0.00     0.142 HD
BRANCH   5   7
ATOM      7  S   UNL A   1      33.841  24.721  23.864  1.00  0.00     0.241 S 
ATOM      8  O   UNL A   1      34.789  25.222  24.824  1.00  0.00    -0.207 OA
ATOM      9  O   UNL A   1      34.147  24.666  22.449  1.00  0.00    -0.207 OA
BRANCH   7  10
ATOM     10  C   UNL A   1      33.373  23.082  24.344  1.00  0.00     0.083 A 
ATOM     11  C   UNL A   1      35.424  19.998  24.989  1.00  0.00     0.048 C 
ATOM     12  C   UNL A   1      34.162  20.797  24.825  1.00  0.00    -0.008 A 
ATOM     13  C   UNL A   1      34.406  22.164  24.547  1.00  0.00     0.029 A 
ATOM     14  C   UNL A   1      32.832  20.372  24.945  1.00  0.00     0.122 A 
ATOM     15  C   UNL A   1      31.802  21.329  24.774  1.00  0.00     0.048 A 
ATOM     16  C   UNL A   1      32.055  22.669  24.458  1.00  0.00     0.025 A 
BRANCH  14  17
ATOM     17  O   UNL A   1      32.289  19.155  25.226  1.00  0.00    -0.491 OA
BRANCH  17  18
ATOM     18  C   UNL A   1      32.405  17.957  24.464  1.00  0.00     0.167 C 
ATOM     19  C   UNL A   1      32.598  18.170  22.962  1.00  0.00     0.052 C 
ATOM     20  C   UNL A   1      33.295  16.924  25.153  1.00  0.00     0.052 C 
ENDBRANCH  17  18
ENDBRANCH  14  17
ENDBRANCH   7  10
ENDBRANCH   5   7
ENDBRANCH   4   5
BRANCH   4  21
ATOM     21  C   UNL A   1      31.080  26.986  22.309  1.00  0.00     0.188 C 
BRANCH  21  22
ATOM     22  O   UNL A   1      30.793  28.302  21.855  1.00  0.00    -0.394 OA
ATOM     23  H   UNL A   1      29.884  28.536  22.098  1.00  0.00     0.210 HD
ENDBRANCH  21  22
ENDBRANCH   4  21
ENDBRANCH   2   4
ENDBRANCH   1   2
BRANCH   1  24
ATOM     24  C   UNL A   1      33.381  29.471  25.719  1.00  0.00     0.274 C 
BRANCH  24  25
ATOM     25  C   UNL A   1      34.016  28.764  26.923  1.00  0.00     0.275 C 
BRANCH  25  26
ATOM     26  O   UNL A   1      34.521  29.590  28.015  1.00  0.00    -0.458 OA
BRANCH  26  27
ATOM     27  C   UNL A   1      35.591  30.421  28.069  1.00  0.00     0.338 C 
ATOM     28  O   UNL A   1      35.464  31.638  28.055  1.00  0.00    -0.246 OA
BRANCH  27  29
ATOM     29  C   UNL A   1      36.932  29.832  28.245  1.00  0.00     0.060 A 
ATOM     30  C   UNL A   1      37.166  28.970  29.330  1.00  0.00     0.016 A 
ATOM     31  C   UNL A   1      37.924  30.050  27.301  1.00  0.00     0.016 A 
ATOM     32  C   UNL A   1      38.322  28.183  29.366  1.00  0.00     0.010 A 
ATOM     33  C   UNL A   1      39.026  29.218  27.290  1.00  0.00     0.010 A 
ATOM     34  C   UNL A   1      39.232  28.273  28.312  1.00  0.00    -0.014 A 
BRANCH  34  35
ATOM     35  C   UNL A   1      40.540  27.609  28.299  1.00  0.00     0.031 A 
ATOM     36  C   UNL A   1      40.770  26.174  28.008  1.00  0.00     0.074 A 
ATOM     37  C   UNL A   1      41.570  28.430  28.597  1.00  0.00     0.049 A 
ATOM     38  N   UNL A   1      41.816  25.517  28.392  1.00  0.00    -0.248 NA
ATOM     39  C   UNL A   1      39.837  25.342  27.263  1.00  0.00     0.031 C 
ATOM     40  C   UNL A   1      43.001  28.185  28.572  1.00  0.00     0.029 A 
ATOM     41  N   UNL A   1      41.442  29.669  29.255  1.00  0.00    -0.354 N 
ATOM     42  C   UNL A   1      41.801  24.277  27.782  1.00  0.00     0.074 A 
ATOM     43  C   UNL A   1      40.520  24.198  27.124  1.00  0.00     0.031 C 
ATOM     44  C   UNL A   1      43.577  29.017  29.461  1.00  0.00     0.029 A 
ATOM     45  C   UNL A   1      42.501  29.699  30.173  1.00  0.00     0.049 A 
ATOM     46  H   UNL A   1      40.759  30.361  29.103  1.00  0.00     0.167 HD
ATOM     47  C   UNL A   1      42.917  23.493  27.812  1.00  0.00     0.037 A 
ATOM     48  C   UNL A   1      42.216  29.593  31.505  1.00  0.00     0.037 A 
ATOM     49  C   UNL A   1      43.957  24.102  28.626  1.00  0.00     0.049 A 
ATOM     50  C   UNL A   1      42.856  28.392  32.155  1.00  0.00     0.074 A 
ATOM     51  C   UNL A   1      45.000  24.967  28.344  1.00  0.00     0.029 A 
ATOM     52  N   UNL A   1      43.789  24.121  29.996  1.00  0.00    -0.354 N 
ATOM     53  N   UNL A   1      43.305  27.360  31.496  1.00  0.00    -0.248 NA
ATOM     54  C   UNL A   1      42.969  28.228  33.604  1.00  0.00     0.031 C 
ATOM     55  C   UNL A   1      45.395  25.583  29.564  1.00  0.00     0.029 A 
ATOM     56  C   UNL A   1      44.608  25.066  30.578  1.00  0.00     0.049 A 
ATOM     57  H   UNL A   1      43.168  23.539  30.491  1.00  0.00     0.167 HD
ATOM     58  C   UNL A   1      43.826  26.463  32.380  1.00  0.00     0.074 A 
ATOM     59  C   UNL A   1      43.546  27.019  33.690  1.00  0.00     0.031 C 
ATOM     60  C   UNL A   1      44.474  25.333  31.992  1.00  0.00     0.037 A 
BRANCH  47  61
ATOM     61  C   UNL A   1      43.154  22.277  26.951  1.00  0.00     0.064 A 
ATOM     62  C   UNL A   1      42.375  21.111  27.133  1.00  0.00     0.173 A 
ATOM     63  C   UNL A   1      44.136  22.187  25.949  1.00  0.00     0.173 A 
ATOM     64  F   UNL A   1      41.364  21.077  28.011  1.00  0.00    -0.203 F 
ATOM     65  C   UNL A   1      42.615  19.928  26.428  1.00  0.00     0.198 A 
ATOM     66  C   UNL A   1      44.405  20.988  25.273  1.00  0.00     0.198 A 
ATOM     67  F   UNL A   1      44.832  23.266  25.565  1.00  0.00    -0.203 F 
ATOM     68  F   UNL A   1      41.843  18.854  26.647  1.00  0.00    -0.200 F 
ATOM     69  C   UNL A   1      43.650  19.858  25.519  1.00  0.00     0.200 A 
ATOM     70  F   UNL A   1      45.403  20.936  24.378  1.00  0.00    -0.200 F 
ATOM     71  F   UNL A   1      43.908  18.711  24.874  1.00  0.00    -0.200 F 
ENDBRANCH  47  61
BRANCH  48  72
ATOM     72  C   UNL A   1      40.891  30.164  31.909  1.00  0.00     0.064 A 
ATOM     73  C   UNL A   1      40.626  31.532  31.678  1.00  0.00     0.173 A 
ATOM     74  C   UNL A   1      39.800  29.363  32.266  1.00  0.00     0.173 A 
ATOM     75  F   UNL A   1      41.625  32.365  31.336  1.00  0.00    -0.203 F 
ATOM     76  C   UNL A   1      39.329  32.042  31.697  1.00  0.00     0.198 A 
ATOM     77  C   UNL A   1      38.504  29.884  32.315  1.00  0.00     0.198 A 
ATOM     78  F   UNL A   1      39.961  28.052  32.499  1.00  0.00    -0.203 F 
ATOM     79  F   UNL A   1      39.107  33.323  31.361  1.00  0.00    -0.200 F 
ATOM     80  C   UNL A   1      38.266  31.214  32.003  1.00  0.00     0.200 A 
ATOM     81  F   UNL A   1      37.472  29.076  32.601  1.00  0.00    -0.200 F 
ATOM     82  F   UNL A   1      37.012  31.685  31.970  1.00  0.00    -0.200 F 
ENDBRANCH  48  72
BRANCH  60  83
ATOM     83  C   UNL A   1      45.092  24.409  32.975  1.00  0.00     0.064 A 
ATOM     84  C   UNL A   1      46.398  24.607  33.441  1.00  0.00     0.173 A 
ATOM     85  C   UNL A   1      44.428  23.241  33.384  1.00  0.00     0.173 A 
ATOM     86  F   UNL A   1      47.105  25.681  33.056  1.00  0.00    -0.203 F 
ATOM     87  C   UNL A   1      46.999  23.697  34.306  1.00  0.00     0.198 A 
ATOM     88  C   UNL A   1      45.046  22.311  34.213  1.00  0.00     0.198 A 
ATOM     89  F   UNL A   1      43.167  22.992  32.998  1.00  0.00    -0.203 F 
ATOM     90  F   UNL A   1      48.232  23.938  34.772  1.00  0.00    -0.200 F 
ATOM     91  C   UNL A   1      46.327  22.546  34.682  1.00  0.00     0.200 A 
ATOM     92  F   UNL A   1      44.397  21.192  34.559  1.00  0.00    -0.200 F 
ATOM     93  F   UNL A   1      46.913  21.663  35.503  1.00  0.00    -0.200 F 
ENDBRANCH  60  83
ENDBRANCH  34  35
ENDBRANCH  27  29
ENDBRANCH  26  27
ENDBRANCH  25  26
ENDBRANCH  24  25
ENDBRANCH   1  24
TORSDOF 18
ENDMDL
