MODEL 1
REMARK VINA RESULT:     -12.9      0.000      0.000
REMARK SMILES N#Cc1ccc(C(=O)N2CCC(Oc3ccccc3)(C(=O)OCCOC(=O)c3ccc(-c4c5nc(c(-c6c(F)c(F)c(F)c(F)c6F)c6ccc([nH]6)c(-c6c(F)c(F)c(F)c(F)c6F)c6nc(c(-c7c(F)c(F)c(F)c(F)c7F)c7ccc4[nH]7)C=C6)C=C5)cc3)CC2)cc1
REMARK SMILES IDX 23 1 22 2 20 3 21 4 12 5 7 6 8 7 9 8 10 9 92 10 11 11 91 12
REMARK SMILES IDX 6 13 3 14 4 15 94 16 5 17 93 18 2 19 1 20 13 21 14 22 15 23
REMARK SMILES IDX 19 24 16 25 18 26 17 27 24 28 25 29 26 30 27 31 28 32 29 33
REMARK SMILES IDX 90 34 30 35 89 36 31 37 32 38 33 39 83 40 34 41 88 42 82 43
REMARK SMILES IDX 84 44 35 45 87 46 81 47 80 48 36 50 68 51 48 52 67 53 49 54
REMARK SMILES IDX 52 55 66 56 85 57 50 58 51 59 65 61 86 62 53 63 37 64 38 65
REMARK SMILES IDX 46 66 39 67 40 68 44 69 47 70 41 71 42 72 45 73 43 74 69 75
REMARK SMILES IDX 70 76 78 77 71 78 72 79 76 80 79 81 73 82 74 83 77 84 75 85
REMARK SMILES IDX 54 86 55 87 63 88 56 89 57 90 61 91 64 92 58 93 59 94 62 95
REMARK SMILES IDX 60 96
REMARK H PARENT 84 49 52 60
REMARK Flexibility Score: inf
ROOT
ATOM      1  C   UNL A   1      35.901  21.481  25.819  1.00  0.00     0.274 C 
ENDROOT
BRANCH   1   2
ATOM      2  O   UNL A   1      34.659  21.014  25.236  1.00  0.00    -0.459 OA
BRANCH   2   3
ATOM      3  C   UNL A   1      33.576  21.005  26.060  1.00  0.00     0.350 C 
ATOM      4  O   UNL A   1      33.648  20.703  27.251  1.00  0.00    -0.247 OA
BRANCH   3   5
ATOM      5  C   UNL A   1      32.232  21.297  25.356  1.00  0.00     0.209 C 
ATOM      6  C   UNL A   1      31.292  25.368  24.268  1.00  0.00     0.253 C 
ATOM      7  O   UNL A   1      30.494  25.493  23.343  1.00  0.00    -0.269 OA
ATOM      8  N   UNL A   1      31.731  24.117  24.694  1.00  0.00    -0.338 N 
ATOM      9  C   UNL A   1      32.568  23.334  23.802  1.00  0.00     0.124 C 
ATOM     10  C   UNL A   1      31.693  23.706  26.076  1.00  0.00     0.124 C 
ATOM     11  C   UNL A   1      32.333  21.837  23.921  1.00  0.00     0.082 C 
ATOM     12  C   UNL A   1      31.354  22.222  26.237  1.00  0.00     0.082 C 
BRANCH   6  13
ATOM     13  C   UNL A   1      31.908  26.601  24.860  1.00  0.00     0.040 A 
ATOM     14  C   UNL A   1      33.158  28.780  26.157  1.00  0.00     0.052 A 
ATOM     15  C   UNL A   1      33.919  27.860  25.426  1.00  0.00     0.020 A 
ATOM     16  C   UNL A   1      31.780  28.590  26.265  1.00  0.00     0.020 A 
ATOM     17  C   UNL A   1      33.296  26.781  24.779  1.00  0.00     0.015 A 
ATOM     18  C   UNL A   1      31.163  27.505  25.625  1.00  0.00     0.015 A 
BRANCH  14  19
ATOM     19  C   UNL A   1      33.776  29.934  26.738  1.00  0.00     0.099 C 
ATOM     20  N   UNL A   1      34.292  30.842  27.251  1.00  0.00    -0.192 NA
ENDBRANCH  14  19
ENDBRANCH   6  13
BRANCH   5  21
ATOM     21  O   UNL A   1      31.807  19.888  25.356  1.00  0.00    -0.475 OA
BRANCH  21  22
ATOM     22  C   UNL A   1      32.449  19.042  24.505  1.00  0.00     0.121 A 
ATOM     23  C   UNL A   1      32.153  19.097  23.144  1.00  0.00     0.046 A 
ATOM     24  C   UNL A   1      33.303  18.063  24.998  1.00  0.00     0.046 A 
ATOM     25  C   UNL A   1      32.801  18.228  22.264  1.00  0.00     0.004 A 
ATOM     26  C   UNL A   1      33.973  17.218  24.120  1.00  0.00     0.004 A 
ATOM     27  C   UNL A   1      33.729  17.306  22.752  1.00  0.00     0.000 A 
ENDBRANCH  21  22
ENDBRANCH   5  21
ENDBRANCH   3   5
ENDBRANCH   2   3
ENDBRANCH   1   2
BRANCH   1  28
ATOM     28  C   UNL A   1      37.113  20.909  25.084  1.00  0.00     0.275 C 
BRANCH  28  29
ATOM     29  O   UNL A   1      38.202  21.856  25.096  1.00  0.00    -0.458 OA
BRANCH  29  30
ATOM     30  C   UNL A   1      39.127  21.598  26.040  1.00  0.00     0.338 C 
ATOM     31  O   UNL A   1      39.656  20.521  26.269  1.00  0.00    -0.246 OA
BRANCH  30  32
ATOM     32  C   UNL A   1      39.570  22.800  26.761  1.00  0.00     0.060 A 
ATOM     33  C   UNL A   1      39.188  24.045  26.273  1.00  0.00     0.016 A 
ATOM     34  C   UNL A   1      40.657  22.697  27.629  1.00  0.00     0.016 A 
ATOM     35  C   UNL A   1      39.999  25.151  26.499  1.00  0.00     0.010 A 
ATOM     36  C   UNL A   1      41.368  23.846  27.993  1.00  0.00     0.010 A 
ATOM     37  C   UNL A   1      41.059  25.085  27.413  1.00  0.00    -0.014 A 
BRANCH  37  38
ATOM     38  C   UNL A   1      41.724  26.335  27.867  1.00  0.00     0.031 A 
ATOM     39  C   UNL A   1      41.010  27.392  28.658  1.00  0.00     0.074 A 
ATOM     40  C   UNL A   1      43.001  26.535  27.495  1.00  0.00     0.049 A 
ATOM     41  N   UNL A   1      41.323  28.646  28.863  1.00  0.00    -0.248 NA
ATOM     42  C   UNL A   1      39.766  26.976  29.303  1.00  0.00     0.031 C 
ATOM     43  C   UNL A   1      43.841  25.568  26.784  1.00  0.00     0.029 A 
ATOM     44  N   UNL A   1      43.812  27.624  27.656  1.00  0.00    -0.354 N 
ATOM     45  C   UNL A   1      40.273  29.189  29.600  1.00  0.00     0.074 A 
ATOM     46  C   UNL A   1      39.320  28.121  29.802  1.00  0.00     0.031 C 
ATOM     47  C   UNL A   1      45.058  26.087  26.606  1.00  0.00     0.029 A 
ATOM     48  C   UNL A   1      45.032  27.468  27.052  1.00  0.00     0.049 A 
ATOM     49  H   UNL A   1      43.548  28.432  28.151  1.00  0.00     0.167 HD
ATOM     50  C   UNL A   1      40.128  30.460  30.058  1.00  0.00     0.037 A 
ATOM     51  C   UNL A   1      46.000  28.362  26.801  1.00  0.00     0.037 A 
ATOM     52  C   UNL A   1      41.137  31.478  29.893  1.00  0.00     0.049 A 
ATOM     53  C   UNL A   1      45.793  29.778  27.226  1.00  0.00     0.074 A 
ATOM     54  C   UNL A   1      41.134  32.788  30.340  1.00  0.00     0.029 A 
ATOM     55  N   UNL A   1      42.341  31.288  29.228  1.00  0.00    -0.354 N 
ATOM     56  N   UNL A   1      44.781  30.309  27.866  1.00  0.00    -0.248 NA
ATOM     57  C   UNL A   1      46.857  30.723  26.878  1.00  0.00     0.031 C 
ATOM     58  C   UNL A   1      42.303  33.407  29.885  1.00  0.00     0.029 A 
ATOM     59  C   UNL A   1      43.073  32.465  29.221  1.00  0.00     0.049 A 
ATOM     60  H   UNL A   1      42.634  30.440  28.821  1.00  0.00     0.167 HD
ATOM     61  C   UNL A   1      45.096  31.649  28.027  1.00  0.00     0.074 A 
ATOM     62  C   UNL A   1      46.404  31.840  27.428  1.00  0.00     0.031 C 
ATOM     63  C   UNL A   1      44.372  32.630  28.618  1.00  0.00     0.037 A 
BRANCH  50  64
ATOM     64  C   UNL A   1      38.827  30.837  30.728  1.00  0.00     0.064 A 
ATOM     65  C   UNL A   1      37.706  31.285  30.013  1.00  0.00     0.173 A 
ATOM     66  C   UNL A   1      38.695  30.732  32.126  1.00  0.00     0.173 A 
ATOM     67  F   UNL A   1      37.760  31.403  28.677  1.00  0.00    -0.203 F 
ATOM     68  C   UNL A   1      36.535  31.671  30.666  1.00  0.00     0.198 A 
ATOM     69  C   UNL A   1      37.507  31.074  32.773  1.00  0.00     0.198 A 
ATOM     70  F   UNL A   1      39.718  30.284  32.871  1.00  0.00    -0.203 F 
ATOM     71  F   UNL A   1      35.512  32.173  29.962  1.00  0.00    -0.200 F 
ATOM     72  C   UNL A   1      36.435  31.561  32.045  1.00  0.00     0.200 A 
ATOM     73  F   UNL A   1      37.404  30.933  34.102  1.00  0.00    -0.200 F 
ATOM     74  F   UNL A   1      35.308  31.931  32.670  1.00  0.00    -0.200 F 
ENDBRANCH  50  64
BRANCH  51  75
ATOM     75  C   UNL A   1      47.225  27.911  26.098  1.00  0.00     0.064 A 
ATOM     76  C   UNL A   1      48.331  27.471  26.833  1.00  0.00     0.173 A 
ATOM     77  C   UNL A   1      47.284  27.818  24.698  1.00  0.00     0.173 A 
ATOM     78  F   UNL A   1      48.315  27.543  28.172  1.00  0.00    -0.203 F 
ATOM     79  C   UNL A   1      49.456  26.959  26.193  1.00  0.00     0.198 A 
ATOM     80  C   UNL A   1      48.394  27.270  24.062  1.00  0.00     0.198 A 
ATOM     81  F   UNL A   1      46.236  28.201  23.952  1.00  0.00    -0.203 F 
ATOM     82  F   UNL A   1      50.511  26.567  26.919  1.00  0.00    -0.200 F 
ATOM     83  C   UNL A   1      49.482  26.848  24.811  1.00  0.00     0.200 A 
ATOM     84  F   UNL A   1      48.399  27.129  22.730  1.00  0.00    -0.200 F 
ATOM     85  F   UNL A   1      50.555  26.329  24.200  1.00  0.00    -0.200 F 
ENDBRANCH  51  75
BRANCH  63  86
ATOM     86  C   UNL A   1      45.001  33.991  28.677  1.00  0.00     0.064 A 
ATOM     87  C   UNL A   1      45.863  34.359  29.721  1.00  0.00     0.173 A 
ATOM     88  C   UNL A   1      44.759  34.926  27.661  1.00  0.00     0.173 A 
ATOM     89  F   UNL A   1      46.106  33.507  30.729  1.00  0.00    -0.203 F 
ATOM     90  C   UNL A   1      46.436  35.626  29.759  1.00  0.00     0.198 A 
ATOM     91  C   UNL A   1      45.367  36.177  27.681  1.00  0.00     0.198 A 
ATOM     92  F   UNL A   1      43.944  34.622  26.640  1.00  0.00    -0.203 F 
ATOM     93  F   UNL A   1      47.208  35.978  30.796  1.00  0.00    -0.200 F 
ATOM     94  C   UNL A   1      46.197  36.530  28.734  1.00  0.00     0.200 A 
ATOM     95  F   UNL A   1      45.146  37.043  26.682  1.00  0.00    -0.200 F 
ATOM     96  F   UNL A   1      46.760  37.745  28.765  1.00  0.00    -0.200 F 
ENDBRANCH  63  86
ENDBRANCH  37  38
ENDBRANCH  30  32
ENDBRANCH  29  30
ENDBRANCH  28  29
ENDBRANCH   1  28
TORSDOF 15
ENDMDL
MODEL 2
REMARK VINA RESULT:     -12.7      4.482     10.121
REMARK SMILES N#Cc1ccc(C(=O)N2CCC(Oc3ccccc3)(C(=O)OCCOC(=O)c3ccc(-c4c5nc(c(-c6c(F)c(F)c(F)c(F)c6F)c6ccc([nH]6)c(-c6c(F)c(F)c(F)c(F)c6F)c6nc(c(-c7c(F)c(F)c(F)c(F)c7F)c7ccc4[nH]7)C=C6)C=C5)cc3)CC2)cc1
REMARK SMILES IDX 23 1 22 2 20 3 21 4 12 5 7 6 8 7 9 8 10 9 92 10 11 11 91 12
REMARK SMILES IDX 6 13 3 14 4 15 94 16 5 17 93 18 2 19 1 20 13 21 14 22 15 23
REMARK SMILES IDX 19 24 16 25 18 26 17 27 24 28 25 29 26 30 27 31 28 32 29 33
REMARK SMILES IDX 90 34 30 35 89 36 31 37 32 38 33 39 83 40 34 41 88 42 82 43
REMARK SMILES IDX 84 44 35 45 87 46 81 47 80 48 36 50 68 51 48 52 67 53 49 54
REMARK SMILES IDX 52 55 66 56 85 57 50 58 51 59 65 61 86 62 53 63 37 64 38 65
REMARK SMILES IDX 46 66 39 67 40 68 44 69 47 70 41 71 42 72 45 73 43 74 69 75
REMARK SMILES IDX 70 76 78 77 71 78 72 79 76 80 79 81 73 82 74 83 77 84 75 85
REMARK SMILES IDX 54 86 55 87 63 88 56 89 57 90 61 91 64 92 58 93 59 94 62 95
REMARK SMILES IDX 60 96
REMARK H PARENT 84 49 52 60
REMARK Flexibility Score: inf
ROOT
ATOM      1  C   UNL A   1      32.568  29.625  25.191  1.00  0.00     0.274 C 
ENDROOT
BRANCH   1   2
ATOM      2  O   UNL A   1      31.535  29.214  24.260  1.00  0.00    -0.459 OA
BRANCH   2   3
ATOM      3  C   UNL A   1      31.965  28.745  23.056  1.00  0.00     0.350 C 
ATOM      4  O   UNL A   1      32.830  29.314  22.391  1.00  0.00    -0.247 OA
BRANCH   3   5
ATOM      5  C   UNL A   1      31.202  27.504  22.543  1.00  0.00     0.209 C 
ATOM      6  C   UNL A   1      32.449  23.592  23.877  1.00  0.00     0.253 C 
ATOM      7  O   UNL A   1      31.583  22.723  23.837  1.00  0.00    -0.269 OA
ATOM      8  N   UNL A   1      32.180  24.913  23.528  1.00  0.00    -0.338 N 
ATOM      9  C   UNL A   1      31.295  25.688  24.380  1.00  0.00     0.124 C 
ATOM     10  C   UNL A   1      32.983  25.650  22.584  1.00  0.00     0.124 C 
ATOM     11  C   UNL A   1      30.451  26.692  23.610  1.00  0.00     0.082 C 
ATOM     12  C   UNL A   1      32.148  26.595  21.717  1.00  0.00     0.082 C 
BRANCH   6  13
ATOM     13  C   UNL A   1      33.794  23.243  24.443  1.00  0.00     0.040 A 
ATOM     14  C   UNL A   1      36.428  22.729  25.333  1.00  0.00     0.052 A 
ATOM     15  C   UNL A   1      35.817  23.960  25.600  1.00  0.00     0.020 A 
ATOM     16  C   UNL A   1      35.733  21.771  24.593  1.00  0.00     0.020 A 
ATOM     17  C   UNL A   1      34.508  24.212  25.162  1.00  0.00     0.015 A 
ATOM     18  C   UNL A   1      34.428  22.031  24.148  1.00  0.00     0.015 A 
BRANCH  14  19
ATOM     19  C   UNL A   1      37.726  22.433  25.859  1.00  0.00     0.099 C 
ATOM     20  N   UNL A   1      38.799  22.195  26.240  1.00  0.00    -0.192 NA
ENDBRANCH  14  19
ENDBRANCH   6  13
BRANCH   5  21
ATOM     21  O   UNL A   1      30.263  28.291  21.727  1.00  0.00    -0.475 OA
BRANCH  21  22
ATOM     22  C   UNL A   1      29.280  28.966  22.383  1.00  0.00     0.121 A 
ATOM     23  C   UNL A   1      28.181  28.260  22.871  1.00  0.00     0.046 A 
ATOM     24  C   UNL A   1      29.317  30.353  22.470  1.00  0.00     0.046 A 
ATOM     25  C   UNL A   1      27.165  28.946  23.538  1.00  0.00     0.004 A 
ATOM     26  C   UNL A   1      28.321  31.033  23.162  1.00  0.00     0.004 A 
ATOM     27  C   UNL A   1      27.249  30.329  23.705  1.00  0.00     0.000 A 
ENDBRANCH  21  22
ENDBRANCH   5  21
ENDBRANCH   3   5
ENDBRANCH   2   3
ENDBRANCH   1   2
BRANCH   1  28
ATOM     28  C   UNL A   1      31.990  30.466  26.329  1.00  0.00     0.275 C 
BRANCH  28  29
ATOM     29  O   UNL A   1      32.873  30.441  27.471  1.00  0.00    -0.458 OA
BRANCH  29  30
ATOM     30  C   UNL A   1      33.695  31.506  27.537  1.00  0.00     0.338 C 
ATOM     31  O   UNL A   1      33.378  32.681  27.426  1.00  0.00    -0.246 OA
BRANCH  30  32
ATOM     32  C   UNL A   1      35.079  31.149  27.882  1.00  0.00     0.060 A 
ATOM     33  C   UNL A   1      35.333  29.873  28.370  1.00  0.00     0.016 A 
ATOM     34  C   UNL A   1      35.998  32.176  28.102  1.00  0.00     0.016 A 
ATOM     35  C   UNL A   1      36.404  29.667  29.232  1.00  0.00     0.010 A 
ATOM     36  C   UNL A   1      37.166  31.918  28.829  1.00  0.00     0.010 A 
ATOM     37  C   UNL A   1      37.371  30.663  29.421  1.00  0.00    -0.014 A 
BRANCH  37  38
ATOM     38  C   UNL A   1      38.652  30.331  30.099  1.00  0.00     0.031 A 
ATOM     39  C   UNL A   1      39.683  29.427  29.488  1.00  0.00     0.074 A 
ATOM     40  C   UNL A   1      38.852  30.825  31.334  1.00  0.00     0.049 A 
ATOM     41  N   UNL A   1      40.683  28.793  30.045  1.00  0.00    -0.248 NA
ATOM     42  C   UNL A   1      39.565  29.205  28.049  1.00  0.00     0.031 C 
ATOM     43  C   UNL A   1      37.971  31.768  32.026  1.00  0.00     0.029 A 
ATOM     44  N   UNL A   1      39.858  30.592  32.230  1.00  0.00    -0.354 N 
ATOM     45  C   UNL A   1      41.268  28.035  29.034  1.00  0.00     0.074 A 
ATOM     46  C   UNL A   1      40.507  28.297  27.833  1.00  0.00     0.031 C 
ATOM     47  C   UNL A   1      38.492  32.067  33.218  1.00  0.00     0.029 A 
ATOM     48  C   UNL A   1      39.653  31.223  33.431  1.00  0.00     0.049 A 
ATOM     49  H   UNL A   1      40.643  30.032  32.037  1.00  0.00     0.167 HD
ATOM     50  C   UNL A   1      42.339  27.203  29.110  1.00  0.00     0.037 A 
ATOM     51  C   UNL A   1      40.278  31.078  34.609  1.00  0.00     0.037 A 
ATOM     52  C   UNL A   1      43.114  27.024  30.314  1.00  0.00     0.049 A 
ATOM     53  C   UNL A   1      41.395  30.092  34.708  1.00  0.00     0.074 A 
ATOM     54  C   UNL A   1      44.240  26.245  30.518  1.00  0.00     0.029 A 
ATOM     55  N   UNL A   1      42.840  27.648  31.524  1.00  0.00    -0.354 N 
ATOM     56  N   UNL A   1      41.912  29.331  33.776  1.00  0.00    -0.248 NA
ATOM     57  C   UNL A   1      42.005  29.934  36.031  1.00  0.00     0.031 C 
ATOM     58  C   UNL A   1      44.602  26.345  31.865  1.00  0.00     0.029 A 
ATOM     59  C   UNL A   1      43.751  27.245  32.487  1.00  0.00     0.049 A 
ATOM     60  H   UNL A   1      42.104  28.285  31.676  1.00  0.00     0.167 HD
ATOM     61  C   UNL A   1      42.931  28.621  34.388  1.00  0.00     0.074 A 
ATOM     62  C   UNL A   1      42.965  29.059  35.772  1.00  0.00     0.031 C 
ATOM     63  C   UNL A   1      43.764  27.694  33.857  1.00  0.00     0.037 A 
BRANCH  50  64
ATOM     64  C   UNL A   1      42.704  26.389  27.891  1.00  0.00     0.064 A 
ATOM     65  C   UNL A   1      43.648  26.818  26.945  1.00  0.00     0.173 A 
ATOM     66  C   UNL A   1      42.103  25.135  27.671  1.00  0.00     0.173 A 
ATOM     67  F   UNL A   1      44.265  28.001  27.096  1.00  0.00    -0.203 F 
ATOM     68  C   UNL A   1      43.928  26.064  25.805  1.00  0.00     0.198 A 
ATOM     69  C   UNL A   1      42.419  24.362  26.554  1.00  0.00     0.198 A 
ATOM     70  F   UNL A   1      41.212  24.649  28.548  1.00  0.00    -0.203 F 
ATOM     71  F   UNL A   1      44.772  26.541  24.880  1.00  0.00    -0.200 F 
ATOM     72  C   UNL A   1      43.317  24.835  25.613  1.00  0.00     0.200 A 
ATOM     73  F   UNL A   1      41.852  23.158  26.390  1.00  0.00    -0.200 F 
ATOM     74  F   UNL A   1      43.589  24.112  24.517  1.00  0.00    -0.200 F 
ENDBRANCH  50  64
BRANCH  51  75
ATOM     75  C   UNL A   1      39.822  31.887  35.763  1.00  0.00     0.064 A 
ATOM     76  C   UNL A   1      40.425  33.120  36.035  1.00  0.00     0.173 A 
ATOM     77  C   UNL A   1      38.727  31.501  36.552  1.00  0.00     0.173 A 
ATOM     78  F   UNL A   1      41.475  33.526  35.305  1.00  0.00    -0.203 F 
ATOM     79  C   UNL A   1      39.954  33.936  37.058  1.00  0.00     0.198 A 
ATOM     80  C   UNL A   1      38.233  32.336  37.551  1.00  0.00     0.198 A 
ATOM     81  F   UNL A   1      38.097  30.341  36.311  1.00  0.00    -0.203 F 
ATOM     82  F   UNL A   1      40.564  35.101  37.314  1.00  0.00    -0.200 F 
ATOM     83  C   UNL A   1      38.851  33.550  37.807  1.00  0.00     0.200 A 
ATOM     84  F   UNL A   1      37.145  31.977  38.244  1.00  0.00    -0.200 F 
ATOM     85  F   UNL A   1      38.382  34.351  38.773  1.00  0.00    -0.200 F 
ENDBRANCH  51  75
BRANCH  63  86
ATOM     86  C   UNL A   1      44.808  27.122  34.769  1.00  0.00     0.064 A 
ATOM     87  C   UNL A   1      44.587  25.939  35.492  1.00  0.00     0.173 A 
ATOM     88  C   UNL A   1      46.054  27.751  34.901  1.00  0.00     0.173 A 
ATOM     89  F   UNL A   1      43.402  25.314  35.417  1.00  0.00    -0.203 F 
ATOM     90  C   UNL A   1      45.568  25.425  36.333  1.00  0.00     0.198 A 
ATOM     91  C   UNL A   1      47.046  27.211  35.712  1.00  0.00     0.198 A 
ATOM     92  F   UNL A   1      46.315  28.884  34.231  1.00  0.00    -0.203 F 
ATOM     93  F   UNL A   1      45.314  24.327  37.059  1.00  0.00    -0.200 F 
ATOM     94  C   UNL A   1      46.800  26.054  36.435  1.00  0.00     0.200 A 
ATOM     95  F   UNL A   1      48.241  27.813  35.797  1.00  0.00    -0.200 F 
ATOM     96  F   UNL A   1      47.747  25.550  37.237  1.00  0.00    -0.200 F 
ENDBRANCH  63  86
ENDBRANCH  37  38
ENDBRANCH  30  32
ENDBRANCH  29  30
ENDBRANCH  28  29
ENDBRANCH   1  28
TORSDOF 15
ENDMDL
MODEL 3
REMARK VINA RESULT:     -12.7      5.032     10.673
REMARK SMILES N#Cc1ccc(C(=O)N2CCC(Oc3ccccc3)(C(=O)OCCOC(=O)c3ccc(-c4c5nc(c(-c6c(F)c(F)c(F)c(F)c6F)c6ccc([nH]6)c(-c6c(F)c(F)c(F)c(F)c6F)c6nc(c(-c7c(F)c(F)c(F)c(F)c7F)c7ccc4[nH]7)C=C6)C=C5)cc3)CC2)cc1
REMARK SMILES IDX 23 1 22 2 20 3 21 4 12 5 7 6 8 7 9 8 10 9 92 10 11 11 91 12
REMARK SMILES IDX 6 13 3 14 4 15 94 16 5 17 93 18 2 19 1 20 13 21 14 22 15 23
REMARK SMILES IDX 19 24 16 25 18 26 17 27 24 28 25 29 26 30 27 31 28 32 29 33
REMARK SMILES IDX 90 34 30 35 89 36 31 37 32 38 33 39 83 40 34 41 88 42 82 43
REMARK SMILES IDX 84 44 35 45 87 46 81 47 80 48 36 50 68 51 48 52 67 53 49 54
REMARK SMILES IDX 52 55 66 56 85 57 50 58 51 59 65 61 86 62 53 63 37 64 38 65
REMARK SMILES IDX 46 66 39 67 40 68 44 69 47 70 41 71 42 72 45 73 43 74 69 75
REMARK SMILES IDX 70 76 78 77 71 78 72 79 76 80 79 81 73 82 74 83 77 84 75 85
REMARK SMILES IDX 54 86 55 87 63 88 56 89 57 90 61 91 64 92 58 93 59 94 62 95
REMARK SMILES IDX 60 96
REMARK H PARENT 84 49 52 60
REMARK Flexibility Score: inf
ROOT
ATOM      1  C   UNL A   1      33.319  31.794  27.646  1.00  0.00     0.274 C 
ENDROOT
BRANCH   1   2
ATOM      2  O   UNL A   1      32.428  30.912  26.918  1.00  0.00    -0.459 OA
BRANCH   2   3
ATOM      3  C   UNL A   1      32.963  29.735  26.494  1.00  0.00     0.350 C 
ATOM      4  O   UNL A   1      33.986  29.255  26.982  1.00  0.00    -0.247 OA
BRANCH   3   5
ATOM      5  C   UNL A   1      32.247  29.105  25.279  1.00  0.00     0.209 C 
ATOM      6  C   UNL A   1      33.264  25.072  24.120  1.00  0.00     0.253 C 
ATOM      7  O   UNL A   1      32.395  24.471  23.497  1.00  0.00    -0.269 OA
ATOM      8  N   UNL A   1      33.059  26.361  24.606  1.00  0.00    -0.338 N 
ATOM      9  C   UNL A   1      32.092  26.555  25.672  1.00  0.00     0.124 C 
ATOM     10  C   UNL A   1      33.981  27.443  24.359  1.00  0.00     0.124 C 
ATOM     11  C   UNL A   1      31.362  27.885  25.583  1.00  0.00     0.082 C 
ATOM     12  C   UNL A   1      33.269  28.784  24.159  1.00  0.00     0.082 C 
BRANCH   6  13
ATOM     13  C   UNL A   1      34.526  24.345  24.479  1.00  0.00     0.040 A 
ATOM     14  C   UNL A   1      36.773  22.762  25.144  1.00  0.00     0.052 A 
ATOM     15  C   UNL A   1      36.301  22.805  23.826  1.00  0.00     0.020 A 
ATOM     16  C   UNL A   1      36.101  23.484  26.131  1.00  0.00     0.020 A 
ATOM     17  C   UNL A   1      35.188  23.594  23.497  1.00  0.00     0.015 A 
ATOM     18  C   UNL A   1      34.983  24.265  25.799  1.00  0.00     0.015 A 
BRANCH  14  19
ATOM     19  C   UNL A   1      37.963  22.034  25.466  1.00  0.00     0.099 C 
ATOM     20  N   UNL A   1      38.948  21.485  25.751  1.00  0.00    -0.192 NA
ENDBRANCH  14  19
ENDBRANCH   6  13
BRANCH   5  21
ATOM     21  O   UNL A   1      31.423  30.296  25.016  1.00  0.00    -0.475 OA
BRANCH  21  22
ATOM     22  C   UNL A   1      30.366  30.150  24.172  1.00  0.00     0.121 A 
ATOM     23  C   UNL A   1      30.332  29.055  23.310  1.00  0.00     0.046 A 
ATOM     24  C   UNL A   1      29.389  31.136  24.091  1.00  0.00     0.046 A 
ATOM     25  C   UNL A   1      29.255  28.902  22.435  1.00  0.00     0.004 A 
ATOM     26  C   UNL A   1      28.300  30.968  23.243  1.00  0.00     0.004 A 
ATOM     27  C   UNL A   1      28.228  29.846  22.421  1.00  0.00     0.000 A 
ENDBRANCH  21  22
ENDBRANCH   5  21
ENDBRANCH   3   5
ENDBRANCH   2   3
ENDBRANCH   1   2
BRANCH   1  28
ATOM     28  C   UNL A   1      33.067  33.259  27.291  1.00  0.00     0.275 C 
BRANCH  28  29
ATOM     29  O   UNL A   1      32.319  33.909  28.342  1.00  0.00    -0.458 OA
BRANCH  29  30
ATOM     30  C   UNL A   1      32.926  35.007  28.832  1.00  0.00     0.338 C 
ATOM     31  O   UNL A   1      32.520  36.158  28.764  1.00  0.00    -0.246 OA
BRANCH  30  32
ATOM     32  C   UNL A   1      34.142  34.702  29.599  1.00  0.00     0.060 A 
ATOM     33  C   UNL A   1      35.376  34.873  28.982  1.00  0.00     0.016 A 
ATOM     34  C   UNL A   1      34.035  33.888  30.727  1.00  0.00     0.016 A 
ATOM     35  C   UNL A   1      36.456  34.090  29.374  1.00  0.00     0.010 A 
ATOM     36  C   UNL A   1      35.169  33.234  31.223  1.00  0.00     0.010 A 
ATOM     37  C   UNL A   1      36.390  33.311  30.537  1.00  0.00    -0.014 A 
BRANCH  37  38
ATOM     38  C   UNL A   1      37.630  32.721  31.104  1.00  0.00     0.031 A 
ATOM     39  C   UNL A   1      38.355  31.578  30.454  1.00  0.00     0.074 A 
ATOM     40  C   UNL A   1      38.075  33.205  32.277  1.00  0.00     0.049 A 
ATOM     41  N   UNL A   1      39.242  30.753  30.948  1.00  0.00    -0.248 NA
ATOM     42  C   UNL A   1      38.028  31.330  29.051  1.00  0.00     0.031 C 
ATOM     43  C   UNL A   1      37.513  34.355  32.990  1.00  0.00     0.029 A 
ATOM     44  N   UNL A   1      39.096  32.783  33.082  1.00  0.00    -0.354 N 
ATOM     45  C   UNL A   1      39.523  29.838  29.936  1.00  0.00     0.074 A 
ATOM     46  C   UNL A   1      38.710  30.219  28.803  1.00  0.00     0.031 C 
ATOM     47  C   UNL A   1      38.218  34.573  34.101  1.00  0.00     0.029 A 
ATOM     48  C   UNL A   1      39.176  33.493  34.252  1.00  0.00     0.049 A 
ATOM     49  H   UNL A   1      39.708  32.048  32.848  1.00  0.00     0.167 HD
ATOM     50  C   UNL A   1      40.380  28.785  29.960  1.00  0.00     0.037 A 
ATOM     51  C   UNL A   1      39.880  33.256  35.369  1.00  0.00     0.037 A 
ATOM     52  C   UNL A   1      41.225  28.481  31.089  1.00  0.00     0.049 A 
ATOM     53  C   UNL A   1      40.749  32.043  35.421  1.00  0.00     0.074 A 
ATOM     54  C   UNL A   1      42.162  27.471  31.230  1.00  0.00     0.029 A 
ATOM     55  N   UNL A   1      41.237  29.201  32.277  1.00  0.00    -0.354 N 
ATOM     56  N   UNL A   1      40.973  31.145  34.494  1.00  0.00    -0.248 NA
ATOM     57  C   UNL A   1      41.453  31.803  36.683  1.00  0.00     0.031 C 
ATOM     58  C   UNL A   1      42.686  27.540  32.525  1.00  0.00     0.029 A 
ATOM     59  C   UNL A   1      42.136  28.638  33.168  1.00  0.00     0.049 A 
ATOM     60  H   UNL A   1      40.686  29.997  32.459  1.00  0.00     0.167 HD
ATOM     61  C   UNL A   1      41.868  30.245  35.047  1.00  0.00     0.074 A 
ATOM     62  C   UNL A   1      42.155  30.719  36.388  1.00  0.00     0.031 C 
ATOM     63  C   UNL A   1      42.404  29.128  34.497  1.00  0.00     0.037 A 
BRANCH  50  64
ATOM     64  C   UNL A   1      40.412  27.858  28.766  1.00  0.00     0.064 A 
ATOM     65  C   UNL A   1      41.193  28.113  27.628  1.00  0.00     0.173 A 
ATOM     66  C   UNL A   1      39.651  26.674  28.769  1.00  0.00     0.173 A 
ATOM     67  F   UNL A   1      41.948  29.220  27.561  1.00  0.00    -0.203 F 
ATOM     68  C   UNL A   1      41.164  27.261  26.523  1.00  0.00     0.198 A 
ATOM     69  C   UNL A   1      39.660  25.800  27.682  1.00  0.00     0.198 A 
ATOM     70  F   UNL A   1      38.903  26.353  29.836  1.00  0.00    -0.203 F 
ATOM     71  F   UNL A   1      41.856  27.575  25.420  1.00  0.00    -0.200 F 
ATOM     72  C   UNL A   1      40.401  26.104  26.553  1.00  0.00     0.200 A 
ATOM     73  F   UNL A   1      38.948  24.665  27.729  1.00  0.00    -0.200 F 
ATOM     74  F   UNL A   1      40.376  25.287  25.490  1.00  0.00    -0.200 F 
ENDBRANCH  50  64
BRANCH  51  75
ATOM     75  C   UNL A   1      39.752  34.196  36.507  1.00  0.00     0.064 A 
ATOM     76  C   UNL A   1      38.949  33.863  37.603  1.00  0.00     0.173 A 
ATOM     77  C   UNL A   1      40.493  35.387  36.570  1.00  0.00     0.173 A 
ATOM     78  F   UNL A   1      38.226  32.734  37.583  1.00  0.00    -0.203 F 
ATOM     79  C   UNL A   1      38.886  34.690  38.720  1.00  0.00     0.198 A 
ATOM     80  C   UNL A   1      40.458  36.194  37.704  1.00  0.00     0.198 A 
ATOM     81  F   UNL A   1      41.299  35.735  35.555  1.00  0.00    -0.203 F 
ATOM     82  F   UNL A   1      38.091  34.361  39.746  1.00  0.00    -0.200 F 
ATOM     83  C   UNL A   1      39.650  35.848  38.775  1.00  0.00     0.200 A 
ATOM     84  F   UNL A   1      41.226  37.290  37.768  1.00  0.00    -0.200 F 
ATOM     85  F   UNL A   1      39.608  36.627  39.863  1.00  0.00    -0.200 F 
ENDBRANCH  51  75
BRANCH  63  86
ATOM     86  C   UNL A   1      43.388  28.368  35.337  1.00  0.00     0.064 A 
ATOM     87  C   UNL A   1      44.771  28.579  35.224  1.00  0.00     0.173 A 
ATOM     88  C   UNL A   1      42.938  27.437  36.283  1.00  0.00     0.173 A 
ATOM     89  F   UNL A   1      45.251  29.442  34.316  1.00  0.00    -0.203 F 
ATOM     90  C   UNL A   1      45.667  27.863  36.012  1.00  0.00     0.198 A 
ATOM     91  C   UNL A   1      43.835  26.753  37.097  1.00  0.00     0.198 A 
ATOM     92  F   UNL A   1      41.626  27.200  36.429  1.00  0.00    -0.203 F 
ATOM     93  F   UNL A   1      46.985  28.037  35.846  1.00  0.00    -0.200 F 
ATOM     94  C   UNL A   1      45.198  26.959  36.954  1.00  0.00     0.200 A 
ATOM     95  F   UNL A   1      43.380  25.892  38.018  1.00  0.00    -0.200 F 
ATOM     96  F   UNL A   1      46.063  26.280  37.720  1.00  0.00    -0.200 F 
ENDBRANCH  63  86
ENDBRANCH  37  38
ENDBRANCH  30  32
ENDBRANCH  29  30
ENDBRANCH  28  29
ENDBRANCH   1  28
TORSDOF 15
ENDMDL
