MODEL 1
REMARK VINA RESULT:     -12.8      0.000      0.000
REMARK SMILES Cc1n[nH]c(C)c1C(=O)N1CC(n2cc(C(=O)OCCOC(=O)c3ccc(-c4c5nc(c(-c6c(F)c(F)c(F)c(F)c6F)c6ccc([nH]6)c(-c6c(F)c(F)c(F)c(F)c6F)c6nc(c(-c7c(F)c(F)c(F)c(F)c7F)c7ccc4[nH]7)C=C6)C=C5)cc3)nn2)C1
REMARK SMILES IDX 19 1 18 2 16 3 17 4 15 5 13 6 14 7 88 8 87 9 12 10 8 11 9 12
REMARK SMILES IDX 10 13 11 14 89 15 7 16 1 17 2 18 3 19 4 20 5 21 6 23 20 24
REMARK SMILES IDX 21 25 22 26 23 27 24 28 25 29 86 30 26 31 85 32 27 33 28 34
REMARK SMILES IDX 29 35 79 36 30 37 84 38 78 39 80 40 31 41 83 42 77 43 76 44
REMARK SMILES IDX 32 46 64 47 44 48 63 49 45 50 48 51 62 52 81 53 46 54 47 55
REMARK SMILES IDX 61 57 82 58 49 59 33 60 34 61 42 62 35 63 36 64 40 65 43 66
REMARK SMILES IDX 37 67 38 68 41 69 39 70 65 71 66 72 74 73 67 74 68 75 72 76
REMARK SMILES IDX 75 77 69 78 70 79 73 80 71 81 50 82 51 83 59 84 52 85 53 86
REMARK SMILES IDX 57 87 60 88 54 89 55 90 58 91 56 92
REMARK H PARENT 4 22 80 45 48 56
REMARK Flexibility Score: inf
ROOT
ATOM      1  C   UNL A   1      42.303  18.584  26.244  1.00  0.00     0.275 C 
ENDROOT
BRANCH   1   2
ATOM      2  O   UNL A   1      41.357  19.506  25.679  1.00  0.00    -0.457 OA
BRANCH   2   3
ATOM      3  C   UNL A   1      40.984  20.542  26.493  1.00  0.00     0.360 C 
ATOM      4  O   UNL A   1      41.674  20.972  27.415  1.00  0.00    -0.244 OA
BRANCH   3   5
ATOM      5  C   UNL A   1      39.698  21.108  26.126  1.00  0.00     0.190 A 
ATOM      6  N   UNL A   1      37.968  22.370  25.799  1.00  0.00    -0.245 N 
ATOM      7  C   UNL A   1      39.174  22.349  26.440  1.00  0.00     0.147 A 
ATOM      8  N   UNL A   1      37.730  21.208  25.171  1.00  0.00    -0.066 NA
ATOM      9  N   UNL A   1      38.775  20.419  25.375  1.00  0.00    -0.123 NA
BRANCH   6  10
ATOM     10  C   UNL A   1      37.142  23.535  25.687  1.00  0.00     0.148 C 
ATOM     11  C   UNL A   1      34.390  24.786  24.471  1.00  0.00     0.257 C 
ATOM     12  O   UNL A   1      34.114  25.650  25.301  1.00  0.00    -0.269 OA
ATOM     13  N   UNL A   1      35.293  23.782  24.755  1.00  0.00    -0.334 N 
ATOM     14  C   UNL A   1      35.684  23.356  26.104  1.00  0.00     0.149 C 
ATOM     15  C   UNL A   1      36.660  23.708  24.240  1.00  0.00     0.149 C 
BRANCH  11  16
ATOM     16  C   UNL A   1      33.736  24.726  23.164  1.00  0.00     0.083 A 
ATOM     17  C   UNL A   1      33.906  27.258  22.479  1.00  0.00     0.069 C 
ATOM     18  C   UNL A   1      33.513  25.837  22.287  1.00  0.00     0.072 A 
ATOM     19  N   UNL A   1      32.844  25.486  21.183  1.00  0.00    -0.180 NA
ATOM     20  N   UNL A   1      32.606  24.184  21.350  1.00  0.00    -0.282 N 
ATOM     21  C   UNL A   1      33.117  23.665  22.509  1.00  0.00     0.045 A 
ATOM     22  H   UNL A   1      32.106  23.643  20.698  1.00  0.00     0.190 HD
ATOM     23  C   UNL A   1      32.909  22.235  22.832  1.00  0.00     0.067 C 
ENDBRANCH  11  16
ENDBRANCH   6  10
ENDBRANCH   3   5
ENDBRANCH   2   3
ENDBRANCH   1   2
BRANCH   1  24
ATOM     24  C   UNL A   1      43.657  18.697  25.559  1.00  0.00     0.275 C 
BRANCH  24  25
ATOM     25  O   UNL A   1      43.675  19.750  24.595  1.00  0.00    -0.458 OA
BRANCH  25  26
ATOM     26  C   UNL A   1      44.897  20.259  24.322  1.00  0.00     0.338 C 
ATOM     27  O   UNL A   1      45.899  19.639  24.008  1.00  0.00    -0.246 OA
BRANCH  26  28
ATOM     28  C   UNL A   1      44.922  21.673  24.714  1.00  0.00     0.060 A 
ATOM     29  C   UNL A   1      45.832  22.054  25.704  1.00  0.00     0.016 A 
ATOM     30  C   UNL A   1      43.867  22.511  24.320  1.00  0.00     0.016 A 
ATOM     31  C   UNL A   1      45.587  23.213  26.412  1.00  0.00     0.010 A 
ATOM     32  C   UNL A   1      43.612  23.653  25.040  1.00  0.00     0.010 A 
ATOM     33  C   UNL A   1      44.435  23.956  26.120  1.00  0.00    -0.014 A 
BRANCH  33  34
ATOM     34  C   UNL A   1      44.182  25.158  26.885  1.00  0.00     0.031 A 
ATOM     35  C   UNL A   1      45.202  26.200  26.638  1.00  0.00     0.074 A 
ATOM     36  C   UNL A   1      43.079  25.333  27.636  1.00  0.00     0.049 A 
ATOM     37  N   UNL A   1      46.118  26.606  27.449  1.00  0.00    -0.248 NA
ATOM     38  C   UNL A   1      45.341  26.716  25.265  1.00  0.00     0.031 C 
ATOM     39  C   UNL A   1      41.882  24.490  27.694  1.00  0.00     0.029 A 
ATOM     40  N   UNL A   1      42.760  26.374  28.455  1.00  0.00    -0.354 N 
ATOM     41  C   UNL A   1      46.826  27.580  26.754  1.00  0.00     0.074 A 
ATOM     42  C   UNL A   1      46.442  27.461  25.375  1.00  0.00     0.031 C 
ATOM     43  C   UNL A   1      40.890  25.163  28.323  1.00  0.00     0.029 A 
ATOM     44  C   UNL A   1      41.423  26.415  28.831  1.00  0.00     0.049 A 
ATOM     45  H   UNL A   1      43.419  27.040  28.754  1.00  0.00     0.167 HD
ATOM     46  C   UNL A   1      47.436  28.594  27.425  1.00  0.00     0.037 A 
ATOM     47  C   UNL A   1      40.807  27.447  29.463  1.00  0.00     0.037 A 
ATOM     48  C   UNL A   1      47.550  28.275  28.826  1.00  0.00     0.049 A 
ATOM     49  C   UNL A   1      41.867  28.258  30.108  1.00  0.00     0.074 A 
ATOM     50  C   UNL A   1      48.271  27.387  29.592  1.00  0.00     0.029 A 
ATOM     51  N   UNL A   1      46.493  28.699  29.588  1.00  0.00    -0.354 N 
ATOM     52  N   UNL A   1      42.595  27.840  31.107  1.00  0.00    -0.248 NA
ATOM     53  C   UNL A   1      42.392  29.416  29.397  1.00  0.00     0.031 C 
ATOM     54  C   UNL A   1      47.442  27.084  30.715  1.00  0.00     0.029 A 
ATOM     55  C   UNL A   1      46.268  27.832  30.620  1.00  0.00     0.049 A 
ATOM     56  H   UNL A   1      45.969  29.514  29.416  1.00  0.00     0.167 HD
ATOM     57  C   UNL A   1      43.847  28.386  30.877  1.00  0.00     0.074 A 
ATOM     58  C   UNL A   1      43.619  29.464  29.921  1.00  0.00     0.031 C 
ATOM     59  C   UNL A   1      44.971  27.708  31.251  1.00  0.00     0.037 A 
BRANCH  46  60
ATOM     60  C   UNL A   1      47.454  30.034  26.951  1.00  0.00     0.064 A 
ATOM     61  C   UNL A   1      48.639  30.782  27.111  1.00  0.00     0.173 A 
ATOM     62  C   UNL A   1      46.296  30.793  26.667  1.00  0.00     0.173 A 
ATOM     63  F   UNL A   1      49.796  30.172  27.409  1.00  0.00    -0.203 F 
ATOM     64  C   UNL A   1      48.643  32.180  27.069  1.00  0.00     0.198 A 
ATOM     65  C   UNL A   1      46.315  32.183  26.573  1.00  0.00     0.198 A 
ATOM     66  F   UNL A   1      45.078  30.246  26.589  1.00  0.00    -0.203 F 
ATOM     67  F   UNL A   1      49.767  32.850  27.358  1.00  0.00    -0.200 F 
ATOM     68  C   UNL A   1      47.480  32.879  26.806  1.00  0.00     0.200 A 
ATOM     69  F   UNL A   1      45.171  32.842  26.344  1.00  0.00    -0.200 F 
ATOM     70  F   UNL A   1      47.469  34.217  26.827  1.00  0.00    -0.200 F 
ENDBRANCH  46  60
BRANCH  47  71
ATOM     71  C   UNL A   1      39.432  27.965  29.271  1.00  0.00     0.064 A 
ATOM     72  C   UNL A   1      38.557  28.123  30.360  1.00  0.00     0.173 A 
ATOM     73  C   UNL A   1      39.055  28.599  28.072  1.00  0.00     0.173 A 
ATOM     74  F   UNL A   1      38.862  27.590  31.552  1.00  0.00    -0.203 F 
ATOM     75  C   UNL A   1      37.396  28.900  30.266  1.00  0.00     0.198 A 
ATOM     76  C   UNL A   1      37.895  29.371  27.977  1.00  0.00     0.198 A 
ATOM     77  F   UNL A   1      39.857  28.570  26.998  1.00  0.00    -0.203 F 
ATOM     78  F   UNL A   1      36.625  29.086  31.346  1.00  0.00    -0.200 F 
ATOM     79  C   UNL A   1      37.074  29.533  29.078  1.00  0.00     0.200 A 
ATOM     80  F   UNL A   1      37.615  30.011  26.833  1.00  0.00    -0.200 F 
ATOM     81  F   UNL A   1      36.001  30.335  29.004  1.00  0.00    -0.200 F 
ENDBRANCH  47  71
BRANCH  59  82
ATOM     82  C   UNL A   1      44.812  26.631  32.284  1.00  0.00     0.064 A 
ATOM     83  C   UNL A   1      44.567  25.277  31.999  1.00  0.00     0.173 A 
ATOM     84  C   UNL A   1      45.018  26.984  33.624  1.00  0.00     0.173 A 
ATOM     85  F   UNL A   1      44.443  24.848  30.736  1.00  0.00    -0.203 F 
ATOM     86  C   UNL A   1      44.490  24.331  33.020  1.00  0.00     0.198 A 
ATOM     87  C   UNL A   1      44.981  26.032  34.636  1.00  0.00     0.198 A 
ATOM     88  F   UNL A   1      45.299  28.256  33.949  1.00  0.00    -0.203 F 
ATOM     89  F   UNL A   1      44.236  23.047  32.730  1.00  0.00    -0.200 F 
ATOM     90  C   UNL A   1      44.706  24.708  34.337  1.00  0.00     0.200 A 
ATOM     91  F   UNL A   1      45.236  26.394  35.901  1.00  0.00    -0.200 F 
ATOM     92  F   UNL A   1      44.671  23.792  35.314  1.00  0.00    -0.200 F 
ENDBRANCH  59  82
ENDBRANCH  33  34
ENDBRANCH  26  28
ENDBRANCH  25  26
ENDBRANCH  24  25
ENDBRANCH   1  24
TORSDOF 13
ENDMDL
MODEL 2
REMARK VINA RESULT:     -12.8      1.333      1.906
REMARK SMILES Cc1n[nH]c(C)c1C(=O)N1CC(n2cc(C(=O)OCCOC(=O)c3ccc(-c4c5nc(c(-c6c(F)c(F)c(F)c(F)c6F)c6ccc([nH]6)c(-c6c(F)c(F)c(F)c(F)c6F)c6nc(c(-c7c(F)c(F)c(F)c(F)c7F)c7ccc4[nH]7)C=C6)C=C5)cc3)nn2)C1
REMARK SMILES IDX 19 1 18 2 16 3 17 4 15 5 13 6 14 7 88 8 87 9 12 10 8 11 9 12
REMARK SMILES IDX 10 13 11 14 89 15 7 16 1 17 2 18 3 19 4 20 5 21 6 23 20 24
REMARK SMILES IDX 21 25 22 26 23 27 24 28 25 29 86 30 26 31 85 32 27 33 28 34
REMARK SMILES IDX 29 35 79 36 30 37 84 38 78 39 80 40 31 41 83 42 77 43 76 44
REMARK SMILES IDX 32 46 64 47 44 48 63 49 45 50 48 51 62 52 81 53 46 54 47 55
REMARK SMILES IDX 61 57 82 58 49 59 33 60 34 61 42 62 35 63 36 64 40 65 43 66
REMARK SMILES IDX 37 67 38 68 41 69 39 70 65 71 66 72 74 73 67 74 68 75 72 76
REMARK SMILES IDX 75 77 69 78 70 79 73 80 71 81 50 82 51 83 59 84 52 85 53 86
REMARK SMILES IDX 57 87 60 88 54 89 55 90 58 91 56 92
REMARK H PARENT 4 22 80 45 48 56
REMARK Flexibility Score: inf
ROOT
ATOM      1  C   UNL A   1      41.995  19.201  26.217  1.00  0.00     0.275 C 
ENDROOT
BRANCH   1   2
ATOM      2  O   UNL A   1      41.234  20.346  25.802  1.00  0.00    -0.457 OA
BRANCH   2   3
ATOM      3  C   UNL A   1      40.497  20.953  26.784  1.00  0.00     0.360 C 
ATOM      4  O   UNL A   1      40.773  20.898  27.980  1.00  0.00    -0.244 OA
BRANCH   3   5
ATOM      5  C   UNL A   1      39.370  21.702  26.256  1.00  0.00     0.190 A 
ATOM      6  N   UNL A   1      37.544  22.364  25.298  1.00  0.00    -0.245 N 
ATOM      7  C   UNL A   1      38.346  21.267  25.435  1.00  0.00     0.147 A 
ATOM      8  N   UNL A   1      38.055  23.424  25.944  1.00  0.00    -0.066 NA
ATOM      9  N   UNL A   1      39.181  23.038  26.524  1.00  0.00    -0.123 NA
BRANCH   6  10
ATOM     10  C   UNL A   1      36.254  22.340  24.676  1.00  0.00     0.148 C 
ATOM     11  C   UNL A   1      33.377  23.838  24.365  1.00  0.00     0.257 C 
ATOM     12  O   UNL A   1      33.050  23.528  23.221  1.00  0.00    -0.269 OA
ATOM     13  N   UNL A   1      34.680  23.701  24.800  1.00  0.00    -0.334 N 
ATOM     14  C   UNL A   1      35.856  23.609  23.926  1.00  0.00     0.149 C 
ATOM     15  C   UNL A   1      35.161  22.658  25.705  1.00  0.00     0.149 C 
BRANCH  11  16
ATOM     16  C   UNL A   1      32.431  24.429  25.312  1.00  0.00     0.083 A 
ATOM     17  C   UNL A   1      33.369  26.884  25.385  1.00  0.00     0.069 C 
ATOM     18  C   UNL A   1      32.442  25.786  25.770  1.00  0.00     0.072 A 
ATOM     19  N   UNL A   1      31.484  26.025  26.673  1.00  0.00    -0.180 NA
ATOM     20  N   UNL A   1      30.883  24.844  26.826  1.00  0.00    -0.282 N 
ATOM     21  C   UNL A   1      31.394  23.849  26.038  1.00  0.00     0.045 A 
ATOM     22  H   UNL A   1      30.138  24.699  27.451  1.00  0.00     0.190 HD
ATOM     23  C   UNL A   1      30.834  22.480  26.120  1.00  0.00     0.067 C 
ENDBRANCH  11  16
ENDBRANCH   6  10
ENDBRANCH   3   5
ENDBRANCH   2   3
ENDBRANCH   1   2
BRANCH   1  24
ATOM     24  C   UNL A   1      43.299  19.097  25.438  1.00  0.00     0.275 C 
BRANCH  24  25
ATOM     25  O   UNL A   1      43.552  20.274  24.672  1.00  0.00    -0.458 OA
BRANCH  25  26
ATOM     26  C   UNL A   1      44.824  20.730  24.719  1.00  0.00     0.338 C 
ATOM     27  O   UNL A   1      45.845  20.063  24.702  1.00  0.00    -0.246 OA
BRANCH  26  28
ATOM     28  C   UNL A   1      44.806  22.156  25.062  1.00  0.00     0.060 A 
ATOM     29  C   UNL A   1      45.669  22.589  26.073  1.00  0.00     0.016 A 
ATOM     30  C   UNL A   1      43.753  22.959  24.598  1.00  0.00     0.016 A 
ATOM     31  C   UNL A   1      45.374  23.767  26.730  1.00  0.00     0.010 A 
ATOM     32  C   UNL A   1      43.448  24.120  25.267  1.00  0.00     0.010 A 
ATOM     33  C   UNL A   1      44.221  24.476  26.366  1.00  0.00    -0.014 A 
BRANCH  33  34
ATOM     34  C   UNL A   1      43.915  25.698  27.079  1.00  0.00     0.031 A 
ATOM     35  C   UNL A   1      44.867  26.783  26.755  1.00  0.00     0.074 A 
ATOM     36  C   UNL A   1      42.820  25.847  27.847  1.00  0.00     0.049 A 
ATOM     37  N   UNL A   1      45.776  27.281  27.522  1.00  0.00    -0.248 NA
ATOM     38  C   UNL A   1      44.946  27.237  25.356  1.00  0.00     0.031 C 
ATOM     39  C   UNL A   1      41.676  24.941  27.976  1.00  0.00     0.029 A 
ATOM     40  N   UNL A   1      42.459  26.907  28.622  1.00  0.00    -0.354 N 
ATOM     41  C   UNL A   1      46.410  28.258  26.763  1.00  0.00     0.074 A 
ATOM     42  C   UNL A   1      46.003  28.048  25.402  1.00  0.00     0.031 C 
ATOM     43  C   UNL A   1      40.661  25.587  28.596  1.00  0.00     0.029 A 
ATOM     44  C   UNL A   1      41.131  26.891  29.029  1.00  0.00     0.049 A 
ATOM     45  H   UNL A   1      43.085  27.624  28.872  1.00  0.00     0.167 HD
ATOM     46  C   UNL A   1      46.974  29.338  27.369  1.00  0.00     0.037 A 
ATOM     47  C   UNL A   1      40.470  27.916  29.625  1.00  0.00     0.037 A 
ATOM     48  C   UNL A   1      47.137  29.096  28.781  1.00  0.00     0.049 A 
ATOM     49  C   UNL A   1      41.494  28.818  30.204  1.00  0.00     0.074 A 
ATOM     50  C   UNL A   1      47.926  28.290  29.571  1.00  0.00     0.029 A 
ATOM     51  N   UNL A   1      46.075  29.497  29.547  1.00  0.00    -0.354 N 
ATOM     52  N   UNL A   1      42.268  28.493  31.203  1.00  0.00    -0.248 NA
ATOM     53  C   UNL A   1      41.935  29.967  29.424  1.00  0.00     0.031 C 
ATOM     54  C   UNL A   1      47.141  27.997  30.727  1.00  0.00     0.029 A 
ATOM     55  C   UNL A   1      45.923  28.671  30.625  1.00  0.00     0.049 A 
ATOM     56  H   UNL A   1      45.500  30.271  29.349  1.00  0.00     0.167 HD
ATOM     57  C   UNL A   1      43.480  29.097  30.915  1.00  0.00     0.074 A 
ATOM     58  C   UNL A   1      43.168  30.111  29.915  1.00  0.00     0.031 C 
ATOM     59  C   UNL A   1      44.650  28.505  31.294  1.00  0.00     0.037 A 
BRANCH  46  60
ATOM     60  C   UNL A   1      46.897  30.750  26.825  1.00  0.00     0.064 A 
ATOM     61  C   UNL A   1      48.057  31.552  26.863  1.00  0.00     0.173 A 
ATOM     62  C   UNL A   1      45.691  31.447  26.587  1.00  0.00     0.173 A 
ATOM     63  F   UNL A   1      49.257  31.005  27.108  1.00  0.00    -0.203 F 
ATOM     64  C   UNL A   1      47.999  32.945  26.753  1.00  0.00     0.198 A 
ATOM     65  C   UNL A   1      45.644  32.830  26.425  1.00  0.00     0.198 A 
ATOM     66  F   UNL A   1      44.495  30.850  26.624  1.00  0.00    -0.203 F 
ATOM     67  F   UNL A   1      49.110  33.673  26.929  1.00  0.00    -0.200 F 
ATOM     68  C   UNL A   1      46.791  33.584  26.540  1.00  0.00     0.200 A 
ATOM     69  F   UNL A   1      44.459  33.431  26.247  1.00  0.00    -0.200 F 
ATOM     70  F   UNL A   1      46.724  34.920  26.497  1.00  0.00    -0.200 F 
ENDBRANCH  46  60
BRANCH  47  71
ATOM     71  C   UNL A   1      39.063  28.344  29.442  1.00  0.00     0.064 A 
ATOM     72  C   UNL A   1      38.219  28.555  30.547  1.00  0.00     0.173 A 
ATOM     73  C   UNL A   1      38.611  28.848  28.208  1.00  0.00     0.173 A 
ATOM     74  F   UNL A   1      38.593  28.147  31.768  1.00  0.00    -0.203 F 
ATOM     75  C   UNL A   1      37.015  29.260  30.430  1.00  0.00     0.198 A 
ATOM     76  C   UNL A   1      37.408  29.548  28.091  1.00  0.00     0.198 A 
ATOM     77  F   UNL A   1      39.375  28.763  27.110  1.00  0.00    -0.203 F 
ATOM     78  F   UNL A   1      36.273  29.503  31.520  1.00  0.00    -0.200 F 
ATOM     79  C   UNL A   1      36.618  29.767  29.204  1.00  0.00     0.200 A 
ATOM     80  F   UNL A   1      37.055  30.068  26.906  1.00  0.00    -0.200 F 
ATOM     81  F   UNL A   1      35.502  30.503  29.103  1.00  0.00    -0.200 F 
ENDBRANCH  47  71
BRANCH  59  82
ATOM     82  C   UNL A   1      44.577  27.473  32.382  1.00  0.00     0.064 A 
ATOM     83  C   UNL A   1      44.493  27.762  33.755  1.00  0.00     0.173 A 
ATOM     84  C   UNL A   1      44.490  26.129  31.996  1.00  0.00     0.173 A 
ATOM     85  F   UNL A   1      44.484  29.026  34.197  1.00  0.00    -0.203 F 
ATOM     86  C   UNL A   1      44.370  26.740  34.696  1.00  0.00     0.198 A 
ATOM     87  C   UNL A   1      44.327  25.117  32.934  1.00  0.00     0.198 A 
ATOM     88  F   UNL A   1      44.521  25.801  30.694  1.00  0.00    -0.203 F 
ATOM     89  F   UNL A   1      44.311  27.034  36.004  1.00  0.00    -0.200 F 
ATOM     90  C   UNL A   1      44.279  25.420  34.284  1.00  0.00     0.200 A 
ATOM     91  F   UNL A   1      44.193  23.847  32.526  1.00  0.00    -0.200 F 
ATOM     92  F   UNL A   1      44.122  24.442  35.186  1.00  0.00    -0.200 F 
ENDBRANCH  59  82
ENDBRANCH  33  34
ENDBRANCH  26  28
ENDBRANCH  25  26
ENDBRANCH  24  25
ENDBRANCH   1  24
TORSDOF 13
ENDMDL
MODEL 3
REMARK VINA RESULT:     -12.7      4.196      6.583
REMARK SMILES Cc1n[nH]c(C)c1C(=O)N1CC(n2cc(C(=O)OCCOC(=O)c3ccc(-c4c5nc(c(-c6c(F)c(F)c(F)c(F)c6F)c6ccc([nH]6)c(-c6c(F)c(F)c(F)c(F)c6F)c6nc(c(-c7c(F)c(F)c(F)c(F)c7F)c7ccc4[nH]7)C=C6)C=C5)cc3)nn2)C1
REMARK SMILES IDX 19 1 18 2 16 3 17 4 15 5 13 6 14 7 88 8 87 9 12 10 8 11 9 12
REMARK SMILES IDX 10 13 11 14 89 15 7 16 1 17 2 18 3 19 4 20 5 21 6 23 20 24
REMARK SMILES IDX 21 25 22 26 23 27 24 28 25 29 86 30 26 31 85 32 27 33 28 34
REMARK SMILES IDX 29 35 79 36 30 37 84 38 78 39 80 40 31 41 83 42 77 43 76 44
REMARK SMILES IDX 32 46 64 47 44 48 63 49 45 50 48 51 62 52 81 53 46 54 47 55
REMARK SMILES IDX 61 57 82 58 49 59 33 60 34 61 42 62 35 63 36 64 40 65 43 66
REMARK SMILES IDX 37 67 38 68 41 69 39 70 65 71 66 72 74 73 67 74 68 75 72 76
REMARK SMILES IDX 75 77 69 78 70 79 73 80 71 81 50 82 51 83 59 84 52 85 53 86
REMARK SMILES IDX 57 87 60 88 54 89 55 90 58 91 56 92
REMARK H PARENT 4 22 80 45 48 56
REMARK Flexibility Score: inf
ROOT
ATOM      1  C   UNL A   1      40.407  19.919  26.146  1.00  0.00     0.275 C 
ENDROOT
BRANCH   1   2
ATOM      2  O   UNL A   1      41.640  19.511  26.761  1.00  0.00    -0.457 OA
BRANCH   2   3
ATOM      3  C   UNL A   1      42.462  18.740  25.983  1.00  0.00     0.360 C 
ATOM      4  O   UNL A   1      42.314  17.531  25.819  1.00  0.00    -0.244 OA
BRANCH   3   5
ATOM      5  C   UNL A   1      43.509  19.513  25.339  1.00  0.00     0.190 A 
ATOM      6  N   UNL A   1      45.111  20.881  24.838  1.00  0.00    -0.245 N 
ATOM      7  C   UNL A   1      44.235  20.578  25.840  1.00  0.00     0.147 A 
ATOM      8  N   UNL A   1      44.916  20.097  23.766  1.00  0.00    -0.066 NA
ATOM      9  N   UNL A   1      43.928  19.263  24.053  1.00  0.00    -0.123 NA
BRANCH   6  10
ATOM     10  C   UNL A   1      46.194  21.809  24.975  1.00  0.00     0.148 C 
ATOM     11  C   UNL A   1      47.040  24.913  25.493  1.00  0.00     0.257 C 
ATOM     12  O   UNL A   1      48.128  24.792  26.052  1.00  0.00    -0.269 OA
ATOM     13  N   UNL A   1      46.163  23.852  25.392  1.00  0.00    -0.334 N 
ATOM     14  C   UNL A   1      46.182  22.658  26.244  1.00  0.00     0.149 C 
ATOM     15  C   UNL A   1      45.905  23.086  24.173  1.00  0.00     0.149 C 
BRANCH  11  16
ATOM     16  C   UNL A   1      46.578  26.196  24.961  1.00  0.00     0.083 A 
ATOM     17  C   UNL A   1      48.808  27.032  23.849  1.00  0.00     0.069 C 
ATOM     18  C   UNL A   1      47.377  27.140  24.240  1.00  0.00     0.072 A 
ATOM     19  N   UNL A   1      46.695  28.247  23.925  1.00  0.00    -0.180 NA
ATOM     20  N   UNL A   1      45.488  28.045  24.458  1.00  0.00    -0.282 N 
ATOM     21  C   UNL A   1      45.348  26.838  25.085  1.00  0.00     0.045 A 
ATOM     22  H   UNL A   1      44.762  28.707  24.405  1.00  0.00     0.190 HD
ATOM     23  C   UNL A   1      44.065  26.490  25.739  1.00  0.00     0.067 C 
ENDBRANCH  11  16
ENDBRANCH   6  10
ENDBRANCH   3   5
ENDBRANCH   2   3
ENDBRANCH   1   2
BRANCH   1  24
ATOM     24  C   UNL A   1      40.211  21.424  26.253  1.00  0.00     0.275 C 
BRANCH  24  25
ATOM     25  O   UNL A   1      41.359  22.068  26.806  1.00  0.00    -0.458 OA
BRANCH  25  26
ATOM     26  C   UNL A   1      41.720  23.222  26.200  1.00  0.00     0.338 C 
ATOM     27  O   UNL A   1      42.479  23.349  25.254  1.00  0.00    -0.246 OA
BRANCH  26  28
ATOM     28  C   UNL A   1      41.263  24.352  27.017  1.00  0.00     0.060 A 
ATOM     29  C   UNL A   1      40.405  25.278  26.418  1.00  0.00     0.016 A 
ATOM     30  C   UNL A   1      41.913  24.625  28.231  1.00  0.00     0.016 A 
ATOM     31  C   UNL A   1      40.325  26.546  26.959  1.00  0.00     0.010 A 
ATOM     32  C   UNL A   1      41.849  25.894  28.755  1.00  0.00     0.010 A 
ATOM     33  C   UNL A   1      41.110  26.857  28.077  1.00  0.00    -0.014 A 
BRANCH  33  34
ATOM     34  C   UNL A   1      41.030  28.196  28.620  1.00  0.00     0.031 A 
ATOM     35  C   UNL A   1      42.104  29.071  28.102  1.00  0.00     0.074 A 
ATOM     36  C   UNL A   1      40.021  28.612  29.407  1.00  0.00     0.049 A 
ATOM     37  N   UNL A   1      43.123  29.525  28.749  1.00  0.00    -0.248 NA
ATOM     38  C   UNL A   1      42.156  29.314  26.650  1.00  0.00     0.031 C 
ATOM     39  C   UNL A   1      38.769  27.915  29.715  1.00  0.00     0.029 A 
ATOM     40  N   UNL A   1      39.867  29.809  30.037  1.00  0.00    -0.354 N 
ATOM     41  C   UNL A   1      43.841  30.284  27.830  1.00  0.00     0.074 A 
ATOM     42  C   UNL A   1      43.320  29.955  26.532  1.00  0.00     0.031 C 
ATOM     43  C   UNL A   1      37.900  28.785  30.280  1.00  0.00     0.029 A 
ATOM     44  C   UNL A   1      38.579  30.049  30.501  1.00  0.00     0.049 A 
ATOM     45  H   UNL A   1      40.604  30.451  30.154  1.00  0.00     0.167 HD
ATOM     46  C   UNL A   1      44.592  31.337  28.249  1.00  0.00     0.037 A 
ATOM     47  C   UNL A   1      38.113  31.233  30.973  1.00  0.00     0.037 A 
ATOM     48  C   UNL A   1      44.810  31.267  29.672  1.00  0.00     0.049 A 
ATOM     49  C   UNL A   1      39.291  32.040  31.370  1.00  0.00     0.074 A 
ATOM     50  C   UNL A   1      45.525  30.465  30.534  1.00  0.00     0.029 A 
ATOM     51  N   UNL A   1      43.869  31.923  30.420  1.00  0.00    -0.354 N 
ATOM     52  N   UNL A   1      40.074  31.739  32.370  1.00  0.00    -0.248 NA
ATOM     53  C   UNL A   1      39.840  32.993  30.415  1.00  0.00     0.031 C 
ATOM     54  C   UNL A   1      44.784  30.453  31.754  1.00  0.00     0.029 A 
ATOM     55  C   UNL A   1      43.671  31.283  31.611  1.00  0.00     0.049 A 
ATOM     56  H   UNL A   1      43.400  32.741  30.138  1.00  0.00     0.167 HD
ATOM     57  C   UNL A   1      41.339  32.109  31.945  1.00  0.00     0.074 A 
ATOM     58  C   UNL A   1      41.111  33.014  30.824  1.00  0.00     0.031 C 
ATOM     59  C   UNL A   1      42.434  31.403  32.353  1.00  0.00     0.037 A 
BRANCH  46  60
ATOM     60  C   UNL A   1      44.683  32.659  27.512  1.00  0.00     0.064 A 
ATOM     61  C   UNL A   1      45.838  32.926  26.748  1.00  0.00     0.173 A 
ATOM     62  C   UNL A   1      43.869  33.780  27.786  1.00  0.00     0.173 A 
ATOM     63  F   UNL A   1      46.701  31.944  26.448  1.00  0.00    -0.203 F 
ATOM     64  C   UNL A   1      46.186  34.224  26.361  1.00  0.00     0.198 A 
ATOM     65  C   UNL A   1      44.192  35.065  27.353  1.00  0.00     0.198 A 
ATOM     66  F   UNL A   1      42.796  33.715  28.582  1.00  0.00    -0.203 F 
ATOM     67  F   UNL A   1      47.359  34.445  25.752  1.00  0.00    -0.200 F 
ATOM     68  C   UNL A   1      45.365  35.293  26.669  1.00  0.00     0.200 A 
ATOM     69  F   UNL A   1      43.396  36.090  27.686  1.00  0.00    -0.200 F 
ATOM     70  F   UNL A   1      45.726  36.543  26.355  1.00  0.00    -0.200 F 
ENDBRANCH  46  60
BRANCH  47  71
ATOM     71  C   UNL A   1      36.772  31.841  30.793  1.00  0.00     0.064 A 
ATOM     72  C   UNL A   1      35.928  32.076  31.893  1.00  0.00     0.173 A 
ATOM     73  C   UNL A   1      36.420  32.480  29.590  1.00  0.00     0.173 A 
ATOM     74  F   UNL A   1      36.216  31.541  33.089  1.00  0.00    -0.203 F 
ATOM     75  C   UNL A   1      34.822  32.928  31.804  1.00  0.00     0.198 A 
ATOM     76  C   UNL A   1      35.313  33.328  29.500  1.00  0.00     0.198 A 
ATOM     77  F   UNL A   1      37.199  32.379  28.505  1.00  0.00    -0.203 F 
ATOM     78  F   UNL A   1      34.083  33.183  32.893  1.00  0.00    -0.200 F 
ATOM     79  C   UNL A   1      34.523  33.563  30.610  1.00  0.00     0.200 A 
ATOM     80  F   UNL A   1      35.058  33.967  28.349  1.00  0.00    -0.200 F 
ATOM     81  F   UNL A   1      33.507  34.434  30.540  1.00  0.00    -0.200 F 
ENDBRANCH  47  71
BRANCH  59  82
ATOM     82  C   UNL A   1      42.285  30.551  33.579  1.00  0.00     0.064 A 
ATOM     83  C   UNL A   1      42.383  31.023  34.899  1.00  0.00     0.173 A 
ATOM     84  C   UNL A   1      41.927  29.209  33.396  1.00  0.00     0.173 A 
ATOM     85  F   UNL A   1      42.638  32.313  35.155  1.00  0.00    -0.203 F 
ATOM     86  C   UNL A   1      42.173  30.172  35.983  1.00  0.00     0.198 A 
ATOM     87  C   UNL A   1      41.678  28.373  34.479  1.00  0.00     0.198 A 
ATOM     88  F   UNL A   1      41.776  28.717  32.156  1.00  0.00    -0.203 F 
ATOM     89  F   UNL A   1      42.291  30.636  37.236  1.00  0.00    -0.200 F 
ATOM     90  C   UNL A   1      41.813  28.850  35.771  1.00  0.00     0.200 A 
ATOM     91  F   UNL A   1      41.285  27.109  34.267  1.00  0.00    -0.200 F 
ATOM     92  F   UNL A   1      41.573  28.042  36.813  1.00  0.00    -0.200 F 
ENDBRANCH  59  82
ENDBRANCH  33  34
ENDBRANCH  26  28
ENDBRANCH  25  26
ENDBRANCH  24  25
ENDBRANCH   1  24
TORSDOF 13
ENDMDL
