MODEL 1
REMARK VINA RESULT:     -12.9      0.000      0.000
REMARK SMILES O=C(OCCOC(=O)c1ccc(-c2c3nc(c(-c4c(F)c(F)c(F)c(F)c4F)c4ccc([nH]4)c(-c4c(F)c(F)c(F)c(F)c4F)c4nc(c(-c5c(F)c(F)c(F)c(F)c5F)c5ccc2[nH]5)C=C4)C=C3)cc1)C1=Cc2c(ccc(Cl)c2-c2ccccc2)O[C@H]1C(F)(F)F
REMARK SMILES IDX 5 1 4 2 3 3 2 4 1 5 72 6 73 7 88 8 74 9 87 10 75 11 80 12
REMARK SMILES IDX 76 13 78 14 77 15 79 16 89 17 90 18 91 19 92 20 81 21 82 22
REMARK SMILES IDX 86 23 83 24 85 25 84 26 6 27 7 28 8 29 9 30 10 31 71 32
REMARK SMILES IDX 11 33 70 34 12 35 13 36 14 37 64 38 15 39 69 40 63 41 65 42
REMARK SMILES IDX 16 43 68 44 62 45 61 46 17 48 49 49 29 50 48 51 30 52 33 53
REMARK SMILES IDX 47 54 66 55 31 56 32 57 46 59 67 60 34 61 18 62 19 63 27 64
REMARK SMILES IDX 20 65 21 66 25 67 28 68 22 69 23 70 26 71 24 72 50 73 51 74
REMARK SMILES IDX 59 75 52 76 53 77 57 78 60 79 54 80 55 81 58 82 56 83 35 84
REMARK SMILES IDX 36 85 44 86 37 87 38 88 42 89 45 90 39 91 40 92 43 93 41 94
REMARK H PARENT 65 47 33 58
REMARK Flexibility Score: inf
ROOT
ATOM      1  C   UNL A   1      39.139  19.599  25.759  1.00  0.00     0.275 C 
ENDROOT
BRANCH   1   2
ATOM      2  C   UNL A   1      37.911  20.056  24.989  1.00  0.00     0.275 C 
BRANCH   2   3
ATOM      3  O   UNL A   1      37.177  21.008  25.786  1.00  0.00    -0.459 OA
BRANCH   3   4
ATOM      4  C   UNL A   1      36.492  22.064  25.290  1.00  0.00     0.338 C 
ATOM      5  O   UNL A   1      37.111  23.051  24.903  1.00  0.00    -0.246 OA
BRANCH   4   6
ATOM      6  C   UNL A   1      35.003  22.089  25.230  1.00  0.00     0.087 C 
ATOM      7  C   UNL A   1      34.156  21.061  25.419  1.00  0.00     0.028 C 
ATOM      8  C   UNL A   1      34.441  23.395  24.709  1.00  0.00     0.316 C 
ATOM      9  C   UNL A   1      33.335  20.795  24.215  1.00  0.00     0.027 A 
ATOM     10  O   UNL A   1      33.197  23.220  23.961  1.00  0.00    -0.475 OA
ATOM     11  C   UNL A   1      32.923  21.947  23.516  1.00  0.00     0.128 A 
ATOM     12  C   UNL A   1      33.011  19.480  23.760  1.00  0.00     0.011 A 
ATOM     13  C   UNL A   1      32.188  21.820  22.349  1.00  0.00     0.049 A 
ATOM     14  C   UNL A   1      32.274  19.396  22.564  1.00  0.00     0.049 A 
ATOM     15  C   UNL A   1      31.878  20.548  21.868  1.00  0.00     0.025 A 
ATOM     16  Cl  UNL A   1      31.823  17.870  21.876  1.00  0.00    -0.084 Cl
BRANCH   8  17
ATOM     17  C   UNL A   1      34.247  24.376  25.883  1.00  0.00     0.430 C 
ATOM     18  F   UNL A   1      33.062  25.030  25.824  1.00  0.00    -0.167 F 
ATOM     19  F   UNL A   1      34.297  23.749  27.078  1.00  0.00    -0.167 F 
ATOM     20  F   UNL A   1      35.207  25.337  25.883  1.00  0.00    -0.167 F 
ENDBRANCH   8  17
BRANCH  12  21
ATOM     21  C   UNL A   1      33.493  18.249  24.444  1.00  0.00    -0.016 A 
ATOM     22  C   UNL A   1      32.619  17.513  25.272  1.00  0.00     0.009 A 
ATOM     23  C   UNL A   1      34.791  17.738  24.256  1.00  0.00     0.009 A 
ATOM     24  C   UNL A   1      32.977  16.261  25.785  1.00  0.00     0.001 A 
ATOM     25  C   UNL A   1      35.156  16.487  24.785  1.00  0.00     0.001 A 
ATOM     26  C   UNL A   1      34.239  15.737  25.522  1.00  0.00     0.000 A 
ENDBRANCH  12  21
ENDBRANCH   4   6
ENDBRANCH   3   4
ENDBRANCH   2   3
ENDBRANCH   1   2
BRANCH   1  27
ATOM     27  O   UNL A   1      40.164  20.587  25.801  1.00  0.00    -0.458 OA
BRANCH  27  28
ATOM     28  C   UNL A   1      40.797  20.744  26.979  1.00  0.00     0.338 C 
ATOM     29  O   UNL A   1      41.255  19.807  27.612  1.00  0.00    -0.246 OA
BRANCH  28  30
ATOM     30  C   UNL A   1      40.847  22.136  27.475  1.00  0.00     0.060 A 
ATOM     31  C   UNL A   1      39.881  23.006  26.989  1.00  0.00     0.016 A 
ATOM     32  C   UNL A   1      41.856  22.587  28.351  1.00  0.00     0.016 A 
ATOM     33  C   UNL A   1      40.031  24.357  27.233  1.00  0.00     0.010 A 
ATOM     34  C   UNL A   1      41.920  23.925  28.709  1.00  0.00     0.010 A 
ATOM     35  C   UNL A   1      41.108  24.816  28.013  1.00  0.00    -0.014 A 
BRANCH  35  36
ATOM     36  C   UNL A   1      41.566  26.194  27.748  1.00  0.00     0.031 A 
ATOM     37  C   UNL A   1      40.857  27.314  28.470  1.00  0.00     0.074 A 
ATOM     38  C   UNL A   1      42.732  26.367  27.108  1.00  0.00     0.049 A 
ATOM     39  N   UNL A   1      41.280  28.520  28.745  1.00  0.00    -0.248 NA
ATOM     40  C   UNL A   1      39.498  27.042  28.974  1.00  0.00     0.031 C 
ATOM     41  C   UNL A   1      43.468  25.311  26.410  1.00  0.00     0.029 A 
ATOM     42  N   UNL A   1      43.543  27.463  27.025  1.00  0.00    -0.354 N 
ATOM     43  C   UNL A   1      40.253  29.123  29.465  1.00  0.00     0.074 A 
ATOM     44  C   UNL A   1      39.163  28.187  29.538  1.00  0.00     0.031 C 
ATOM     45  C   UNL A   1      44.665  25.791  26.040  1.00  0.00     0.029 A 
ATOM     46  C   UNL A   1      44.765  27.183  26.465  1.00  0.00     0.049 A 
ATOM     47  H   UNL A   1      43.279  28.360  27.334  1.00  0.00     0.167 HD
ATOM     48  C   UNL A   1      40.233  30.346  30.040  1.00  0.00     0.037 A 
ATOM     49  C   UNL A   1      45.854  27.965  26.358  1.00  0.00     0.037 A 
ATOM     50  C   UNL A   1      41.334  31.259  29.945  1.00  0.00     0.049 A 
ATOM     51  C   UNL A   1      45.801  29.332  26.988  1.00  0.00     0.074 A 
ATOM     52  C   UNL A   1      41.447  32.541  30.444  1.00  0.00     0.029 A 
ATOM     53  N   UNL A   1      42.524  30.968  29.290  1.00  0.00    -0.354 N 
ATOM     54  N   UNL A   1      44.841  29.883  27.695  1.00  0.00    -0.248 NA
ATOM     55  C   UNL A   1      46.988  30.176  26.822  1.00  0.00     0.031 C 
ATOM     56  C   UNL A   1      42.690  33.045  30.045  1.00  0.00     0.029 A 
ATOM     57  C   UNL A   1      43.374  32.055  29.353  1.00  0.00     0.049 A 
ATOM     58  H   UNL A   1      42.732  30.114  28.846  1.00  0.00     0.167 HD
ATOM     59  C   UNL A   1      45.316  31.129  28.081  1.00  0.00     0.074 A 
ATOM     60  C   UNL A   1      46.659  31.237  27.545  1.00  0.00     0.031 C 
ATOM     61  C   UNL A   1      44.707  32.100  28.807  1.00  0.00     0.037 A 
BRANCH  48  62
ATOM     62  C   UNL A   1      38.976  30.754  30.755  1.00  0.00     0.064 A 
ATOM     63  C   UNL A   1      38.828  30.612  32.145  1.00  0.00     0.173 A 
ATOM     64  C   UNL A   1      37.882  31.251  30.032  1.00  0.00     0.173 A 
ATOM     65  F   UNL A   1      39.830  30.110  32.883  1.00  0.00    -0.203 F 
ATOM     66  C   UNL A   1      37.623  30.917  32.776  1.00  0.00     0.198 A 
ATOM     67  C   UNL A   1      36.689  31.584  30.669  1.00  0.00     0.198 A 
ATOM     68  F   UNL A   1      37.961  31.396  28.701  1.00  0.00    -0.203 F 
ATOM     69  F   UNL A   1      37.484  30.707  34.092  1.00  0.00    -0.200 F 
ATOM     70  C   UNL A   1      36.556  31.407  32.038  1.00  0.00     0.200 A 
ATOM     71  F   UNL A   1      35.659  32.059  29.954  1.00  0.00    -0.200 F 
ATOM     72  F   UNL A   1      35.394  31.691  32.643  1.00  0.00    -0.200 F 
ENDBRANCH  48  62
BRANCH  49  73
ATOM     73  C   UNL A   1      47.072  27.452  25.678  1.00  0.00     0.064 A 
ATOM     74  C   UNL A   1      47.279  27.632  24.303  1.00  0.00     0.173 A 
ATOM     75  C   UNL A   1      48.071  26.781  26.402  1.00  0.00     0.173 A 
ATOM     76  F   UNL A   1      46.353  28.257  23.561  1.00  0.00    -0.203 F 
ATOM     77  C   UNL A   1      48.425  27.140  23.677  1.00  0.00     0.198 A 
ATOM     78  C   UNL A   1      49.229  26.319  25.781  1.00  0.00     0.198 A 
ATOM     79  F   UNL A   1      47.928  26.590  27.722  1.00  0.00    -0.203 F 
ATOM     80  F   UNL A   1      48.576  27.287  22.354  1.00  0.00    -0.200 F 
ATOM     81  C   UNL A   1      49.401  26.490  24.417  1.00  0.00     0.200 A 
ATOM     82  F   UNL A   1      50.176  25.709  26.505  1.00  0.00    -0.200 F 
ATOM     83  F   UNL A   1      50.503  26.025  23.815  1.00  0.00    -0.200 F 
ENDBRANCH  49  73
BRANCH  61  84
ATOM     84  C   UNL A   1      45.508  33.336  29.084  1.00  0.00     0.064 A 
ATOM     85  C   UNL A   1      46.334  33.437  30.211  1.00  0.00     0.173 A 
ATOM     86  C   UNL A   1      45.477  34.411  28.185  1.00  0.00     0.173 A 
ATOM     87  F   UNL A   1      46.389  32.435  31.102  1.00  0.00    -0.203 F 
ATOM     88  C   UNL A   1      47.073  34.592  30.449  1.00  0.00     0.198 A 
ATOM     89  C   UNL A   1      46.243  35.548  28.407  1.00  0.00     0.198 A 
ATOM     90  F   UNL A   1      44.711  34.351  27.083  1.00  0.00    -0.203 F 
ATOM     91  F   UNL A   1      47.810  34.693  31.563  1.00  0.00    -0.200 F 
ATOM     92  C   UNL A   1      47.031  35.643  29.545  1.00  0.00     0.200 A 
ATOM     93  F   UNL A   1      46.218  36.556  27.524  1.00  0.00    -0.200 F 
ATOM     94  F   UNL A   1      47.747  36.752  29.773  1.00  0.00    -0.200 F 
ENDBRANCH  61  84
ENDBRANCH  35  36
ENDBRANCH  28  30
ENDBRANCH  27  28
ENDBRANCH   1  27
TORSDOF 13
ENDMDL
MODEL 2
REMARK VINA RESULT:     -12.8      5.483      8.652
REMARK SMILES O=C(OCCOC(=O)c1ccc(-c2c3nc(c(-c4c(F)c(F)c(F)c(F)c4F)c4ccc([nH]4)c(-c4c(F)c(F)c(F)c(F)c4F)c4nc(c(-c5c(F)c(F)c(F)c(F)c5F)c5ccc2[nH]5)C=C4)C=C3)cc1)C1=Cc2c(ccc(Cl)c2-c2ccccc2)O[C@H]1C(F)(F)F
REMARK SMILES IDX 5 1 4 2 3 3 2 4 1 5 72 6 73 7 88 8 74 9 87 10 75 11 80 12
REMARK SMILES IDX 76 13 78 14 77 15 79 16 89 17 90 18 91 19 92 20 81 21 82 22
REMARK SMILES IDX 86 23 83 24 85 25 84 26 6 27 7 28 8 29 9 30 10 31 71 32
REMARK SMILES IDX 11 33 70 34 12 35 13 36 14 37 64 38 15 39 69 40 63 41 65 42
REMARK SMILES IDX 16 43 68 44 62 45 61 46 17 48 49 49 29 50 48 51 30 52 33 53
REMARK SMILES IDX 47 54 66 55 31 56 32 57 46 59 67 60 34 61 18 62 19 63 27 64
REMARK SMILES IDX 20 65 21 66 25 67 28 68 22 69 23 70 26 71 24 72 50 73 51 74
REMARK SMILES IDX 59 75 52 76 53 77 57 78 60 79 54 80 55 81 58 82 56 83 35 84
REMARK SMILES IDX 36 85 44 86 37 87 38 88 42 89 45 90 39 91 40 92 43 93 41 94
REMARK H PARENT 65 47 33 58
REMARK Flexibility Score: inf
ROOT
ATOM      1  C   UNL A   1      32.137  31.597  27.110  1.00  0.00     0.275 C 
ENDROOT
BRANCH   1   2
ATOM      2  C   UNL A   1      32.213  30.084  27.230  1.00  0.00     0.275 C 
BRANCH   2   3
ATOM      3  O   UNL A   1      31.429  29.484  26.178  1.00  0.00    -0.459 OA
BRANCH   3   4
ATOM      4  C   UNL A   1      31.923  29.069  24.989  1.00  0.00     0.338 C 
ATOM      5  O   UNL A   1      32.995  29.519  24.596  1.00  0.00    -0.246 OA
BRANCH   4   6
ATOM      6  C   UNL A   1      31.192  28.108  24.116  1.00  0.00     0.087 C 
ATOM      7  C   UNL A   1      30.978  26.798  24.335  1.00  0.00     0.028 C 
ATOM      8  C   UNL A   1      30.835  28.676  22.759  1.00  0.00     0.316 C 
ATOM      9  C   UNL A   1      31.585  25.956  23.278  1.00  0.00     0.027 A 
ATOM     10  O   UNL A   1      30.836  27.665  21.702  1.00  0.00    -0.475 OA
ATOM     11  C   UNL A   1      31.500  26.491  21.977  1.00  0.00     0.128 A 
ATOM     12  C   UNL A   1      32.245  24.718  23.542  1.00  0.00     0.011 A 
ATOM     13  C   UNL A   1      32.072  25.814  20.913  1.00  0.00     0.049 A 
ATOM     14  C   UNL A   1      32.824  24.068  22.435  1.00  0.00     0.049 A 
ATOM     15  C   UNL A   1      32.744  24.614  21.146  1.00  0.00     0.025 A 
ATOM     16  Cl  UNL A   1      33.675  22.568  22.601  1.00  0.00    -0.084 Cl
BRANCH   8  17
ATOM     17  C   UNL A   1      29.469  29.388  22.841  1.00  0.00     0.430 C 
ATOM     18  F   UNL A   1      28.464  28.546  23.183  1.00  0.00    -0.167 F 
ATOM     19  F   UNL A   1      29.476  30.389  23.748  1.00  0.00    -0.167 F 
ATOM     20  F   UNL A   1      29.122  29.923  21.642  1.00  0.00    -0.167 F 
ENDBRANCH   8  17
BRANCH  12  21
ATOM     21  C   UNL A   1      32.406  24.168  24.916  1.00  0.00    -0.016 A 
ATOM     22  C   UNL A   1      31.309  23.571  25.572  1.00  0.00     0.009 A 
ATOM     23  C   UNL A   1      33.644  24.161  25.587  1.00  0.00     0.009 A 
ATOM     24  C   UNL A   1      31.464  22.886  26.783  1.00  0.00     0.001 A 
ATOM     25  C   UNL A   1      33.796  23.486  26.811  1.00  0.00     0.001 A 
ATOM     26  C   UNL A   1      32.713  22.824  27.391  1.00  0.00     0.000 A 
ENDBRANCH  12  21
ENDBRANCH   4   6
ENDBRANCH   3   4
ENDBRANCH   2   3
ENDBRANCH   1   2
BRANCH   1  27
ATOM     27  O   UNL A   1      33.378  32.237  27.392  1.00  0.00    -0.458 OA
BRANCH  27  28
ATOM     28  C   UNL A   1      33.324  33.329  28.179  1.00  0.00     0.338 C 
ATOM     29  O   UNL A   1      32.473  34.192  28.051  1.00  0.00    -0.246 OA
BRANCH  28  30
ATOM     30  C   UNL A   1      34.412  33.428  29.176  1.00  0.00     0.060 A 
ATOM     31  C   UNL A   1      35.470  34.270  28.863  1.00  0.00     0.016 A 
ATOM     32  C   UNL A   1      34.417  32.665  30.361  1.00  0.00     0.016 A 
ATOM     33  C   UNL A   1      36.609  34.212  29.641  1.00  0.00     0.010 A 
ATOM     34  C   UNL A   1      35.507  32.718  31.218  1.00  0.00     0.010 A 
ATOM     35  C   UNL A   1      36.653  33.361  30.760  1.00  0.00    -0.014 A 
BRANCH  35  36
ATOM     36  C   UNL A   1      37.990  32.883  31.165  1.00  0.00     0.031 A 
ATOM     37  C   UNL A   1      38.472  33.251  32.547  1.00  0.00     0.074 A 
ATOM     38  C   UNL A   1      38.587  31.945  30.415  1.00  0.00     0.049 A 
ATOM     39  N   UNL A   1      39.369  32.664  33.295  1.00  0.00    -0.248 NA
ATOM     40  C   UNL A   1      37.849  34.422  33.192  1.00  0.00     0.031 C 
ATOM     41  C   UNL A   1      38.149  31.538  29.078  1.00  0.00     0.029 A 
ATOM     42  N   UNL A   1      39.621  31.102  30.708  1.00  0.00    -0.354 N 
ATOM     43  C   UNL A   1      39.390  33.380  34.488  1.00  0.00     0.074 A 
ATOM     44  C   UNL A   1      38.470  34.478  34.355  1.00  0.00     0.031 C 
ATOM     45  C   UNL A   1      38.858  30.465  28.699  1.00  0.00     0.029 A 
ATOM     46  C   UNL A   1      39.801  30.125  29.759  1.00  0.00     0.049 A 
ATOM     47  H   UNL A   1      40.180  31.186  31.515  1.00  0.00     0.167 HD
ATOM     48  C   UNL A   1      40.099  33.126  35.611  1.00  0.00     0.037 A 
ATOM     49  C   UNL A   1      40.611  29.052  29.783  1.00  0.00     0.037 A 
ATOM     50  C   UNL A   1      41.014  32.026  35.710  1.00  0.00     0.049 A 
ATOM     51  C   UNL A   1      41.408  28.801  31.035  1.00  0.00     0.074 A 
ATOM     52  C   UNL A   1      41.825  31.663  36.766  1.00  0.00     0.029 A 
ATOM     53  N   UNL A   1      41.233  31.109  34.690  1.00  0.00    -0.354 N 
ATOM     54  N   UNL A   1      41.399  29.462  32.171  1.00  0.00    -0.248 NA
ATOM     55  C   UNL A   1      42.311  27.646  31.018  1.00  0.00     0.031 C 
ATOM     56  C   UNL A   1      42.575  30.552  36.363  1.00  0.00     0.029 A 
ATOM     57  C   UNL A   1      42.184  30.188  35.082  1.00  0.00     0.049 A 
ATOM     58  H   UNL A   1      40.778  31.114  33.817  1.00  0.00     0.167 HD
ATOM     59  C   UNL A   1      42.274  28.789  33.013  1.00  0.00     0.074 A 
ATOM     60  C   UNL A   1      42.776  27.657  32.258  1.00  0.00     0.031 C 
ATOM     61  C   UNL A   1      42.638  29.074  34.288  1.00  0.00     0.037 A 
BRANCH  48  62
ATOM     62  C   UNL A   1      39.939  34.079  36.760  1.00  0.00     0.064 A 
ATOM     63  C   UNL A   1      40.700  35.257  36.867  1.00  0.00     0.173 A 
ATOM     64  C   UNL A   1      39.044  33.787  37.800  1.00  0.00     0.173 A 
ATOM     65  F   UNL A   1      41.595  35.569  35.918  1.00  0.00    -0.203 F 
ATOM     66  C   UNL A   1      40.595  36.083  37.984  1.00  0.00     0.198 A 
ATOM     67  C   UNL A   1      38.920  34.631  38.901  1.00  0.00     0.198 A 
ATOM     68  F   UNL A   1      38.302  32.671  37.759  1.00  0.00    -0.203 F 
ATOM     69  F   UNL A   1      41.381  37.163  38.095  1.00  0.00    -0.200 F 
ATOM     70  C   UNL A   1      39.702  35.771  38.999  1.00  0.00     0.200 A 
ATOM     71  F   UNL A   1      38.055  34.329  39.881  1.00  0.00    -0.200 F 
ATOM     72  F   UNL A   1      39.609  36.561  40.078  1.00  0.00    -0.200 F 
ENDBRANCH  48  62
BRANCH  49  73
ATOM     73  C   UNL A   1      40.661  28.134  28.614  1.00  0.00     0.064 A 
ATOM     74  C   UNL A   1      41.463  28.406  27.497  1.00  0.00     0.173 A 
ATOM     75  C   UNL A   1      39.911  26.947  28.601  1.00  0.00     0.173 A 
ATOM     76  F   UNL A   1      42.192  29.531  27.453  1.00  0.00    -0.203 F 
ATOM     77  C   UNL A   1      41.496  27.539  26.406  1.00  0.00     0.198 A 
ATOM     78  C   UNL A   1      39.969  26.066  27.523  1.00  0.00     0.198 A 
ATOM     79  F   UNL A   1      39.133  26.633  29.647  1.00  0.00    -0.203 F 
ATOM     80  F   UNL A   1      42.237  27.845  25.332  1.00  0.00    -0.200 F 
ATOM     81  C   UNL A   1      40.755  26.367  26.422  1.00  0.00     0.200 A 
ATOM     82  F   UNL A   1      39.265  24.927  27.554  1.00  0.00    -0.200 F 
ATOM     83  F   UNL A   1      40.792  25.532  25.375  1.00  0.00    -0.200 F 
ENDBRANCH  49  73
BRANCH  61  84
ATOM     84  C   UNL A   1      43.593  28.123  34.944  1.00  0.00     0.064 A 
ATOM     85  C   UNL A   1      44.981  28.286  34.837  1.00  0.00     0.173 A 
ATOM     86  C   UNL A   1      43.107  27.063  35.722  1.00  0.00     0.173 A 
ATOM     87  F   UNL A   1      45.489  29.283  34.096  1.00  0.00    -0.203 F 
ATOM     88  C   UNL A   1      45.850  27.394  35.455  1.00  0.00     0.198 A 
ATOM     89  C   UNL A   1      43.979  26.195  36.367  1.00  0.00     0.198 A 
ATOM     90  F   UNL A   1      41.785  26.878  35.865  1.00  0.00    -0.203 F 
ATOM     91  F   UNL A   1      47.173  27.531  35.292  1.00  0.00    -0.200 F 
ATOM     92  C   UNL A   1      45.349  26.354  36.225  1.00  0.00     0.200 A 
ATOM     93  F   UNL A   1      43.495  25.201  37.126  1.00  0.00    -0.200 F 
ATOM     94  F   UNL A   1      46.189  25.499  36.824  1.00  0.00    -0.200 F 
ENDBRANCH  61  84
ENDBRANCH  35  36
ENDBRANCH  28  30
ENDBRANCH  27  28
ENDBRANCH   1  27
TORSDOF 13
ENDMDL
MODEL 3
REMARK VINA RESULT:     -12.7      2.581      8.050
REMARK SMILES O=C(OCCOC(=O)c1ccc(-c2c3nc(c(-c4c(F)c(F)c(F)c(F)c4F)c4ccc([nH]4)c(-c4c(F)c(F)c(F)c(F)c4F)c4nc(c(-c5c(F)c(F)c(F)c(F)c5F)c5ccc2[nH]5)C=C4)C=C3)cc1)C1=Cc2c(ccc(Cl)c2-c2ccccc2)O[C@H]1C(F)(F)F
REMARK SMILES IDX 5 1 4 2 3 3 2 4 1 5 72 6 73 7 88 8 74 9 87 10 75 11 80 12
REMARK SMILES IDX 76 13 78 14 77 15 79 16 89 17 90 18 91 19 92 20 81 21 82 22
REMARK SMILES IDX 86 23 83 24 85 25 84 26 6 27 7 28 8 29 9 30 10 31 71 32
REMARK SMILES IDX 11 33 70 34 12 35 13 36 14 37 64 38 15 39 69 40 63 41 65 42
REMARK SMILES IDX 16 43 68 44 62 45 61 46 17 48 49 49 29 50 48 51 30 52 33 53
REMARK SMILES IDX 47 54 66 55 31 56 32 57 46 59 67 60 34 61 18 62 19 63 27 64
REMARK SMILES IDX 20 65 21 66 25 67 28 68 22 69 23 70 26 71 24 72 50 73 51 74
REMARK SMILES IDX 59 75 52 76 53 77 57 78 60 79 54 80 55 81 58 82 56 83 35 84
REMARK SMILES IDX 36 85 44 86 37 87 38 88 42 89 45 90 39 91 40 92 43 93 41 94
REMARK H PARENT 65 47 33 58
REMARK Flexibility Score: inf
ROOT
ATOM      1  C   UNL A   1      38.557  21.404  25.386  1.00  0.00     0.275 C 
ENDROOT
BRANCH   1   2
ATOM      2  C   UNL A   1      37.505  20.474  24.803  1.00  0.00     0.275 C 
BRANCH   2   3
ATOM      3  O   UNL A   1      36.346  21.246  24.425  1.00  0.00    -0.459 OA
BRANCH   3   4
ATOM      4  C   UNL A   1      35.320  21.552  25.252  1.00  0.00     0.338 C 
ATOM      5  O   UNL A   1      35.559  21.839  26.422  1.00  0.00    -0.246 OA
BRANCH   4   6
ATOM      6  C   UNL A   1      33.900  21.520  24.804  1.00  0.00     0.087 C 
ATOM      7  C   UNL A   1      33.243  22.450  24.088  1.00  0.00     0.028 C 
ATOM      8  C   UNL A   1      33.101  20.384  25.407  1.00  0.00     0.316 C 
ATOM      9  C   UNL A   1      32.089  23.006  24.831  1.00  0.00     0.027 A 
ATOM     10  O   UNL A   1      31.695  20.727  25.616  1.00  0.00    -0.475 OA
ATOM     11  C   UNL A   1      31.383  22.067  25.610  1.00  0.00     0.128 A 
ATOM     12  C   UNL A   1      31.729  24.387  24.807  1.00  0.00     0.011 A 
ATOM     13  C   UNL A   1      30.311  22.478  26.384  1.00  0.00     0.049 A 
ATOM     14  C   UNL A   1      30.642  24.766  25.618  1.00  0.00     0.049 A 
ATOM     15  C   UNL A   1      29.953  23.827  26.399  1.00  0.00     0.025 A 
ATOM     16  Cl  UNL A   1      30.102  26.410  25.709  1.00  0.00    -0.084 Cl
BRANCH   8  17
ATOM     17  C   UNL A   1      33.239  19.130  24.520  1.00  0.00     0.430 C 
ATOM     18  F   UNL A   1      32.744  19.317  23.273  1.00  0.00    -0.167 F 
ATOM     19  F   UNL A   1      34.528  18.748  24.384  1.00  0.00    -0.167 F 
ATOM     20  F   UNL A   1      32.553  18.081  25.044  1.00  0.00    -0.167 F 
ENDBRANCH   8  17
BRANCH  12  21
ATOM     21  C   UNL A   1      32.502  25.408  24.047  1.00  0.00    -0.016 A 
ATOM     22  C   UNL A   1      32.308  25.550  22.657  1.00  0.00     0.009 A 
ATOM     23  C   UNL A   1      33.395  26.299  24.671  1.00  0.00     0.009 A 
ATOM     24  C   UNL A   1      32.877  26.610  21.942  1.00  0.00     0.001 A 
ATOM     25  C   UNL A   1      33.979  27.356  23.949  1.00  0.00     0.001 A 
ATOM     26  C   UNL A   1      33.695  27.527  22.594  1.00  0.00     0.000 A 
ENDBRANCH  12  21
ENDBRANCH   4   6
ENDBRANCH   3   4
ENDBRANCH   2   3
ENDBRANCH   1   2
BRANCH   1  27
ATOM     27  O   UNL A   1      39.277  20.817  26.465  1.00  0.00    -0.458 OA
BRANCH  27  28
ATOM     28  C   UNL A   1      40.516  20.370  26.185  1.00  0.00     0.338 C 
ATOM     29  O   UNL A   1      40.729  19.260  25.728  1.00  0.00    -0.246 OA
BRANCH  28  30
ATOM     30  C   UNL A   1      41.606  21.310  26.528  1.00  0.00     0.060 A 
ATOM     31  C   UNL A   1      42.128  21.217  27.810  1.00  0.00     0.016 A 
ATOM     32  C   UNL A   1      42.059  22.296  25.628  1.00  0.00     0.016 A 
ATOM     33  C   UNL A   1      42.969  22.220  28.251  1.00  0.00     0.010 A 
ATOM     34  C   UNL A   1      43.013  23.219  26.030  1.00  0.00     0.010 A 
ATOM     35  C   UNL A   1      43.328  23.268  27.385  1.00  0.00    -0.014 A 
BRANCH  35  36
ATOM     36  C   UNL A   1      43.683  24.552  28.023  1.00  0.00     0.031 A 
ATOM     37  C   UNL A   1      45.122  24.997  27.940  1.00  0.00     0.074 A 
ATOM     38  C   UNL A   1      42.690  25.372  28.400  1.00  0.00     0.049 A 
ATOM     39  N   UNL A   1      45.624  26.200  28.035  1.00  0.00    -0.248 NA
ATOM     40  C   UNL A   1      46.139  23.957  27.693  1.00  0.00     0.031 C 
ATOM     41  C   UNL A   1      41.278  24.995  28.480  1.00  0.00     0.029 A 
ATOM     42  N   UNL A   1      42.707  26.706  28.692  1.00  0.00    -0.354 N 
ATOM     43  C   UNL A   1      46.994  26.053  27.837  1.00  0.00     0.074 A 
ATOM     44  C   UNL A   1      47.263  24.649  27.676  1.00  0.00     0.031 C 
ATOM     45  C   UNL A   1      40.550  26.097  28.718  1.00  0.00     0.029 A 
ATOM     46  C   UNL A   1      41.449  27.242  28.819  1.00  0.00     0.049 A 
ATOM     47  H   UNL A   1      43.534  27.230  28.799  1.00  0.00     0.167 HD
ATOM     48  C   UNL A   1      47.943  27.012  27.768  1.00  0.00     0.037 A 
ATOM     49  C   UNL A   1      41.078  28.527  28.954  1.00  0.00     0.037 A 
ATOM     50  C   UNL A   1      47.643  28.404  27.938  1.00  0.00     0.049 A 
ATOM     51  C   UNL A   1      42.155  29.578  28.896  1.00  0.00     0.074 A 
ATOM     52  C   UNL A   1      48.500  29.486  27.929  1.00  0.00     0.029 A 
ATOM     53  N   UNL A   1      46.363  28.898  28.154  1.00  0.00    -0.354 N 
ATOM     54  N   UNL A   1      43.442  29.436  28.675  1.00  0.00    -0.248 NA
ATOM     55  C   UNL A   1      41.727  30.968  29.084  1.00  0.00     0.031 C 
ATOM     56  C   UNL A   1      47.742  30.632  28.192  1.00  0.00     0.029 A 
ATOM     57  C   UNL A   1      46.406  30.270  28.301  1.00  0.00     0.049 A 
ATOM     58  H   UNL A   1      45.545  28.351  28.196  1.00  0.00     0.167 HD
ATOM     59  C   UNL A   1      43.976  30.717  28.673  1.00  0.00     0.074 A 
ATOM     60  C   UNL A   1      42.863  31.622  28.892  1.00  0.00     0.031 C 
ATOM     61  C   UNL A   1      45.261  31.120  28.510  1.00  0.00     0.037 A 
BRANCH  48  62
ATOM     62  C   UNL A   1      49.362  26.568  27.555  1.00  0.00     0.064 A 
ATOM     63  C   UNL A   1      50.240  26.333  28.627  1.00  0.00     0.173 A 
ATOM     64  C   UNL A   1      49.868  26.420  26.255  1.00  0.00     0.173 A 
ATOM     65  F   UNL A   1      49.819  26.491  29.891  1.00  0.00    -0.203 F 
ATOM     66  C   UNL A   1      51.576  26.003  28.405  1.00  0.00     0.198 A 
ATOM     67  C   UNL A   1      51.196  26.061  26.036  1.00  0.00     0.198 A 
ATOM     68  F   UNL A   1      49.080  26.644  25.194  1.00  0.00    -0.203 F 
ATOM     69  F   UNL A   1      52.411  25.853  29.442  1.00  0.00    -0.200 F 
ATOM     70  C   UNL A   1      52.052  25.864  27.109  1.00  0.00     0.200 A 
ATOM     71  F   UNL A   1      51.654  25.926  24.784  1.00  0.00    -0.200 F 
ATOM     72  F   UNL A   1      53.339  25.557  26.895  1.00  0.00    -0.200 F 
ENDBRANCH  48  62
BRANCH  49  73
ATOM     73  C   UNL A   1      39.641  28.874  29.106  1.00  0.00     0.064 A 
ATOM     74  C   UNL A   1      38.996  28.813  30.349  1.00  0.00     0.173 A 
ATOM     75  C   UNL A   1      38.882  29.292  28.000  1.00  0.00     0.173 A 
ATOM     76  F   UNL A   1      39.670  28.411  31.436  1.00  0.00    -0.203 F 
ATOM     77  C   UNL A   1      37.644  29.136  30.475  1.00  0.00     0.198 A 
ATOM     78  C   UNL A   1      37.541  29.644  28.134  1.00  0.00     0.198 A 
ATOM     79  F   UNL A   1      39.451  29.376  26.789  1.00  0.00    -0.203 F 
ATOM     80  F   UNL A   1      37.041  29.027  31.667  1.00  0.00    -0.200 F 
ATOM     81  C   UNL A   1      36.920  29.556  29.371  1.00  0.00     0.200 A 
ATOM     82  F   UNL A   1      36.852  30.067  27.066  1.00  0.00    -0.200 F 
ATOM     83  F   UNL A   1      35.624  29.872  29.495  1.00  0.00    -0.200 F 
ENDBRANCH  49  73
BRANCH  61  84
ATOM     84  C   UNL A   1      45.511  32.597  28.528  1.00  0.00     0.064 A 
ATOM     85  C   UNL A   1      45.841  33.271  29.712  1.00  0.00     0.173 A 
ATOM     86  C   UNL A   1      45.461  33.334  27.336  1.00  0.00     0.173 A 
ATOM     87  F   UNL A   1      45.893  32.606  30.876  1.00  0.00    -0.203 F 
ATOM     88  C   UNL A   1      46.072  34.642  29.707  1.00  0.00     0.198 A 
ATOM     89  C   UNL A   1      45.727  34.697  27.330  1.00  0.00     0.198 A 
ATOM     90  F   UNL A   1      45.164  32.726  26.176  1.00  0.00    -0.203 F 
ATOM     91  F   UNL A   1      46.327  35.279  30.858  1.00  0.00    -0.200 F 
ATOM     92  C   UNL A   1      46.022  35.353  28.517  1.00  0.00     0.200 A 
ATOM     93  F   UNL A   1      45.697  35.380  26.176  1.00  0.00    -0.200 F 
ATOM     94  F   UNL A   1      46.250  36.673  28.513  1.00  0.00    -0.200 F 
ENDBRANCH  61  84
ENDBRANCH  35  36
ENDBRANCH  28  30
ENDBRANCH  27  28
ENDBRANCH   1  27
TORSDOF 13
ENDMDL
