MODEL 1
REMARK VINA RESULT:     -12.2      0.000      0.000
REMARK SMILES C[C@@H]1CCCC[C@H]1NC(=O)C[N@@H+]1CCO[C@H](CC(=O)OCCOC(=O)c2ccc(-c3c4nc(c(-c5c(F)c(F)c(F)c(F)c5F)c5ccc([nH]5)c(-c5c(F)c(F)c(F)c(F)c5F)c5nc(c(-c6c(F)c(F)c(F)c(F)c6F)c6ccc3[nH]6)C=C5)C=C4)cc2)C1
REMARK SMILES IDX 21 1 20 2 18 3 19 4 17 5 16 6 12 7 13 8 89 9 14 11 15 12
REMARK SMILES IDX 11 13 9 14 8 15 10 17 7 18 1 19 2 20 3 21 4 22 6 23 5 24
REMARK SMILES IDX 22 25 23 26 24 27 25 28 26 29 27 30 88 31 28 32 87 33 29 34
REMARK SMILES IDX 30 35 31 36 81 37 32 38 86 39 80 40 82 41 33 42 85 43 79 44
REMARK SMILES IDX 78 45 34 47 66 48 46 49 65 50 47 51 50 52 64 53 83 54 48 55
REMARK SMILES IDX 49 56 63 58 84 59 51 60 35 61 36 62 44 63 37 64 38 65 42 66
REMARK SMILES IDX 45 67 39 68 40 69 43 70 41 71 67 72 68 73 76 74 69 75 70 76
REMARK SMILES IDX 74 77 77 78 71 79 72 80 75 81 73 82 52 83 53 84 61 85 54 86
REMARK SMILES IDX 55 87 59 88 62 89 56 90 57 91 60 92 58 93
REMARK H PARENT 12 10 8 16 82 46 50 57
REMARK Flexibility Score: inf
ROOT
ATOM      1  C   UNL A   1      31.566  28.562  27.324  1.00  0.00     0.274 C 
ENDROOT
BRANCH   1   2
ATOM      2  O   UNL A   1      32.640  27.666  26.938  1.00  0.00    -0.462 OA
BRANCH   2   3
ATOM      3  C   UNL A   1      32.524  27.049  25.740  1.00  0.00     0.308 C 
ATOM      4  O   UNL A   1      31.624  26.259  25.465  1.00  0.00    -0.252 OA
BRANCH   3   5
ATOM      5  C   UNL A   1      33.706  27.247  24.807  1.00  0.00     0.160 C 
BRANCH   5   6
ATOM      6  C   UNL A   1      33.854  26.474  23.485  1.00  0.00     0.184 C 
ATOM      7  N   UNL A   1      32.195  27.008  21.622  1.00  0.00    -0.323 N 
ATOM      8  C   UNL A   1      32.159  25.578  21.293  1.00  0.00     0.291 C 
ATOM      9  C   UNL A   1      33.488  27.310  22.234  1.00  0.00     0.295 C 
ATOM     10  H   UNL A   1      32.085  27.500  20.735  1.00  0.00     0.348 HD
ATOM     11  C   UNL A   1      32.847  24.621  22.302  1.00  0.00     0.222 C 
ATOM     12  O   UNL A   1      33.220  25.205  23.559  1.00  0.00    -0.366 OA
BRANCH   7  13
ATOM     13  C   UNL A   1      31.056  27.560  22.382  1.00  0.00     0.363 C 
BRANCH  13  14
ATOM     14  C   UNL A   1      31.032  29.065  22.647  1.00  0.00     0.275 C 
ATOM     15  N   UNL A   1      30.321  29.858  21.786  1.00  0.00    -0.348 N 
ATOM     16  H   UNL A   1      30.792  30.521  21.232  1.00  0.00     0.163 HD
ATOM     17  O   UNL A   1      31.612  29.655  23.549  1.00  0.00    -0.268 OA
BRANCH  15  18
ATOM     18  C   UNL A   1      28.876  29.730  21.683  1.00  0.00     0.085 C 
ATOM     19  C   UNL A   1      26.913  28.992  23.129  1.00  0.00     0.010 C 
ATOM     20  C   UNL A   1      28.299  29.627  23.119  1.00  0.00     0.008 C 
ATOM     21  C   UNL A   1      28.333  30.982  23.850  1.00  0.00     0.005 C 
ATOM     22  C   UNL A   1      27.755  32.130  23.027  1.00  0.00     0.000 C 
ATOM     23  C   UNL A   1      28.310  30.912  20.889  1.00  0.00     0.025 C 
ATOM     24  C   UNL A   1      28.405  32.234  21.652  1.00  0.00     0.002 C 
ENDBRANCH  15  18
ENDBRANCH  13  14
ENDBRANCH   7  13
ENDBRANCH   5   6
ENDBRANCH   3   5
ENDBRANCH   2   3
ENDBRANCH   1   2
BRANCH   1  25
ATOM     25  C   UNL A   1      31.788  30.004  26.863  1.00  0.00     0.275 C 
BRANCH  25  26
ATOM     26  O   UNL A   1      33.193  30.238  26.743  1.00  0.00    -0.458 OA
BRANCH  26  27
ATOM     27  C   UNL A   1      33.645  31.338  27.385  1.00  0.00     0.338 C 
ATOM     28  O   UNL A   1      33.165  32.448  27.450  1.00  0.00    -0.246 OA
BRANCH  27  29
ATOM     29  C   UNL A   1      34.946  31.015  27.943  1.00  0.00     0.060 A 
ATOM     30  C   UNL A   1      35.953  31.981  27.998  1.00  0.00     0.016 A 
ATOM     31  C   UNL A   1      35.144  29.711  28.386  1.00  0.00     0.016 A 
ATOM     32  C   UNL A   1      37.171  31.656  28.564  1.00  0.00     0.010 A 
ATOM     33  C   UNL A   1      36.357  29.384  28.958  1.00  0.00     0.010 A 
ATOM     34  C   UNL A   1      37.353  30.367  29.073  1.00  0.00    -0.014 A 
BRANCH  34  35
ATOM     35  C   UNL A   1      38.572  30.046  29.819  1.00  0.00     0.031 A 
ATOM     36  C   UNL A   1      39.548  29.090  29.235  1.00  0.00     0.074 A 
ATOM     37  C   UNL A   1      38.697  30.585  31.043  1.00  0.00     0.049 A 
ATOM     38  N   UNL A   1      40.585  28.532  29.794  1.00  0.00    -0.248 NA
ATOM     39  C   UNL A   1      39.318  28.691  27.836  1.00  0.00     0.031 C 
ATOM     40  C   UNL A   1      37.759  31.544  31.638  1.00  0.00     0.029 A 
ATOM     41  N   UNL A   1      39.639  30.395  32.012  1.00  0.00    -0.354 N 
ATOM     42  C   UNL A   1      41.125  27.700  28.825  1.00  0.00     0.074 A 
ATOM     43  C   UNL A   1      40.289  27.807  27.649  1.00  0.00     0.031 C 
ATOM     44  C   UNL A   1      38.174  31.855  32.875  1.00  0.00     0.029 A 
ATOM     45  C   UNL A   1      39.364  31.073  33.173  1.00  0.00     0.049 A 
ATOM     46  H   UNL A   1      40.435  29.829  31.890  1.00  0.00     0.167 HD
ATOM     47  C   UNL A   1      42.222  26.920  28.935  1.00  0.00     0.037 A 
ATOM     48  C   UNL A   1      39.997  31.023  34.357  1.00  0.00     0.037 A 
ATOM     49  C   UNL A   1      43.001  26.842  30.144  1.00  0.00     0.049 A 
ATOM     50  C   UNL A   1      41.188  30.113  34.460  1.00  0.00     0.074 A 
ATOM     51  C   UNL A   1      44.131  26.090  30.404  1.00  0.00     0.029 A 
ATOM     52  N   UNL A   1      42.713  27.553  31.307  1.00  0.00    -0.354 N 
ATOM     53  N   UNL A   1      41.707  29.327  33.545  1.00  0.00    -0.248 NA
ATOM     54  C   UNL A   1      41.879  30.075  35.751  1.00  0.00     0.031 C 
ATOM     55  C   UNL A   1      44.499  26.312  31.737  1.00  0.00     0.029 A 
ATOM     56  C   UNL A   1      43.634  27.246  32.292  1.00  0.00     0.049 A 
ATOM     57  H   UNL A   1      41.964  28.181  31.412  1.00  0.00     0.167 HD
ATOM     58  C   UNL A   1      42.800  28.718  34.137  1.00  0.00     0.074 A 
ATOM     59  C   UNL A   1      42.877  29.244  35.489  1.00  0.00     0.031 C 
ATOM     60  C   UNL A   1      43.664  27.807  33.622  1.00  0.00     0.037 A 
BRANCH  47  61
ATOM     61  C   UNL A   1      42.599  26.083  27.748  1.00  0.00     0.064 A 
ATOM     62  C   UNL A   1      43.557  26.511  26.816  1.00  0.00     0.173 A 
ATOM     63  C   UNL A   1      41.986  24.840  27.529  1.00  0.00     0.173 A 
ATOM     64  F   UNL A   1      44.161  27.699  26.965  1.00  0.00    -0.203 F 
ATOM     65  C   UNL A   1      43.862  25.742  25.694  1.00  0.00     0.198 A 
ATOM     66  C   UNL A   1      42.314  24.061  26.422  1.00  0.00     0.198 A 
ATOM     67  F   UNL A   1      41.059  24.383  28.385  1.00  0.00    -0.203 F 
ATOM     68  F   UNL A   1      44.738  26.199  24.788  1.00  0.00    -0.200 F 
ATOM     69  C   UNL A   1      43.245  24.516  25.501  1.00  0.00     0.200 A 
ATOM     70  F   UNL A   1      41.721  22.872  26.242  1.00  0.00    -0.200 F 
ATOM     71  F   UNL A   1      43.538  23.778  24.421  1.00  0.00    -0.200 F 
ENDBRANCH  47  61
BRANCH  48  72
ATOM     72  C   UNL A   1      39.518  31.843  35.498  1.00  0.00     0.064 A 
ATOM     73  C   UNL A   1      39.986  33.149  35.691  1.00  0.00     0.173 A 
ATOM     74  C   UNL A   1      38.565  31.355  36.407  1.00  0.00     0.173 A 
ATOM     75  F   UNL A   1      40.903  33.661  34.857  1.00  0.00    -0.203 F 
ATOM     76  C   UNL A   1      39.538  33.927  36.758  1.00  0.00     0.198 A 
ATOM     77  C   UNL A   1      38.094  32.144  37.454  1.00  0.00     0.198 A 
ATOM     78  F   UNL A   1      38.072  30.115  36.265  1.00  0.00    -0.203 F 
ATOM     79  F   UNL A   1      40.035  35.158  36.941  1.00  0.00    -0.200 F 
ATOM     80  C   UNL A   1      38.588  33.426  37.635  1.00  0.00     0.200 A 
ATOM     81  F   UNL A   1      37.161  31.662  38.288  1.00  0.00    -0.200 F 
ATOM     82  F   UNL A   1      38.154  34.178  38.656  1.00  0.00    -0.200 F 
ENDBRANCH  48  72
BRANCH  60  83
ATOM     83  C   UNL A   1      44.777  27.365  34.522  1.00  0.00     0.064 A 
ATOM     84  C   UNL A   1      44.651  26.241  35.349  1.00  0.00     0.173 A 
ATOM     85  C   UNL A   1      45.996  28.059  34.524  1.00  0.00     0.173 A 
ATOM     86  F   UNL A   1      43.496  25.559  35.393  1.00  0.00    -0.203 F 
ATOM     87  C   UNL A   1      45.701  25.841  36.169  1.00  0.00     0.198 A 
ATOM     88  C   UNL A   1      47.054  27.635  35.318  1.00  0.00     0.198 A 
ATOM     89  F   UNL A   1      46.162  29.138  33.745  1.00  0.00    -0.203 F 
ATOM     90  F   UNL A   1      45.544  24.795  36.992  1.00  0.00    -0.200 F 
ATOM     91  C   UNL A   1      46.904  26.533  36.146  1.00  0.00     0.200 A 
ATOM     92  F   UNL A   1      48.220  28.295  35.285  1.00  0.00    -0.200 F 
ATOM     93  F   UNL A   1      47.917  26.139  36.929  1.00  0.00    -0.200 F 
ENDBRANCH  60  83
ENDBRANCH  34  35
ENDBRANCH  27  29
ENDBRANCH  26  27
ENDBRANCH  25  26
ENDBRANCH   1  25
TORSDOF 15
ENDMDL
MODEL 2
REMARK VINA RESULT:     -12.1      1.954      4.200
REMARK SMILES C[C@@H]1CCCC[C@H]1NC(=O)C[N@@H+]1CCO[C@H](CC(=O)OCCOC(=O)c2ccc(-c3c4nc(c(-c5c(F)c(F)c(F)c(F)c5F)c5ccc([nH]5)c(-c5c(F)c(F)c(F)c(F)c5F)c5nc(c(-c6c(F)c(F)c(F)c(F)c6F)c6ccc3[nH]6)C=C5)C=C4)cc2)C1
REMARK SMILES IDX 21 1 20 2 18 3 19 4 17 5 16 6 12 7 13 8 89 9 14 11 15 12
REMARK SMILES IDX 11 13 9 14 8 15 10 17 7 18 1 19 2 20 3 21 4 22 6 23 5 24
REMARK SMILES IDX 22 25 23 26 24 27 25 28 26 29 27 30 88 31 28 32 87 33 29 34
REMARK SMILES IDX 30 35 31 36 81 37 32 38 86 39 80 40 82 41 33 42 85 43 79 44
REMARK SMILES IDX 78 45 34 47 66 48 46 49 65 50 47 51 50 52 64 53 83 54 48 55
REMARK SMILES IDX 49 56 63 58 84 59 51 60 35 61 36 62 44 63 37 64 38 65 42 66
REMARK SMILES IDX 45 67 39 68 40 69 43 70 41 71 67 72 68 73 76 74 69 75 70 76
REMARK SMILES IDX 74 77 77 78 71 79 72 80 75 81 73 82 52 83 53 84 61 85 54 86
REMARK SMILES IDX 55 87 59 88 62 89 56 90 57 91 60 92 58 93
REMARK H PARENT 12 10 8 16 82 46 50 57
REMARK Flexibility Score: inf
ROOT
ATOM      1  C   UNL A   1      31.541  29.668  25.395  1.00  0.00     0.274 C 
ENDROOT
BRANCH   1   2
ATOM      2  O   UNL A   1      32.670  28.775  25.215  1.00  0.00    -0.462 OA
BRANCH   2   3
ATOM      3  C   UNL A   1      32.694  27.653  25.969  1.00  0.00     0.308 C 
ATOM      4  O   UNL A   1      33.727  27.066  26.284  1.00  0.00    -0.252 OA
BRANCH   3   5
ATOM      5  C   UNL A   1      31.331  27.045  26.246  1.00  0.00     0.160 C 
BRANCH   5   6
ATOM      6  C   UNL A   1      30.746  25.904  25.395  1.00  0.00     0.184 C 
ATOM      7  N   UNL A   1      31.212  23.515  26.156  1.00  0.00    -0.323 N 
ATOM      8  C   UNL A   1      31.376  23.136  24.748  1.00  0.00     0.291 C 
ATOM      9  C   UNL A   1      30.317  24.669  26.224  1.00  0.00     0.295 C 
ATOM     10  H   UNL A   1      30.799  22.703  26.616  1.00  0.00     0.348 HD
ATOM     11  C   UNL A   1      31.439  24.299  23.724  1.00  0.00     0.222 C 
ATOM     12  O   UNL A   1      31.581  25.614  24.283  1.00  0.00    -0.366 OA
BRANCH   7  13
ATOM     13  C   UNL A   1      32.437  23.688  26.961  1.00  0.00     0.363 C 
BRANCH  13  14
ATOM     14  C   UNL A   1      33.443  22.538  26.995  1.00  0.00     0.275 C 
ATOM     15  N   UNL A   1      34.355  22.451  25.978  1.00  0.00    -0.348 N 
ATOM     16  H   UNL A   1      34.329  21.682  25.364  1.00  0.00     0.163 HD
ATOM     17  O   UNL A   1      33.508  21.652  27.837  1.00  0.00    -0.268 OA
BRANCH  15  18
ATOM     18  C   UNL A   1      35.360  23.486  25.793  1.00  0.00     0.085 C 
ATOM     19  C   UNL A   1      37.872  23.786  26.089  1.00  0.00     0.010 C 
ATOM     20  C   UNL A   1      36.753  22.803  25.766  1.00  0.00     0.008 C 
ATOM     21  C   UNL A   1      36.994  22.046  24.447  1.00  0.00     0.005 C 
ATOM     22  C   UNL A   1      36.682  22.875  23.205  1.00  0.00     0.000 C 
ATOM     23  C   UNL A   1      35.053  24.281  24.520  1.00  0.00     0.025 C 
ATOM     24  C   UNL A   1      35.277  23.465  23.247  1.00  0.00     0.002 C 
ENDBRANCH  15  18
ENDBRANCH  13  14
ENDBRANCH   7  13
ENDBRANCH   5   6
ENDBRANCH   3   5
ENDBRANCH   2   3
ENDBRANCH   1   2
BRANCH   1  25
ATOM     25  C   UNL A   1      31.870  30.892  26.251  1.00  0.00     0.275 C 
BRANCH  25  26
ATOM     26  O   UNL A   1      33.191  30.743  26.779  1.00  0.00    -0.458 OA
BRANCH  26  27
ATOM     27  C   UNL A   1      33.645  31.800  27.487  1.00  0.00     0.338 C 
ATOM     28  O   UNL A   1      33.174  32.910  27.610  1.00  0.00    -0.246 OA
BRANCH  27  29
ATOM     29  C   UNL A   1      34.937  31.434  28.040  1.00  0.00     0.060 A 
ATOM     30  C   UNL A   1      35.964  32.376  28.128  1.00  0.00     0.016 A 
ATOM     31  C   UNL A   1      35.105  30.113  28.445  1.00  0.00     0.016 A 
ATOM     32  C   UNL A   1      37.172  32.009  28.688  1.00  0.00     0.010 A 
ATOM     33  C   UNL A   1      36.310  29.744  29.011  1.00  0.00     0.010 A 
ATOM     34  C   UNL A   1      37.326  30.702  29.159  1.00  0.00    -0.014 A 
BRANCH  34  35
ATOM     35  C   UNL A   1      38.534  30.333  29.900  1.00  0.00     0.031 A 
ATOM     36  C   UNL A   1      39.475  29.348  29.305  1.00  0.00     0.074 A 
ATOM     37  C   UNL A   1      38.680  30.858  31.127  1.00  0.00     0.049 A 
ATOM     38  N   UNL A   1      40.493  28.751  29.857  1.00  0.00    -0.248 NA
ATOM     39  C   UNL A   1      39.228  28.968  27.905  1.00  0.00     0.031 C 
ATOM     40  C   UNL A   1      37.777  31.845  31.731  1.00  0.00     0.029 A 
ATOM     41  N   UNL A   1      39.617  30.628  32.092  1.00  0.00    -0.354 N 
ATOM     42  C   UNL A   1      41.002  27.908  28.881  1.00  0.00     0.074 A 
ATOM     43  C   UNL A   1      40.168  28.053  27.708  1.00  0.00     0.031 C 
ATOM     44  C   UNL A   1      38.205  32.132  32.969  1.00  0.00     0.029 A 
ATOM     45  C   UNL A   1      39.369  31.306  33.259  1.00  0.00     0.049 A 
ATOM     46  H   UNL A   1      40.393  30.036  31.964  1.00  0.00     0.167 HD
ATOM     47  C   UNL A   1      42.072  27.089  28.983  1.00  0.00     0.037 A 
ATOM     48  C   UNL A   1      40.002  31.225  34.441  1.00  0.00     0.037 A 
ATOM     49  C   UNL A   1      42.851  26.976  30.189  1.00  0.00     0.049 A 
ATOM     50  C   UNL A   1      41.161  30.274  34.534  1.00  0.00     0.074 A 
ATOM     51  C   UNL A   1      43.954  26.184  30.440  1.00  0.00     0.029 A 
ATOM     52  N   UNL A   1      42.590  27.687  31.358  1.00  0.00    -0.354 N 
ATOM     53  N   UNL A   1      41.651  29.478  33.612  1.00  0.00    -0.248 NA
ATOM     54  C   UNL A   1      41.854  30.203  35.823  1.00  0.00     0.031 C 
ATOM     55  C   UNL A   1      44.332  26.382  31.774  1.00  0.00     0.029 A 
ATOM     56  C   UNL A   1      43.502  27.341  32.339  1.00  0.00     0.049 A 
ATOM     57  H   UNL A   1      41.863  28.340  31.470  1.00  0.00     0.167 HD
ATOM     58  C   UNL A   1      42.723  28.827  34.197  1.00  0.00     0.074 A 
ATOM     59  C   UNL A   1      42.821  29.340  35.552  1.00  0.00     0.031 C 
ATOM     60  C   UNL A   1      43.554  27.891  33.673  1.00  0.00     0.037 A 
BRANCH  47  61
ATOM     61  C   UNL A   1      42.417  26.249  27.788  1.00  0.00     0.064 A 
ATOM     62  C   UNL A   1      43.410  26.635  26.874  1.00  0.00     0.173 A 
ATOM     63  C   UNL A   1      41.737  25.046  27.543  1.00  0.00     0.173 A 
ATOM     64  F   UNL A   1      44.078  27.785  27.048  1.00  0.00    -0.203 F 
ATOM     65  C   UNL A   1      43.686  25.866  25.746  1.00  0.00     0.198 A 
ATOM     66  C   UNL A   1      42.036  24.265  26.430  1.00  0.00     0.198 A 
ATOM     67  F   UNL A   1      40.775  24.630  28.381  1.00  0.00    -0.203 F 
ATOM     68  F   UNL A   1      44.599  26.285  24.858  1.00  0.00    -0.200 F 
ATOM     69  C   UNL A   1      43.004  24.679  25.527  1.00  0.00     0.200 A 
ATOM     70  F   UNL A   1      41.380  23.114  26.224  1.00  0.00    -0.200 F 
ATOM     71  F   UNL A   1      43.269  23.941  24.440  1.00  0.00    -0.200 F 
ENDBRANCH  47  61
BRANCH  48  72
ATOM     72  C   UNL A   1      39.554  32.053  35.590  1.00  0.00     0.064 A 
ATOM     73  C   UNL A   1      38.570  31.588  36.470  1.00  0.00     0.173 A 
ATOM     74  C   UNL A   1      40.115  33.314  35.851  1.00  0.00     0.173 A 
ATOM     75  F   UNL A   1      37.996  30.394  36.262  1.00  0.00    -0.203 F 
ATOM     76  C   UNL A   1      38.148  32.357  37.554  1.00  0.00     0.198 A 
ATOM     77  C   UNL A   1      39.715  34.069  36.951  1.00  0.00     0.198 A 
ATOM     78  F   UNL A   1      41.070  33.806  35.047  1.00  0.00    -0.203 F 
ATOM     79  F   UNL A   1      37.173  31.904  38.355  1.00  0.00    -0.200 F 
ATOM     80  C   UNL A   1      38.724  33.595  37.796  1.00  0.00     0.200 A 
ATOM     81  F   UNL A   1      40.289  35.256  37.193  1.00  0.00    -0.200 F 
ATOM     82  F   UNL A   1      38.321  34.331  38.842  1.00  0.00    -0.200 F 
ENDBRANCH  48  72
BRANCH  60  83
ATOM     83  C   UNL A   1      44.653  27.404  34.566  1.00  0.00     0.064 A 
ATOM     84  C   UNL A   1      45.890  28.061  34.636  1.00  0.00     0.173 A 
ATOM     85  C   UNL A   1      44.447  26.286  35.388  1.00  0.00     0.173 A 
ATOM     86  F   UNL A   1      46.136  29.123  33.852  1.00  0.00    -0.203 F 
ATOM     87  C   UNL A   1      46.893  27.600  35.480  1.00  0.00     0.198 A 
ATOM     88  C   UNL A   1      45.440  25.850  36.257  1.00  0.00     0.198 A 
ATOM     89  F   UNL A   1      43.278  25.630  35.358  1.00  0.00    -0.203 F 
ATOM     90  F   UNL A   1      48.086  28.209  35.495  1.00  0.00    -0.200 F 
ATOM     91  C   UNL A   1      46.664  26.501  36.296  1.00  0.00     0.200 A 
ATOM     92  F   UNL A   1      45.213  24.798  37.055  1.00  0.00    -0.200 F 
ATOM     93  F   UNL A   1      47.629  26.064  37.117  1.00  0.00    -0.200 F 
ENDBRANCH  60  83
ENDBRANCH  34  35
ENDBRANCH  27  29
ENDBRANCH  26  27
ENDBRANCH  25  26
ENDBRANCH   1  25
TORSDOF 15
ENDMDL
MODEL 3
REMARK VINA RESULT:     -12.0      1.696      3.723
REMARK SMILES C[C@@H]1CCCC[C@H]1NC(=O)C[N@@H+]1CCO[C@H](CC(=O)OCCOC(=O)c2ccc(-c3c4nc(c(-c5c(F)c(F)c(F)c(F)c5F)c5ccc([nH]5)c(-c5c(F)c(F)c(F)c(F)c5F)c5nc(c(-c6c(F)c(F)c(F)c(F)c6F)c6ccc3[nH]6)C=C5)C=C4)cc2)C1
REMARK SMILES IDX 21 1 20 2 18 3 19 4 17 5 16 6 12 7 13 8 89 9 14 11 15 12
REMARK SMILES IDX 11 13 9 14 8 15 10 17 7 18 1 19 2 20 3 21 4 22 6 23 5 24
REMARK SMILES IDX 22 25 23 26 24 27 25 28 26 29 27 30 88 31 28 32 87 33 29 34
REMARK SMILES IDX 30 35 31 36 81 37 32 38 86 39 80 40 82 41 33 42 85 43 79 44
REMARK SMILES IDX 78 45 34 47 66 48 46 49 65 50 47 51 50 52 64 53 83 54 48 55
REMARK SMILES IDX 49 56 63 58 84 59 51 60 35 61 36 62 44 63 37 64 38 65 42 66
REMARK SMILES IDX 45 67 39 68 40 69 43 70 41 71 67 72 68 73 76 74 69 75 70 76
REMARK SMILES IDX 74 77 77 78 71 79 72 80 75 81 73 82 52 83 53 84 61 85 54 86
REMARK SMILES IDX 55 87 59 88 62 89 56 90 57 91 60 92 58 93
REMARK H PARENT 12 10 8 16 82 46 50 57
REMARK Flexibility Score: inf
ROOT
ATOM      1  C   UNL A   1      31.778  28.899  27.143  1.00  0.00     0.274 C 
ENDROOT
BRANCH   1   2
ATOM      2  O   UNL A   1      32.826  27.954  26.809  1.00  0.00    -0.462 OA
BRANCH   2   3
ATOM      3  C   UNL A   1      32.454  26.823  26.167  1.00  0.00     0.308 C 
ATOM      4  O   UNL A   1      33.074  25.764  26.237  1.00  0.00    -0.252 OA
BRANCH   3   5
ATOM      5  C   UNL A   1      31.310  26.998  25.185  1.00  0.00     0.160 C 
BRANCH   5   6
ATOM      6  C   UNL A   1      31.529  27.065  23.663  1.00  0.00     0.184 C 
ATOM      7  N   UNL A   1      31.557  24.859  22.384  1.00  0.00    -0.323 N 
ATOM      8  C   UNL A   1      32.644  25.394  21.555  1.00  0.00     0.291 C 
ATOM      9  C   UNL A   1      30.757  25.978  22.876  1.00  0.00     0.295 C 
ATOM     10  H   UNL A   1      31.009  24.258  21.768  1.00  0.00     0.348 HD
ATOM     11  C   UNL A   1      33.280  26.728  22.029  1.00  0.00     0.222 C 
ATOM     12  O   UNL A   1      32.911  27.159  23.348  1.00  0.00    -0.366 OA
BRANCH   7  13
ATOM     13  C   UNL A   1      31.921  23.900  23.445  1.00  0.00     0.363 C 
BRANCH  13  14
ATOM     14  C   UNL A   1      32.851  22.743  23.080  1.00  0.00     0.275 C 
ATOM     15  N   UNL A   1      34.188  22.890  23.332  1.00  0.00    -0.348 N 
ATOM     16  H   UNL A   1      34.826  22.914  22.583  1.00  0.00     0.163 HD
ATOM     17  O   UNL A   1      32.528  21.687  22.551  1.00  0.00    -0.268 OA
BRANCH  15  18
ATOM     18  C   UNL A   1      34.676  23.010  24.697  1.00  0.00     0.085 C 
ATOM     19  C   UNL A   1      34.336  21.885  26.956  1.00  0.00     0.010 C 
ATOM     20  C   UNL A   1      34.345  21.693  25.444  1.00  0.00     0.008 C 
ATOM     21  C   UNL A   1      35.261  20.536  25.001  1.00  0.00     0.005 C 
ATOM     22  C   UNL A   1      36.743  20.900  25.006  1.00  0.00     0.000 C 
ATOM     23  C   UNL A   1      36.174  23.335  24.681  1.00  0.00     0.025 C 
ATOM     24  C   UNL A   1      37.026  22.162  24.199  1.00  0.00     0.002 C 
ENDBRANCH  15  18
ENDBRANCH  13  14
ENDBRANCH   7  13
ENDBRANCH   5   6
ENDBRANCH   3   5
ENDBRANCH   2   3
ENDBRANCH   1   2
BRANCH   1  25
ATOM     25  C   UNL A   1      31.978  30.273  26.502  1.00  0.00     0.275 C 
BRANCH  25  26
ATOM     26  O   UNL A   1      33.368  30.603  26.545  1.00  0.00    -0.458 OA
BRANCH  26  27
ATOM     27  C   UNL A   1      33.693  31.595  27.402  1.00  0.00     0.338 C 
ATOM     28  O   UNL A   1      33.125  32.643  27.626  1.00  0.00    -0.246 OA
BRANCH  27  29
ATOM     29  C   UNL A   1      34.978  31.262  27.992  1.00  0.00     0.060 A 
ATOM     30  C   UNL A   1      35.973  32.233  28.118  1.00  0.00     0.016 A 
ATOM     31  C   UNL A   1      35.172  29.943  28.391  1.00  0.00     0.016 A 
ATOM     32  C   UNL A   1      37.175  31.896  28.711  1.00  0.00     0.010 A 
ATOM     33  C   UNL A   1      36.369  29.604  28.991  1.00  0.00     0.010 A 
ATOM     34  C   UNL A   1      37.351  30.589  29.177  1.00  0.00    -0.014 A 
BRANCH  34  35
ATOM     35  C   UNL A   1      38.547  30.250  29.951  1.00  0.00     0.031 A 
ATOM     36  C   UNL A   1      39.537  29.303  29.375  1.00  0.00     0.074 A 
ATOM     37  C   UNL A   1      38.638  30.763  31.189  1.00  0.00     0.049 A 
ATOM     38  N   UNL A   1      40.556  28.730  29.952  1.00  0.00    -0.248 NA
ATOM     39  C   UNL A   1      39.347  28.933  27.963  1.00  0.00     0.031 C 
ATOM     40  C   UNL A   1      37.685  31.713  31.776  1.00  0.00     0.029 A 
ATOM     41  N   UNL A   1      39.551  30.550  32.180  1.00  0.00    -0.354 N 
ATOM     42  C   UNL A   1      41.122  27.917  28.983  1.00  0.00     0.074 A 
ATOM     43  C   UNL A   1      40.321  28.050  27.786  1.00  0.00     0.031 C 
ATOM     44  C   UNL A   1      38.065  31.997  33.030  1.00  0.00     0.029 A 
ATOM     45  C   UNL A   1      39.245  31.205  33.347  1.00  0.00     0.049 A 
ATOM     46  H   UNL A   1      40.349  29.985  32.070  1.00  0.00     0.167 HD
ATOM     47  C   UNL A   1      42.214  27.131  29.109  1.00  0.00     0.037 A 
ATOM     48  C   UNL A   1      39.843  31.129  34.547  1.00  0.00     0.037 A 
ATOM     49  C   UNL A   1      42.958  27.027  30.337  1.00  0.00     0.049 A 
ATOM     50  C   UNL A   1      41.028  30.214  34.666  1.00  0.00     0.074 A 
ATOM     51  C   UNL A   1      44.077  26.266  30.614  1.00  0.00     0.029 A 
ATOM     52  N   UNL A   1      42.637  27.714  31.506  1.00  0.00    -0.354 N 
ATOM     53  N   UNL A   1      41.572  29.445  33.750  1.00  0.00    -0.248 NA
ATOM     54  C   UNL A   1      41.682  30.147  35.976  1.00  0.00     0.031 C 
ATOM     55  C   UNL A   1      44.407  26.459  31.962  1.00  0.00     0.029 A 
ATOM     56  C   UNL A   1      43.529  27.384  32.511  1.00  0.00     0.049 A 
ATOM     57  H   UNL A   1      41.887  28.342  31.602  1.00  0.00     0.167 HD
ATOM     58  C   UNL A   1      42.645  28.821  34.361  1.00  0.00     0.074 A 
ATOM     59  C   UNL A   1      42.684  29.319  35.725  1.00  0.00     0.031 C 
ATOM     60  C   UNL A   1      43.522  27.918  33.852  1.00  0.00     0.037 A 
BRANCH  47  61
ATOM     61  C   UNL A   1      42.623  26.317  27.916  1.00  0.00     0.064 A 
ATOM     62  C   UNL A   1      43.589  26.774  27.005  1.00  0.00     0.173 A 
ATOM     63  C   UNL A   1      42.032  25.069  27.669  1.00  0.00     0.173 A 
ATOM     64  F   UNL A   1      44.172  27.969  27.181  1.00  0.00    -0.203 F 
ATOM     65  C   UNL A   1      43.923  26.027  25.878  1.00  0.00     0.198 A 
ATOM     66  C   UNL A   1      42.391  24.311  26.557  1.00  0.00     0.198 A 
ATOM     67  F   UNL A   1      41.100  24.585  28.503  1.00  0.00    -0.203 F 
ATOM     68  F   UNL A   1      44.807  26.510  24.993  1.00  0.00    -0.200 F 
ATOM     69  C   UNL A   1      43.329  24.794  25.657  1.00  0.00     0.200 A 
ATOM     70  F   UNL A   1      41.819  23.116  26.349  1.00  0.00    -0.200 F 
ATOM     71  F   UNL A   1      43.651  24.077  24.572  1.00  0.00    -0.200 F 
ENDBRANCH  47  61
BRANCH  48  72
ATOM     72  C   UNL A   1      39.333  31.927  35.691  1.00  0.00     0.064 A 
ATOM     73  C   UNL A   1      39.732  33.257  35.873  1.00  0.00     0.173 A 
ATOM     74  C   UNL A   1      38.418  31.392  36.612  1.00  0.00     0.173 A 
ATOM     75  F   UNL A   1      40.611  33.815  35.028  1.00  0.00    -0.203 F 
ATOM     76  C   UNL A   1      39.255  34.015  36.942  1.00  0.00     0.198 A 
ATOM     77  C   UNL A   1      37.917  32.160  37.662  1.00  0.00     0.198 A 
ATOM     78  F   UNL A   1      37.991  30.128  36.480  1.00  0.00    -0.203 F 
ATOM     79  F   UNL A   1      39.688  35.271  37.116  1.00  0.00    -0.200 F 
ATOM     80  C   UNL A   1      38.343  33.467  37.832  1.00  0.00     0.200 A 
ATOM     81  F   UNL A   1      37.020  31.632  38.508  1.00  0.00    -0.200 F 
ATOM     82  F   UNL A   1      37.880  34.199  38.855  1.00  0.00    -0.200 F 
ENDBRANCH  48  72
BRANCH  60  83
ATOM     83  C   UNL A   1      44.607  27.455  34.775  1.00  0.00     0.064 A 
ATOM     84  C   UNL A   1      44.458  26.308  35.568  1.00  0.00     0.173 A 
ATOM     85  C   UNL A   1      45.824  28.150  34.833  1.00  0.00     0.173 A 
ATOM     86  F   UNL A   1      43.304  25.624  35.558  1.00  0.00    -0.203 F 
ATOM     87  C   UNL A   1      45.483  25.890  36.409  1.00  0.00     0.198 A 
ATOM     88  C   UNL A   1      46.858  27.707  35.648  1.00  0.00     0.198 A 
ATOM     89  F   UNL A   1      46.012  29.249  34.088  1.00  0.00    -0.203 F 
ATOM     90  F   UNL A   1      45.303  24.822  37.200  1.00  0.00    -0.200 F 
ATOM     91  C   UNL A   1      46.684  26.583  36.442  1.00  0.00     0.200 A 
ATOM     92  F   UNL A   1      48.023  28.369  35.668  1.00  0.00    -0.200 F 
ATOM     93  F   UNL A   1      47.674  26.171  37.246  1.00  0.00    -0.200 F 
ENDBRANCH  60  83
ENDBRANCH  34  35
ENDBRANCH  27  29
ENDBRANCH  26  27
ENDBRANCH  25  26
ENDBRANCH   1  25
TORSDOF 15
ENDMDL
