MODEL 1
REMARK VINA RESULT:     -12.5      0.000      0.000
REMARK SMILES COC(=O)[C@H]1C(C)=NC2=C(C(=O)CCC2)[C@H]1c1ccc(C(=O)OCCOC(=O)c2ccc(-c3c4nc(c(-c5c(F)c(F)c(F)c(F)c5F)c5ccc([nH]5)c(-c5c(F)c(F)c(F)c(F)c5F)c5nc(c(-c6c(F)c(F)c(F)c(F)c6F)c6ccc3[nH]6)C=C5)C=C4)cc2)cc1
REMARK SMILES IDX 24 1 23 2 21 3 22 4 20 5 17 6 18 7 93 8 19 9 92 10 16 11
REMARK SMILES IDX 5 12 6 13 7 14 8 15 10 16 9 17 11 18 15 19 12 20 13 21 14 22
REMARK SMILES IDX 3 23 4 24 2 25 1 26 25 27 26 28 27 29 28 30 29 31 30 32
REMARK SMILES IDX 91 33 31 34 90 35 32 36 33 37 34 38 84 39 35 40 89 41 83 42
REMARK SMILES IDX 85 43 36 44 88 45 82 46 81 47 37 49 69 50 49 51 68 52 50 53
REMARK SMILES IDX 53 54 67 55 86 56 51 57 52 58 66 60 87 61 54 62 38 63 39 64
REMARK SMILES IDX 47 65 40 66 41 67 45 68 48 69 42 70 43 71 46 72 44 73 70 74
REMARK SMILES IDX 71 75 79 76 72 77 73 78 77 79 80 80 74 81 75 82 78 83 76 84
REMARK SMILES IDX 55 85 56 86 64 87 57 88 58 89 62 90 65 91 59 92 60 93 63 94
REMARK SMILES IDX 61 95
REMARK H PARENT 85 48 53 59
REMARK Flexibility Score: inf
ROOT
ATOM      1  C   UNL A   1      32.844  29.328  24.228  1.00  0.00     0.275 C 
ENDROOT
BRANCH   1   2
ATOM      2  O   UNL A   1      32.381  28.095  23.639  1.00  0.00    -0.458 OA
BRANCH   2   3
ATOM      3  C   UNL A   1      33.340  27.386  23.001  1.00  0.00     0.338 C 
ATOM      4  O   UNL A   1      33.913  27.686  21.966  1.00  0.00    -0.246 OA
BRANCH   3   5
ATOM      5  C   UNL A   1      33.713  26.191  23.774  1.00  0.00     0.060 A 
ATOM      6  C   UNL A   1      34.066  23.713  25.037  1.00  0.00    -0.039 A 
ATOM      7  C   UNL A   1      34.444  23.890  23.700  1.00  0.00     0.005 A 
ATOM      8  C   UNL A   1      33.563  24.816  25.751  1.00  0.00     0.005 A 
ATOM      9  C   UNL A   1      34.264  25.117  23.078  1.00  0.00     0.016 A 
ATOM     10  C   UNL A   1      33.387  26.058  25.123  1.00  0.00     0.016 A 
BRANCH   6  11
ATOM     11  C   UNL A   1      34.141  22.323  25.673  1.00  0.00     0.075 C 
ATOM     12  C   UNL A   1      33.013  21.379  25.183  1.00  0.00     0.155 C 
ATOM     13  C   UNL A   1      33.498  20.002  24.765  1.00  0.00     0.030 C 
ATOM     14  C   UNL A   1      32.447  18.975  24.399  1.00  0.00     0.063 C 
ATOM     15  N   UNL A   1      34.736  19.640  24.651  1.00  0.00    -0.261 NA
ATOM     16  C   UNL A   1      35.520  21.714  25.545  1.00  0.00     0.025 C 
ATOM     17  C   UNL A   1      35.735  20.505  25.002  1.00  0.00     0.048 C 
ATOM     18  C   UNL A   1      36.685  22.473  26.103  1.00  0.00     0.161 C 
ATOM     19  C   UNL A   1      37.120  19.967  24.723  1.00  0.00     0.057 C 
ATOM     20  O   UNL A   1      36.497  23.449  26.829  1.00  0.00    -0.294 OA
ATOM     21  C   UNL A   1      38.087  21.961  25.859  1.00  0.00     0.081 C 
ATOM     22  C   UNL A   1      38.153  21.081  24.626  1.00  0.00     0.015 C 
BRANCH  12  23
ATOM     23  C   UNL A   1      32.137  21.914  24.059  1.00  0.00     0.315 C 
ATOM     24  O   UNL A   1      32.291  21.656  22.872  1.00  0.00    -0.251 OA
BRANCH  23  25
ATOM     25  O   UNL A   1      31.079  22.606  24.571  1.00  0.00    -0.468 OA
ATOM     26  C   UNL A   1      30.653  23.703  23.757  1.00  0.00     0.282 C 
ENDBRANCH  23  25
ENDBRANCH  12  23
ENDBRANCH   6  11
ENDBRANCH   3   5
ENDBRANCH   2   3
ENDBRANCH   1   2
BRANCH   1  27
ATOM     27  C   UNL A   1      31.778  29.927  25.148  1.00  0.00     0.275 C 
BRANCH  27  28
ATOM     28  O   UNL A   1      32.233  29.905  26.513  1.00  0.00    -0.458 OA
BRANCH  28  29
ATOM     29  C   UNL A   1      32.818  31.044  26.951  1.00  0.00     0.338 C 
ATOM     30  O   UNL A   1      32.334  32.166  26.923  1.00  0.00    -0.246 OA
BRANCH  29  31
ATOM     31  C   UNL A   1      34.168  30.776  27.500  1.00  0.00     0.060 A 
ATOM     32  C   UNL A   1      34.668  29.480  27.626  1.00  0.00     0.016 A 
ATOM     33  C   UNL A   1      34.916  31.844  28.000  1.00  0.00     0.016 A 
ATOM     34  C   UNL A   1      35.827  29.241  28.373  1.00  0.00     0.010 A 
ATOM     35  C   UNL A   1      36.143  31.611  28.634  1.00  0.00     0.010 A 
ATOM     36  C   UNL A   1      36.595  30.303  28.876  1.00  0.00    -0.014 A 
BRANCH  36  37
ATOM     37  C   UNL A   1      37.842  30.070  29.672  1.00  0.00     0.031 A 
ATOM     38  C   UNL A   1      38.977  29.254  29.093  1.00  0.00     0.074 A 
ATOM     39  C   UNL A   1      37.979  30.563  30.920  1.00  0.00     0.049 A 
ATOM     40  N   UNL A   1      40.014  28.726  29.697  1.00  0.00    -0.248 NA
ATOM     41  C   UNL A   1      38.926  28.978  27.649  1.00  0.00     0.031 C 
ATOM     42  C   UNL A   1      37.003  31.397  31.620  1.00  0.00     0.029 A 
ATOM     43  N   UNL A   1      39.008  30.434  31.825  1.00  0.00    -0.354 N 
ATOM     44  C   UNL A   1      40.683  27.987  28.729  1.00  0.00     0.074 A 
ATOM     45  C   UNL A   1      39.950  28.150  27.492  1.00  0.00     0.031 C 
ATOM     46  C   UNL A   1      37.501  31.753  32.813  1.00  0.00     0.029 A 
ATOM     47  C   UNL A   1      38.786  31.093  33.009  1.00  0.00     0.049 A 
ATOM     48  H   UNL A   1      39.826  29.918  31.641  1.00  0.00     0.167 HD
ATOM     49  C   UNL A   1      41.802  27.233  28.862  1.00  0.00     0.037 A 
ATOM     50  C   UNL A   1      39.508  31.135  34.146  1.00  0.00     0.037 A 
ATOM     51  C   UNL A   1      42.591  27.140  30.063  1.00  0.00     0.049 A 
ATOM     52  C   UNL A   1      40.765  30.323  34.261  1.00  0.00     0.074 A 
ATOM     53  C   UNL A   1      43.748  26.412  30.285  1.00  0.00     0.029 A 
ATOM     54  N   UNL A   1      42.322  27.828  31.237  1.00  0.00    -0.354 N 
ATOM     55  N   UNL A   1      41.327  29.543  33.372  1.00  0.00    -0.248 NA
ATOM     56  C   UNL A   1      41.467  30.368  35.552  1.00  0.00     0.031 C 
ATOM     57  C   UNL A   1      44.173  26.649  31.597  1.00  0.00     0.029 A 
ATOM     58  C   UNL A   1      43.296  27.546  32.183  1.00  0.00     0.049 A 
ATOM     59  H   UNL A   1      41.555  28.428  31.377  1.00  0.00     0.167 HD
ATOM     60  C   UNL A   1      42.444  29.002  33.994  1.00  0.00     0.074 A 
ATOM     61  C   UNL A   1      42.496  29.563  35.329  1.00  0.00     0.031 C 
ATOM     62  C   UNL A   1      43.336  28.108  33.505  1.00  0.00     0.037 A 
BRANCH  49  63
ATOM     63  C   UNL A   1      42.235  26.413  27.683  1.00  0.00     0.064 A 
ATOM     64  C   UNL A   1      43.241  26.841  26.809  1.00  0.00     0.173 A 
ATOM     65  C   UNL A   1      41.665  25.148  27.463  1.00  0.00     0.173 A 
ATOM     66  F   UNL A   1      43.808  28.046  26.970  1.00  0.00    -0.203 F 
ATOM     67  C   UNL A   1      43.654  26.040  25.745  1.00  0.00     0.198 A 
ATOM     68  C   UNL A   1      42.095  24.341  26.413  1.00  0.00     0.198 A 
ATOM     69  F   UNL A   1      40.703  24.688  28.277  1.00  0.00    -0.203 F 
ATOM     70  F   UNL A   1      44.596  26.482  24.901  1.00  0.00    -0.200 F 
ATOM     71  C   UNL A   1      43.085  24.789  25.552  1.00  0.00     0.200 A 
ATOM     72  F   UNL A   1      41.552  23.128  26.236  1.00  0.00    -0.200 F 
ATOM     73  F   UNL A   1      43.490  24.016  24.535  1.00  0.00    -0.200 F 
ENDBRANCH  49  63
BRANCH  50  74
ATOM     74  C   UNL A   1      39.029  31.957  35.287  1.00  0.00     0.064 A 
ATOM     75  C   UNL A   1      38.288  31.377  36.325  1.00  0.00     0.173 A 
ATOM     76  C   UNL A   1      39.320  33.326  35.373  1.00  0.00     0.173 A 
ATOM     77  F   UNL A   1      37.959  30.078  36.269  1.00  0.00    -0.203 F 
ATOM     78  C   UNL A   1      37.859  32.138  37.411  1.00  0.00     0.198 A 
ATOM     79  C   UNL A   1      38.914  34.079  36.470  1.00  0.00     0.198 A 
ATOM     80  F   UNL A   1      40.023  33.925  34.399  1.00  0.00    -0.203 F 
ATOM     81  F   UNL A   1      37.127  31.568  38.378  1.00  0.00    -0.200 F 
ATOM     82  C   UNL A   1      38.180  33.485  37.487  1.00  0.00     0.200 A 
ATOM     83  F   UNL A   1      39.236  35.377  36.546  1.00  0.00    -0.200 F 
ATOM     84  F   UNL A   1      37.779  34.213  38.538  1.00  0.00    -0.200 F 
ENDBRANCH  50  74
BRANCH  62  85
ATOM     85  C   UNL A   1      44.449  27.689  34.416  1.00  0.00     0.064 A 
ATOM     86  C   UNL A   1      45.662  28.391  34.451  1.00  0.00     0.173 A 
ATOM     87  C   UNL A   1      44.292  26.594  35.276  1.00  0.00     0.173 A 
ATOM     88  F   UNL A   1      45.862  29.435  33.633  1.00  0.00    -0.203 F 
ATOM     89  C   UNL A   1      46.688  27.998  35.306  1.00  0.00     0.198 A 
ATOM     90  C   UNL A   1      45.315  26.214  36.142  1.00  0.00     0.198 A 
ATOM     91  F   UNL A   1      43.148  25.894  35.278  1.00  0.00    -0.203 F 
ATOM     92  F   UNL A   1      47.853  28.660  35.300  1.00  0.00    -0.200 F 
ATOM     93  C   UNL A   1      46.512  26.913  36.153  1.00  0.00     0.200 A 
ATOM     94  F   UNL A   1      45.142  25.169  36.962  1.00  0.00    -0.200 F 
ATOM     95  F   UNL A   1      47.502  26.536  36.974  1.00  0.00    -0.200 F 
ENDBRANCH  62  85
ENDBRANCH  36  37
ENDBRANCH  29  31
ENDBRANCH  28  29
ENDBRANCH  27  28
ENDBRANCH   1  27
TORSDOF 14
ENDMDL
MODEL 2
REMARK VINA RESULT:     -12.5      1.942      3.399
REMARK SMILES COC(=O)[C@H]1C(C)=NC2=C(C(=O)CCC2)[C@H]1c1ccc(C(=O)OCCOC(=O)c2ccc(-c3c4nc(c(-c5c(F)c(F)c(F)c(F)c5F)c5ccc([nH]5)c(-c5c(F)c(F)c(F)c(F)c5F)c5nc(c(-c6c(F)c(F)c(F)c(F)c6F)c6ccc3[nH]6)C=C5)C=C4)cc2)cc1
REMARK SMILES IDX 24 1 23 2 21 3 22 4 20 5 17 6 18 7 93 8 19 9 92 10 16 11
REMARK SMILES IDX 5 12 6 13 7 14 8 15 10 16 9 17 11 18 15 19 12 20 13 21 14 22
REMARK SMILES IDX 3 23 4 24 2 25 1 26 25 27 26 28 27 29 28 30 29 31 30 32
REMARK SMILES IDX 91 33 31 34 90 35 32 36 33 37 34 38 84 39 35 40 89 41 83 42
REMARK SMILES IDX 85 43 36 44 88 45 82 46 81 47 37 49 69 50 49 51 68 52 50 53
REMARK SMILES IDX 53 54 67 55 86 56 51 57 52 58 66 60 87 61 54 62 38 63 39 64
REMARK SMILES IDX 47 65 40 66 41 67 45 68 48 69 42 70 43 71 46 72 44 73 70 74
REMARK SMILES IDX 71 75 79 76 72 77 73 78 77 79 80 80 74 81 75 82 78 83 76 84
REMARK SMILES IDX 55 85 56 86 64 87 57 88 58 89 62 90 65 91 59 92 60 93 63 94
REMARK SMILES IDX 61 95
REMARK H PARENT 85 48 53 59
REMARK Flexibility Score: inf
ROOT
ATOM      1  C   UNL A   1      31.685  31.366  26.293  1.00  0.00     0.275 C 
ENDROOT
BRANCH   1   2
ATOM      2  O   UNL A   1      31.885  30.323  27.269  1.00  0.00    -0.458 OA
BRANCH   2   3
ATOM      3  C   UNL A   1      33.017  29.603  27.092  1.00  0.00     0.338 C 
ATOM      4  O   UNL A   1      34.166  29.983  27.253  1.00  0.00    -0.246 OA
BRANCH   3   5
ATOM      5  C   UNL A   1      32.704  28.205  26.756  1.00  0.00     0.060 A 
ATOM      6  C   UNL A   1      32.204  25.665  25.681  1.00  0.00    -0.039 A 
ATOM      7  C   UNL A   1      33.518  26.121  25.846  1.00  0.00     0.005 A 
ATOM      8  C   UNL A   1      31.144  26.478  26.121  1.00  0.00     0.005 A 
ATOM      9  C   UNL A   1      33.761  27.380  26.374  1.00  0.00     0.016 A 
ATOM     10  C   UNL A   1      31.390  27.748  26.662  1.00  0.00     0.016 A 
BRANCH   6  11
ATOM     11  C   UNL A   1      31.941  24.333  24.974  1.00  0.00     0.075 C 
ATOM     12  C   UNL A   1      32.080  24.438  23.433  1.00  0.00     0.155 C 
ATOM     13  C   UNL A   1      32.922  23.337  22.812  1.00  0.00     0.030 C 
ATOM     14  C   UNL A   1      32.998  23.288  21.300  1.00  0.00     0.063 C 
ATOM     15  N   UNL A   1      33.617  22.460  23.462  1.00  0.00    -0.261 NA
ATOM     16  C   UNL A   1      32.757  23.205  25.566  1.00  0.00     0.025 C 
ATOM     17  C   UNL A   1      33.563  22.423  24.828  1.00  0.00     0.048 C 
ATOM     18  C   UNL A   1      32.611  22.916  27.028  1.00  0.00     0.161 C 
ATOM     19  C   UNL A   1      34.501  21.407  25.439  1.00  0.00     0.057 C 
ATOM     20  O   UNL A   1      31.700  23.435  27.673  1.00  0.00    -0.294 OA
ATOM     21  C   UNL A   1      33.520  21.895  27.675  1.00  0.00     0.081 C 
ATOM     22  C   UNL A   1      34.810  21.722  26.896  1.00  0.00     0.015 C 
BRANCH  12  23
ATOM     23  C   UNL A   1      32.599  25.765  22.898  1.00  0.00     0.315 C 
ATOM     24  O   UNL A   1      33.777  26.013  22.674  1.00  0.00    -0.251 OA
BRANCH  23  25
ATOM     25  O   UNL A   1      31.559  26.586  22.575  1.00  0.00    -0.468 OA
ATOM     26  C   UNL A   1      31.841  27.978  22.749  1.00  0.00     0.282 C 
ENDBRANCH  23  25
ENDBRANCH  12  23
ENDBRANCH   6  11
ENDBRANCH   3   5
ENDBRANCH   2   3
ENDBRANCH   1   2
BRANCH   1  27
ATOM     27  C   UNL A   1      31.703  32.744  26.957  1.00  0.00     0.275 C 
BRANCH  27  28
ATOM     28  O   UNL A   1      33.054  33.116  27.288  1.00  0.00    -0.458 OA
BRANCH  28  29
ATOM     29  C   UNL A   1      33.180  34.042  28.267  1.00  0.00     0.338 C 
ATOM     30  O   UNL A   1      32.460  35.013  28.445  1.00  0.00    -0.246 OA
BRANCH  29  31
ATOM     31  C   UNL A   1      34.335  33.738  29.146  1.00  0.00     0.060 A 
ATOM     32  C   UNL A   1      35.556  34.397  29.012  1.00  0.00     0.016 A 
ATOM     33  C   UNL A   1      34.225  32.690  30.062  1.00  0.00     0.016 A 
ATOM     34  C   UNL A   1      36.692  33.919  29.676  1.00  0.00     0.010 A 
ATOM     35  C   UNL A   1      35.334  32.299  30.823  1.00  0.00     0.010 A 
ATOM     36  C   UNL A   1      36.598  32.872  30.607  1.00  0.00    -0.014 A 
BRANCH  36  37
ATOM     37  C   UNL A   1      37.799  32.350  31.333  1.00  0.00     0.031 A 
ATOM     38  C   UNL A   1      38.670  31.286  30.705  1.00  0.00     0.074 A 
ATOM     39  C   UNL A   1      38.124  32.800  32.563  1.00  0.00     0.049 A 
ATOM     40  N   UNL A   1      39.585  30.526  31.258  1.00  0.00    -0.248 NA
ATOM     41  C   UNL A   1      38.468  31.025  29.271  1.00  0.00     0.031 C 
ATOM     42  C   UNL A   1      37.418  33.846  33.303  1.00  0.00     0.029 A 
ATOM     43  N   UNL A   1      39.145  32.432  33.410  1.00  0.00    -0.354 N 
ATOM     44  C   UNL A   1      40.000  29.646  30.266  1.00  0.00     0.074 A 
ATOM     45  C   UNL A   1      39.254  29.976  29.070  1.00  0.00     0.031 C 
ATOM     46  C   UNL A   1      38.057  34.077  34.460  1.00  0.00     0.029 A 
ATOM     47  C   UNL A   1      39.158  33.129  34.593  1.00  0.00     0.049 A 
ATOM     48  H   UNL A   1      39.804  31.736  33.188  1.00  0.00     0.167 HD
ATOM     49  C   UNL A   1      40.913  28.647  30.348  1.00  0.00     0.037 A 
ATOM     50  C   UNL A   1      39.935  33.000  35.686  1.00  0.00     0.037 A 
ATOM     51  C   UNL A   1      41.727  28.372  31.503  1.00  0.00     0.049 A 
ATOM     52  C   UNL A   1      40.966  31.912  35.743  1.00  0.00     0.074 A 
ATOM     53  C   UNL A   1      42.688  27.389  31.671  1.00  0.00     0.029 A 
ATOM     54  N   UNL A   1      41.700  29.108  32.678  1.00  0.00    -0.354 N 
ATOM     55  N   UNL A   1      41.273  31.018  34.837  1.00  0.00    -0.248 NA
ATOM     56  C   UNL A   1      41.735  31.792  36.990  1.00  0.00     0.031 C 
ATOM     57  C   UNL A   1      43.235  27.522  32.952  1.00  0.00     0.029 A 
ATOM     58  C   UNL A   1      42.633  28.604  33.571  1.00  0.00     0.049 A 
ATOM     59  H   UNL A   1      41.108  29.874  32.851  1.00  0.00     0.167 HD
ATOM     60  C   UNL A   1      42.263  30.227  35.403  1.00  0.00     0.074 A 
ATOM     61  C   UNL A   1      42.527  30.763  36.722  1.00  0.00     0.031 C 
ATOM     62  C   UNL A   1      42.886  29.144  34.879  1.00  0.00     0.037 A 
BRANCH  49  63
ATOM     63  C   UNL A   1      41.066  27.743  29.160  1.00  0.00     0.064 A 
ATOM     64  C   UNL A   1      40.165  26.705  28.894  1.00  0.00     0.173 A 
ATOM     65  C   UNL A   1      42.108  27.963  28.244  1.00  0.00     0.173 A 
ATOM     66  F   UNL A   1      39.161  26.448  29.745  1.00  0.00    -0.203 F 
ATOM     67  C   UNL A   1      40.308  25.907  27.760  1.00  0.00     0.198 A 
ATOM     68  C   UNL A   1      42.235  27.179  27.101  1.00  0.00     0.198 A 
ATOM     69  F   UNL A   1      42.993  28.950  28.449  1.00  0.00    -0.203 F 
ATOM     70  F   UNL A   1      39.453  24.899  27.540  1.00  0.00    -0.200 F 
ATOM     71  C   UNL A   1      41.338  26.149  26.861  1.00  0.00     0.200 A 
ATOM     72  F   UNL A   1      43.224  27.422  26.229  1.00  0.00    -0.200 F 
ATOM     73  F   UNL A   1      41.468  25.388  25.766  1.00  0.00    -0.200 F 
ENDBRANCH  49  63
BRANCH  50  74
ATOM     74  C   UNL A   1      39.735  33.917  36.837  1.00  0.00     0.064 A 
ATOM     75  C   UNL A   1      38.906  33.552  37.906  1.00  0.00     0.173 A 
ATOM     76  C   UNL A   1      40.383  35.159  36.903  1.00  0.00     0.173 A 
ATOM     77  F   UNL A   1      38.242  32.387  37.872  1.00  0.00    -0.203 F 
ATOM     78  C   UNL A   1      38.735  34.396  39.002  1.00  0.00     0.198 A 
ATOM     79  C   UNL A   1      40.232  35.989  38.010  1.00  0.00     0.198 A 
ATOM     80  F   UNL A   1      41.182  35.553  35.900  1.00  0.00    -0.203 F 
ATOM     81  F   UNL A   1      37.915  34.038  39.999  1.00  0.00    -0.200 F 
ATOM     82  C   UNL A   1      39.406  35.609  39.057  1.00  0.00     0.200 A 
ATOM     83  F   UNL A   1      40.891  37.155  38.064  1.00  0.00    -0.200 F 
ATOM     84  F   UNL A   1      39.253  36.413  40.117  1.00  0.00    -0.200 F 
ENDBRANCH  50  74
BRANCH  62  85
ATOM     85  C   UNL A   1      43.919  28.474  35.731  1.00  0.00     0.064 A 
ATOM     86  C   UNL A   1      43.566  27.486  36.661  1.00  0.00     0.173 A 
ATOM     87  C   UNL A   1      45.275  28.806  35.600  1.00  0.00     0.173 A 
ATOM     88  F   UNL A   1      42.279  27.150  36.831  1.00  0.00    -0.203 F 
ATOM     89  C   UNL A   1      44.535  26.864  37.443  1.00  0.00     0.198 A 
ATOM     90  C   UNL A   1      46.243  28.169  36.372  1.00  0.00     0.198 A 
ATOM     91  F   UNL A   1      45.660  29.744  34.722  1.00  0.00    -0.203 F 
ATOM     92  F   UNL A   1      44.173  25.947  38.351  1.00  0.00    -0.200 F 
ATOM     93  C   UNL A   1      45.872  27.203  37.296  1.00  0.00     0.200 A 
ATOM     94  F   UNL A   1      47.534  28.494  36.226  1.00  0.00    -0.200 F 
ATOM     95  F   UNL A   1      46.803  26.604  38.051  1.00  0.00    -0.200 F 
ENDBRANCH  62  85
ENDBRANCH  36  37
ENDBRANCH  29  31
ENDBRANCH  28  29
ENDBRANCH  27  28
ENDBRANCH   1  27
TORSDOF 14
ENDMDL
MODEL 3
REMARK VINA RESULT:     -12.5      0.350      1.669
REMARK SMILES COC(=O)[C@H]1C(C)=NC2=C(C(=O)CCC2)[C@H]1c1ccc(C(=O)OCCOC(=O)c2ccc(-c3c4nc(c(-c5c(F)c(F)c(F)c(F)c5F)c5ccc([nH]5)c(-c5c(F)c(F)c(F)c(F)c5F)c5nc(c(-c6c(F)c(F)c(F)c(F)c6F)c6ccc3[nH]6)C=C5)C=C4)cc2)cc1
REMARK SMILES IDX 24 1 23 2 21 3 22 4 20 5 17 6 18 7 93 8 19 9 92 10 16 11
REMARK SMILES IDX 5 12 6 13 7 14 8 15 10 16 9 17 11 18 15 19 12 20 13 21 14 22
REMARK SMILES IDX 3 23 4 24 2 25 1 26 25 27 26 28 27 29 28 30 29 31 30 32
REMARK SMILES IDX 91 33 31 34 90 35 32 36 33 37 34 38 84 39 35 40 89 41 83 42
REMARK SMILES IDX 85 43 36 44 88 45 82 46 81 47 37 49 69 50 49 51 68 52 50 53
REMARK SMILES IDX 53 54 67 55 86 56 51 57 52 58 66 60 87 61 54 62 38 63 39 64
REMARK SMILES IDX 47 65 40 66 41 67 45 68 48 69 42 70 43 71 46 72 44 73 70 74
REMARK SMILES IDX 71 75 79 76 72 77 73 78 77 79 80 80 74 81 75 82 78 83 76 84
REMARK SMILES IDX 55 85 56 86 64 87 57 88 58 89 62 90 65 91 59 92 60 93 63 94
REMARK SMILES IDX 61 95
REMARK H PARENT 85 48 53 59
REMARK Flexibility Score: inf
ROOT
ATOM      1  C   UNL A   1      32.081  29.205  23.439  1.00  0.00     0.275 C 
ENDROOT
BRANCH   1   2
ATOM      2  O   UNL A   1      32.090  27.814  23.056  1.00  0.00    -0.458 OA
BRANCH   2   3
ATOM      3  C   UNL A   1      33.305  27.344  22.690  1.00  0.00     0.338 C 
ATOM      4  O   UNL A   1      34.046  27.802  21.835  1.00  0.00    -0.246 OA
BRANCH   3   5
ATOM      5  C   UNL A   1      33.709  26.213  23.540  1.00  0.00     0.060 A 
ATOM      6  C   UNL A   1      34.102  23.848  24.994  1.00  0.00    -0.039 A 
ATOM      7  C   UNL A   1      34.385  23.895  23.622  1.00  0.00     0.005 A 
ATOM      8  C   UNL A   1      33.676  25.024  25.639  1.00  0.00     0.005 A 
ATOM      9  C   UNL A   1      34.185  25.066  22.906  1.00  0.00     0.016 A 
ATOM     10  C   UNL A   1      33.481  26.209  24.915  1.00  0.00     0.016 A 
BRANCH   6  11
ATOM     11  C   UNL A   1      34.195  22.519  25.747  1.00  0.00     0.075 C 
ATOM     12  C   UNL A   1      33.021  21.561  25.417  1.00  0.00     0.155 C 
ATOM     13  C   UNL A   1      33.454  20.142  25.094  1.00  0.00     0.030 C 
ATOM     14  C   UNL A   1      32.363  19.111  24.890  1.00  0.00     0.063 C 
ATOM     15  N   UNL A   1      34.675  19.742  24.934  1.00  0.00    -0.261 NA
ATOM     16  C   UNL A   1      35.552  21.869  25.586  1.00  0.00     0.025 C 
ATOM     17  C   UNL A   1      35.710  20.612  25.141  1.00  0.00     0.048 C 
ATOM     18  C   UNL A   1      36.764  22.648  25.996  1.00  0.00     0.161 C 
ATOM     19  C   UNL A   1      37.064  20.019  24.823  1.00  0.00     0.057 C 
ATOM     20  O   UNL A   1      36.641  23.688  26.643  1.00  0.00    -0.294 OA
ATOM     21  C   UNL A   1      38.138  22.083  25.710  1.00  0.00     0.081 C 
ATOM     22  C   UNL A   1      38.108  21.096  24.560  1.00  0.00     0.015 C 
BRANCH  12  23
ATOM     23  C   UNL A   1      32.082  22.015  24.308  1.00  0.00     0.315 C 
ATOM     24  O   UNL A   1      32.151  21.646  23.142  1.00  0.00    -0.251 OA
BRANCH  23  25
ATOM     25  O   UNL A   1      31.075  22.776  24.822  1.00  0.00    -0.468 OA
ATOM     26  C   UNL A   1      30.654  23.841  23.962  1.00  0.00     0.282 C 
ENDBRANCH  23  25
ENDBRANCH  12  23
ENDBRANCH   6  11
ENDBRANCH   3   5
ENDBRANCH   2   3
ENDBRANCH   1   2
BRANCH   1  27
ATOM     27  C   UNL A   1      31.964  29.351  24.957  1.00  0.00     0.275 C 
BRANCH  27  28
ATOM     28  O   UNL A   1      33.205  29.832  25.505  1.00  0.00    -0.458 OA
BRANCH  28  29
ATOM     29  C   UNL A   1      33.089  30.752  26.492  1.00  0.00     0.338 C 
ATOM     30  O   UNL A   1      32.186  31.563  26.625  1.00  0.00    -0.246 OA
BRANCH  29  31
ATOM     31  C   UNL A   1      34.224  30.663  27.442  1.00  0.00     0.060 A 
ATOM     32  C   UNL A   1      35.036  31.762  27.724  1.00  0.00     0.016 A 
ATOM     33  C   UNL A   1      34.549  29.420  27.987  1.00  0.00     0.016 A 
ATOM     34  C   UNL A   1      36.239  31.589  28.419  1.00  0.00     0.010 A 
ATOM     35  C   UNL A   1      35.686  29.279  28.792  1.00  0.00     0.010 A 
ATOM     36  C   UNL A   1      36.578  30.348  28.981  1.00  0.00    -0.014 A 
BRANCH  36  37
ATOM     37  C   UNL A   1      37.856  30.144  29.734  1.00  0.00     0.031 A 
ATOM     38  C   UNL A   1      38.982  29.341  29.124  1.00  0.00     0.074 A 
ATOM     39  C   UNL A   1      38.029  30.653  30.971  1.00  0.00     0.049 A 
ATOM     40  N   UNL A   1      40.048  28.835  29.696  1.00  0.00    -0.248 NA
ATOM     41  C   UNL A   1      38.885  29.048  27.685  1.00  0.00     0.031 C 
ATOM     42  C   UNL A   1      37.064  31.479  31.697  1.00  0.00     0.029 A 
ATOM     43  N   UNL A   1      39.091  30.551  31.841  1.00  0.00    -0.354 N 
ATOM     44  C   UNL A   1      40.695  28.096  28.713  1.00  0.00     0.074 A 
ATOM     45  C   UNL A   1      39.917  28.235  27.501  1.00  0.00     0.031 C 
ATOM     46  C   UNL A   1      37.598  31.856  32.868  1.00  0.00     0.029 A 
ATOM     47  C   UNL A   1      38.900  31.219  33.024  1.00  0.00     0.049 A 
ATOM     48  H   UNL A   1      39.910  30.046  31.633  1.00  0.00     0.167 HD
ATOM     49  C   UNL A   1      41.831  27.362  28.814  1.00  0.00     0.037 A 
ATOM     50  C   UNL A   1      39.660  31.285  34.135  1.00  0.00     0.037 A 
ATOM     51  C   UNL A   1      42.663  27.296  29.987  1.00  0.00     0.049 A 
ATOM     52  C   UNL A   1      40.934  30.494  34.214  1.00  0.00     0.074 A 
ATOM     53  C   UNL A   1      43.838  26.588  30.175  1.00  0.00     0.029 A 
ATOM     54  N   UNL A   1      42.424  27.992  31.162  1.00  0.00    -0.354 N 
ATOM     55  N   UNL A   1      41.477  29.714  33.313  1.00  0.00    -0.248 NA
ATOM     56  C   UNL A   1      41.680  30.565  35.478  1.00  0.00     0.031 C 
ATOM     57  C   UNL A   1      44.306  26.847  31.469  1.00  0.00     0.029 A 
ATOM     58  C   UNL A   1      43.435  27.735  32.076  1.00  0.00     0.049 A 
ATOM     59  H   UNL A   1      41.653  28.581  31.323  1.00  0.00     0.167 HD
ATOM     60  C   UNL A   1      42.624  29.198  33.901  1.00  0.00     0.074 A 
ATOM     61  C   UNL A   1      42.714  29.774  35.227  1.00  0.00     0.031 C 
ATOM     62  C   UNL A   1      43.513  28.313  33.390  1.00  0.00     0.037 A 
BRANCH  49  63
ATOM     63  C   UNL A   1      42.235  26.536  27.629  1.00  0.00     0.064 A 
ATOM     64  C   UNL A   1      43.206  26.969  26.718  1.00  0.00     0.173 A 
ATOM     65  C   UNL A   1      41.674  25.263  27.439  1.00  0.00     0.173 A 
ATOM     66  F   UNL A   1      43.763  28.182  26.849  1.00  0.00    -0.203 F 
ATOM     67  C   UNL A   1      43.594  26.163  25.649  1.00  0.00     0.198 A 
ATOM     68  C   UNL A   1      42.079  24.451  26.383  1.00  0.00     0.198 A 
ATOM     69  F   UNL A   1      40.745  24.799  28.288  1.00  0.00    -0.203 F 
ATOM     70  F   UNL A   1      44.502  26.608  24.770  1.00  0.00    -0.200 F 
ATOM     71  C   UNL A   1      43.034  24.903  25.486  1.00  0.00     0.200 A 
ATOM     72  F   UNL A   1      41.546  23.230  26.235  1.00  0.00    -0.200 F 
ATOM     73  F   UNL A   1      43.416  24.125  24.463  1.00  0.00    -0.200 F 
ENDBRANCH  49  63
BRANCH  50  74
ATOM     74  C   UNL A   1      39.209  32.112  35.283  1.00  0.00     0.064 A 
ATOM     75  C   UNL A   1      39.527  33.474  35.352  1.00  0.00     0.173 A 
ATOM     76  C   UNL A   1      38.435  31.565  36.317  1.00  0.00     0.173 A 
ATOM     77  F   UNL A   1      40.291  34.033  34.402  1.00  0.00    -0.203 F 
ATOM     78  C   UNL A   1      39.084  34.261  36.414  1.00  0.00     0.198 A 
ATOM     79  C   UNL A   1      37.971  32.357  37.363  1.00  0.00     0.198 A 
ATOM     80  F   UNL A   1      38.110  30.263  36.295  1.00  0.00    -0.203 F 
ATOM     81  F   UNL A   1      39.425  35.555  36.474  1.00  0.00    -0.200 F 
ATOM     82  C   UNL A   1      38.299  33.704  37.413  1.00  0.00     0.200 A 
ATOM     83  F   UNL A   1      37.203  31.818  38.319  1.00  0.00    -0.200 F 
ATOM     84  F   UNL A   1      37.861  34.464  38.425  1.00  0.00    -0.200 F 
ENDBRANCH  50  74
BRANCH  62  85
ATOM     85  C   UNL A   1      44.664  27.922  34.265  1.00  0.00     0.064 A 
ATOM     86  C   UNL A   1      44.590  26.804  35.107  1.00  0.00     0.173 A 
ATOM     87  C   UNL A   1      45.858  28.656  34.241  1.00  0.00     0.173 A 
ATOM     88  F   UNL A   1      43.461  26.082  35.173  1.00  0.00    -0.203 F 
ATOM     89  C   UNL A   1      45.669  26.445  35.911  1.00  0.00     0.198 A 
ATOM     90  C   UNL A   1      46.940  28.284  35.035  1.00  0.00     0.198 A 
ATOM     91  F   UNL A   1      45.975  29.733  33.449  1.00  0.00    -0.203 F 
ATOM     92  F   UNL A   1      45.566  25.393  36.735  1.00  0.00    -0.200 F 
ATOM     93  C   UNL A   1      46.843  27.182  35.871  1.00  0.00     0.200 A 
ATOM     94  F   UNL A   1      48.075  28.994  34.993  1.00  0.00    -0.200 F 
ATOM     95  F   UNL A   1      47.879  26.834  36.647  1.00  0.00    -0.200 F 
ENDBRANCH  62  85
ENDBRANCH  36  37
ENDBRANCH  29  31
ENDBRANCH  28  29
ENDBRANCH  27  28
ENDBRANCH   1  27
TORSDOF 14
ENDMDL
