MODEL 1
REMARK VINA RESULT:     -13.0      0.000      0.000
REMARK SMILES O=C(Cc1ccccc1)Nc1ccc(C(=O)NCc2ccc(C(=O)OCCOC(=O)c3ccc(-c4c5nc(c(-c6c(F)c(F)c(F)c(F)c6F)c6ccc([nH]6)c(-c6c(F)c(F)c(F)c(F)c6F)c6nc(c(-c7c(F)c(F)c(F)c(F)c7F)c7ccc4[nH]7)C=C6)C=C5)cc3)cc2)cc1
REMARK SMILES IDX 23 1 24 2 22 3 19 4 20 5 95 6 21 7 94 8 18 9 17 10 15 11
REMARK SMILES IDX 16 12 14 14 11 15 12 16 97 17 13 18 96 19 10 20 1 21 2 22
REMARK SMILES IDX 3 24 4 25 5 26 9 27 6 28 8 29 7 30 25 31 26 32 27 33 28 34
REMARK SMILES IDX 29 35 30 36 31 37 32 38 93 39 33 40 92 41 34 42 35 43 36 44
REMARK SMILES IDX 86 45 37 46 91 47 85 48 87 49 38 50 90 51 84 52 83 53 39 55
REMARK SMILES IDX 71 56 51 57 70 58 52 59 55 60 69 61 88 62 53 63 54 64 68 66
REMARK SMILES IDX 89 67 56 68 40 69 41 70 49 71 42 72 43 73 47 74 50 75 44 76
REMARK SMILES IDX 45 77 48 78 46 79 72 80 73 81 81 82 74 83 75 84 79 85 82 86
REMARK SMILES IDX 76 87 77 88 80 89 78 90 57 91 58 92 66 93 59 94 60 95 64 96
REMARK SMILES IDX 67 97 61 98 62 99 65 100 63 101
REMARK H PARENT 17 13 10 23 87 54 55 65
REMARK Flexibility Score: inf
ROOT
ATOM      1  C   UNL A   1      40.474  21.569  26.770  1.00  0.00     0.338 C 
ATOM      2  O   UNL A   1      40.784  21.498  27.944  1.00  0.00    -0.246 OA
ENDROOT
BRANCH   1   3
ATOM      3  C   UNL A   1      39.166  22.117  26.334  1.00  0.00     0.060 A 
ATOM      4  C   UNL A   1      36.639  23.239  25.769  1.00  0.00    -0.029 A 
ATOM      5  C   UNL A   1      37.643  23.999  26.387  1.00  0.00     0.006 A 
ATOM      6  C   UNL A   1      36.947  21.924  25.379  1.00  0.00     0.006 A 
ATOM      7  C   UNL A   1      38.876  23.435  26.695  1.00  0.00     0.016 A 
ATOM      8  C   UNL A   1      38.206  21.365  25.652  1.00  0.00     0.016 A 
BRANCH   4   9
ATOM      9  C   UNL A   1      35.247  23.801  25.557  1.00  0.00     0.152 C 
BRANCH   9  10
ATOM     10  N   UNL A   1      34.290  23.220  26.484  1.00  0.00    -0.348 N 
ATOM     11  C   UNL A   1      32.953  23.400  26.721  1.00  0.00     0.251 C 
ATOM     12  O   UNL A   1      32.476  22.795  27.683  1.00  0.00    -0.269 OA
ATOM     13  H   UNL A   1      34.693  22.544  27.075  1.00  0.00     0.164 HD
BRANCH  11  14
ATOM     14  C   UNL A   1      32.047  24.244  25.889  1.00  0.00     0.039 A 
ATOM     15  C   UNL A   1      30.171  25.896  24.573  1.00  0.00     0.041 A 
ATOM     16  C   UNL A   1      30.727  26.302  25.785  1.00  0.00     0.027 A 
ATOM     17  C   UNL A   1      30.636  24.725  23.974  1.00  0.00     0.027 A 
ATOM     18  C   UNL A   1      31.635  25.467  26.447  1.00  0.00     0.016 A 
ATOM     19  C   UNL A   1      31.595  23.926  24.609  1.00  0.00     0.016 A 
BRANCH  15  20
ATOM     20  N   UNL A   1      29.157  26.687  24.006  1.00  0.00    -0.326 N 
ATOM     21  O   UNL A   1      30.485  28.261  22.929  1.00  0.00    -0.274 OA
ATOM     22  C   UNL A   1      29.378  27.814  23.228  1.00  0.00     0.228 C 
ATOM     23  H   UNL A   1      28.223  26.422  24.172  1.00  0.00     0.169 HD
BRANCH  22  24
ATOM     24  C   UNL A   1      28.115  28.519  22.775  1.00  0.00     0.135 C 
BRANCH  24  25
ATOM     25  C   UNL A   1      28.159  30.013  22.529  1.00  0.00    -0.039 A 
ATOM     26  C   UNL A   1      28.333  30.986  23.524  1.00  0.00     0.004 A 
ATOM     27  C   UNL A   1      28.034  30.446  21.196  1.00  0.00     0.004 A 
ATOM     28  C   UNL A   1      28.436  32.340  23.186  1.00  0.00     0.000 A 
ATOM     29  C   UNL A   1      28.113  31.798  20.863  1.00  0.00     0.000 A 
ATOM     30  C   UNL A   1      28.329  32.746  21.858  1.00  0.00     0.000 A 
ENDBRANCH  24  25
ENDBRANCH  22  24
ENDBRANCH  15  20
ENDBRANCH  11  14
ENDBRANCH   9  10
ENDBRANCH   4   9
ENDBRANCH   1   3
BRANCH   1  31
ATOM     31  O   UNL A   1      41.256  21.246  25.708  1.00  0.00    -0.458 OA
BRANCH  31  32
ATOM     32  C   UNL A   1      42.601  20.853  26.051  1.00  0.00     0.275 C 
BRANCH  32  33
ATOM     33  C   UNL A   1      43.630  21.731  25.340  1.00  0.00     0.275 C 
BRANCH  33  34
ATOM     34  O   UNL A   1      43.065  23.024  25.063  1.00  0.00    -0.458 OA
BRANCH  34  35
ATOM     35  C   UNL A   1      43.919  24.069  25.115  1.00  0.00     0.338 C 
ATOM     36  O   UNL A   1      44.817  24.335  24.325  1.00  0.00    -0.246 OA
BRANCH  35  37
ATOM     37  C   UNL A   1      43.638  24.889  26.305  1.00  0.00     0.060 A 
ATOM     38  C   UNL A   1      42.767  24.421  27.288  1.00  0.00     0.016 A 
ATOM     39  C   UNL A   1      44.157  26.180  26.394  1.00  0.00     0.016 A 
ATOM     40  C   UNL A   1      42.354  25.262  28.323  1.00  0.00     0.010 A 
ATOM     41  C   UNL A   1      43.804  26.996  27.475  1.00  0.00     0.010 A 
ATOM     42  C   UNL A   1      42.869  26.561  28.433  1.00  0.00    -0.014 A 
BRANCH  42  43
ATOM     43  C   UNL A   1      42.390  27.486  29.500  1.00  0.00     0.031 A 
ATOM     44  C   UNL A   1      43.147  27.596  30.799  1.00  0.00     0.074 A 
ATOM     45  C   UNL A   1      41.285  28.237  29.322  1.00  0.00     0.049 A 
ATOM     46  N   UNL A   1      42.806  28.196  31.914  1.00  0.00    -0.248 NA
ATOM     47  C   UNL A   1      44.455  26.927  30.856  1.00  0.00     0.031 C 
ATOM     48  C   UNL A   1      40.468  28.266  28.112  1.00  0.00     0.029 A 
ATOM     49  N   UNL A   1      40.661  29.125  30.167  1.00  0.00    -0.354 N 
ATOM     50  C   UNL A   1      43.823  27.921  32.819  1.00  0.00     0.074 A 
ATOM     51  C   UNL A   1      44.796  27.104  32.125  1.00  0.00     0.031 C 
ATOM     52  C   UNL A   1      39.469  29.147  28.277  1.00  0.00     0.029 A 
ATOM     53  C   UNL A   1      39.531  29.689  29.631  1.00  0.00     0.049 A 
ATOM     54  H   UNL A   1      40.994  29.335  31.069  1.00  0.00     0.167 HD
ATOM     55  C   UNL A   1      43.935  28.311  34.112  1.00  0.00     0.037 A 
ATOM     56  C   UNL A   1      38.621  30.520  30.175  1.00  0.00     0.037 A 
ATOM     57  C   UNL A   1      43.006  29.180  34.787  1.00  0.00     0.049 A 
ATOM     58  C   UNL A   1      38.771  30.956  31.606  1.00  0.00     0.074 A 
ATOM     59  C   UNL A   1      43.052  29.651  36.087  1.00  0.00     0.029 A 
ATOM     60  N   UNL A   1      41.871  29.725  34.205  1.00  0.00    -0.354 N 
ATOM     61  N   UNL A   1      39.705  30.641  32.470  1.00  0.00    -0.248 NA
ATOM     62  C   UNL A   1      37.732  31.846  32.140  1.00  0.00     0.031 C 
ATOM     63  C   UNL A   1      41.931  30.462  36.301  1.00  0.00     0.029 A 
ATOM     64  C   UNL A   1      41.205  30.522  35.124  1.00  0.00     0.049 A 
ATOM     65  H   UNL A   1      41.581  29.568  33.278  1.00  0.00     0.167 HD
ATOM     66  C   UNL A   1      39.364  31.286  33.650  1.00  0.00     0.074 A 
ATOM     67  C   UNL A   1      38.153  32.036  33.384  1.00  0.00     0.031 C 
ATOM     68  C   UNL A   1      39.994  31.251  34.849  1.00  0.00     0.037 A 
BRANCH  55  69
ATOM     69  C   UNL A   1      45.093  27.768  34.898  1.00  0.00     0.064 A 
ATOM     70  C   UNL A   1      46.328  28.429  34.954  1.00  0.00     0.173 A 
ATOM     71  C   UNL A   1      44.951  26.573  35.621  1.00  0.00     0.173 A 
ATOM     72  F   UNL A   1      46.517  29.567  34.271  1.00  0.00    -0.203 F 
ATOM     73  C   UNL A   1      47.389  27.899  35.684  1.00  0.00     0.198 A 
ATOM     74  C   UNL A   1      46.007  26.060  36.369  1.00  0.00     0.198 A 
ATOM     75  F   UNL A   1      43.788  25.906  35.604  1.00  0.00    -0.203 F 
ATOM     76  F   UNL A   1      48.576  28.522  35.687  1.00  0.00    -0.200 F 
ATOM     77  C   UNL A   1      47.226  26.718  36.393  1.00  0.00     0.200 A 
ATOM     78  F   UNL A   1      45.845  24.925  37.064  1.00  0.00    -0.200 F 
ATOM     79  F   UNL A   1      48.249  26.210  37.095  1.00  0.00    -0.200 F 
ENDBRANCH  55  69
BRANCH  56  80
ATOM     80  C   UNL A   1      37.459  30.960  29.360  1.00  0.00     0.064 A 
ATOM     81  C   UNL A   1      36.395  30.088  29.090  1.00  0.00     0.173 A 
ATOM     82  C   UNL A   1      37.376  32.270  28.866  1.00  0.00     0.173 A 
ATOM     83  F   UNL A   1      36.446  28.818  29.515  1.00  0.00    -0.203 F 
ATOM     84  C   UNL A   1      35.289  30.514  28.359  1.00  0.00     0.198 A 
ATOM     85  C   UNL A   1      36.257  32.701  28.158  1.00  0.00     0.198 A 
ATOM     86  F   UNL A   1      38.371  33.138  29.096  1.00  0.00    -0.203 F 
ATOM     87  F   UNL A   1      34.296  29.656  28.090  1.00  0.00    -0.200 F 
ATOM     88  C   UNL A   1      35.215  31.822  27.903  1.00  0.00     0.200 A 
ATOM     89  F   UNL A   1      36.186  33.968  27.730  1.00  0.00    -0.200 F 
ATOM     90  F   UNL A   1      34.143  32.235  27.215  1.00  0.00    -0.200 F 
ENDBRANCH  56  80
BRANCH  68  91
ATOM     91  C   UNL A   1      39.383  32.044  35.965  1.00  0.00     0.064 A 
ATOM     92  C   UNL A   1      39.743  33.382  36.189  1.00  0.00     0.173 A 
ATOM     93  C   UNL A   1      38.409  31.476  36.797  1.00  0.00     0.173 A 
ATOM     94  F   UNL A   1      40.682  33.964  35.428  1.00  0.00    -0.203 F 
ATOM     95  C   UNL A   1      39.162  34.115  37.221  1.00  0.00     0.198 A 
ATOM     96  C   UNL A   1      37.816  32.218  37.814  1.00  0.00     0.198 A 
ATOM     97  F   UNL A   1      38.029  30.201  36.619  1.00  0.00    -0.203 F 
ATOM     98  F   UNL A   1      39.548  35.379  37.442  1.00  0.00    -0.200 F 
ATOM     99  C   UNL A   1      38.196  33.534  38.029  1.00  0.00     0.200 A 
ATOM    100  F   UNL A   1      36.877  31.658  38.591  1.00  0.00    -0.200 F 
ATOM    101  F   UNL A   1      37.637  34.241  39.021  1.00  0.00    -0.200 F 
ENDBRANCH  68  91
ENDBRANCH  42  43
ENDBRANCH  35  37
ENDBRANCH  34  35
ENDBRANCH  33  34
ENDBRANCH  32  33
ENDBRANCH  31  32
ENDBRANCH   1  31
TORSDOF 17
ENDMDL
MODEL 2
REMARK VINA RESULT:     -12.8      4.549      9.354
REMARK SMILES O=C(Cc1ccccc1)Nc1ccc(C(=O)NCc2ccc(C(=O)OCCOC(=O)c3ccc(-c4c5nc(c(-c6c(F)c(F)c(F)c(F)c6F)c6ccc([nH]6)c(-c6c(F)c(F)c(F)c(F)c6F)c6nc(c(-c7c(F)c(F)c(F)c(F)c7F)c7ccc4[nH]7)C=C6)C=C5)cc3)cc2)cc1
REMARK SMILES IDX 23 1 24 2 22 3 19 4 20 5 95 6 21 7 94 8 18 9 17 10 15 11
REMARK SMILES IDX 16 12 14 14 11 15 12 16 97 17 13 18 96 19 10 20 1 21 2 22
REMARK SMILES IDX 3 24 4 25 5 26 9 27 6 28 8 29 7 30 25 31 26 32 27 33 28 34
REMARK SMILES IDX 29 35 30 36 31 37 32 38 93 39 33 40 92 41 34 42 35 43 36 44
REMARK SMILES IDX 86 45 37 46 91 47 85 48 87 49 38 50 90 51 84 52 83 53 39 55
REMARK SMILES IDX 71 56 51 57 70 58 52 59 55 60 69 61 88 62 53 63 54 64 68 66
REMARK SMILES IDX 89 67 56 68 40 69 41 70 49 71 42 72 43 73 47 74 50 75 44 76
REMARK SMILES IDX 45 77 48 78 46 79 72 80 73 81 81 82 74 83 75 84 79 85 82 86
REMARK SMILES IDX 76 87 77 88 80 89 78 90 57 91 58 92 66 93 59 94 60 95 64 96
REMARK SMILES IDX 67 97 61 98 62 99 65 100 63 101
REMARK H PARENT 17 13 10 23 87 54 55 65
REMARK Flexibility Score: inf
ROOT
ATOM      1  C   UNL A   1      34.662  22.251  26.615  1.00  0.00     0.338 C 
ATOM      2  O   UNL A   1      34.297  21.523  27.519  1.00  0.00    -0.246 OA
ENDROOT
BRANCH   1   3
ATOM      3  C   UNL A   1      33.962  23.519  26.296  1.00  0.00     0.060 A 
ATOM      4  C   UNL A   1      32.830  26.062  25.831  1.00  0.00    -0.029 A 
ATOM      5  C   UNL A   1      34.166  25.796  25.495  1.00  0.00     0.006 A 
ATOM      6  C   UNL A   1      32.051  25.009  26.343  1.00  0.00     0.006 A 
ATOM      7  C   UNL A   1      34.731  24.552  25.756  1.00  0.00     0.016 A 
ATOM      8  C   UNL A   1      32.609  23.741  26.569  1.00  0.00     0.016 A 
BRANCH   4   9
ATOM      9  C   UNL A   1      32.245  27.453  25.682  1.00  0.00     0.152 C 
BRANCH   9  10
ATOM     10  N   UNL A   1      31.969  27.770  24.290  1.00  0.00    -0.348 N 
ATOM     11  C   UNL A   1      31.833  27.030  23.147  1.00  0.00     0.251 C 
ATOM     12  O   UNL A   1      31.700  27.658  22.094  1.00  0.00    -0.269 OA
ATOM     13  H   UNL A   1      31.855  28.736  24.135  1.00  0.00     0.164 HD
BRANCH  11  14
ATOM     14  C   UNL A   1      31.805  25.539  23.096  1.00  0.00     0.039 A 
ATOM     15  C   UNL A   1      31.901  22.740  22.728  1.00  0.00     0.041 A 
ATOM     16  C   UNL A   1      33.039  23.511  22.502  1.00  0.00     0.027 A 
ATOM     17  C   UNL A   1      30.758  23.355  23.239  1.00  0.00     0.027 A 
ATOM     18  C   UNL A   1      32.980  24.901  22.659  1.00  0.00     0.016 A 
ATOM     19  C   UNL A   1      30.724  24.738  23.459  1.00  0.00     0.016 A 
BRANCH  15  20
ATOM     20  N   UNL A   1      31.953  21.368  22.423  1.00  0.00    -0.326 N 
ATOM     21  O   UNL A   1      32.375  20.540  24.553  1.00  0.00    -0.274 OA
ATOM     22  C   UNL A   1      32.189  20.363  23.350  1.00  0.00     0.228 C 
ATOM     23  H   UNL A   1      31.811  21.102  21.485  1.00  0.00     0.169 HD
BRANCH  22  24
ATOM     24  C   UNL A   1      32.242  18.968  22.759  1.00  0.00     0.135 C 
BRANCH  24  25
ATOM     25  C   UNL A   1      32.896  17.860  23.559  1.00  0.00    -0.039 A 
ATOM     26  C   UNL A   1      34.041  17.152  23.165  1.00  0.00     0.004 A 
ATOM     27  C   UNL A   1      32.313  17.537  24.799  1.00  0.00     0.004 A 
ATOM     28  C   UNL A   1      34.614  16.196  24.011  1.00  0.00     0.000 A 
ATOM     29  C   UNL A   1      32.872  16.567  25.631  1.00  0.00     0.000 A 
ATOM     30  C   UNL A   1      34.033  15.905  25.242  1.00  0.00     0.000 A 
ENDBRANCH  24  25
ENDBRANCH  22  24
ENDBRANCH  15  20
ENDBRANCH  11  14
ENDBRANCH   9  10
ENDBRANCH   4   9
ENDBRANCH   1   3
BRANCH   1  31
ATOM     31  O   UNL A   1      35.757  22.077  25.830  1.00  0.00    -0.458 OA
BRANCH  31  32
ATOM     32  C   UNL A   1      35.835  20.787  25.188  1.00  0.00     0.275 C 
BRANCH  32  33
ATOM     33  C   UNL A   1      37.288  20.352  25.000  1.00  0.00     0.275 C 
BRANCH  33  34
ATOM     34  O   UNL A   1      38.170  21.452  25.283  1.00  0.00    -0.458 OA
BRANCH  34  35
ATOM     35  C   UNL A   1      39.176  21.199  26.148  1.00  0.00     0.338 C 
ATOM     36  O   UNL A   1      39.609  20.103  26.485  1.00  0.00    -0.246 OA
BRANCH  35  37
ATOM     37  C   UNL A   1      39.714  22.463  26.678  1.00  0.00     0.060 A 
ATOM     38  C   UNL A   1      39.209  23.681  26.226  1.00  0.00     0.016 A 
ATOM     39  C   UNL A   1      40.804  22.441  27.547  1.00  0.00     0.016 A 
ATOM     40  C   UNL A   1      39.833  24.878  26.582  1.00  0.00     0.010 A 
ATOM     41  C   UNL A   1      41.380  23.645  27.967  1.00  0.00     0.010 A 
ATOM     42  C   UNL A   1      40.927  24.877  27.460  1.00  0.00    -0.014 A 
BRANCH  42  43
ATOM     43  C   UNL A   1      41.636  26.144  27.800  1.00  0.00     0.031 A 
ATOM     44  C   UNL A   1      40.933  27.211  28.601  1.00  0.00     0.074 A 
ATOM     45  C   UNL A   1      42.907  26.355  27.406  1.00  0.00     0.049 A 
ATOM     46  N   UNL A   1      41.300  28.445  28.847  1.00  0.00    -0.248 NA
ATOM     47  C   UNL A   1      39.636  26.844  29.188  1.00  0.00     0.031 C 
ATOM     48  C   UNL A   1      43.728  25.406  26.657  1.00  0.00     0.029 A 
ATOM     49  N   UNL A   1      43.731  27.440  27.585  1.00  0.00    -0.354 N 
ATOM     50  C   UNL A   1      40.253  29.018  29.559  1.00  0.00     0.074 A 
ATOM     51  C   UNL A   1      39.238  27.997  29.709  1.00  0.00     0.031 C 
ATOM     52  C   UNL A   1      44.947  25.935  26.466  1.00  0.00     0.029 A 
ATOM     53  C   UNL A   1      44.970  27.289  27.012  1.00  0.00     0.049 A 
ATOM     54  H   UNL A   1      43.460  28.248  28.078  1.00  0.00     0.167 HD
ATOM     55  C   UNL A   1      40.146  30.279  30.041  1.00  0.00     0.037 A 
ATOM     56  C   UNL A   1      45.998  28.152  26.902  1.00  0.00     0.037 A 
ATOM     57  C   UNL A   1      41.181  31.278  29.955  1.00  0.00     0.049 A 
ATOM     58  C   UNL A   1      45.867  29.542  27.458  1.00  0.00     0.074 A 
ATOM     59  C   UNL A   1      41.173  32.575  30.438  1.00  0.00     0.029 A 
ATOM     60  N   UNL A   1      42.418  31.082  29.360  1.00  0.00    -0.354 N 
ATOM     61  N   UNL A   1      44.850  30.091  28.076  1.00  0.00    -0.248 NA
ATOM     62  C   UNL A   1      47.020  30.437  27.284  1.00  0.00     0.031 C 
ATOM     63  C   UNL A   1      42.397  33.172  30.114  1.00  0.00     0.029 A 
ATOM     64  C   UNL A   1      43.180  32.236  29.459  1.00  0.00     0.049 A 
ATOM     65  H   UNL A   1      42.713  30.246  28.931  1.00  0.00     0.167 HD
ATOM     66  C   UNL A   1      45.234  31.394  28.358  1.00  0.00     0.074 A 
ATOM     67  C   UNL A   1      46.590  31.547  27.871  1.00  0.00     0.031 C 
ATOM     68  C   UNL A   1      44.521  32.378  28.958  1.00  0.00     0.037 A 
BRANCH  55  69
ATOM     69  C   UNL A   1      38.844  30.666  30.677  1.00  0.00     0.064 A 
ATOM     70  C   UNL A   1      38.663  30.654  32.067  1.00  0.00     0.173 A 
ATOM     71  C   UNL A   1      37.764  31.073  29.877  1.00  0.00     0.173 A 
ATOM     72  F   UNL A   1      39.660  30.261  32.874  1.00  0.00    -0.203 F 
ATOM     73  C   UNL A   1      37.440  31.009  32.633  1.00  0.00     0.198 A 
ATOM     74  C   UNL A   1      36.552  31.451  30.446  1.00  0.00     0.198 A 
ATOM     75  F   UNL A   1      37.889  31.108  28.542  1.00  0.00    -0.203 F 
ATOM     76  F   UNL A   1      37.275  30.946  33.961  1.00  0.00    -0.200 F 
ATOM     77  C   UNL A   1      36.388  31.411  31.822  1.00  0.00     0.200 A 
ATOM     78  F   UNL A   1      35.540  31.850  29.663  1.00  0.00    -0.200 F 
ATOM     79  F   UNL A   1      35.213  31.752  32.368  1.00  0.00    -0.200 F 
ENDBRANCH  55  69
BRANCH  56  80
ATOM     80  C   UNL A   1      47.232  27.725  26.193  1.00  0.00     0.064 A 
ATOM     81  C   UNL A   1      48.348  27.261  26.902  1.00  0.00     0.173 A 
ATOM     82  C   UNL A   1      47.305  27.741  24.792  1.00  0.00     0.173 A 
ATOM     83  F   UNL A   1      48.335  27.258  28.243  1.00  0.00    -0.203 F 
ATOM     84  C   UNL A   1      49.490  26.825  26.235  1.00  0.00     0.198 A 
ATOM     85  C   UNL A   1      48.437  27.280  24.126  1.00  0.00     0.198 A 
ATOM     86  F   UNL A   1      46.263  28.181  24.071  1.00  0.00    -0.203 F 
ATOM     87  F   UNL A   1      50.555  26.410  26.934  1.00  0.00    -0.200 F 
ATOM     88  C   UNL A   1      49.530  26.824  24.848  1.00  0.00     0.200 A 
ATOM     89  F   UNL A   1      48.466  27.270  22.787  1.00  0.00    -0.200 F 
ATOM     90  F   UNL A   1      50.622  26.388  24.207  1.00  0.00    -0.200 F 
ENDBRANCH  56  80
BRANCH  68  91
ATOM     91  C   UNL A   1      45.195  33.707  29.119  1.00  0.00     0.064 A 
ATOM     92  C   UNL A   1      46.061  33.959  30.195  1.00  0.00     0.173 A 
ATOM     93  C   UNL A   1      45.000  34.727  28.177  1.00  0.00     0.173 A 
ATOM     94  F   UNL A   1      46.267  33.019  31.129  1.00  0.00    -0.203 F 
ATOM     95  C   UNL A   1      46.691  35.194  30.330  1.00  0.00     0.198 A 
ATOM     96  C   UNL A   1      45.648  35.953  28.306  1.00  0.00     0.198 A 
ATOM     97  F   UNL A   1      44.185  34.532  27.130  1.00  0.00    -0.203 F 
ATOM     98  F   UNL A   1      47.484  35.426  31.385  1.00  0.00    -0.200 F 
ATOM     99  C   UNL A   1      46.488  36.187  29.384  1.00  0.00     0.200 A 
ATOM    100  F   UNL A   1      45.456  36.910  27.387  1.00  0.00    -0.200 F 
ATOM    101  F   UNL A   1      47.096  37.374  29.515  1.00  0.00    -0.200 F 
ENDBRANCH  68  91
ENDBRANCH  42  43
ENDBRANCH  35  37
ENDBRANCH  34  35
ENDBRANCH  33  34
ENDBRANCH  32  33
ENDBRANCH  31  32
ENDBRANCH   1  31
TORSDOF 17
ENDMDL
MODEL 3
REMARK VINA RESULT:     -12.8      0.505      7.038
REMARK SMILES O=C(Cc1ccccc1)Nc1ccc(C(=O)NCc2ccc(C(=O)OCCOC(=O)c3ccc(-c4c5nc(c(-c6c(F)c(F)c(F)c(F)c6F)c6ccc([nH]6)c(-c6c(F)c(F)c(F)c(F)c6F)c6nc(c(-c7c(F)c(F)c(F)c(F)c7F)c7ccc4[nH]7)C=C6)C=C5)cc3)cc2)cc1
REMARK SMILES IDX 23 1 24 2 22 3 19 4 20 5 95 6 21 7 94 8 18 9 17 10 15 11
REMARK SMILES IDX 16 12 14 14 11 15 12 16 97 17 13 18 96 19 10 20 1 21 2 22
REMARK SMILES IDX 3 24 4 25 5 26 9 27 6 28 8 29 7 30 25 31 26 32 27 33 28 34
REMARK SMILES IDX 29 35 30 36 31 37 32 38 93 39 33 40 92 41 34 42 35 43 36 44
REMARK SMILES IDX 86 45 37 46 91 47 85 48 87 49 38 50 90 51 84 52 83 53 39 55
REMARK SMILES IDX 71 56 51 57 70 58 52 59 55 60 69 61 88 62 53 63 54 64 68 66
REMARK SMILES IDX 89 67 56 68 40 69 41 70 49 71 42 72 43 73 47 74 50 75 44 76
REMARK SMILES IDX 45 77 48 78 46 79 72 80 73 81 81 82 74 83 75 84 79 85 82 86
REMARK SMILES IDX 76 87 77 88 80 89 78 90 57 91 58 92 66 93 59 94 60 95 64 96
REMARK SMILES IDX 67 97 61 98 62 99 65 100 63 101
REMARK H PARENT 17 13 10 23 87 54 55 65
REMARK Flexibility Score: inf
ROOT
ATOM      1  C   UNL A   1      40.606  21.599  26.670  1.00  0.00     0.338 C 
ATOM      2  O   UNL A   1      40.815  21.340  27.840  1.00  0.00    -0.246 OA
ENDROOT
BRANCH   1   3
ATOM      3  C   UNL A   1      39.297  22.115  26.201  1.00  0.00     0.060 A 
ATOM      4  C   UNL A   1      36.748  23.150  25.575  1.00  0.00    -0.029 A 
ATOM      5  C   UNL A   1      37.667  23.902  26.321  1.00  0.00     0.006 A 
ATOM      6  C   UNL A   1      37.155  21.895  25.090  1.00  0.00     0.006 A 
ATOM      7  C   UNL A   1      38.910  23.377  26.658  1.00  0.00     0.016 A 
ATOM      8  C   UNL A   1      38.425  21.380  25.394  1.00  0.00     0.016 A 
BRANCH   4   9
ATOM      9  C   UNL A   1      35.341  23.656  25.324  1.00  0.00     0.152 C 
BRANCH   9  10
ATOM     10  N   UNL A   1      34.390  23.073  26.256  1.00  0.00    -0.348 N 
ATOM     11  C   UNL A   1      33.064  23.281  26.529  1.00  0.00     0.251 C 
ATOM     12  O   UNL A   1      32.593  22.661  27.484  1.00  0.00    -0.269 OA
ATOM     13  H   UNL A   1      34.789  22.371  26.819  1.00  0.00     0.164 HD
BRANCH  11  14
ATOM     14  C   UNL A   1      32.162  24.170  25.741  1.00  0.00     0.039 A 
ATOM     15  C   UNL A   1      30.276  25.870  24.503  1.00  0.00     0.041 A 
ATOM     16  C   UNL A   1      30.737  26.159  25.786  1.00  0.00     0.027 A 
ATOM     17  C   UNL A   1      30.838  24.800  23.807  1.00  0.00     0.027 A 
ATOM     18  C   UNL A   1      31.651  25.299  26.407  1.00  0.00     0.016 A 
ATOM     19  C   UNL A   1      31.803  23.980  24.408  1.00  0.00     0.016 A 
BRANCH  15  20
ATOM     20  N   UNL A   1      29.253  26.671  23.966  1.00  0.00    -0.326 N 
ATOM     21  O   UNL A   1      30.538  28.474  23.262  1.00  0.00    -0.274 OA
ATOM     22  C   UNL A   1      29.449  27.916  23.386  1.00  0.00     0.228 C 
ATOM     23  H   UNL A   1      28.332  26.324  24.003  1.00  0.00     0.169 HD
BRANCH  22  24
ATOM     24  C   UNL A   1      28.177  28.598  22.925  1.00  0.00     0.135 C 
BRANCH  24  25
ATOM     25  C   UNL A   1      28.241  30.048  22.489  1.00  0.00    -0.039 A 
ATOM     26  C   UNL A   1      28.079  30.499  21.171  1.00  0.00     0.004 A 
ATOM     27  C   UNL A   1      28.462  31.009  23.494  1.00  0.00     0.004 A 
ATOM     28  C   UNL A   1      28.080  31.867  20.881  1.00  0.00     0.000 A 
ATOM     29  C   UNL A   1      28.486  32.372  23.199  1.00  0.00     0.000 A 
ATOM     30  C   UNL A   1      28.280  32.803  21.892  1.00  0.00     0.000 A 
ENDBRANCH  24  25
ENDBRANCH  22  24
ENDBRANCH  15  20
ENDBRANCH  11  14
ENDBRANCH   9  10
ENDBRANCH   4   9
ENDBRANCH   1   3
BRANCH   1  31
ATOM     31  O   UNL A   1      41.508  21.535  25.657  1.00  0.00    -0.458 OA
BRANCH  31  32
ATOM     32  C   UNL A   1      42.846  21.183  26.065  1.00  0.00     0.275 C 
BRANCH  32  33
ATOM     33  C   UNL A   1      43.881  22.093  25.406  1.00  0.00     0.275 C 
BRANCH  33  34
ATOM     34  O   UNL A   1      43.257  23.317  24.978  1.00  0.00    -0.458 OA
BRANCH  34  35
ATOM     35  C   UNL A   1      43.969  24.447  25.174  1.00  0.00     0.338 C 
ATOM     36  O   UNL A   1      45.006  24.779  24.612  1.00  0.00    -0.246 OA
BRANCH  35  37
ATOM     37  C   UNL A   1      43.325  25.274  26.207  1.00  0.00     0.060 A 
ATOM     38  C   UNL A   1      43.730  26.595  26.398  1.00  0.00     0.016 A 
ATOM     39  C   UNL A   1      42.390  24.703  27.068  1.00  0.00     0.016 A 
ATOM     40  C   UNL A   1      43.257  27.327  27.489  1.00  0.00     0.010 A 
ATOM     41  C   UNL A   1      41.856  25.462  28.116  1.00  0.00     0.010 A 
ATOM     42  C   UNL A   1      42.311  26.771  28.362  1.00  0.00    -0.014 A 
BRANCH  42  43
ATOM     43  C   UNL A   1      41.844  27.523  29.563  1.00  0.00     0.031 A 
ATOM     44  C   UNL A   1      40.560  28.310  29.508  1.00  0.00     0.074 A 
ATOM     45  C   UNL A   1      42.553  27.508  30.709  1.00  0.00     0.049 A 
ATOM     46  N   UNL A   1      40.072  29.169  30.370  1.00  0.00    -0.248 NA
ATOM     47  C   UNL A   1      39.721  28.117  28.316  1.00  0.00     0.031 C 
ATOM     48  C   UNL A   1      43.794  26.768  30.926  1.00  0.00     0.029 A 
ATOM     49  N   UNL A   1      42.325  28.137  31.910  1.00  0.00    -0.354 N 
ATOM     50  C   UNL A   1      38.908  29.665  29.794  1.00  0.00     0.074 A 
ATOM     51  C   UNL A   1      38.760  29.009  28.512  1.00  0.00     0.031 C 
ATOM     52  C   UNL A   1      44.203  26.959  32.190  1.00  0.00     0.029 A 
ATOM     53  C   UNL A   1      43.296  27.894  32.849  1.00  0.00     0.049 A 
ATOM     54  H   UNL A   1      41.540  28.706  32.079  1.00  0.00     0.167 HD
ATOM     55  C   UNL A   1      38.044  30.584  30.287  1.00  0.00     0.037 A 
ATOM     56  C   UNL A   1      43.464  28.394  34.088  1.00  0.00     0.037 A 
ATOM     57  C   UNL A   1      38.150  31.188  31.591  1.00  0.00     0.049 A 
ATOM     58  C   UNL A   1      42.485  29.400  34.625  1.00  0.00     0.074 A 
ATOM     59  C   UNL A   1      37.307  32.110  32.187  1.00  0.00     0.029 A 
ATOM     60  N   UNL A   1      39.154  30.916  32.507  1.00  0.00    -0.354 N 
ATOM     61  N   UNL A   1      41.422  29.906  34.049  1.00  0.00    -0.248 NA
ATOM     62  C   UNL A   1      42.741  29.918  35.977  1.00  0.00     0.031 C 
ATOM     63  C   UNL A   1      37.814  32.414  33.456  1.00  0.00     0.029 A 
ATOM     64  C   UNL A   1      38.955  31.656  33.663  1.00  0.00     0.049 A 
ATOM     65  H   UNL A   1      39.898  30.289  32.360  1.00  0.00     0.167 HD
ATOM     66  C   UNL A   1      40.887  30.805  34.960  1.00  0.00     0.074 A 
ATOM     67  C   UNL A   1      41.724  30.754  36.141  1.00  0.00     0.031 C 
ATOM     68  C   UNL A   1      39.803  31.606  34.824  1.00  0.00     0.037 A 
BRANCH  55  69
ATOM     69  C   UNL A   1      36.921  31.023  29.395  1.00  0.00     0.064 A 
ATOM     70  C   UNL A   1      35.828  30.191  29.113  1.00  0.00     0.173 A 
ATOM     71  C   UNL A   1      36.934  32.308  28.829  1.00  0.00     0.173 A 
ATOM     72  F   UNL A   1      35.775  28.951  29.619  1.00  0.00    -0.203 F 
ATOM     73  C   UNL A   1      34.802  30.620  28.273  1.00  0.00     0.198 A 
ATOM     74  C   UNL A   1      35.895  32.741  28.011  1.00  0.00     0.198 A 
ATOM     75  F   UNL A   1      37.954  33.143  29.074  1.00  0.00    -0.203 F 
ATOM     76  F   UNL A   1      33.790  29.792  27.979  1.00  0.00    -0.200 F 
ATOM     77  C   UNL A   1      34.835  31.895  27.727  1.00  0.00     0.200 A 
ATOM     78  F   UNL A   1      35.922  33.977  27.493  1.00  0.00    -0.200 F 
ATOM     79  F   UNL A   1      33.846  32.304  26.920  1.00  0.00    -0.200 F 
ENDBRANCH  55  69
BRANCH  56  80
ATOM     80  C   UNL A   1      44.642  27.970  34.889  1.00  0.00     0.064 A 
ATOM     81  C   UNL A   1      44.571  26.864  35.747  1.00  0.00     0.173 A 
ATOM     82  C   UNL A   1      45.868  28.642  34.785  1.00  0.00     0.173 A 
ATOM     83  F   UNL A   1      43.411  26.210  35.903  1.00  0.00    -0.203 F 
ATOM     84  C   UNL A   1      45.687  26.445  36.468  1.00  0.00     0.198 A 
ATOM     85  C   UNL A   1      46.989  28.205  35.486  1.00  0.00     0.198 A 
ATOM     86  F   UNL A   1      45.983  29.708  33.979  1.00  0.00    -0.203 F 
ATOM     87  F   UNL A   1      45.590  25.401  37.302  1.00  0.00    -0.200 F 
ATOM     88  C   UNL A   1      46.897  27.108  36.329  1.00  0.00     0.200 A 
ATOM     89  F   UNL A   1      48.158  28.842  35.339  1.00  0.00    -0.200 F 
ATOM     90  F   UNL A   1      47.974  26.693  37.009  1.00  0.00    -0.200 F 
ENDBRANCH  56  80
BRANCH  68  91
ATOM     91  C   UNL A   1      39.463  32.496  35.982  1.00  0.00     0.064 A 
ATOM     92  C   UNL A   1      40.048  33.765  36.121  1.00  0.00     0.173 A 
ATOM     93  C   UNL A   1      38.525  32.093  36.942  1.00  0.00     0.173 A 
ATOM     94  F   UNL A   1      40.962  34.187  35.235  1.00  0.00    -0.203 F 
ATOM     95  C   UNL A   1      39.718  34.589  37.194  1.00  0.00     0.198 A 
ATOM     96  C   UNL A   1      38.183  32.928  38.002  1.00  0.00     0.198 A 
ATOM     97  F   UNL A   1      37.937  30.891  36.850  1.00  0.00    -0.203 F 
ATOM     98  F   UNL A   1      40.315  35.781  37.329  1.00  0.00    -0.200 F 
ATOM     99  C   UNL A   1      38.783  34.172  38.130  1.00  0.00     0.200 A 
ATOM    100  F   UNL A   1      37.275  32.528  38.903  1.00  0.00    -0.200 F 
ATOM    101  F   UNL A   1      38.466  34.967  39.162  1.00  0.00    -0.200 F 
ENDBRANCH  68  91
ENDBRANCH  42  43
ENDBRANCH  35  37
ENDBRANCH  34  35
ENDBRANCH  33  34
ENDBRANCH  32  33
ENDBRANCH  31  32
ENDBRANCH   1  31
TORSDOF 17
ENDMDL
