MODEL 1
REMARK VINA RESULT:     -13.0      0.000      0.000
REMARK SMILES Cc1cscc1C(=O)N1Cc2nc[nH]c2C[C@H]1C(=O)OCCOC(=O)c1ccc(-c2c3nc(c(-c4c(F)c(F)c(F)c(F)c4F)c4ccc([nH]4)c(-c4c(F)c(F)c(F)c(F)c4F)c4nc(c(-c5c(F)c(F)c(F)c(F)c5F)c5ccc2[nH]5)C=C4)C=C3)cc1
REMARK SMILES IDX 21 1 20 2 18 3 19 4 17 5 9 6 10 7 11 8 16 9 12 10 15 11
REMARK SMILES IDX 13 12 14 13 7 15 8 16 6 17 1 18 2 19 3 20 4 21 5 22 22 23
REMARK SMILES IDX 23 24 24 25 25 26 26 27 27 28 88 29 28 30 87 31 29 32 30 33
REMARK SMILES IDX 31 34 81 35 32 36 86 37 80 38 82 39 33 40 85 41 79 42 78 43
REMARK SMILES IDX 34 45 66 46 46 47 65 48 47 49 50 50 64 51 83 52 48 53 49 54
REMARK SMILES IDX 63 56 84 57 51 58 35 59 36 60 44 61 37 62 38 63 42 64 45 65
REMARK SMILES IDX 39 66 40 67 43 68 41 69 67 70 68 71 76 72 69 73 70 74 74 75
REMARK SMILES IDX 77 76 71 77 72 78 75 79 73 80 52 81 53 82 61 83 54 84 55 85
REMARK SMILES IDX 59 86 62 87 56 88 57 89 60 90 58 91
REMARK H PARENT 14 14 82 44 50 55
REMARK Flexibility Score: inf
ROOT
ATOM      1  C   UNL A   1      33.512  29.949  27.038  1.00  0.00     0.274 C 
ENDROOT
BRANCH   1   2
ATOM      2  O   UNL A   1      33.659  29.371  25.718  1.00  0.00    -0.461 OA
BRANCH   2   3
ATOM      3  C   UNL A   1      32.955  28.229  25.455  1.00  0.00     0.329 C 
ATOM      4  O   UNL A   1      32.002  27.844  26.134  1.00  0.00    -0.250 OA
BRANCH   3   5
ATOM      5  C   UNL A   1      33.529  27.373  24.281  1.00  0.00     0.201 C 
ATOM      6  N   UNL A   1      32.845  26.123  23.769  1.00  0.00    -0.318 N 
ATOM      7  C   UNL A   1      31.436  26.285  23.351  1.00  0.00     0.179 C 
ATOM      8  C   UNL A   1      31.244  27.626  22.712  1.00  0.00     0.081 A 
ATOM      9  C   UNL A   1      33.619  28.424  23.123  1.00  0.00     0.093 C 
ATOM     10  N   UNL A   1      30.040  28.137  22.310  1.00  0.00    -0.240 NA
ATOM     11  C   UNL A   1      32.231  28.586  22.611  1.00  0.00     0.042 A 
ATOM     12  C   UNL A   1      30.297  29.381  21.963  1.00  0.00     0.197 A 
ATOM     13  N   UNL A   1      31.619  29.703  22.131  1.00  0.00    -0.348 N 
ATOM     14  H   UNL A   1      32.043  30.572  21.942  1.00  0.00     0.167 HD
BRANCH   6  15
ATOM     15  C   UNL A   1      33.590  25.274  22.929  1.00  0.00     0.256 C 
ATOM     16  O   UNL A   1      33.782  25.567  21.750  1.00  0.00    -0.269 OA
BRANCH  15  17
ATOM     17  C   UNL A   1      34.099  23.991  23.467  1.00  0.00     0.053 A 
ATOM     18  C   UNL A   1      32.151  22.376  22.948  1.00  0.00     0.046 C 
ATOM     19  C   UNL A   1      33.488  22.685  23.486  1.00  0.00    -0.028 A 
ATOM     20  C   UNL A   1      34.269  21.735  24.122  1.00  0.00     0.069 A 
ATOM     21  S   UNL A   1      35.784  22.350  24.586  1.00  0.00    -0.151 S 
ATOM     22  C   UNL A   1      35.386  23.897  23.981  1.00  0.00     0.079 A 
ENDBRANCH  15  17
ENDBRANCH   6  15
ENDBRANCH   3   5
ENDBRANCH   2   3
ENDBRANCH   1   2
BRANCH   1  23
ATOM     23  C   UNL A   1      34.799  30.648  27.504  1.00  0.00     0.275 C 
BRANCH  23  24
ATOM     24  O   UNL A   1      35.937  29.801  27.768  1.00  0.00    -0.458 OA
BRANCH  24  25
ATOM     25  C   UNL A   1      36.993  30.447  28.274  1.00  0.00     0.338 C 
ATOM     26  O   UNL A   1      37.189  31.658  28.244  1.00  0.00    -0.246 OA
BRANCH  25  27
ATOM     27  C   UNL A   1      38.128  29.612  28.620  1.00  0.00     0.060 A 
ATOM     28  C   UNL A   1      39.357  30.277  28.705  1.00  0.00     0.016 A 
ATOM     29  C   UNL A   1      38.051  28.229  28.477  1.00  0.00     0.016 A 
ATOM     30  C   UNL A   1      40.510  29.587  28.425  1.00  0.00     0.010 A 
ATOM     31  C   UNL A   1      39.225  27.517  28.323  1.00  0.00     0.010 A 
ATOM     32  C   UNL A   1      40.443  28.201  28.232  1.00  0.00    -0.014 A 
BRANCH  32  33
ATOM     33  C   UNL A   1      41.716  27.480  28.279  1.00  0.00     0.031 A 
ATOM     34  C   UNL A   1      42.433  27.756  29.560  1.00  0.00     0.074 A 
ATOM     35  C   UNL A   1      42.077  26.547  27.371  1.00  0.00     0.049 A 
ATOM     36  N   UNL A   1      43.644  28.178  29.712  1.00  0.00    -0.248 NA
ATOM     37  C   UNL A   1      41.644  27.776  30.817  1.00  0.00     0.031 C 
ATOM     38  C   UNL A   1      41.285  26.122  26.212  1.00  0.00     0.029 A 
ATOM     39  N   UNL A   1      43.123  25.660  27.362  1.00  0.00    -0.354 N 
ATOM     40  C   UNL A   1      43.836  28.242  31.092  1.00  0.00     0.074 A 
ATOM     41  C   UNL A   1      42.538  28.219  31.700  1.00  0.00     0.031 C 
ATOM     42  C   UNL A   1      41.710  24.911  25.798  1.00  0.00     0.029 A 
ATOM     43  C   UNL A   1      42.879  24.535  26.570  1.00  0.00     0.049 A 
ATOM     44  H   UNL A   1      43.959  25.802  27.862  1.00  0.00     0.167 HD
ATOM     45  C   UNL A   1      45.035  27.863  31.606  1.00  0.00     0.037 A 
ATOM     46  C   UNL A   1      43.534  23.348  26.611  1.00  0.00     0.037 A 
ATOM     47  C   UNL A   1      46.070  27.967  30.615  1.00  0.00     0.049 A 
ATOM     48  C   UNL A   1      44.846  23.578  27.254  1.00  0.00     0.074 A 
ATOM     49  C   UNL A   1      46.826  28.964  30.041  1.00  0.00     0.029 A 
ATOM     50  N   UNL A   1      46.125  26.887  29.782  1.00  0.00    -0.354 N 
ATOM     51  N   UNL A   1      45.807  24.255  26.693  1.00  0.00    -0.248 NA
ATOM     52  C   UNL A   1      44.992  23.340  28.687  1.00  0.00     0.031 C 
ATOM     53  C   UNL A   1      47.319  28.440  28.808  1.00  0.00     0.029 A 
ATOM     54  C   UNL A   1      46.893  27.122  28.680  1.00  0.00     0.049 A 
ATOM     55  H   UNL A   1      45.663  26.035  29.956  1.00  0.00     0.167 HD
ATOM     56  C   UNL A   1      46.421  24.891  27.751  1.00  0.00     0.074 A 
ATOM     57  C   UNL A   1      46.012  24.162  28.943  1.00  0.00     0.031 C 
ATOM     58  C   UNL A   1      46.894  26.160  27.607  1.00  0.00     0.037 A 
BRANCH  45  59
ATOM     59  C   UNL A   1      45.150  26.844  32.729  1.00  0.00     0.064 A 
ATOM     60  C   UNL A   1      45.980  27.137  33.827  1.00  0.00     0.173 A 
ATOM     61  C   UNL A   1      44.761  25.488  32.612  1.00  0.00     0.173 A 
ATOM     62  F   UNL A   1      46.451  28.379  34.011  1.00  0.00    -0.203 F 
ATOM     63  C   UNL A   1      46.420  26.141  34.707  1.00  0.00     0.198 A 
ATOM     64  C   UNL A   1      45.157  24.510  33.519  1.00  0.00     0.198 A 
ATOM     65  F   UNL A   1      44.086  25.020  31.556  1.00  0.00    -0.203 F 
ATOM     66  F   UNL A   1      47.300  26.445  35.670  1.00  0.00    -0.200 F 
ATOM     67  C   UNL A   1      46.007  24.829  34.553  1.00  0.00     0.200 A 
ATOM     68  F   UNL A   1      44.773  23.239  33.326  1.00  0.00    -0.200 F 
ATOM     69  F   UNL A   1      46.468  23.866  35.361  1.00  0.00    -0.200 F 
ENDBRANCH  45  59
BRANCH  46  70
ATOM     70  C   UNL A   1      43.023  21.975  26.361  1.00  0.00     0.064 A 
ATOM     71  C   UNL A   1      43.659  21.122  25.441  1.00  0.00     0.173 A 
ATOM     72  C   UNL A   1      42.082  21.372  27.218  1.00  0.00     0.173 A 
ATOM     73  F   UNL A   1      44.594  21.603  24.609  1.00  0.00    -0.203 F 
ATOM     74  C   UNL A   1      43.403  19.747  25.412  1.00  0.00     0.198 A 
ATOM     75  C   UNL A   1      41.821  20.001  27.182  1.00  0.00     0.198 A 
ATOM     76  F   UNL A   1      41.468  22.080  28.175  1.00  0.00    -0.203 F 
ATOM     77  F   UNL A   1      44.086  18.957  24.571  1.00  0.00    -0.200 F 
ATOM     78  C   UNL A   1      42.494  19.185  26.292  1.00  0.00     0.200 A 
ATOM     79  F   UNL A   1      40.962  19.466  28.061  1.00  0.00    -0.200 F 
ATOM     80  F   UNL A   1      42.300  17.860  26.314  1.00  0.00    -0.200 F 
ENDBRANCH  46  70
BRANCH  58  81
ATOM     81  C   UNL A   1      47.308  26.598  26.244  1.00  0.00     0.064 A 
ATOM     82  C   UNL A   1      46.516  27.357  25.370  1.00  0.00     0.173 A 
ATOM     83  C   UNL A   1      48.605  26.263  25.832  1.00  0.00     0.173 A 
ATOM     84  F   UNL A   1      45.294  27.773  25.732  1.00  0.00    -0.203 F 
ATOM     85  C   UNL A   1      46.998  27.728  24.115  1.00  0.00     0.198 A 
ATOM     86  C   UNL A   1      49.096  26.667  24.597  1.00  0.00     0.198 A 
ATOM     87  F   UNL A   1      49.410  25.564  26.648  1.00  0.00    -0.203 F 
ATOM     88  F   UNL A   1      46.222  28.432  23.279  1.00  0.00    -0.200 F 
ATOM     89  C   UNL A   1      48.288  27.388  23.734  1.00  0.00     0.200 A 
ATOM     90  F   UNL A   1      50.356  26.369  24.254  1.00  0.00    -0.200 F 
ATOM     91  F   UNL A   1      48.762  27.770  22.540  1.00  0.00    -0.200 F 
ENDBRANCH  58  81
ENDBRANCH  32  33
ENDBRANCH  25  27
ENDBRANCH  24  25
ENDBRANCH  23  24
ENDBRANCH   1  23
TORSDOF 13
ENDMDL
MODEL 2
REMARK VINA RESULT:     -12.9      1.578      2.712
REMARK SMILES Cc1cscc1C(=O)N1Cc2nc[nH]c2C[C@H]1C(=O)OCCOC(=O)c1ccc(-c2c3nc(c(-c4c(F)c(F)c(F)c(F)c4F)c4ccc([nH]4)c(-c4c(F)c(F)c(F)c(F)c4F)c4nc(c(-c5c(F)c(F)c(F)c(F)c5F)c5ccc2[nH]5)C=C4)C=C3)cc1
REMARK SMILES IDX 21 1 20 2 18 3 19 4 17 5 9 6 10 7 11 8 16 9 12 10 15 11
REMARK SMILES IDX 13 12 14 13 7 15 8 16 6 17 1 18 2 19 3 20 4 21 5 22 22 23
REMARK SMILES IDX 23 24 24 25 25 26 26 27 27 28 88 29 28 30 87 31 29 32 30 33
REMARK SMILES IDX 31 34 81 35 32 36 86 37 80 38 82 39 33 40 85 41 79 42 78 43
REMARK SMILES IDX 34 45 66 46 46 47 65 48 47 49 50 50 64 51 83 52 48 53 49 54
REMARK SMILES IDX 63 56 84 57 51 58 35 59 36 60 44 61 37 62 38 63 42 64 45 65
REMARK SMILES IDX 39 66 40 67 43 68 41 69 67 70 68 71 76 72 69 73 70 74 74 75
REMARK SMILES IDX 77 76 71 77 72 78 75 79 73 80 52 81 53 82 61 83 54 84 55 85
REMARK SMILES IDX 59 86 62 87 56 88 57 89 60 90 58 91
REMARK H PARENT 14 14 82 44 50 55
REMARK Flexibility Score: inf
ROOT
ATOM      1  C   UNL A   1      34.499  28.984  26.752  1.00  0.00     0.274 C 
ENDROOT
BRANCH   1   2
ATOM      2  O   UNL A   1      33.197  29.285  26.194  1.00  0.00    -0.461 OA
BRANCH   2   3
ATOM      3  C   UNL A   1      32.168  28.445  26.516  1.00  0.00     0.329 C 
ATOM      4  O   UNL A   1      31.923  28.077  27.666  1.00  0.00    -0.250 OA
BRANCH   3   5
ATOM      5  C   UNL A   1      31.387  27.879  25.287  1.00  0.00     0.201 C 
ATOM      6  N   UNL A   1      31.957  27.882  23.884  1.00  0.00    -0.318 N 
ATOM      7  C   UNL A   1      33.271  27.226  23.721  1.00  0.00     0.179 C 
ATOM      8  C   UNL A   1      33.364  26.036  24.624  1.00  0.00     0.081 A 
ATOM      9  C   UNL A   1      31.107  26.403  25.728  1.00  0.00     0.093 C 
ATOM     10  N   UNL A   1      34.485  25.270  24.799  1.00  0.00    -0.240 NA
ATOM     11  C   UNL A   1      32.386  25.668  25.527  1.00  0.00     0.042 A 
ATOM     12  C   UNL A   1      34.185  24.448  25.783  1.00  0.00     0.197 A 
ATOM     13  N   UNL A   1      32.917  24.653  26.261  1.00  0.00    -0.348 N 
ATOM     14  H   UNL A   1      32.477  24.163  26.994  1.00  0.00     0.167 HD
BRANCH   6  15
ATOM     15  C   UNL A   1      31.065  27.633  22.822  1.00  0.00     0.256 C 
ATOM     16  O   UNL A   1      31.340  26.807  21.953  1.00  0.00    -0.269 OA
BRANCH  15  17
ATOM     17  C   UNL A   1      29.813  28.418  22.733  1.00  0.00     0.053 A 
ATOM     18  C   UNL A   1      28.095  26.821  23.814  1.00  0.00     0.046 C 
ATOM     19  C   UNL A   1      28.478  28.090  23.170  1.00  0.00    -0.028 A 
ATOM     20  C   UNL A   1      27.556  29.078  22.870  1.00  0.00     0.069 A 
ATOM     21  S   UNL A   1      28.283  30.455  22.187  1.00  0.00    -0.151 S 
ATOM     22  C   UNL A   1      29.823  29.720  22.248  1.00  0.00     0.079 A 
ENDBRANCH  15  17
ENDBRANCH   6  15
ENDBRANCH   3   5
ENDBRANCH   2   3
ENDBRANCH   1   2
BRANCH   1  23
ATOM     23  C   UNL A   1      35.141  30.216  27.408  1.00  0.00     0.275 C 
BRANCH  23  24
ATOM     24  O   UNL A   1      36.577  30.324  27.316  1.00  0.00    -0.458 OA
BRANCH  24  25
ATOM     25  C   UNL A   1      37.182  30.571  28.483  1.00  0.00     0.338 C 
ATOM     26  O   UNL A   1      37.050  31.577  29.173  1.00  0.00    -0.246 OA
BRANCH  25  27
ATOM     27  C   UNL A   1      38.303  29.706  28.799  1.00  0.00     0.060 A 
ATOM     28  C   UNL A   1      39.544  30.346  28.900  1.00  0.00     0.016 A 
ATOM     29  C   UNL A   1      38.201  28.329  28.616  1.00  0.00     0.016 A 
ATOM     30  C   UNL A   1      40.683  29.645  28.594  1.00  0.00     0.010 A 
ATOM     31  C   UNL A   1      39.362  27.601  28.436  1.00  0.00     0.010 A 
ATOM     32  C   UNL A   1      40.592  28.266  28.361  1.00  0.00    -0.014 A 
BRANCH  32  33
ATOM     33  C   UNL A   1      41.852  27.522  28.381  1.00  0.00     0.031 A 
ATOM     34  C   UNL A   1      42.588  27.765  29.658  1.00  0.00     0.074 A 
ATOM     35  C   UNL A   1      42.185  26.598  27.454  1.00  0.00     0.049 A 
ATOM     36  N   UNL A   1      43.808  28.162  29.803  1.00  0.00    -0.248 NA
ATOM     37  C   UNL A   1      41.814  27.779  30.924  1.00  0.00     0.031 C 
ATOM     38  C   UNL A   1      41.372  26.206  26.298  1.00  0.00     0.029 A 
ATOM     39  N   UNL A   1      43.215  25.692  27.419  1.00  0.00    -0.354 N 
ATOM     40  C   UNL A   1      44.017  28.200  31.181  1.00  0.00     0.074 A 
ATOM     41  C   UNL A   1      42.725  28.191  31.804  1.00  0.00     0.031 C 
ATOM     42  C   UNL A   1      41.771  24.994  25.860  1.00  0.00     0.029 A 
ATOM     43  C   UNL A   1      42.941  24.585  26.612  1.00  0.00     0.049 A 
ATOM     44  H   UNL A   1      44.059  25.811  27.912  1.00  0.00     0.167 HD
ATOM     45  C   UNL A   1      45.215  27.792  31.676  1.00  0.00     0.037 A 
ATOM     46  C   UNL A   1      43.576  23.386  26.627  1.00  0.00     0.037 A 
ATOM     47  C   UNL A   1      46.240  27.893  30.674  1.00  0.00     0.049 A 
ATOM     48  C   UNL A   1      44.898  23.581  27.258  1.00  0.00     0.074 A 
ATOM     49  C   UNL A   1      47.008  28.885  30.108  1.00  0.00     0.029 A 
ATOM     50  N   UNL A   1      46.266  26.826  29.823  1.00  0.00    -0.354 N 
ATOM     51  N   UNL A   1      45.865  24.250  26.697  1.00  0.00    -0.248 NA
ATOM     52  C   UNL A   1      45.057  23.318  28.685  1.00  0.00     0.031 C 
ATOM     53  C   UNL A   1      47.477  28.372  28.860  1.00  0.00     0.029 A 
ATOM     54  C   UNL A   1      47.026  27.065  28.716  1.00  0.00     0.049 A 
ATOM     55  H   UNL A   1      45.791  25.980  29.989  1.00  0.00     0.167 HD
ATOM     56  C   UNL A   1      46.502  24.858  27.757  1.00  0.00     0.074 A 
ATOM     57  C   UNL A   1      46.094  24.117  28.943  1.00  0.00     0.031 C 
ATOM     58  C   UNL A   1      46.997  26.121  27.629  1.00  0.00     0.037 A 
BRANCH  45  59
ATOM     59  C   UNL A   1      45.324  26.753  32.780  1.00  0.00     0.064 A 
ATOM     60  C   UNL A   1      46.199  26.996  33.855  1.00  0.00     0.173 A 
ATOM     61  C   UNL A   1      44.877  25.415  32.658  1.00  0.00     0.173 A 
ATOM     62  F   UNL A   1      46.725  28.217  34.041  1.00  0.00    -0.203 F 
ATOM     63  C   UNL A   1      46.626  25.972  34.708  1.00  0.00     0.198 A 
ATOM     64  C   UNL A   1      45.262  24.409  33.539  1.00  0.00     0.198 A 
ATOM     65  F   UNL A   1      44.152  24.989  31.618  1.00  0.00    -0.203 F 
ATOM     66  F   UNL A   1      47.547  26.226  35.646  1.00  0.00    -0.200 F 
ATOM     67  C   UNL A   1      46.156  24.680  34.549  1.00  0.00     0.200 A 
ATOM     68  F   UNL A   1      44.822  23.157  33.341  1.00  0.00    -0.200 F 
ATOM     69  F   UNL A   1      46.604  23.687  35.329  1.00  0.00    -0.200 F 
ENDBRANCH  45  59
BRANCH  46  70
ATOM     70  C   UNL A   1      43.036  22.027  26.361  1.00  0.00     0.064 A 
ATOM     71  C   UNL A   1      43.657  21.171  25.433  1.00  0.00     0.173 A 
ATOM     72  C   UNL A   1      42.081  21.433  27.210  1.00  0.00     0.173 A 
ATOM     73  F   UNL A   1      44.604  21.641  24.608  1.00  0.00    -0.203 F 
ATOM     74  C   UNL A   1      43.373  19.801  25.389  1.00  0.00     0.198 A 
ATOM     75  C   UNL A   1      41.792  20.069  27.158  1.00  0.00     0.198 A 
ATOM     76  F   UNL A   1      41.480  22.144  28.173  1.00  0.00    -0.203 F 
ATOM     77  F   UNL A   1      44.042  19.006  24.541  1.00  0.00    -0.200 F 
ATOM     78  C   UNL A   1      42.451  19.249  26.261  1.00  0.00     0.200 A 
ATOM     79  F   UNL A   1      40.920  19.542  28.029  1.00  0.00    -0.200 F 
ATOM     80  F   UNL A   1      42.229  17.927  26.268  1.00  0.00    -0.200 F 
ENDBRANCH  46  70
BRANCH  58  81
ATOM     81  C   UNL A   1      47.403  26.573  26.268  1.00  0.00     0.064 A 
ATOM     82  C   UNL A   1      46.597  27.319  25.396  1.00  0.00     0.173 A 
ATOM     83  C   UNL A   1      48.708  26.267  25.855  1.00  0.00     0.173 A 
ATOM     84  F   UNL A   1      45.366  27.709  25.758  1.00  0.00    -0.203 F 
ATOM     85  C   UNL A   1      47.072  27.706  24.143  1.00  0.00     0.198 A 
ATOM     86  C   UNL A   1      49.191  26.686  24.623  1.00  0.00     0.198 A 
ATOM     87  F   UNL A   1      49.525  25.581  26.670  1.00  0.00    -0.203 F 
ATOM     88  F   UNL A   1      46.283  28.397  23.309  1.00  0.00    -0.200 F 
ATOM     89  C   UNL A   1      48.370  27.394  23.762  1.00  0.00     0.200 A 
ATOM     90  F   UNL A   1      50.457  26.416  24.280  1.00  0.00    -0.200 F 
ATOM     91  F   UNL A   1      48.837  27.791  22.571  1.00  0.00    -0.200 F 
ENDBRANCH  58  81
ENDBRANCH  32  33
ENDBRANCH  25  27
ENDBRANCH  24  25
ENDBRANCH  23  24
ENDBRANCH   1  23
TORSDOF 13
ENDMDL
MODEL 3
REMARK VINA RESULT:     -12.7      4.155      8.978
REMARK SMILES Cc1cscc1C(=O)N1Cc2nc[nH]c2C[C@H]1C(=O)OCCOC(=O)c1ccc(-c2c3nc(c(-c4c(F)c(F)c(F)c(F)c4F)c4ccc([nH]4)c(-c4c(F)c(F)c(F)c(F)c4F)c4nc(c(-c5c(F)c(F)c(F)c(F)c5F)c5ccc2[nH]5)C=C4)C=C3)cc1
REMARK SMILES IDX 21 1 20 2 18 3 19 4 17 5 9 6 10 7 11 8 16 9 12 10 15 11
REMARK SMILES IDX 13 12 14 13 7 15 8 16 6 17 1 18 2 19 3 20 4 21 5 22 22 23
REMARK SMILES IDX 23 24 24 25 25 26 26 27 27 28 88 29 28 30 87 31 29 32 30 33
REMARK SMILES IDX 31 34 81 35 32 36 86 37 80 38 82 39 33 40 85 41 79 42 78 43
REMARK SMILES IDX 34 45 66 46 46 47 65 48 47 49 50 50 64 51 83 52 48 53 49 54
REMARK SMILES IDX 63 56 84 57 51 58 35 59 36 60 44 61 37 62 38 63 42 64 45 65
REMARK SMILES IDX 39 66 40 67 43 68 41 69 67 70 68 71 76 72 69 73 70 74 74 75
REMARK SMILES IDX 77 76 71 77 72 78 75 79 73 80 52 81 53 82 61 83 54 84 55 85
REMARK SMILES IDX 59 86 62 87 56 88 57 89 60 90 58 91
REMARK H PARENT 14 14 82 44 50 55
REMARK Flexibility Score: inf
ROOT
ATOM      1  C   UNL A   1      36.928  22.662  23.607  1.00  0.00     0.274 C 
ENDROOT
BRANCH   1   2
ATOM      2  O   UNL A   1      36.151  23.731  24.200  1.00  0.00    -0.461 OA
BRANCH   2   3
ATOM      3  C   UNL A   1      34.814  23.764  23.918  1.00  0.00     0.329 C 
ATOM      4  O   UNL A   1      34.344  23.486  22.813  1.00  0.00    -0.250 OA
BRANCH   3   5
ATOM      5  C   UNL A   1      33.921  24.302  25.082  1.00  0.00     0.201 C 
ATOM      6  N   UNL A   1      32.412  24.377  24.987  1.00  0.00    -0.318 N 
ATOM      7  C   UNL A   1      31.724  23.113  24.651  1.00  0.00     0.179 C 
ATOM      8  C   UNL A   1      32.433  21.960  25.291  1.00  0.00     0.081 A 
ATOM      9  C   UNL A   1      34.319  23.355  26.263  1.00  0.00     0.093 C 
ATOM     10  N   UNL A   1      32.121  20.641  25.096  1.00  0.00    -0.240 NA
ATOM     11  C   UNL A   1      33.602  22.073  26.017  1.00  0.00     0.042 A 
ATOM     12  C   UNL A   1      33.078  19.971  25.702  1.00  0.00     0.197 A 
ATOM     13  N   UNL A   1      34.007  20.800  26.277  1.00  0.00    -0.348 N 
ATOM     14  H   UNL A   1      34.810  20.528  26.779  1.00  0.00     0.167 HD
BRANCH   6  15
ATOM     15  C   UNL A   1      31.739  25.147  25.955  1.00  0.00     0.256 C 
ATOM     16  O   UNL A   1      31.107  24.605  26.860  1.00  0.00    -0.269 OA
BRANCH  15  17
ATOM     17  C   UNL A   1      31.757  26.624  25.843  1.00  0.00     0.053 A 
ATOM     18  C   UNL A   1      30.254  27.028  23.782  1.00  0.00     0.046 C 
ATOM     19  C   UNL A   1      31.103  27.491  24.894  1.00  0.00    -0.028 A 
ATOM     20  C   UNL A   1      31.400  28.828  25.094  1.00  0.00     0.069 A 
ATOM     21  S   UNL A   1      32.348  29.079  26.482  1.00  0.00    -0.151 S 
ATOM     22  C   UNL A   1      32.404  27.401  26.796  1.00  0.00     0.079 A 
ENDBRANCH  15  17
ENDBRANCH   6  15
ENDBRANCH   3   5
ENDBRANCH   2   3
ENDBRANCH   1   2
BRANCH   1  23
ATOM     23  C   UNL A   1      37.310  21.589  24.639  1.00  0.00     0.275 C 
BRANCH  23  24
ATOM     24  O   UNL A   1      37.729  22.061  25.937  1.00  0.00    -0.458 OA
BRANCH  24  25
ATOM     25  C   UNL A   1      39.054  22.050  26.119  1.00  0.00     0.338 C 
ATOM     26  O   UNL A   1      39.766  21.056  26.232  1.00  0.00    -0.246 OA
BRANCH  25  27
ATOM     27  C   UNL A   1      39.641  23.319  26.507  1.00  0.00     0.060 A 
ATOM     28  C   UNL A   1      40.828  23.229  27.244  1.00  0.00     0.016 A 
ATOM     29  C   UNL A   1      38.874  24.481  26.490  1.00  0.00     0.016 A 
ATOM     30  C   UNL A   1      41.133  24.223  28.141  1.00  0.00     0.010 A 
ATOM     31  C   UNL A   1      39.256  25.534  27.300  1.00  0.00     0.010 A 
ATOM     32  C   UNL A   1      40.343  25.380  28.169  1.00  0.00    -0.014 A 
BRANCH  32  33
ATOM     33  C   UNL A   1      40.903  26.528  28.883  1.00  0.00     0.031 A 
ATOM     34  C   UNL A   1      42.206  26.940  28.281  1.00  0.00     0.074 A 
ATOM     35  C   UNL A   1      40.224  27.224  29.821  1.00  0.00     0.049 A 
ATOM     36  N   UNL A   1      43.339  27.097  28.881  1.00  0.00    -0.248 NA
ATOM     37  C   UNL A   1      42.320  26.968  26.802  1.00  0.00     0.031 C 
ATOM     38  C   UNL A   1      38.859  26.948  30.279  1.00  0.00     0.029 A 
ATOM     39  N   UNL A   1      40.516  28.411  30.444  1.00  0.00    -0.354 N 
ATOM     40  C   UNL A   1      44.223  27.514  27.887  1.00  0.00     0.074 A 
ATOM     41  C   UNL A   1      43.621  27.191  26.626  1.00  0.00     0.031 C 
ATOM     42  C   UNL A   1      38.347  28.054  30.856  1.00  0.00     0.029 A 
ATOM     43  C   UNL A   1      39.381  29.067  30.927  1.00  0.00     0.049 A 
ATOM     44  H   UNL A   1      41.431  28.763  30.539  1.00  0.00     0.167 HD
ATOM     45  C   UNL A   1      45.143  28.469  28.183  1.00  0.00     0.037 A 
ATOM     46  C   UNL A   1      39.279  30.375  31.275  1.00  0.00     0.037 A 
ATOM     47  C   UNL A   1      45.401  28.505  29.596  1.00  0.00     0.049 A 
ATOM     48  C   UNL A   1      40.643  30.881  31.540  1.00  0.00     0.074 A 
ATOM     49  C   UNL A   1      46.120  27.773  30.514  1.00  0.00     0.029 A 
ATOM     50  N   UNL A   1      44.476  29.230  30.291  1.00  0.00    -0.354 N 
ATOM     51  N   UNL A   1      41.355  30.513  32.567  1.00  0.00    -0.248 NA
ATOM     52  C   UNL A   1      41.375  31.557  30.473  1.00  0.00     0.031 C 
ATOM     53  C   UNL A   1      45.565  28.073  31.795  1.00  0.00     0.029 A 
ATOM     54  C   UNL A   1      44.554  29.015  31.636  1.00  0.00     0.049 A 
ATOM     55  H   UNL A   1      43.827  29.838  29.870  1.00  0.00     0.167 HD
ATOM     56  C   UNL A   1      42.646  30.505  32.086  1.00  0.00     0.074 A 
ATOM     57  C   UNL A   1      42.625  31.320  30.879  1.00  0.00     0.031 C 
ATOM     58  C   UNL A   1      43.524  29.546  32.492  1.00  0.00     0.037 A 
BRANCH  45  59
ATOM     59  C   UNL A   1      45.309  29.723  27.342  1.00  0.00     0.064 A 
ATOM     60  C   UNL A   1      46.608  30.197  27.079  1.00  0.00     0.173 A 
ATOM     61  C   UNL A   1      44.267  30.646  27.079  1.00  0.00     0.173 A 
ATOM     62  F   UNL A   1      47.677  29.428  27.336  1.00  0.00    -0.203 F 
ATOM     63  C   UNL A   1      46.843  31.503  26.634  1.00  0.00     0.198 A 
ATOM     64  C   UNL A   1      44.501  31.927  26.587  1.00  0.00     0.198 A 
ATOM     65  F   UNL A   1      42.992  30.403  27.400  1.00  0.00    -0.203 F 
ATOM     66  F   UNL A   1      48.100  31.947  26.506  1.00  0.00    -0.200 F 
ATOM     67  C   UNL A   1      45.789  32.366  26.388  1.00  0.00     0.200 A 
ATOM     68  F   UNL A   1      43.465  32.755  26.392  1.00  0.00    -0.200 F 
ATOM     69  F   UNL A   1      46.013  33.632  26.014  1.00  0.00    -0.200 F 
ENDBRANCH  45  59
BRANCH  46  70
ATOM     70  C   UNL A   1      38.118  31.296  31.163  1.00  0.00     0.064 A 
ATOM     71  C   UNL A   1      37.636  31.702  29.905  1.00  0.00     0.173 A 
ATOM     72  C   UNL A   1      37.283  31.568  32.264  1.00  0.00     0.173 A 
ATOM     73  F   UNL A   1      38.349  31.453  28.795  1.00  0.00    -0.203 F 
ATOM     74  C   UNL A   1      36.380  32.301  29.754  1.00  0.00     0.198 A 
ATOM     75  C   UNL A   1      36.035  32.174  32.113  1.00  0.00     0.198 A 
ATOM     76  F   UNL A   1      37.616  31.164  33.497  1.00  0.00    -0.203 F 
ATOM     77  F   UNL A   1      35.926  32.604  28.530  1.00  0.00    -0.200 F 
ATOM     78  C   UNL A   1      35.575  32.524  30.858  1.00  0.00     0.200 A 
ATOM     79  F   UNL A   1      35.252  32.355  33.186  1.00  0.00    -0.200 F 
ATOM     80  F   UNL A   1      34.344  33.031  30.708  1.00  0.00    -0.200 F 
ENDBRANCH  46  70
BRANCH  58  81
ATOM     81  C   UNL A   1      43.318  28.939  33.837  1.00  0.00     0.064 A 
ATOM     82  C   UNL A   1      43.796  29.476  35.042  1.00  0.00     0.173 A 
ATOM     83  C   UNL A   1      42.546  27.771  33.899  1.00  0.00     0.173 A 
ATOM     84  F   UNL A   1      44.478  30.630  35.060  1.00  0.00    -0.203 F 
ATOM     85  C   UNL A   1      43.541  28.838  36.256  1.00  0.00     0.198 A 
ATOM     86  C   UNL A   1      42.261  27.160  35.113  1.00  0.00     0.198 A 
ATOM     87  F   UNL A   1      42.041  27.239  32.775  1.00  0.00    -0.203 F 
ATOM     88  F   UNL A   1      44.024  29.347  37.397  1.00  0.00    -0.200 F 
ATOM     89  C   UNL A   1      42.768  27.685  36.289  1.00  0.00     0.200 A 
ATOM     90  F   UNL A   1      41.481  26.071  35.141  1.00  0.00    -0.200 F 
ATOM     91  F   UNL A   1      42.498  27.089  37.458  1.00  0.00    -0.200 F 
ENDBRANCH  58  81
ENDBRANCH  32  33
ENDBRANCH  25  27
ENDBRANCH  24  25
ENDBRANCH  23  24
ENDBRANCH   1  23
TORSDOF 13
ENDMDL
