MODEL 1
REMARK VINA RESULT:     -12.7      0.000      0.000
REMARK SMILES O=C(OCCOC(=O)c1ccc(-c2c3nc(c(-c4c(F)c(F)c(F)c(F)c4F)c4ccc([nH]4)c(-c4c(F)c(F)c(F)c(F)c4F)c4nc(c(-c5c(F)c(F)c(F)c(F)c5F)c5ccc2[nH]5)C=C4)C=C3)cc1)C1=Cc2cc(S(F)(F)(F)(F)F)cc(Br)c2O[C@@H]1C(F)(F)F
REMARK SMILES IDX 5 1 4 2 3 3 2 4 1 5 72 6 73 7 88 8 74 9 87 10 75 11 86 12
REMARK SMILES IDX 76 13 84 14 83 15 85 16 89 17 90 18 91 19 92 20 77 21 78 22
REMARK SMILES IDX 79 23 80 24 81 25 82 26 6 27 7 28 8 29 9 30 10 31 71 32
REMARK SMILES IDX 11 33 70 34 12 35 13 36 14 37 64 38 15 39 69 40 63 41 65 42
REMARK SMILES IDX 16 43 68 44 62 45 61 46 17 48 49 49 29 50 48 51 30 52 33 53
REMARK SMILES IDX 47 54 66 55 31 56 32 57 46 59 67 60 34 61 18 62 19 63 27 64
REMARK SMILES IDX 20 65 21 66 25 67 28 68 22 69 23 70 26 71 24 72 50 73 51 74
REMARK SMILES IDX 59 75 52 76 53 77 57 78 60 79 54 80 55 81 58 82 56 83 35 84
REMARK SMILES IDX 36 85 44 86 37 87 38 88 42 89 45 90 39 91 40 92 43 93 41 94
REMARK H PARENT 65 47 33 58
REMARK Flexibility Score: inf
ROOT
ATOM      1  C   UNL A   1      36.716  22.641  25.706  1.00  0.00     0.275 C 
ENDROOT
BRANCH   1   2
ATOM      2  C   UNL A   1      35.894  23.802  26.241  1.00  0.00     0.275 C 
BRANCH   2   3
ATOM      3  O   UNL A   1      35.188  24.413  25.171  1.00  0.00    -0.459 OA
BRANCH   3   4
ATOM      4  C   UNL A   1      33.887  23.958  24.828  1.00  0.00     0.338 C 
ATOM      5  O   UNL A   1      33.672  23.457  23.680  1.00  0.00    -0.246 OA
BRANCH   4   6
ATOM      6  C   UNL A   1      32.753  24.071  25.833  1.00  0.00     0.087 C 
ATOM      7  C   UNL A   1      32.292  25.295  26.204  1.00  0.00     0.027 C 
ATOM      8  C   UNL A   1      32.133  22.815  26.423  1.00  0.00     0.316 C 
ATOM      9  C   UNL A   1      32.912  26.551  25.614  1.00  0.00     0.020 A 
ATOM     10  O   UNL A   1      32.955  25.618  23.429  1.00  0.00    -0.474 OA
ATOM     11  C   UNL A   1      33.264  27.523  26.537  1.00  0.00     0.036 A 
ATOM     12  C   UNL A   1      33.182  26.699  24.322  1.00  0.00     0.142 A 
ATOM     13  C   UNL A   1      33.642  28.756  25.955  1.00  0.00     0.109 A 
ATOM     14  C   UNL A   1      33.678  27.886  23.842  1.00  0.00     0.062 A 
ATOM     15  C   UNL A   1      33.992  28.911  24.691  1.00  0.00     0.044 A 
ATOM     16  Br  UNL A   1      33.939  28.115  21.913  1.00  0.00    -0.047 Br
BRANCH   8  17
ATOM     17  C   UNL A   1      30.653  22.770  26.080  1.00  0.00     0.430 C 
ATOM     18  F   UNL A   1      30.250  21.504  26.019  1.00  0.00    -0.167 F 
ATOM     19  F   UNL A   1      29.961  23.411  27.017  1.00  0.00    -0.167 F 
ATOM     20  F   UNL A   1      30.453  23.356  24.903  1.00  0.00    -0.167 F 
ENDBRANCH   8  17
BRANCH  13  21
ATOM     21  S   UNL A   1      33.646  30.222  27.015  1.00  0.00     0.310 S 
ATOM     22  F   UNL A   1      32.475  29.636  27.911  1.00  0.00    -0.094 F 
ATOM     23  F   UNL A   1      32.535  30.863  26.102  1.00  0.00    -0.094 F 
ATOM     24  F   UNL A   1      33.646  31.472  27.940  1.00  0.00    -0.094 F 
ATOM     25  F   UNL A   1      34.656  29.507  27.997  1.00  0.00    -0.094 F 
ATOM     26  F   UNL A   1      33.575  28.901  26.150  1.00  0.00    -0.094 F 
ENDBRANCH  13  21
ENDBRANCH   4   6
ENDBRANCH   3   4
ENDBRANCH   2   3
ENDBRANCH   1   2
BRANCH   1  27
ATOM     27  O   UNL A   1      38.015  23.100  25.359  1.00  0.00    -0.458 OA
BRANCH  27  28
ATOM     28  C   UNL A   1      39.074  23.010  26.300  1.00  0.00     0.338 C 
ATOM     29  O   UNL A   1      39.562  21.876  26.601  1.00  0.00    -0.246 OA
BRANCH  28  30
ATOM     30  C   UNL A   1      39.625  24.271  26.947  1.00  0.00     0.060 A 
ATOM     31  C   UNL A   1      39.355  24.468  28.291  1.00  0.00     0.016 A 
ATOM     32  C   UNL A   1      40.205  25.213  26.215  1.00  0.00     0.016 A 
ATOM     33  C   UNL A   1      39.475  25.815  28.708  1.00  0.00     0.010 A 
ATOM     34  C   UNL A   1      40.416  26.469  26.731  1.00  0.00     0.010 A 
ATOM     35  C   UNL A   1      40.118  26.752  28.035  1.00  0.00    -0.014 A 
BRANCH  35  36
ATOM     36  C   UNL A   1      40.505  28.075  28.676  1.00  0.00     0.031 A 
ATOM     37  C   UNL A   1      39.564  29.073  28.933  1.00  0.00     0.074 A 
ATOM     38  C   UNL A   1      41.831  28.142  29.070  1.00  0.00     0.049 A 
ATOM     39  N   UNL A   1      39.746  30.210  29.606  1.00  0.00    -0.248 NA
ATOM     40  C   UNL A   1      38.164  29.020  28.486  1.00  0.00     0.031 C 
ATOM     41  C   UNL A   1      42.785  27.135  28.823  1.00  0.00     0.029 A 
ATOM     42  N   UNL A   1      42.459  29.159  29.754  1.00  0.00    -0.354 N 
ATOM     43  C   UNL A   1      38.606  30.901  29.660  1.00  0.00     0.074 A 
ATOM     44  C   UNL A   1      37.573  30.149  28.935  1.00  0.00     0.031 C 
ATOM     45  C   UNL A   1      43.974  27.546  29.339  1.00  0.00     0.029 A 
ATOM     46  C   UNL A   1      43.782  28.814  29.918  1.00  0.00     0.049 A 
ATOM     47  H   UNL A   1      42.036  29.990  30.070  1.00  0.00     0.167 HD
ATOM     48  C   UNL A   1      38.387  32.129  30.286  1.00  0.00     0.037 A 
ATOM     49  C   UNL A   1      44.782  29.551  30.534  1.00  0.00     0.037 A 
ATOM     50  C   UNL A   1      39.377  32.847  30.940  1.00  0.00     0.049 A 
ATOM     51  C   UNL A   1      44.576  30.806  31.110  1.00  0.00     0.074 A 
ATOM     52  C   UNL A   1      39.170  34.082  31.584  1.00  0.00     0.029 A 
ATOM     53  N   UNL A   1      40.705  32.512  31.083  1.00  0.00    -0.354 N 
ATOM     54  N   UNL A   1      43.427  31.479  31.199  1.00  0.00    -0.248 NA
ATOM     55  C   UNL A   1      45.634  31.611  31.737  1.00  0.00     0.031 C 
ATOM     56  C   UNL A   1      40.359  34.492  32.100  1.00  0.00     0.029 A 
ATOM     57  C   UNL A   1      41.328  33.520  31.787  1.00  0.00     0.049 A 
ATOM     58  H   UNL A   1      41.134  31.695  30.742  1.00  0.00     0.167 HD
ATOM     59  C   UNL A   1      43.620  32.636  31.836  1.00  0.00     0.074 A 
ATOM     60  C   UNL A   1      45.043  32.741  32.184  1.00  0.00     0.031 C 
ATOM     61  C   UNL A   1      42.665  33.607  32.143  1.00  0.00     0.037 A 
BRANCH  48  62
ATOM     62  C   UNL A   1      36.983  32.713  30.251  1.00  0.00     0.064 A 
ATOM     63  C   UNL A   1      36.656  33.471  29.139  1.00  0.00     0.173 A 
ATOM     64  C   UNL A   1      36.084  32.442  31.190  1.00  0.00     0.173 A 
ATOM     65  F   UNL A   1      37.434  33.556  28.065  1.00  0.00    -0.203 F 
ATOM     66  C   UNL A   1      35.418  34.147  29.251  1.00  0.00     0.198 A 
ATOM     67  C   UNL A   1      34.844  33.034  31.162  1.00  0.00     0.198 A 
ATOM     68  F   UNL A   1      36.385  31.590  32.166  1.00  0.00    -0.203 F 
ATOM     69  F   UNL A   1      35.188  35.160  28.420  1.00  0.00    -0.200 F 
ATOM     70  C   UNL A   1      34.475  33.842  30.123  1.00  0.00     0.200 A 
ATOM     71  F   UNL A   1      33.992  32.818  32.161  1.00  0.00    -0.200 F 
ATOM     72  F   UNL A   1      33.231  34.297  29.998  1.00  0.00    -0.200 F 
ENDBRANCH  48  62
BRANCH  49  73
ATOM     73  C   UNL A   1      46.182  28.960  30.585  1.00  0.00     0.064 A 
ATOM     74  C   UNL A   1      47.091  29.186  29.567  1.00  0.00     0.173 A 
ATOM     75  C   UNL A   1      46.466  28.145  31.595  1.00  0.00     0.173 A 
ATOM     76  F   UNL A   1      46.960  30.171  28.683  1.00  0.00    -0.203 F 
ATOM     77  C   UNL A   1      48.174  28.275  29.551  1.00  0.00     0.198 A 
ATOM     78  C   UNL A   1      47.610  27.384  31.578  1.00  0.00     0.198 A 
ATOM     79  F   UNL A   1      45.635  28.064  32.631  1.00  0.00    -0.203 F 
ATOM     80  F   UNL A   1      48.887  28.180  28.433  1.00  0.00    -0.200 F 
ATOM     81  C   UNL A   1      48.525  27.514  30.571  1.00  0.00     0.200 A 
ATOM     82  F   UNL A   1      47.829  26.509  32.556  1.00  0.00    -0.200 F 
ATOM     83  F   UNL A   1      49.707  26.904  30.617  1.00  0.00    -0.200 F 
ENDBRANCH  49  73
BRANCH  61  84
ATOM     84  C   UNL A   1      43.119  34.834  32.917  1.00  0.00     0.064 A 
ATOM     85  C   UNL A   1      43.029  34.763  34.297  1.00  0.00     0.173 A 
ATOM     86  C   UNL A   1      43.477  35.958  32.306  1.00  0.00     0.173 A 
ATOM     87  F   UNL A   1      42.925  33.615  34.960  1.00  0.00    -0.203 F 
ATOM     88  C   UNL A   1      43.058  36.025  34.939  1.00  0.00     0.198 A 
ATOM     89  C   UNL A   1      43.619  37.125  33.017  1.00  0.00     0.198 A 
ATOM     90  F   UNL A   1      43.699  35.953  30.996  1.00  0.00    -0.203 F 
ATOM     91  F   UNL A   1      42.624  36.090  36.194  1.00  0.00    -0.200 F 
ATOM     92  C   UNL A   1      43.487  37.141  34.377  1.00  0.00     0.200 A 
ATOM     93  F   UNL A   1      43.890  38.256  32.371  1.00  0.00    -0.200 F 
ATOM     94  F   UNL A   1      43.773  38.221  35.097  1.00  0.00    -0.200 F 
ENDBRANCH  61  84
ENDBRANCH  35  36
ENDBRANCH  28  30
ENDBRANCH  27  28
ENDBRANCH   1  27
TORSDOF 13
ENDMDL
MODEL 2
REMARK VINA RESULT:     -12.7      4.012      7.015
REMARK SMILES O=C(OCCOC(=O)c1ccc(-c2c3nc(c(-c4c(F)c(F)c(F)c(F)c4F)c4ccc([nH]4)c(-c4c(F)c(F)c(F)c(F)c4F)c4nc(c(-c5c(F)c(F)c(F)c(F)c5F)c5ccc2[nH]5)C=C4)C=C3)cc1)C1=Cc2cc(S(F)(F)(F)(F)F)cc(Br)c2O[C@@H]1C(F)(F)F
REMARK SMILES IDX 5 1 4 2 3 3 2 4 1 5 72 6 73 7 88 8 74 9 87 10 75 11 86 12
REMARK SMILES IDX 76 13 84 14 83 15 85 16 89 17 90 18 91 19 92 20 77 21 78 22
REMARK SMILES IDX 79 23 80 24 81 25 82 26 6 27 7 28 8 29 9 30 10 31 71 32
REMARK SMILES IDX 11 33 70 34 12 35 13 36 14 37 64 38 15 39 69 40 63 41 65 42
REMARK SMILES IDX 16 43 68 44 62 45 61 46 17 48 49 49 29 50 48 51 30 52 33 53
REMARK SMILES IDX 47 54 66 55 31 56 32 57 46 59 67 60 34 61 18 62 19 63 27 64
REMARK SMILES IDX 20 65 21 66 25 67 28 68 22 69 23 70 26 71 24 72 50 73 51 74
REMARK SMILES IDX 59 75 52 76 53 77 57 78 60 79 54 80 55 81 58 82 56 83 35 84
REMARK SMILES IDX 36 85 44 86 37 87 38 88 42 89 45 90 39 91 40 92 43 93 41 94
REMARK H PARENT 65 47 33 58
REMARK Flexibility Score: inf
ROOT
ATOM      1  C   UNL A   1      31.915  29.218  25.229  1.00  0.00     0.275 C 
ENDROOT
BRANCH   1   2
ATOM      2  C   UNL A   1      31.816  28.040  26.183  1.00  0.00     0.275 C 
BRANCH   2   3
ATOM      3  O   UNL A   1      31.982  26.830  25.458  1.00  0.00    -0.459 OA
BRANCH   3   4
ATOM      4  C   UNL A   1      33.270  26.449  24.998  1.00  0.00     0.338 C 
ATOM      5  O   UNL A   1      34.271  26.522  25.779  1.00  0.00    -0.246 OA
BRANCH   4   6
ATOM      6  C   UNL A   1      33.453  25.953  23.573  1.00  0.00     0.087 C 
ATOM      7  C   UNL A   1      33.959  24.712  23.344  1.00  0.00     0.027 C 
ATOM      8  C   UNL A   1      33.070  26.845  22.404  1.00  0.00     0.316 C 
ATOM      9  C   UNL A   1      34.342  23.820  24.514  1.00  0.00     0.020 A 
ATOM     10  O   UNL A   1      32.370  24.384  25.714  1.00  0.00    -0.474 OA
ATOM     11  C   UNL A   1      35.599  23.244  24.427  1.00  0.00     0.036 A 
ATOM     12  C   UNL A   1      33.580  23.652  25.589  1.00  0.00     0.142 A 
ATOM     13  C   UNL A   1      35.849  22.262  25.414  1.00  0.00     0.109 A 
ATOM     14  C   UNL A   1      33.952  22.777  26.580  1.00  0.00     0.062 A 
ATOM     15  C   UNL A   1      35.155  22.128  26.530  1.00  0.00     0.044 A 
ATOM     16  Br  UNL A   1      32.741  22.454  28.088  1.00  0.00    -0.047 Br
BRANCH   8  17
ATOM     17  C   UNL A   1      31.998  26.160  21.573  1.00  0.00     0.430 C 
ATOM     18  F   UNL A   1      32.528  25.734  20.430  1.00  0.00    -0.167 F 
ATOM     19  F   UNL A   1      31.510  25.124  22.247  1.00  0.00    -0.167 F 
ATOM     20  F   UNL A   1      31.019  27.021  21.314  1.00  0.00    -0.167 F 
ENDBRANCH   8  17
BRANCH  13  21
ATOM     21  S   UNL A   1      37.214  21.109  25.130  1.00  0.00     0.310 S 
ATOM     22  F   UNL A   1      37.332  21.551  23.610  1.00  0.00    -0.094 F 
ATOM     23  F   UNL A   1      36.174  20.023  24.661  1.00  0.00    -0.094 F 
ATOM     24  F   UNL A   1      38.394  20.129  24.873  1.00  0.00    -0.094 F 
ATOM     25  F   UNL A   1      38.249  22.254  25.468  1.00  0.00    -0.094 F 
ATOM     26  F   UNL A   1      36.034  22.149  25.286  1.00  0.00    -0.094 F 
ENDBRANCH  13  21
ENDBRANCH   4   6
ENDBRANCH   3   4
ENDBRANCH   2   3
ENDBRANCH   1   2
BRANCH   1  27
ATOM     27  O   UNL A   1      33.127  29.920  25.466  1.00  0.00    -0.458 OA
BRANCH  27  28
ATOM     28  C   UNL A   1      33.250  30.758  26.605  1.00  0.00     0.338 C 
ATOM     29  O   UNL A   1      32.397  31.677  26.813  1.00  0.00    -0.246 OA
BRANCH  28  30
ATOM     30  C   UNL A   1      34.402  30.557  27.576  1.00  0.00     0.060 A 
ATOM     31  C   UNL A   1      35.192  31.657  27.867  1.00  0.00     0.016 A 
ATOM     32  C   UNL A   1      34.727  29.343  28.004  1.00  0.00     0.016 A 
ATOM     33  C   UNL A   1      36.470  31.326  28.376  1.00  0.00     0.010 A 
ATOM     34  C   UNL A   1      35.936  29.117  28.616  1.00  0.00     0.010 A 
ATOM     35  C   UNL A   1      36.793  30.149  28.881  1.00  0.00    -0.014 A 
BRANCH  35  36
ATOM     36  C   UNL A   1      38.050  29.953  29.713  1.00  0.00     0.031 A 
ATOM     37  C   UNL A   1      38.211  30.560  30.959  1.00  0.00     0.074 A 
ATOM     38  C   UNL A   1      38.946  29.046  29.173  1.00  0.00     0.049 A 
ATOM     39  N   UNL A   1      39.193  30.364  31.839  1.00  0.00    -0.248 NA
ATOM     40  C   UNL A   1      37.278  31.550  31.520  1.00  0.00     0.031 C 
ATOM     41  C   UNL A   1      38.787  28.422  27.920  1.00  0.00     0.029 A 
ATOM     42  N   UNL A   1      40.122  28.588  29.725  1.00  0.00    -0.354 N 
ATOM     43  C   UNL A   1      38.994  31.111  32.927  1.00  0.00     0.074 A 
ATOM     44  C   UNL A   1      37.762  31.889  32.735  1.00  0.00     0.031 C 
ATOM     45  C   UNL A   1      39.857  27.610  27.714  1.00  0.00     0.029 A 
ATOM     46  C   UNL A   1      40.703  27.712  28.835  1.00  0.00     0.049 A 
ATOM     47  H   UNL A   1      40.485  28.845  30.603  1.00  0.00     0.167 HD
ATOM     48  C   UNL A   1      39.790  31.173  34.072  1.00  0.00     0.037 A 
ATOM     49  C   UNL A   1      41.902  27.031  28.974  1.00  0.00     0.037 A 
ATOM     50  C   UNL A   1      40.967  30.459  34.230  1.00  0.00     0.049 A 
ATOM     51  C   UNL A   1      42.727  27.137  30.096  1.00  0.00     0.074 A 
ATOM     52  C   UNL A   1      41.777  30.503  35.381  1.00  0.00     0.029 A 
ATOM     53  N   UNL A   1      41.560  29.601  33.330  1.00  0.00    -0.354 N 
ATOM     54  N   UNL A   1      42.508  27.853  31.199  1.00  0.00    -0.248 NA
ATOM     55  C   UNL A   1      44.016  26.446  30.241  1.00  0.00     0.031 C 
ATOM     56  C   UNL A   1      42.848  29.692  35.176  1.00  0.00     0.029 A 
ATOM     57  C   UNL A   1      42.724  29.126  33.892  1.00  0.00     0.049 A 
ATOM     58  H   UNL A   1      41.211  29.367  32.440  1.00  0.00     0.167 HD
ATOM     59  C   UNL A   1      43.513  27.689  32.062  1.00  0.00     0.074 A 
ATOM     60  C   UNL A   1      44.501  26.787  31.455  1.00  0.00     0.031 C 
ATOM     61  C   UNL A   1      43.644  28.251  33.333  1.00  0.00     0.037 A 
BRANCH  48  62
ATOM     62  C   UNL A   1      39.339  32.073  35.211  1.00  0.00     0.064 A 
ATOM     63  C   UNL A   1      39.754  33.394  35.158  1.00  0.00     0.173 A 
ATOM     64  C   UNL A   1      38.519  31.647  36.165  1.00  0.00     0.173 A 
ATOM     65  F   UNL A   1      40.359  33.921  34.098  1.00  0.00    -0.203 F 
ATOM     66  C   UNL A   1      39.475  34.130  36.334  1.00  0.00     0.198 A 
ATOM     67  C   UNL A   1      38.180  32.466  37.214  1.00  0.00     0.198 A 
ATOM     68  F   UNL A   1      38.021  30.415  36.104  1.00  0.00    -0.203 F 
ATOM     69  F   UNL A   1      40.137  35.268  36.523  1.00  0.00    -0.200 F 
ATOM     70  C   UNL A   1      38.604  33.765  37.256  1.00  0.00     0.200 A 
ATOM     71  F   UNL A   1      37.430  31.988  38.203  1.00  0.00    -0.200 F 
ATOM     72  F   UNL A   1      38.161  34.617  38.177  1.00  0.00    -0.200 F 
ENDBRANCH  48  62
BRANCH  49  73
ATOM     73  C   UNL A   1      42.344  26.117  27.843  1.00  0.00     0.064 A 
ATOM     74  C   UNL A   1      43.224  26.557  26.870  1.00  0.00     0.173 A 
ATOM     75  C   UNL A   1      41.782  24.915  27.771  1.00  0.00     0.173 A 
ATOM     76  F   UNL A   1      43.996  27.629  27.022  1.00  0.00    -0.203 F 
ATOM     77  C   UNL A   1      43.229  25.763  25.699  1.00  0.00     0.198 A 
ATOM     78  C   UNL A   1      41.940  24.135  26.652  1.00  0.00     0.198 A 
ATOM     79  F   UNL A   1      41.061  24.463  28.793  1.00  0.00    -0.203 F 
ATOM     80  F   UNL A   1      43.752  26.290  24.596  1.00  0.00    -0.200 F 
ATOM     81  C   UNL A   1      42.750  24.535  25.625  1.00  0.00     0.200 A 
ATOM     82  F   UNL A   1      41.295  22.975  26.565  1.00  0.00    -0.200 F 
ATOM     83  F   UNL A   1      43.039  23.730  24.607  1.00  0.00    -0.200 F 
ENDBRANCH  49  73
BRANCH  61  84
ATOM     84  C   UNL A   1      44.868  27.882  34.154  1.00  0.00     0.064 A 
ATOM     85  C   UNL A   1      46.003  28.651  33.953  1.00  0.00     0.173 A 
ATOM     86  C   UNL A   1      44.890  26.813  34.942  1.00  0.00     0.173 A 
ATOM     87  F   UNL A   1      45.974  29.854  33.388  1.00  0.00    -0.203 F 
ATOM     88  C   UNL A   1      47.197  28.037  34.402  1.00  0.00     0.198 A 
ATOM     89  C   UNL A   1      46.077  26.349  35.457  1.00  0.00     0.198 A 
ATOM     90  F   UNL A   1      43.755  26.187  35.234  1.00  0.00    -0.203 F 
ATOM     91  F   UNL A   1      48.349  28.515  33.940  1.00  0.00    -0.200 F 
ATOM     92  C   UNL A   1      47.247  27.025  35.249  1.00  0.00     0.200 A 
ATOM     93  F   UNL A   1      46.086  25.226  36.169  1.00  0.00    -0.200 F 
ATOM     94  F   UNL A   1      48.373  26.682  35.866  1.00  0.00    -0.200 F 
ENDBRANCH  61  84
ENDBRANCH  35  36
ENDBRANCH  28  30
ENDBRANCH  27  28
ENDBRANCH   1  27
TORSDOF 13
ENDMDL
MODEL 3
REMARK VINA RESULT:     -12.7      1.586      1.982
REMARK SMILES O=C(OCCOC(=O)c1ccc(-c2c3nc(c(-c4c(F)c(F)c(F)c(F)c4F)c4ccc([nH]4)c(-c4c(F)c(F)c(F)c(F)c4F)c4nc(c(-c5c(F)c(F)c(F)c(F)c5F)c5ccc2[nH]5)C=C4)C=C3)cc1)C1=Cc2cc(S(F)(F)(F)(F)F)cc(Br)c2O[C@@H]1C(F)(F)F
REMARK SMILES IDX 5 1 4 2 3 3 2 4 1 5 72 6 73 7 88 8 74 9 87 10 75 11 86 12
REMARK SMILES IDX 76 13 84 14 83 15 85 16 89 17 90 18 91 19 92 20 77 21 78 22
REMARK SMILES IDX 79 23 80 24 81 25 82 26 6 27 7 28 8 29 9 30 10 31 71 32
REMARK SMILES IDX 11 33 70 34 12 35 13 36 14 37 64 38 15 39 69 40 63 41 65 42
REMARK SMILES IDX 16 43 68 44 62 45 61 46 17 48 49 49 29 50 48 51 30 52 33 53
REMARK SMILES IDX 47 54 66 55 31 56 32 57 46 59 67 60 34 61 18 62 19 63 27 64
REMARK SMILES IDX 20 65 21 66 25 67 28 68 22 69 23 70 26 71 24 72 50 73 51 74
REMARK SMILES IDX 59 75 52 76 53 77 57 78 60 79 54 80 55 81 58 82 56 83 35 84
REMARK SMILES IDX 36 85 44 86 37 87 38 88 42 89 45 90 39 91 40 92 43 93 41 94
REMARK H PARENT 65 47 33 58
REMARK Flexibility Score: inf
ROOT
ATOM      1  C   UNL A   1      37.375  22.205  25.781  1.00  0.00     0.275 C 
ENDROOT
BRANCH   1   2
ATOM      2  C   UNL A   1      36.654  23.526  25.988  1.00  0.00     0.275 C 
BRANCH   2   3
ATOM      3  O   UNL A   1      36.159  23.995  24.743  1.00  0.00    -0.459 OA
BRANCH   3   4
ATOM      4  C   UNL A   1      35.331  23.159  23.948  1.00  0.00     0.338 C 
ATOM      5  O   UNL A   1      35.603  22.976  22.720  1.00  0.00    -0.246 OA
BRANCH   4   6
ATOM      6  C   UNL A   1      34.117  22.484  24.566  1.00  0.00     0.087 C 
ATOM      7  C   UNL A   1      33.085  23.235  25.033  1.00  0.00     0.027 C 
ATOM      8  C   UNL A   1      34.058  20.968  24.662  1.00  0.00     0.316 C 
ATOM      9  C   UNL A   1      33.144  24.751  24.938  1.00  0.00     0.020 A 
ATOM     10  O   UNL A   1      33.995  24.673  22.720  1.00  0.00    -0.474 OA
ATOM     11  C   UNL A   1      32.838  25.427  26.108  1.00  0.00     0.036 A 
ATOM     12  C   UNL A   1      33.536  25.403  23.848  1.00  0.00     0.142 A 
ATOM     13  C   UNL A   1      32.697  26.825  25.942  1.00  0.00     0.109 A 
ATOM     14  C   UNL A   1      33.501  26.776  23.804  1.00  0.00     0.062 A 
ATOM     15  C   UNL A   1      33.150  27.506  24.905  1.00  0.00     0.044 A 
ATOM     16  Br  UNL A   1      33.958  27.700  22.137  1.00  0.00    -0.047 Br
BRANCH   8  17
ATOM     17  C   UNL A   1      32.853  20.458  23.889  1.00  0.00     0.430 C 
ATOM     18  F   UNL A   1      31.777  20.496  24.669  1.00  0.00    -0.167 F 
ATOM     19  F   UNL A   1      32.653  21.226  22.822  1.00  0.00    -0.167 F 
ATOM     20  F   UNL A   1      33.074  19.207  23.498  1.00  0.00    -0.167 F 
ENDBRANCH   8  17
BRANCH  13  21
ATOM     21  S   UNL A   1      31.837  27.744  27.241  1.00  0.00     0.310 S 
ATOM     22  F   UNL A   1      31.568  28.966  26.265  1.00  0.00    -0.094 F 
ATOM     23  F   UNL A   1      33.198  28.439  27.624  1.00  0.00    -0.094 F 
ATOM     24  F   UNL A   1      31.087  28.542  28.346  1.00  0.00    -0.094 F 
ATOM     25  F   UNL A   1      30.460  27.144  26.752  1.00  0.00    -0.094 F 
ATOM     26  F   UNL A   1      32.564  27.014  26.043  1.00  0.00    -0.094 F 
ENDBRANCH  13  21
ENDBRANCH   4   6
ENDBRANCH   3   4
ENDBRANCH   2   3
ENDBRANCH   1   2
BRANCH   1  27
ATOM     27  O   UNL A   1      38.750  22.450  25.522  1.00  0.00    -0.458 OA
BRANCH  27  28
ATOM     28  C   UNL A   1      39.663  22.577  26.602  1.00  0.00     0.338 C 
ATOM     29  O   UNL A   1      40.030  21.547  27.250  1.00  0.00    -0.246 OA
BRANCH  28  30
ATOM     30  C   UNL A   1      40.204  23.946  26.983  1.00  0.00     0.060 A 
ATOM     31  C   UNL A   1      40.441  24.188  28.326  1.00  0.00     0.016 A 
ATOM     32  C   UNL A   1      40.295  24.916  26.082  1.00  0.00     0.016 A 
ATOM     33  C   UNL A   1      40.487  25.562  28.662  1.00  0.00     0.010 A 
ATOM     34  C   UNL A   1      40.477  26.220  26.475  1.00  0.00     0.010 A 
ATOM     35  C   UNL A   1      40.659  26.540  27.791  1.00  0.00    -0.014 A 
BRANCH  35  36
ATOM     36  C   UNL A   1      41.039  27.944  28.230  1.00  0.00     0.031 A 
ATOM     37  C   UNL A   1      40.079  28.878  28.624  1.00  0.00     0.074 A 
ATOM     38  C   UNL A   1      42.404  28.161  28.303  1.00  0.00     0.049 A 
ATOM     39  N   UNL A   1      40.285  30.084  29.154  1.00  0.00    -0.248 NA
ATOM     40  C   UNL A   1      38.628  28.663  28.516  1.00  0.00     0.031 C 
ATOM     41  C   UNL A   1      43.380  27.221  27.916  1.00  0.00     0.029 A 
ATOM     42  N   UNL A   1      43.058  29.288  28.750  1.00  0.00    -0.354 N 
ATOM     43  C   UNL A   1      39.120  30.677  29.419  1.00  0.00     0.074 A 
ATOM     44  C   UNL A   1      38.037  29.774  29.006  1.00  0.00     0.031 C 
ATOM     45  C   UNL A   1      44.604  27.778  28.114  1.00  0.00     0.029 A 
ATOM     46  C   UNL A   1      44.414  29.074  28.629  1.00  0.00     0.049 A 
ATOM     47  H   UNL A   1      42.631  30.105  29.094  1.00  0.00     0.167 HD
ATOM     48  C   UNL A   1      38.918  31.935  29.990  1.00  0.00     0.037 A 
ATOM     49  C   UNL A   1      45.442  29.948  28.944  1.00  0.00     0.037 A 
ATOM     50  C   UNL A   1      39.947  32.792  30.345  1.00  0.00     0.049 A 
ATOM     51  C   UNL A   1      45.239  31.230  29.462  1.00  0.00     0.074 A 
ATOM     52  C   UNL A   1      39.761  34.060  30.929  1.00  0.00     0.029 A 
ATOM     53  N   UNL A   1      41.302  32.588  30.203  1.00  0.00    -0.354 N 
ATOM     54  N   UNL A   1      44.075  31.807  29.763  1.00  0.00    -0.248 NA
ATOM     55  C   UNL A   1      46.319  32.177  29.769  1.00  0.00     0.031 C 
ATOM     56  C   UNL A   1      40.985  34.617  31.128  1.00  0.00     0.029 A 
ATOM     57  C   UNL A   1      41.957  33.706  30.671  1.00  0.00     0.049 A 
ATOM     58  H   UNL A   1      41.728  31.782  29.831  1.00  0.00     0.167 HD
ATOM     59  C   UNL A   1      44.282  33.031  30.255  1.00  0.00     0.074 A 
ATOM     60  C   UNL A   1      45.728  33.289  30.258  1.00  0.00     0.031 C 
ATOM     61  C   UNL A   1      43.323  33.940  30.703  1.00  0.00     0.037 A 
BRANCH  48  62
ATOM     62  C   UNL A   1      37.488  32.390  30.236  1.00  0.00     0.064 A 
ATOM     63  C   UNL A   1      36.878  33.096  29.213  1.00  0.00     0.173 A 
ATOM     64  C   UNL A   1      36.822  32.057  31.336  1.00  0.00     0.173 A 
ATOM     65  F   UNL A   1      37.416  33.231  28.004  1.00  0.00    -0.203 F 
ATOM     66  C   UNL A   1      35.631  33.661  29.571  1.00  0.00     0.198 A 
ATOM     67  C   UNL A   1      35.553  32.535  31.557  1.00  0.00     0.198 A 
ATOM     68  F   UNL A   1      37.389  31.253  32.232  1.00  0.00    -0.203 F 
ATOM     69  F   UNL A   1      35.150  34.634  28.803  1.00  0.00    -0.200 F 
ATOM     70  C   UNL A   1      34.913  33.289  30.614  1.00  0.00     0.200 A 
ATOM     71  F   UNL A   1      34.941  32.262  32.706  1.00  0.00    -0.200 F 
ATOM     72  F   UNL A   1      33.633  33.629  30.741  1.00  0.00    -0.200 F 
ENDBRANCH  48  62
BRANCH  49  73
ATOM     73  C   UNL A   1      46.872  29.487  28.715  1.00  0.00     0.064 A 
ATOM     74  C   UNL A   1      47.497  29.675  27.494  1.00  0.00     0.173 A 
ATOM     75  C   UNL A   1      47.464  28.815  29.696  1.00  0.00     0.173 A 
ATOM     76  F   UNL A   1      47.063  30.541  26.583  1.00  0.00    -0.203 F 
ATOM     77  C   UNL A   1      48.640  28.863  27.303  1.00  0.00     0.198 A 
ATOM     78  C   UNL A   1      48.650  28.156  29.476  1.00  0.00     0.198 A 
ATOM     79  F   UNL A   1      46.905  28.780  30.902  1.00  0.00    -0.203 F 
ATOM     80  F   UNL A   1      49.087  28.705  26.061  1.00  0.00    -0.200 F 
ATOM     81  C   UNL A   1      49.294  28.251  28.274  1.00  0.00     0.200 A 
ATOM     82  F   UNL A   1      49.178  27.416  30.447  1.00  0.00    -0.200 F 
ATOM     83  F   UNL A   1      50.513  27.752  28.091  1.00  0.00    -0.200 F 
ENDBRANCH  49  73
BRANCH  61  84
ATOM     84  C   UNL A   1      43.806  35.269  31.262  1.00  0.00     0.064 A 
ATOM     85  C   UNL A   1      43.946  35.347  32.638  1.00  0.00     0.173 A 
ATOM     86  C   UNL A   1      43.979  36.335  30.489  1.00  0.00     0.173 A 
ATOM     87  F   UNL A   1      44.032  34.276  33.421  1.00  0.00    -0.203 F 
ATOM     88  C   UNL A   1      43.987  36.672  33.135  1.00  0.00     0.198 A 
ATOM     89  C   UNL A   1      44.150  37.581  31.045  1.00  0.00     0.198 A 
ATOM     90  F   UNL A   1      43.987  36.197  29.168  1.00  0.00    -0.203 F 
ATOM     91  F   UNL A   1      43.757  36.853  34.432  1.00  0.00    -0.200 F 
ATOM     92  C   UNL A   1      44.238  37.741  32.400  1.00  0.00     0.200 A 
ATOM     93  F   UNL A   1      44.232  38.646  30.253  1.00  0.00    -0.200 F 
ATOM     94  F   UNL A   1      44.558  38.908  32.949  1.00  0.00    -0.200 F 
ENDBRANCH  61  84
ENDBRANCH  35  36
ENDBRANCH  28  30
ENDBRANCH  27  28
ENDBRANCH   1  27
TORSDOF 13
ENDMDL
