MODEL 1
REMARK VINA RESULT:     -12.0      0.000      0.000
REMARK SMILES C[C@H](C(=O)OCCOC(=O)c1ccc(-c2c3nc(c(-c4c(F)c(F)c(F)c(F)c4F)c4ccc([nH]4)c(-c4c(F)c(F)c(F)c(F)c4F)c4nc(c(-c5c(F)c(F)c(F)c(F)c5F)c5ccc2[nH]5)C=C4)C=C3)cc1)[C@@H](C(=O)c1ccccc1)c1ccc(F)cc1
REMARK SMILES IDX 6 1 5 2 3 3 4 4 2 5 1 6 74 7 75 8 76 9 77 10 78 11 82 12
REMARK SMILES IDX 79 13 81 14 80 15 83 16 84 17 89 18 85 19 88 20 86 21 87 22
REMARK SMILES IDX 7 23 8 24 9 25 10 26 11 27 12 28 73 29 13 30 72 31 14 32
REMARK SMILES IDX 15 33 16 34 66 35 17 36 71 37 65 38 67 39 18 40 70 41 64 42
REMARK SMILES IDX 63 43 19 45 51 46 31 47 50 48 32 49 35 50 49 51 68 52 33 53
REMARK SMILES IDX 34 54 48 56 69 57 36 58 20 59 21 60 29 61 22 62 23 63 27 64
REMARK SMILES IDX 30 65 24 66 25 67 28 68 26 69 52 70 53 71 61 72 54 73 55 74
REMARK SMILES IDX 59 75 62 76 56 77 57 78 60 79 58 80 37 81 38 82 46 83 39 84
REMARK SMILES IDX 40 85 44 86 47 87 41 88 42 89 45 90 43 91
REMARK H PARENT 67 44 35 55
REMARK Flexibility Score: inf
ROOT
ATOM      1  C   UNL A   1      31.411  28.632  25.264  1.00  0.00     0.274 C 
ENDROOT
BRANCH   1   2
ATOM      2  O   UNL A   1      32.020  27.561  24.515  1.00  0.00    -0.462 OA
BRANCH   2   3
ATOM      3  C   UNL A   1      32.133  26.389  25.194  1.00  0.00     0.309 C 
ATOM      4  O   UNL A   1      32.629  26.329  26.297  1.00  0.00    -0.252 OA
BRANCH   3   5
ATOM      5  C   UNL A   1      31.409  25.216  24.548  1.00  0.00     0.111 C 
ATOM      6  C   UNL A   1      29.968  25.593  24.147  1.00  0.00     0.021 C 
BRANCH   5   7
ATOM      7  C   UNL A   1      32.201  24.460  23.417  1.00  0.00     0.105 C 
BRANCH   7   8
ATOM      8  C   UNL A   1      33.710  24.838  23.151  1.00  0.00     0.171 C 
ATOM      9  O   UNL A   1      34.070  25.736  22.385  1.00  0.00    -0.293 OA
BRANCH   8  10
ATOM     10  C   UNL A   1      34.840  24.168  23.835  1.00  0.00     0.018 A 
ATOM     11  C   UNL A   1      35.220  24.470  25.141  1.00  0.00     0.012 A 
ATOM     12  C   UNL A   1      35.613  23.281  23.068  1.00  0.00     0.012 A 
ATOM     13  C   UNL A   1      36.327  23.815  25.696  1.00  0.00     0.001 A 
ATOM     14  C   UNL A   1      36.673  22.585  23.644  1.00  0.00     0.001 A 
ATOM     15  C   UNL A   1      37.030  22.853  24.961  1.00  0.00     0.000 A 
ENDBRANCH   8  10
ENDBRANCH   7   8
BRANCH   7  16
ATOM     16  C   UNL A   1      32.113  22.951  23.783  1.00  0.00    -0.036 A 
ATOM     17  C   UNL A   1      32.066  22.535  25.123  1.00  0.00     0.007 A 
ATOM     18  C   UNL A   1      32.226  21.961  22.781  1.00  0.00     0.007 A 
ATOM     19  C   UNL A   1      32.152  21.174  25.443  1.00  0.00     0.039 A 
ATOM     20  C   UNL A   1      32.274  20.605  23.099  1.00  0.00     0.039 A 
ATOM     21  C   UNL A   1      32.250  20.225  24.430  1.00  0.00     0.123 A 
ATOM     22  F   UNL A   1      32.343  18.927  24.745  1.00  0.00    -0.207 F 
ENDBRANCH   7  16
ENDBRANCH   5   7
ENDBRANCH   3   5
ENDBRANCH   2   3
ENDBRANCH   1   2
BRANCH   1  23
ATOM     23  C   UNL A   1      32.380  29.801  25.520  1.00  0.00     0.275 C 
BRANCH  23  24
ATOM     24  O   UNL A   1      32.581  30.098  26.921  1.00  0.00    -0.458 OA
BRANCH  24  25
ATOM     25  C   UNL A   1      33.257  31.243  27.179  1.00  0.00     0.338 C 
ATOM     26  O   UNL A   1      32.813  32.380  27.120  1.00  0.00    -0.246 OA
BRANCH  25  27
ATOM     27  C   UNL A   1      34.617  30.969  27.681  1.00  0.00     0.060 A 
ATOM     28  C   UNL A   1      34.936  29.654  28.032  1.00  0.00     0.016 A 
ATOM     29  C   UNL A   1      35.518  31.996  27.961  1.00  0.00     0.016 A 
ATOM     30  C   UNL A   1      36.119  29.353  28.694  1.00  0.00     0.010 A 
ATOM     31  C   UNL A   1      36.722  31.695  28.618  1.00  0.00     0.010 A 
ATOM     32  C   UNL A   1      37.016  30.374  29.009  1.00  0.00    -0.014 A 
BRANCH  32  33
ATOM     33  C   UNL A   1      38.218  30.050  29.814  1.00  0.00     0.031 A 
ATOM     34  C   UNL A   1      39.277  29.152  29.246  1.00  0.00     0.074 A 
ATOM     35  C   UNL A   1      38.393  30.616  31.023  1.00  0.00     0.049 A 
ATOM     36  N   UNL A   1      40.357  28.677  29.813  1.00  0.00    -0.248 NA
ATOM     37  C   UNL A   1      39.103  28.741  27.843  1.00  0.00     0.031 C 
ATOM     38  C   UNL A   1      37.488  31.584  31.640  1.00  0.00     0.029 A 
ATOM     39  N   UNL A   1      39.399  30.459  31.944  1.00  0.00    -0.354 N 
ATOM     40  C   UNL A   1      40.977  27.893  28.849  1.00  0.00     0.074 A 
ATOM     41  C   UNL A   1      40.151  27.950  27.662  1.00  0.00     0.031 C 
ATOM     42  C   UNL A   1      37.976  31.933  32.842  1.00  0.00     0.029 A 
ATOM     43  C   UNL A   1      39.196  31.173  33.100  1.00  0.00     0.049 A 
ATOM     44  H   UNL A   1      40.187  29.892  31.791  1.00  0.00     0.167 HD
ATOM     45  C   UNL A   1      42.130  27.191  28.951  1.00  0.00     0.037 A 
ATOM     46  C   UNL A   1      39.896  31.181  34.250  1.00  0.00     0.037 A 
ATOM     47  C   UNL A   1      42.958  27.155  30.129  1.00  0.00     0.049 A 
ATOM     48  C   UNL A   1      41.124  30.317  34.369  1.00  0.00     0.074 A 
ATOM     49  C   UNL A   1      44.142  26.466  30.333  1.00  0.00     0.029 A 
ATOM     50  N   UNL A   1      42.688  27.840  31.304  1.00  0.00    -0.354 N 
ATOM     51  N   UNL A   1      41.684  29.545  33.471  1.00  0.00    -0.248 NA
ATOM     52  C   UNL A   1      41.809  30.320  35.669  1.00  0.00     0.031 C 
ATOM     53  C   UNL A   1      44.564  26.699  31.646  1.00  0.00     0.029 A 
ATOM     54  C   UNL A   1      43.669  27.572  32.246  1.00  0.00     0.049 A 
ATOM     55  H   UNL A   1      41.914  28.431  31.448  1.00  0.00     0.167 HD
ATOM     56  C   UNL A   1      42.797  28.989  34.085  1.00  0.00     0.074 A 
ATOM     57  C   UNL A   1      42.842  29.522  35.431  1.00  0.00     0.031 C 
ATOM     58  C   UNL A   1      43.702  28.116  33.578  1.00  0.00     0.037 A 
BRANCH  45  59
ATOM     59  C   UNL A   1      42.543  26.364  27.770  1.00  0.00     0.064 A 
ATOM     60  C   UNL A   1      43.469  26.829  26.824  1.00  0.00     0.173 A 
ATOM     61  C   UNL A   1      42.024  25.071  27.600  1.00  0.00     0.173 A 
ATOM     62  F   UNL A   1      43.983  28.063  26.934  1.00  0.00    -0.203 F 
ATOM     63  C   UNL A   1      43.841  26.038  25.739  1.00  0.00     0.198 A 
ATOM     64  C   UNL A   1      42.418  24.274  26.529  1.00  0.00     0.198 A 
ATOM     65  F   UNL A   1      41.138  24.578  28.478  1.00  0.00    -0.203 F 
ATOM     66  F   UNL A   1      44.695  26.518  24.825  1.00  0.00    -0.200 F 
ATOM     67  C   UNL A   1      43.321  24.761  25.597  1.00  0.00     0.200 A 
ATOM     68  F   UNL A   1      41.921  23.036  26.399  1.00  0.00    -0.200 F 
ATOM     69  F   UNL A   1      43.684  24.000  24.555  1.00  0.00    -0.200 F 
ENDBRANCH  45  59
BRANCH  46  70
ATOM     70  C   UNL A   1      39.430  32.005  35.395  1.00  0.00     0.064 A 
ATOM     71  C   UNL A   1      38.558  31.480  36.357  1.00  0.00     0.173 A 
ATOM     72  C   UNL A   1      39.836  33.341  35.538  1.00  0.00     0.173 A 
ATOM     73  F   UNL A   1      38.117  30.219  36.246  1.00  0.00    -0.203 F 
ATOM     74  C   UNL A   1      38.098  32.265  37.413  1.00  0.00     0.198 A 
ATOM     75  C   UNL A   1      39.398  34.115  36.610  1.00  0.00     0.198 A 
ATOM     76  F   UNL A   1      40.664  33.893  34.640  1.00  0.00    -0.203 F 
ATOM     77  F   UNL A   1      37.226  31.755  38.294  1.00  0.00    -0.200 F 
ATOM     78  C   UNL A   1      38.524  33.579  37.542  1.00  0.00     0.200 A 
ATOM     79  F   UNL A   1      39.819  35.381  36.734  1.00  0.00    -0.200 F 
ATOM     80  F   UNL A   1      38.081  34.333  38.558  1.00  0.00    -0.200 F 
ENDBRANCH  46  70
BRANCH  58  81
ATOM     81  C   UNL A   1      44.837  27.708  34.471  1.00  0.00     0.064 A 
ATOM     82  C   UNL A   1      44.772  26.551  35.260  1.00  0.00     0.173 A 
ATOM     83  C   UNL A   1      46.018  28.465  34.508  1.00  0.00     0.173 A 
ATOM     84  F   UNL A   1      43.658  25.803  35.272  1.00  0.00    -0.203 F 
ATOM     85  C   UNL A   1      45.841  26.176  36.070  1.00  0.00     0.198 A 
ATOM     86  C   UNL A   1      47.096  28.073  35.298  1.00  0.00     0.198 A 
ATOM     87  F   UNL A   1      46.132  29.577  33.768  1.00  0.00    -0.203 F 
ATOM     88  F   UNL A   1      45.742  25.089  36.848  1.00  0.00    -0.200 F 
ATOM     89  C   UNL A   1      47.004  26.933  36.083  1.00  0.00     0.200 A 
ATOM     90  F   UNL A   1      48.222  28.798  35.301  1.00  0.00    -0.200 F 
ATOM     91  F   UNL A   1      48.034  26.568  36.858  1.00  0.00    -0.200 F 
ENDBRANCH  58  81
ENDBRANCH  32  33
ENDBRANCH  25  27
ENDBRANCH  24  25
ENDBRANCH  23  24
ENDBRANCH   1  23
TORSDOF 15
ENDMDL
MODEL 2
REMARK VINA RESULT:     -11.9      1.890      3.335
REMARK SMILES C[C@H](C(=O)OCCOC(=O)c1ccc(-c2c3nc(c(-c4c(F)c(F)c(F)c(F)c4F)c4ccc([nH]4)c(-c4c(F)c(F)c(F)c(F)c4F)c4nc(c(-c5c(F)c(F)c(F)c(F)c5F)c5ccc2[nH]5)C=C4)C=C3)cc1)[C@@H](C(=O)c1ccccc1)c1ccc(F)cc1
REMARK SMILES IDX 6 1 5 2 3 3 4 4 2 5 1 6 74 7 75 8 76 9 77 10 78 11 82 12
REMARK SMILES IDX 79 13 81 14 80 15 83 16 84 17 89 18 85 19 88 20 86 21 87 22
REMARK SMILES IDX 7 23 8 24 9 25 10 26 11 27 12 28 73 29 13 30 72 31 14 32
REMARK SMILES IDX 15 33 16 34 66 35 17 36 71 37 65 38 67 39 18 40 70 41 64 42
REMARK SMILES IDX 63 43 19 45 51 46 31 47 50 48 32 49 35 50 49 51 68 52 33 53
REMARK SMILES IDX 34 54 48 56 69 57 36 58 20 59 21 60 29 61 22 62 23 63 27 64
REMARK SMILES IDX 30 65 24 66 25 67 28 68 26 69 52 70 53 71 61 72 54 73 55 74
REMARK SMILES IDX 59 75 62 76 56 77 57 78 60 79 58 80 37 81 38 82 46 83 39 84
REMARK SMILES IDX 40 85 44 86 47 87 41 88 42 89 45 90 43 91
REMARK H PARENT 67 44 35 55
REMARK Flexibility Score: inf
ROOT
ATOM      1  C   UNL A   1      33.417  28.913  24.949  1.00  0.00     0.274 C 
ENDROOT
BRANCH   1   2
ATOM      2  O   UNL A   1      33.273  28.659  23.536  1.00  0.00    -0.462 OA
BRANCH   2   3
ATOM      3  C   UNL A   1      33.163  27.345  23.207  1.00  0.00     0.309 C 
ATOM      4  O   UNL A   1      33.865  26.495  23.709  1.00  0.00    -0.252 OA
BRANCH   3   5
ATOM      5  C   UNL A   1      31.968  27.015  22.324  1.00  0.00     0.111 C 
ATOM      6  C   UNL A   1      32.336  25.984  21.237  1.00  0.00     0.021 C 
BRANCH   5   7
ATOM      7  C   UNL A   1      30.628  26.682  23.080  1.00  0.00     0.105 C 
BRANCH   7   8
ATOM      8  C   UNL A   1      30.687  26.261  24.600  1.00  0.00     0.171 C 
ATOM      9  O   UNL A   1      30.602  27.059  25.538  1.00  0.00    -0.293 OA
BRANCH   8  10
ATOM     10  C   UNL A   1      30.812  24.854  25.042  1.00  0.00     0.018 A 
ATOM     11  C   UNL A   1      30.498  24.437  26.334  1.00  0.00     0.012 A 
ATOM     12  C   UNL A   1      31.385  23.948  24.133  1.00  0.00     0.012 A 
ATOM     13  C   UNL A   1      30.683  23.091  26.678  1.00  0.00     0.001 A 
ATOM     14  C   UNL A   1      31.509  22.600  24.459  1.00  0.00     0.001 A 
ATOM     15  C   UNL A   1      31.156  22.171  25.735  1.00  0.00     0.000 A 
ENDBRANCH   8  10
ENDBRANCH   7   8
BRANCH   7  16
ATOM     16  C   UNL A   1      29.743  27.952  22.939  1.00  0.00    -0.036 A 
ATOM     17  C   UNL A   1      28.367  27.909  23.219  1.00  0.00     0.007 A 
ATOM     18  C   UNL A   1      30.274  29.141  22.389  1.00  0.00     0.007 A 
ATOM     19  C   UNL A   1      27.554  29.012  22.932  1.00  0.00     0.039 A 
ATOM     20  C   UNL A   1      29.469  30.251  22.140  1.00  0.00     0.039 A 
ATOM     21  C   UNL A   1      28.112  30.171  22.402  1.00  0.00     0.123 A 
ATOM     22  F   UNL A   1      27.325  31.218  22.122  1.00  0.00    -0.207 F 
ENDBRANCH   7  16
ENDBRANCH   5   7
ENDBRANCH   3   5
ENDBRANCH   2   3
ENDBRANCH   1   2
BRANCH   1  23
ATOM     23  C   UNL A   1      32.436  29.983  25.460  1.00  0.00     0.275 C 
BRANCH  23  24
ATOM     24  O   UNL A   1      32.544  30.246  26.878  1.00  0.00    -0.458 OA
BRANCH  24  25
ATOM     25  C   UNL A   1      33.199  31.384  27.208  1.00  0.00     0.338 C 
ATOM     26  O   UNL A   1      32.739  32.516  27.210  1.00  0.00    -0.246 OA
BRANCH  25  27
ATOM     27  C   UNL A   1      34.559  31.101  27.708  1.00  0.00     0.060 A 
ATOM     28  C   UNL A   1      34.851  29.797  28.117  1.00  0.00     0.016 A 
ATOM     29  C   UNL A   1      35.486  32.119  27.931  1.00  0.00     0.016 A 
ATOM     30  C   UNL A   1      36.035  29.499  28.780  1.00  0.00     0.010 A 
ATOM     31  C   UNL A   1      36.690  31.820  28.588  1.00  0.00     0.010 A 
ATOM     32  C   UNL A   1      36.958  30.513  29.037  1.00  0.00    -0.014 A 
BRANCH  32  33
ATOM     33  C   UNL A   1      38.162  30.199  29.845  1.00  0.00     0.031 A 
ATOM     34  C   UNL A   1      39.241  29.329  29.268  1.00  0.00     0.074 A 
ATOM     35  C   UNL A   1      38.320  30.748  31.063  1.00  0.00     0.049 A 
ATOM     36  N   UNL A   1      40.326  28.865  29.834  1.00  0.00    -0.248 NA
ATOM     37  C   UNL A   1      39.082  28.937  27.858  1.00  0.00     0.031 C 
ATOM     38  C   UNL A   1      37.393  31.689  31.691  1.00  0.00     0.029 A 
ATOM     39  N   UNL A   1      39.323  30.595  31.988  1.00  0.00    -0.354 N 
ATOM     40  C   UNL A   1      40.966  28.108  28.862  1.00  0.00     0.074 A 
ATOM     41  C   UNL A   1      40.145  28.169  27.670  1.00  0.00     0.031 C 
ATOM     42  C   UNL A   1      37.868  32.028  32.900  1.00  0.00     0.029 A 
ATOM     43  C   UNL A   1      39.101  31.287  33.153  1.00  0.00     0.049 A 
ATOM     44  H   UNL A   1      40.123  30.045  31.830  1.00  0.00     0.167 HD
ATOM     45  C   UNL A   1      42.132  27.426  28.959  1.00  0.00     0.037 A 
ATOM     46  C   UNL A   1      39.794  31.290  34.307  1.00  0.00     0.037 A 
ATOM     47  C   UNL A   1      42.954  27.387  30.141  1.00  0.00     0.049 A 
ATOM     48  C   UNL A   1      41.037  30.447  34.420  1.00  0.00     0.074 A 
ATOM     49  C   UNL A   1      44.149  26.717  30.341  1.00  0.00     0.029 A 
ATOM     50  N   UNL A   1      42.664  28.048  31.326  1.00  0.00    -0.354 N 
ATOM     51  N   UNL A   1      41.616  29.700  33.512  1.00  0.00    -0.248 NA
ATOM     52  C   UNL A   1      41.716  30.442  35.723  1.00  0.00     0.031 C 
ATOM     53  C   UNL A   1      44.559  26.937  31.660  1.00  0.00     0.029 A 
ATOM     54  C   UNL A   1      43.645  27.783  32.268  1.00  0.00     0.049 A 
ATOM     55  H   UNL A   1      41.878  28.622  31.474  1.00  0.00     0.167 HD
ATOM     56  C   UNL A   1      42.737  29.155  34.124  1.00  0.00     0.074 A 
ATOM     57  C   UNL A   1      42.764  29.667  35.479  1.00  0.00     0.031 C 
ATOM     58  C   UNL A   1      43.661  28.307  33.609  1.00  0.00     0.037 A 
BRANCH  45  59
ATOM     59  C   UNL A   1      42.566  26.626  27.768  1.00  0.00     0.064 A 
ATOM     60  C   UNL A   1      43.482  27.127  26.831  1.00  0.00     0.173 A 
ATOM     61  C   UNL A   1      42.078  25.324  27.578  1.00  0.00     0.173 A 
ATOM     62  F   UNL A   1      43.967  28.370  26.959  1.00  0.00    -0.203 F 
ATOM     63  C   UNL A   1      43.875  26.360  25.735  1.00  0.00     0.198 A 
ATOM     64  C   UNL A   1      42.493  24.552  26.497  1.00  0.00     0.198 A 
ATOM     65  F   UNL A   1      41.202  24.798  28.448  1.00  0.00    -0.203 F 
ATOM     66  F   UNL A   1      44.720  26.873  24.829  1.00  0.00    -0.200 F 
ATOM     67  C   UNL A   1      43.386  25.073  25.574  1.00  0.00     0.200 A 
ATOM     68  F   UNL A   1      42.025  23.304  26.349  1.00  0.00    -0.200 F 
ATOM     69  F   UNL A   1      43.769  24.335  24.522  1.00  0.00    -0.200 F 
ENDBRANCH  45  59
BRANCH  46  70
ATOM     70  C   UNL A   1      39.307  32.086  35.462  1.00  0.00     0.064 A 
ATOM     71  C   UNL A   1      39.696  33.420  35.639  1.00  0.00     0.173 A 
ATOM     72  C   UNL A   1      38.455  31.520  36.424  1.00  0.00     0.173 A 
ATOM     73  F   UNL A   1      40.533  33.996  34.765  1.00  0.00    -0.203 F 
ATOM     74  C   UNL A   1      39.261  34.155  36.741  1.00  0.00     0.198 A 
ATOM     75  C   UNL A   1      37.999  32.264  37.509  1.00  0.00     0.198 A 
ATOM     76  F   UNL A   1      38.060  30.244  36.305  1.00  0.00    -0.203 F 
ATOM     77  F   UNL A   1      39.685  35.414  36.914  1.00  0.00    -0.200 F 
ATOM     78  C   UNL A   1      38.409  33.578  37.671  1.00  0.00     0.200 A 
ATOM     79  F   UNL A   1      37.169  31.705  38.400  1.00  0.00    -0.200 F 
ATOM     80  F   UNL A   1      37.991  34.285  38.731  1.00  0.00    -0.200 F 
ENDBRANCH  46  70
BRANCH  58  81
ATOM     81  C   UNL A   1      44.798  27.906  34.502  1.00  0.00     0.064 A 
ATOM     82  C   UNL A   1      44.736  26.753  35.299  1.00  0.00     0.173 A 
ATOM     83  C   UNL A   1      45.978  28.664  34.532  1.00  0.00     0.173 A 
ATOM     84  F   UNL A   1      43.623  26.004  35.317  1.00  0.00    -0.203 F 
ATOM     85  C   UNL A   1      45.808  26.385  36.108  1.00  0.00     0.198 A 
ATOM     86  C   UNL A   1      47.058  28.279  35.322  1.00  0.00     0.198 A 
ATOM     87  F   UNL A   1      46.089  29.772  33.785  1.00  0.00    -0.203 F 
ATOM     88  F   UNL A   1      45.712  25.303  36.893  1.00  0.00    -0.200 F 
ATOM     89  C   UNL A   1      46.969  27.144  36.114  1.00  0.00     0.200 A 
ATOM     90  F   UNL A   1      48.183  29.006  35.317  1.00  0.00    -0.200 F 
ATOM     91  F   UNL A   1      48.002  26.784  36.889  1.00  0.00    -0.200 F 
ENDBRANCH  58  81
ENDBRANCH  32  33
ENDBRANCH  25  27
ENDBRANCH  24  25
ENDBRANCH  23  24
ENDBRANCH   1  23
TORSDOF 15
ENDMDL
MODEL 3
REMARK VINA RESULT:     -11.9      4.528      7.328
REMARK SMILES C[C@H](C(=O)OCCOC(=O)c1ccc(-c2c3nc(c(-c4c(F)c(F)c(F)c(F)c4F)c4ccc([nH]4)c(-c4c(F)c(F)c(F)c(F)c4F)c4nc(c(-c5c(F)c(F)c(F)c(F)c5F)c5ccc2[nH]5)C=C4)C=C3)cc1)[C@@H](C(=O)c1ccccc1)c1ccc(F)cc1
REMARK SMILES IDX 6 1 5 2 3 3 4 4 2 5 1 6 74 7 75 8 76 9 77 10 78 11 82 12
REMARK SMILES IDX 79 13 81 14 80 15 83 16 84 17 89 18 85 19 88 20 86 21 87 22
REMARK SMILES IDX 7 23 8 24 9 25 10 26 11 27 12 28 73 29 13 30 72 31 14 32
REMARK SMILES IDX 15 33 16 34 66 35 17 36 71 37 65 38 67 39 18 40 70 41 64 42
REMARK SMILES IDX 63 43 19 45 51 46 31 47 50 48 32 49 35 50 49 51 68 52 33 53
REMARK SMILES IDX 34 54 48 56 69 57 36 58 20 59 21 60 29 61 22 62 23 63 27 64
REMARK SMILES IDX 30 65 24 66 25 67 28 68 26 69 52 70 53 71 61 72 54 73 55 74
REMARK SMILES IDX 59 75 62 76 56 77 57 78 60 79 58 80 37 81 38 82 46 83 39 84
REMARK SMILES IDX 40 85 44 86 47 87 41 88 42 89 45 90 43 91
REMARK H PARENT 67 44 35 55
REMARK Flexibility Score: inf
ROOT
ATOM      1  C   UNL A   1      37.522  19.784  24.987  1.00  0.00     0.274 C 
ENDROOT
BRANCH   1   2
ATOM      2  O   UNL A   1      37.411  21.160  24.569  1.00  0.00    -0.462 OA
BRANCH   2   3
ATOM      3  C   UNL A   1      36.468  21.878  25.233  1.00  0.00     0.309 C 
ATOM      4  O   UNL A   1      36.472  21.987  26.439  1.00  0.00    -0.252 OA
BRANCH   3   5
ATOM      5  C   UNL A   1      35.544  22.688  24.333  1.00  0.00     0.111 C 
ATOM      6  C   UNL A   1      36.172  22.922  22.944  1.00  0.00     0.021 C 
BRANCH   5   7
ATOM      7  C   UNL A   1      34.048  22.204  24.275  1.00  0.00     0.105 C 
BRANCH   7   8
ATOM      8  C   UNL A   1      33.652  20.842  24.967  1.00  0.00     0.171 C 
ATOM      9  O   UNL A   1      33.399  20.730  26.169  1.00  0.00    -0.293 OA
BRANCH   8  10
ATOM     10  C   UNL A   1      33.509  19.571  24.220  1.00  0.00     0.018 A 
ATOM     11  C   UNL A   1      32.482  19.344  23.306  1.00  0.00     0.012 A 
ATOM     12  C   UNL A   1      34.392  18.532  24.555  1.00  0.00     0.012 A 
ATOM     13  C   UNL A   1      32.399  18.096  22.673  1.00  0.00     0.001 A 
ATOM     14  C   UNL A   1      34.345  17.316  23.877  1.00  0.00     0.001 A 
ATOM     15  C   UNL A   1      33.347  17.099  22.933  1.00  0.00     0.000 A 
ENDBRANCH   8  10
ENDBRANCH   7   8
BRANCH   7  16
ATOM     16  C   UNL A   1      33.213  23.355  24.906  1.00  0.00    -0.036 A 
ATOM     17  C   UNL A   1      31.822  23.421  24.724  1.00  0.00     0.007 A 
ATOM     18  C   UNL A   1      33.853  24.436  25.553  1.00  0.00     0.007 A 
ATOM     19  C   UNL A   1      31.106  24.545  25.157  1.00  0.00     0.039 A 
ATOM     20  C   UNL A   1      33.134  25.536  26.016  1.00  0.00     0.039 A 
ATOM     21  C   UNL A   1      31.767  25.586  25.801  1.00  0.00     0.123 A 
ATOM     22  F   UNL A   1      31.077  26.661  26.203  1.00  0.00    -0.207 F 
ENDBRANCH   7  16
ENDBRANCH   5   7
ENDBRANCH   3   5
ENDBRANCH   2   3
ENDBRANCH   1   2
BRANCH   1  23
ATOM     23  C   UNL A   1      38.917  19.444  25.543  1.00  0.00     0.275 C 
BRANCH  23  24
ATOM     24  O   UNL A   1      39.754  20.602  25.769  1.00  0.00    -0.458 OA
BRANCH  24  25
ATOM     25  C   UNL A   1      40.407  20.621  26.955  1.00  0.00     0.338 C 
ATOM     26  O   UNL A   1      40.810  19.653  27.581  1.00  0.00    -0.246 OA
BRANCH  25  27
ATOM     27  C   UNL A   1      40.709  22.001  27.385  1.00  0.00     0.060 A 
ATOM     28  C   UNL A   1      40.136  23.054  26.666  1.00  0.00     0.016 A 
ATOM     29  C   UNL A   1      41.661  22.272  28.367  1.00  0.00     0.016 A 
ATOM     30  C   UNL A   1      40.527  24.369  26.883  1.00  0.00     0.010 A 
ATOM     31  C   UNL A   1      42.049  23.602  28.599  1.00  0.00     0.010 A 
ATOM     32  C   UNL A   1      41.501  24.653  27.840  1.00  0.00    -0.014 A 
BRANCH  32  33
ATOM     33  C   UNL A   1      41.987  26.047  27.977  1.00  0.00     0.031 A 
ATOM     34  C   UNL A   1      43.314  26.435  27.393  1.00  0.00     0.074 A 
ATOM     35  C   UNL A   1      41.211  26.979  28.561  1.00  0.00     0.049 A 
ATOM     36  N   UNL A   1      43.959  27.571  27.476  1.00  0.00    -0.248 NA
ATOM     37  C   UNL A   1      44.005  25.408  26.598  1.00  0.00     0.031 C 
ATOM     38  C   UNL A   1      39.861  26.750  29.074  1.00  0.00     0.029 A 
ATOM     39  N   UNL A   1      41.447  28.307  28.813  1.00  0.00    -0.354 N 
ATOM     40  C   UNL A   1      45.139  27.389  26.768  1.00  0.00     0.074 A 
ATOM     41  C   UNL A   1      45.126  26.031  26.266  1.00  0.00     0.031 C 
ATOM     42  C   UNL A   1      39.388  27.899  29.586  1.00  0.00     0.029 A 
ATOM     43  C   UNL A   1      40.422  28.926  29.485  1.00  0.00     0.049 A 
ATOM     44  H   UNL A   1      42.271  28.771  28.539  1.00  0.00     0.167 HD
ATOM     45  C   UNL A   1      46.140  28.277  26.558  1.00  0.00     0.037 A 
ATOM     46  C   UNL A   1      40.343  30.170  29.995  1.00  0.00     0.037 A 
ATOM     47  C   UNL A   1      46.137  29.633  27.043  1.00  0.00     0.049 A 
ATOM     48  C   UNL A   1      41.510  31.107  29.830  1.00  0.00     0.074 A 
ATOM     49  C   UNL A   1      47.108  30.608  26.890  1.00  0.00     0.029 A 
ATOM     50  N   UNL A   1      45.109  30.207  27.776  1.00  0.00    -0.354 N 
ATOM     51  N   UNL A   1      42.641  30.918  29.196  1.00  0.00    -0.248 NA
ATOM     52  C   UNL A   1      41.391  32.428  30.461  1.00  0.00     0.031 C 
ATOM     53  C   UNL A   1      46.688  31.757  27.568  1.00  0.00     0.029 A 
ATOM     54  C   UNL A   1      45.432  31.515  28.103  1.00  0.00     0.049 A 
ATOM     55  H   UNL A   1      44.272  29.753  28.026  1.00  0.00     0.167 HD
ATOM     56  C   UNL A   1      43.358  32.099  29.331  1.00  0.00     0.074 A 
ATOM     57  C   UNL A   1      42.528  33.005  30.098  1.00  0.00     0.031 C 
ATOM     58  C   UNL A   1      44.591  32.405  28.861  1.00  0.00     0.037 A 
BRANCH  45  59
ATOM     59  C   UNL A   1      47.346  27.796  25.809  1.00  0.00     0.064 A 
ATOM     60  C   UNL A   1      48.487  27.316  26.469  1.00  0.00     0.173 A 
ATOM     61  C   UNL A   1      47.346  27.788  24.406  1.00  0.00     0.173 A 
ATOM     62  F   UNL A   1      48.542  27.315  27.808  1.00  0.00    -0.203 F 
ATOM     63  C   UNL A   1      49.593  26.867  25.749  1.00  0.00     0.198 A 
ATOM     64  C   UNL A   1      48.443  27.315  23.691  1.00  0.00     0.198 A 
ATOM     65  F   UNL A   1      46.278  28.234  23.727  1.00  0.00    -0.203 F 
ATOM     66  F   UNL A   1      50.689  26.452  26.399  1.00  0.00    -0.200 F 
ATOM     67  C   UNL A   1      49.567  26.861  24.363  1.00  0.00     0.200 A 
ATOM     68  F   UNL A   1      48.411  27.302  22.350  1.00  0.00    -0.200 F 
ATOM     69  F   UNL A   1      50.630  26.425  23.672  1.00  0.00    -0.200 F 
ENDBRANCH  45  59
BRANCH  46  70
ATOM     70  C   UNL A   1      39.131  30.587  30.745  1.00  0.00     0.064 A 
ATOM     71  C   UNL A   1      39.019  30.363  32.124  1.00  0.00     0.173 A 
ATOM     72  C   UNL A   1      38.052  31.204  30.093  1.00  0.00     0.173 A 
ATOM     73  F   UNL A   1      40.010  29.748  32.785  1.00  0.00    -0.203 F 
ATOM     74  C   UNL A   1      37.867  30.728  32.819  1.00  0.00     0.198 A 
ATOM     75  C   UNL A   1      36.914  31.595  30.795  1.00  0.00     0.198 A 
ATOM     76  F   UNL A   1      38.107  31.434  28.773  1.00  0.00    -0.203 F 
ATOM     77  F   UNL A   1      37.764  30.459  34.128  1.00  0.00    -0.200 F 
ATOM     78  C   UNL A   1      36.820  31.349  32.155  1.00  0.00     0.200 A 
ATOM     79  F   UNL A   1      35.908  32.202  30.150  1.00  0.00    -0.200 F 
ATOM     80  F   UNL A   1      35.713  31.700  32.825  1.00  0.00    -0.200 F 
ENDBRANCH  46  70
BRANCH  58  81
ATOM     81  C   UNL A   1      45.106  33.788  29.133  1.00  0.00     0.064 A 
ATOM     82  C   UNL A   1      44.825  34.860  28.274  1.00  0.00     0.173 A 
ATOM     83  C   UNL A   1      45.857  34.050  30.289  1.00  0.00     0.173 A 
ATOM     84  F   UNL A   1      44.124  34.657  27.148  1.00  0.00    -0.203 F 
ATOM     85  C   UNL A   1      45.295  36.142  28.551  1.00  0.00     0.198 A 
ATOM     86  C   UNL A   1      46.303  35.338  30.577  1.00  0.00     0.198 A 
ATOM     87  F   UNL A   1      46.149  33.060  31.145  1.00  0.00    -0.203 F 
ATOM     88  F   UNL A   1      45.050  37.143  27.695  1.00  0.00    -0.200 F 
ATOM     89  C   UNL A   1      46.027  36.380  29.705  1.00  0.00     0.200 A 
ATOM     90  F   UNL A   1      47.000  35.569  31.698  1.00  0.00    -0.200 F 
ATOM     91  F   UNL A   1      46.473  37.615  29.973  1.00  0.00    -0.200 F 
ENDBRANCH  58  81
ENDBRANCH  32  33
ENDBRANCH  25  27
ENDBRANCH  24  25
ENDBRANCH  23  24
ENDBRANCH   1  23
TORSDOF 15
ENDMDL
