MODEL 1
REMARK VINA RESULT:     -11.8      0.000      0.000
REMARK SMILES CC[C@@H]1SC[C@@H](C(=O)OCCOC(=O)c2ccc(-c3c4nc(c(-c5c(F)c(F)c(F)c(F)c5F)c5ccc([nH]5)c(-c5c(F)c(F)c(F)c(F)c5F)c5nc(c(-c6c(F)c(F)c(F)c(F)c6F)c6ccc3[nH]6)C=C5)C=C4)cc2)N1C(=O)NC1C(C)(C)C1(C)C
REMARK SMILES IDX 10 1 9 2 7 3 8 4 6 5 3 6 4 7 78 8 5 9 2 10 1 11 79 12 80 13
REMARK SMILES IDX 81 14 82 16 83 17 86 18 84 19 85 20 87 21 88 22 11 23 12 24
REMARK SMILES IDX 13 25 14 26 15 27 16 28 77 29 17 30 76 31 18 32 19 33 20 34
REMARK SMILES IDX 70 35 21 36 75 37 69 38 71 39 22 40 74 41 68 42 67 43 23 45
REMARK SMILES IDX 55 46 35 47 54 48 36 49 39 50 53 51 72 52 37 53 38 54 52 56
REMARK SMILES IDX 73 57 40 58 24 59 25 60 33 61 26 62 27 63 31 64 34 65 28 66
REMARK SMILES IDX 29 67 32 68 30 69 56 70 57 71 65 72 58 73 59 74 63 75 66 76
REMARK SMILES IDX 60 77 61 78 64 79 62 80 41 81 42 82 50 83 43 84 44 85 48 86
REMARK SMILES IDX 51 87 45 88 46 89 49 90 47 91
REMARK H PARENT 81 15 71 44 39 55
REMARK Flexibility Score: inf
ROOT
ATOM      1  C   UNL A   1      31.138  30.015  24.789  1.00  0.00     0.274 C 
ENDROOT
BRANCH   1   2
ATOM      2  O   UNL A   1      31.038  28.694  24.222  1.00  0.00    -0.461 OA
BRANCH   2   3
ATOM      3  C   UNL A   1      32.163  28.236  23.603  1.00  0.00     0.329 C 
ATOM      4  O   UNL A   1      33.027  28.958  23.110  1.00  0.00    -0.250 OA
BRANCH   3   5
ATOM      5  C   UNL A   1      32.264  26.698  23.554  1.00  0.00     0.208 C 
ATOM      6  C   UNL A   1      30.970  25.415  25.206  1.00  0.00     0.145 C 
ATOM      7  S   UNL A   1      29.809  25.884  23.873  1.00  0.00    -0.134 SA
ATOM      8  N   UNL A   1      32.267  26.006  24.859  1.00  0.00    -0.298 N 
ATOM      9  C   UNL A   1      31.128  26.179  22.690  1.00  0.00     0.109 C 
BRANCH   6  10
ATOM     10  C   UNL A   1      31.050  23.890  25.446  1.00  0.00     0.033 C 
ATOM     11  C   UNL A   1      31.069  23.334  26.861  1.00  0.00     0.007 C 
ENDBRANCH   6  10
BRANCH   8  12
ATOM     12  C   UNL A   1      33.438  26.078  25.567  1.00  0.00     0.319 C 
ATOM     13  O   UNL A   1      33.628  27.015  26.352  1.00  0.00    -0.249 OA
ATOM     14  N   UNL A   1      34.438  25.168  25.489  1.00  0.00    -0.334 N 
ATOM     15  H   UNL A   1      35.178  25.362  26.110  1.00  0.00     0.165 HD
BRANCH  14  16
ATOM     16  C   UNL A   1      34.661  23.999  24.713  1.00  0.00     0.096 C 
ATOM     17  C   UNL A   1      36.022  23.301  24.740  1.00  0.00    -0.007 C 
ATOM     18  C   UNL A   1      34.762  22.580  25.239  1.00  0.00    -0.007 C 
ATOM     19  C   UNL A   1      36.652  22.912  23.421  1.00  0.00     0.014 C 
ATOM     20  C   UNL A   1      37.079  23.702  25.752  1.00  0.00     0.014 C 
ATOM     21  C   UNL A   1      34.585  22.279  26.707  1.00  0.00     0.014 C 
ATOM     22  C   UNL A   1      34.139  21.503  24.364  1.00  0.00     0.014 C 
ENDBRANCH  14  16
ENDBRANCH   8  12
ENDBRANCH   3   5
ENDBRANCH   2   3
ENDBRANCH   1   2
BRANCH   1  23
ATOM     23  C   UNL A   1      31.741  29.971  26.191  1.00  0.00     0.275 C 
BRANCH  23  24
ATOM     24  O   UNL A   1      33.084  30.480  26.156  1.00  0.00    -0.458 OA
BRANCH  24  25
ATOM     25  C   UNL A   1      33.373  31.446  27.056  1.00  0.00     0.338 C 
ATOM     26  O   UNL A   1      32.755  32.485  27.261  1.00  0.00    -0.246 OA
BRANCH  25  27
ATOM     27  C   UNL A   1      34.643  31.113  27.718  1.00  0.00     0.060 A 
ATOM     28  C   UNL A   1      34.920  29.803  28.111  1.00  0.00     0.016 A 
ATOM     29  C   UNL A   1      35.546  32.136  28.001  1.00  0.00     0.016 A 
ATOM     30  C   UNL A   1      36.078  29.512  28.828  1.00  0.00     0.010 A 
ATOM     31  C   UNL A   1      36.739  31.835  28.659  1.00  0.00     0.010 A 
ATOM     32  C   UNL A   1      37.007  30.524  29.095  1.00  0.00    -0.014 A 
BRANCH  32  33
ATOM     33  C   UNL A   1      38.253  30.232  29.845  1.00  0.00     0.031 A 
ATOM     34  C   UNL A   1      39.274  29.300  29.262  1.00  0.00     0.074 A 
ATOM     35  C   UNL A   1      38.449  30.775  31.061  1.00  0.00     0.049 A 
ATOM     36  N   UNL A   1      40.320  28.753  29.830  1.00  0.00    -0.248 NA
ATOM     37  C   UNL A   1      39.089  28.922  27.852  1.00  0.00     0.031 C 
ATOM     38  C   UNL A   1      37.555  31.730  31.717  1.00  0.00     0.029 A 
ATOM     39  N   UNL A   1      39.459  30.585  31.973  1.00  0.00    -0.354 N 
ATOM     40  C   UNL A   1      40.891  27.937  28.863  1.00  0.00     0.074 A 
ATOM     41  C   UNL A   1      40.076  28.055  27.673  1.00  0.00     0.031 C 
ATOM     42  C   UNL A   1      38.051  32.039  32.925  1.00  0.00     0.029 A 
ATOM     43  C   UNL A   1      39.256  31.250  33.158  1.00  0.00     0.049 A 
ATOM     44  H   UNL A   1      40.250  30.027  31.795  1.00  0.00     0.167 HD
ATOM     45  C   UNL A   1      41.994  27.159  28.967  1.00  0.00     0.037 A 
ATOM     46  C   UNL A   1      39.936  31.191  34.318  1.00  0.00     0.037 A 
ATOM     47  C   UNL A   1      42.818  27.077  30.145  1.00  0.00     0.049 A 
ATOM     48  C   UNL A   1      41.128  30.280  34.422  1.00  0.00     0.074 A 
ATOM     49  C   UNL A   1      43.976  26.342  30.340  1.00  0.00     0.029 A 
ATOM     50  N   UNL A   1      42.573  27.757  31.328  1.00  0.00    -0.354 N 
ATOM     51  N   UNL A   1      41.654  29.497  33.512  1.00  0.00    -0.248 NA
ATOM     52  C   UNL A   1      41.815  30.235  35.721  1.00  0.00     0.031 C 
ATOM     53  C   UNL A   1      44.405  26.543  31.655  1.00  0.00     0.029 A 
ATOM     54  C   UNL A   1      43.543  27.441  32.266  1.00  0.00     0.049 A 
ATOM     55  H   UNL A   1      41.820  28.373  31.480  1.00  0.00     0.167 HD
ATOM     56  C   UNL A   1      42.738  28.881  34.119  1.00  0.00     0.074 A 
ATOM     57  C   UNL A   1      42.809  29.396  35.472  1.00  0.00     0.031 C 
ATOM     58  C   UNL A   1      43.597  27.967  33.606  1.00  0.00     0.037 A 
BRANCH  45  59
ATOM     59  C   UNL A   1      42.362  26.306  27.788  1.00  0.00     0.064 A 
ATOM     60  C   UNL A   1      43.364  26.683  26.883  1.00  0.00     0.173 A 
ATOM     61  C   UNL A   1      41.731  25.067  27.593  1.00  0.00     0.173 A 
ATOM     62  F   UNL A   1      43.988  27.862  27.018  1.00  0.00    -0.203 F 
ATOM     63  C   UNL A   1      43.709  25.857  25.815  1.00  0.00     0.198 A 
ATOM     64  C   UNL A   1      42.098  24.233  26.540  1.00  0.00     0.198 A 
ATOM     65  F   UNL A   1      40.769  24.658  28.434  1.00  0.00    -0.203 F 
ATOM     66  F   UNL A   1      44.645  26.252  24.940  1.00  0.00    -0.200 F 
ATOM     67  C   UNL A   1      43.082  24.631  25.649  1.00  0.00     0.200 A 
ATOM     68  F   UNL A   1      41.499  23.043  26.389  1.00  0.00    -0.200 F 
ATOM     69  F   UNL A   1      43.425  23.834  24.627  1.00  0.00    -0.200 F 
ENDBRANCH  45  59
BRANCH  46  70
ATOM     70  C   UNL A   1      39.473  31.981  35.489  1.00  0.00     0.064 A 
ATOM     71  C   UNL A   1      38.578  31.438  36.420  1.00  0.00     0.173 A 
ATOM     72  C   UNL A   1      39.909  33.299  35.694  1.00  0.00     0.173 A 
ATOM     73  F   UNL A   1      38.113  30.192  36.251  1.00  0.00    -0.203 F 
ATOM     74  C   UNL A   1      38.126  32.187  37.504  1.00  0.00     0.198 A 
ATOM     75  C   UNL A   1      39.481  34.037  36.795  1.00  0.00     0.198 A 
ATOM     76  F   UNL A   1      40.763  33.867  34.831  1.00  0.00    -0.203 F 
ATOM     77  F   UNL A   1      37.235  31.659  38.354  1.00  0.00    -0.200 F 
ATOM     78  C   UNL A   1      38.583  33.483  37.695  1.00  0.00     0.200 A 
ATOM     79  F   UNL A   1      39.934  35.284  36.983  1.00  0.00    -0.200 F 
ATOM     80  F   UNL A   1      38.150  34.201  38.740  1.00  0.00    -0.200 F 
ENDBRANCH  46  70
BRANCH  58  81
ATOM     81  C   UNL A   1      44.703  27.489  34.501  1.00  0.00     0.064 A 
ATOM     82  C   UNL A   1      44.559  26.341  35.295  1.00  0.00     0.173 A 
ATOM     83  C   UNL A   1      45.929  28.169  34.541  1.00  0.00     0.173 A 
ATOM     84  F   UNL A   1      43.399  25.667  35.305  1.00  0.00    -0.203 F 
ATOM     85  C   UNL A   1      45.597  25.907  36.115  1.00  0.00     0.198 A 
ATOM     86  C   UNL A   1      46.974  27.715  35.340  1.00  0.00     0.198 A 
ATOM     87  F   UNL A   1      46.117  29.268  33.796  1.00  0.00    -0.203 F 
ATOM     88  F   UNL A   1      45.422  24.836  36.901  1.00  0.00    -0.200 F 
ATOM     89  C   UNL A   1      46.804  26.589  36.132  1.00  0.00     0.200 A 
ATOM     90  F   UNL A   1      48.143  28.369  35.346  1.00  0.00    -0.200 F 
ATOM     91  F   UNL A   1      47.803  26.166  36.918  1.00  0.00    -0.200 F 
ENDBRANCH  58  81
ENDBRANCH  32  33
ENDBRANCH  25  27
ENDBRANCH  24  25
ENDBRANCH  23  24
ENDBRANCH   1  23
TORSDOF 14
ENDMDL
MODEL 2
REMARK VINA RESULT:     -11.6      4.424      9.579
REMARK SMILES CC[C@@H]1SC[C@@H](C(=O)OCCOC(=O)c2ccc(-c3c4nc(c(-c5c(F)c(F)c(F)c(F)c5F)c5ccc([nH]5)c(-c5c(F)c(F)c(F)c(F)c5F)c5nc(c(-c6c(F)c(F)c(F)c(F)c6F)c6ccc3[nH]6)C=C5)C=C4)cc2)N1C(=O)NC1C(C)(C)C1(C)C
REMARK SMILES IDX 10 1 9 2 7 3 8 4 6 5 3 6 4 7 78 8 5 9 2 10 1 11 79 12 80 13
REMARK SMILES IDX 81 14 82 16 83 17 86 18 84 19 85 20 87 21 88 22 11 23 12 24
REMARK SMILES IDX 13 25 14 26 15 27 16 28 77 29 17 30 76 31 18 32 19 33 20 34
REMARK SMILES IDX 70 35 21 36 75 37 69 38 71 39 22 40 74 41 68 42 67 43 23 45
REMARK SMILES IDX 55 46 35 47 54 48 36 49 39 50 53 51 72 52 37 53 38 54 52 56
REMARK SMILES IDX 73 57 40 58 24 59 25 60 33 61 26 62 27 63 31 64 34 65 28 66
REMARK SMILES IDX 29 67 32 68 30 69 56 70 57 71 65 72 58 73 59 74 63 75 66 76
REMARK SMILES IDX 60 77 61 78 64 79 62 80 41 81 42 82 50 83 43 84 44 85 48 86
REMARK SMILES IDX 51 87 45 88 46 89 49 90 47 91
REMARK H PARENT 81 15 71 44 39 55
REMARK Flexibility Score: inf
ROOT
ATOM      1  C   UNL A   1      35.764  20.405  25.002  1.00  0.00     0.274 C 
ENDROOT
BRANCH   1   2
ATOM      2  O   UNL A   1      34.783  21.363  24.558  1.00  0.00    -0.461 OA
BRANCH   2   3
ATOM      3  C   UNL A   1      33.848  21.715  25.486  1.00  0.00     0.329 C 
ATOM      4  O   UNL A   1      33.654  21.112  26.538  1.00  0.00    -0.250 OA
BRANCH   3   5
ATOM      5  C   UNL A   1      33.020  22.956  25.094  1.00  0.00     0.208 C 
ATOM      6  C   UNL A   1      33.531  24.040  22.947  1.00  0.00     0.145 C 
ATOM      7  S   UNL A   1      32.476  22.595  22.572  1.00  0.00    -0.134 SA
ATOM      8  N   UNL A   1      33.753  24.033  24.397  1.00  0.00    -0.298 N 
ATOM      9  C   UNL A   1      31.846  22.491  24.250  1.00  0.00     0.109 C 
BRANCH   6  10
ATOM     10  C   UNL A   1      32.948  25.378  22.436  1.00  0.00     0.033 C 
ATOM     11  C   UNL A   1      32.530  25.529  20.982  1.00  0.00     0.007 C 
ENDBRANCH   6  10
BRANCH   8  12
ATOM     12  C   UNL A   1      34.568  24.803  25.183  1.00  0.00     0.319 C 
ATOM     13  O   UNL A   1      35.744  24.465  25.372  1.00  0.00    -0.249 OA
ATOM     14  N   UNL A   1      34.188  25.955  25.785  1.00  0.00    -0.334 N 
ATOM     15  H   UNL A   1      34.926  26.394  26.268  1.00  0.00     0.165 HD
BRANCH  14  16
ATOM     16  C   UNL A   1      32.965  26.672  25.876  1.00  0.00     0.096 C 
ATOM     17  C   UNL A   1      32.901  27.998  26.637  1.00  0.00    -0.007 C 
ATOM     18  C   UNL A   1      32.614  27.945  25.130  1.00  0.00    -0.007 C 
ATOM     19  C   UNL A   1      31.771  28.203  27.622  1.00  0.00     0.014 C 
ATOM     20  C   UNL A   1      34.170  28.680  27.112  1.00  0.00     0.014 C 
ATOM     21  C   UNL A   1      33.578  28.562  24.147  1.00  0.00     0.014 C 
ATOM     22  C   UNL A   1      31.174  28.059  24.653  1.00  0.00     0.014 C 
ENDBRANCH  14  16
ENDBRANCH   8  12
ENDBRANCH   3   5
ENDBRANCH   2   3
ENDBRANCH   1   2
BRANCH   1  23
ATOM     23  C   UNL A   1      37.180  20.872  24.672  1.00  0.00     0.275 C 
BRANCH  23  24
ATOM     24  O   UNL A   1      37.692  21.664  25.756  1.00  0.00    -0.458 OA
BRANCH  24  25
ATOM     25  C   UNL A   1      38.966  21.407  26.126  1.00  0.00     0.338 C 
ATOM     26  O   UNL A   1      39.530  20.318  26.156  1.00  0.00    -0.246 OA
BRANCH  25  27
ATOM     27  C   UNL A   1      39.583  22.653  26.603  1.00  0.00     0.060 A 
ATOM     28  C   UNL A   1      39.151  23.891  26.124  1.00  0.00     0.016 A 
ATOM     29  C   UNL A   1      40.649  22.581  27.499  1.00  0.00     0.016 A 
ATOM     30  C   UNL A   1      39.806  25.060  26.501  1.00  0.00     0.010 A 
ATOM     31  C   UNL A   1      41.262  23.758  27.930  1.00  0.00     0.010 A 
ATOM     32  C   UNL A   1      40.859  25.006  27.422  1.00  0.00    -0.014 A 
BRANCH  32  33
ATOM     33  C   UNL A   1      41.561  26.242  27.846  1.00  0.00     0.031 A 
ATOM     34  C   UNL A   1      40.810  27.311  28.584  1.00  0.00     0.074 A 
ATOM     35  C   UNL A   1      42.860  26.417  27.539  1.00  0.00     0.049 A 
ATOM     36  N   UNL A   1      41.170  28.538  28.862  1.00  0.00    -0.248 NA
ATOM     37  C   UNL A   1      39.465  26.954  29.067  1.00  0.00     0.031 C 
ATOM     38  C   UNL A   1      43.711  25.436  26.865  1.00  0.00     0.029 A 
ATOM     39  N   UNL A   1      43.687  27.495  27.736  1.00  0.00    -0.354 N 
ATOM     40  C   UNL A   1      40.086  29.112  29.512  1.00  0.00     0.074 A 
ATOM     41  C   UNL A   1      39.052  28.103  29.584  1.00  0.00     0.031 C 
ATOM     42  C   UNL A   1      44.937  25.957  26.701  1.00  0.00     0.029 A 
ATOM     43  C   UNL A   1      44.937  27.331  27.190  1.00  0.00     0.049 A 
ATOM     44  H   UNL A   1      43.412  28.307  28.221  1.00  0.00     0.167 HD
ATOM     45  C   UNL A   1      39.970  30.371  29.997  1.00  0.00     0.037 A 
ATOM     46  C   UNL A   1      45.950  28.207  27.052  1.00  0.00     0.037 A 
ATOM     47  C   UNL A   1      41.019  31.357  29.950  1.00  0.00     0.049 A 
ATOM     48  C   UNL A   1      45.776  29.613  27.556  1.00  0.00     0.074 A 
ATOM     49  C   UNL A   1      41.010  32.651  30.444  1.00  0.00     0.029 A 
ATOM     50  N   UNL A   1      42.266  31.155  29.378  1.00  0.00    -0.354 N 
ATOM     51  N   UNL A   1      44.744  30.157  28.153  1.00  0.00    -0.248 NA
ATOM     52  C   UNL A   1      46.905  30.532  27.354  1.00  0.00     0.031 C 
ATOM     53  C   UNL A   1      42.236  33.246  30.131  1.00  0.00     0.029 A 
ATOM     54  C   UNL A   1      43.027  32.308  29.485  1.00  0.00     0.049 A 
ATOM     55  H   UNL A   1      42.565  30.317  28.958  1.00  0.00     0.167 HD
ATOM     56  C   UNL A   1      45.102  31.471  28.412  1.00  0.00     0.074 A 
ATOM     57  C   UNL A   1      46.457  31.640  27.926  1.00  0.00     0.031 C 
ATOM     58  C   UNL A   1      44.375  32.454  28.997  1.00  0.00     0.037 A 
BRANCH  45  59
ATOM     59  C   UNL A   1      38.651  30.771  30.594  1.00  0.00     0.064 A 
ATOM     60  C   UNL A   1      38.442  30.796  31.980  1.00  0.00     0.173 A 
ATOM     61  C   UNL A   1      37.599  31.182  29.762  1.00  0.00     0.173 A 
ATOM     62  F   UNL A   1      39.412  30.402  32.818  1.00  0.00    -0.203 F 
ATOM     63  C   UNL A   1      37.219  31.203  32.510  1.00  0.00     0.198 A 
ATOM     64  C   UNL A   1      36.388  31.613  30.297  1.00  0.00     0.198 A 
ATOM     65  F   UNL A   1      37.750  31.181  28.428  1.00  0.00    -0.203 F 
ATOM     66  F   UNL A   1      37.028  31.186  33.837  1.00  0.00    -0.200 F 
ATOM     67  C   UNL A   1      36.197  31.618  31.669  1.00  0.00     0.200 A 
ATOM     68  F   UNL A   1      35.406  32.025  29.483  1.00  0.00    -0.200 F 
ATOM     69  F   UNL A   1      35.026  32.020  32.183  1.00  0.00    -0.200 F 
ENDBRANCH  45  59
BRANCH  46  70
ATOM     70  C   UNL A   1      47.201  27.790  26.365  1.00  0.00     0.064 A 
ATOM     71  C   UNL A   1      47.305  27.828  24.968  1.00  0.00     0.173 A 
ATOM     72  C   UNL A   1      48.313  27.337  27.090  1.00  0.00     0.173 A 
ATOM     73  F   UNL A   1      46.259  28.228  24.230  1.00  0.00    -0.203 F 
ATOM     74  C   UNL A   1      48.468  27.415  24.323  1.00  0.00     0.198 A 
ATOM     75  C   UNL A   1      49.487  26.954  26.446  1.00  0.00     0.198 A 
ATOM     76  F   UNL A   1      48.264  27.278  28.429  1.00  0.00    -0.203 F 
ATOM     77  F   UNL A   1      48.525  27.417  22.984  1.00  0.00    -0.200 F 
ATOM     78  C   UNL A   1      49.561  26.984  25.062  1.00  0.00     0.200 A 
ATOM     79  F   UNL A   1      50.544  26.551  27.164  1.00  0.00    -0.200 F 
ATOM     80  F   UNL A   1      50.680  26.592  24.440  1.00  0.00    -0.200 F 
ENDBRANCH  46  70
BRANCH  58  81
ATOM     81  C   UNL A   1      45.040  33.788  29.168  1.00  0.00     0.064 A 
ATOM     82  C   UNL A   1      45.815  34.082  30.299  1.00  0.00     0.173 A 
ATOM     83  C   UNL A   1      44.926  34.771  28.173  1.00  0.00     0.173 A 
ATOM     84  F   UNL A   1      45.939  33.181  31.286  1.00  0.00    -0.203 F 
ATOM     85  C   UNL A   1      46.431  35.322  30.440  1.00  0.00     0.198 A 
ATOM     86  C   UNL A   1      45.567  35.999  28.304  1.00  0.00     0.198 A 
ATOM     87  F   UNL A   1      44.200  34.536  27.070  1.00  0.00    -0.203 F 
ATOM     88  F   UNL A   1      47.127  35.600  31.551  1.00  0.00    -0.200 F 
ATOM     89  C   UNL A   1      46.313  36.276  29.440  1.00  0.00     0.200 A 
ATOM     90  F   UNL A   1      45.461  36.915  27.332  1.00  0.00    -0.200 F 
ATOM     91  F   UNL A   1      46.911  37.468  29.575  1.00  0.00    -0.200 F 
ENDBRANCH  58  81
ENDBRANCH  32  33
ENDBRANCH  25  27
ENDBRANCH  24  25
ENDBRANCH  23  24
ENDBRANCH   1  23
TORSDOF 14
ENDMDL
MODEL 3
REMARK VINA RESULT:     -11.5      1.007      2.467
REMARK SMILES CC[C@@H]1SC[C@@H](C(=O)OCCOC(=O)c2ccc(-c3c4nc(c(-c5c(F)c(F)c(F)c(F)c5F)c5ccc([nH]5)c(-c5c(F)c(F)c(F)c(F)c5F)c5nc(c(-c6c(F)c(F)c(F)c(F)c6F)c6ccc3[nH]6)C=C5)C=C4)cc2)N1C(=O)NC1C(C)(C)C1(C)C
REMARK SMILES IDX 10 1 9 2 7 3 8 4 6 5 3 6 4 7 78 8 5 9 2 10 1 11 79 12 80 13
REMARK SMILES IDX 81 14 82 16 83 17 86 18 84 19 85 20 87 21 88 22 11 23 12 24
REMARK SMILES IDX 13 25 14 26 15 27 16 28 77 29 17 30 76 31 18 32 19 33 20 34
REMARK SMILES IDX 70 35 21 36 75 37 69 38 71 39 22 40 74 41 68 42 67 43 23 45
REMARK SMILES IDX 55 46 35 47 54 48 36 49 39 50 53 51 72 52 37 53 38 54 52 56
REMARK SMILES IDX 73 57 40 58 24 59 25 60 33 61 26 62 27 63 31 64 34 65 28 66
REMARK SMILES IDX 29 67 32 68 30 69 56 70 57 71 65 72 58 73 59 74 63 75 66 76
REMARK SMILES IDX 60 77 61 78 64 79 62 80 41 81 42 82 50 83 43 84 44 85 48 86
REMARK SMILES IDX 51 87 45 88 46 89 49 90 47 91
REMARK H PARENT 81 15 71 44 39 55
REMARK Flexibility Score: inf
ROOT
ATOM      1  C   UNL A   1      33.645  28.991  24.038  1.00  0.00     0.274 C 
ENDROOT
BRANCH   1   2
ATOM      2  O   UNL A   1      33.526  27.562  23.892  1.00  0.00    -0.461 OA
BRANCH   2   3
ATOM      3  C   UNL A   1      33.306  27.120  22.622  1.00  0.00     0.329 C 
ATOM      4  O   UNL A   1      33.849  27.583  21.622  1.00  0.00    -0.250 OA
BRANCH   3   5
ATOM      5  C   UNL A   1      32.283  25.969  22.533  1.00  0.00     0.208 C 
ATOM      6  C   UNL A   1      31.940  24.587  24.537  1.00  0.00     0.145 C 
ATOM      7  S   UNL A   1      30.960  26.112  24.772  1.00  0.00    -0.134 SA
ATOM      8  N   UNL A   1      32.636  24.729  23.253  1.00  0.00    -0.298 N 
ATOM      9  C   UNL A   1      30.942  26.492  23.017  1.00  0.00     0.109 C 
BRANCH   6  10
ATOM     10  C   UNL A   1      31.098  23.292  24.623  1.00  0.00     0.033 C 
ATOM     11  C   UNL A   1      30.739  22.698  25.976  1.00  0.00     0.007 C 
ENDBRANCH   6  10
BRANCH   8  12
ATOM     12  C   UNL A   1      33.592  23.948  22.661  1.00  0.00     0.319 C 
ATOM     13  O   UNL A   1      33.456  23.592  21.483  1.00  0.00    -0.249 OA
ATOM     14  N   UNL A   1      34.725  23.527  23.270  1.00  0.00    -0.334 N 
ATOM     15  H   UNL A   1      35.316  23.017  22.669  1.00  0.00     0.165 HD
BRANCH  14  16
ATOM     16  C   UNL A   1      35.254  23.654  24.583  1.00  0.00     0.096 C 
ATOM     17  C   UNL A   1      35.016  22.557  25.622  1.00  0.00    -0.007 C 
ATOM     18  C   UNL A   1      36.438  22.894  25.151  1.00  0.00    -0.007 C 
ATOM     19  C   UNL A   1      34.552  22.967  27.002  1.00  0.00     0.014 C 
ATOM     20  C   UNL A   1      34.414  21.224  25.217  1.00  0.00     0.014 C 
ATOM     21  C   UNL A   1      37.215  21.918  24.304  1.00  0.00     0.014 C 
ATOM     22  C   UNL A   1      37.349  23.684  26.078  1.00  0.00     0.014 C 
ENDBRANCH  14  16
ENDBRANCH   8  12
ENDBRANCH   3   5
ENDBRANCH   2   3
ENDBRANCH   1   2
BRANCH   1  23
ATOM     23  C   UNL A   1      32.517  29.554  24.899  1.00  0.00     0.275 C 
BRANCH  23  24
ATOM     24  O   UNL A   1      32.904  29.525  26.282  1.00  0.00    -0.458 OA
BRANCH  24  25
ATOM     25  C   UNL A   1      33.182  30.722  26.843  1.00  0.00     0.338 C 
ATOM     26  O   UNL A   1      32.585  31.781  26.679  1.00  0.00    -0.246 OA
BRANCH  25  27
ATOM     27  C   UNL A   1      34.413  30.600  27.638  1.00  0.00     0.060 A 
ATOM     28  C   UNL A   1      35.312  31.664  27.726  1.00  0.00     0.016 A 
ATOM     29  C   UNL A   1      34.700  29.386  28.259  1.00  0.00     0.016 A 
ATOM     30  C   UNL A   1      36.524  31.509  28.396  1.00  0.00     0.010 A 
ATOM     31  C   UNL A   1      35.882  29.251  28.988  1.00  0.00     0.010 A 
ATOM     32  C   UNL A   1      36.813  30.304  29.047  1.00  0.00    -0.014 A 
BRANCH  32  33
ATOM     33  C   UNL A   1      38.092  30.124  29.777  1.00  0.00     0.031 A 
ATOM     34  C   UNL A   1      39.157  29.234  29.207  1.00  0.00     0.074 A 
ATOM     35  C   UNL A   1      38.281  30.732  30.963  1.00  0.00     0.049 A 
ATOM     36  N   UNL A   1      40.249  28.780  29.770  1.00  0.00    -0.248 NA
ATOM     37  C   UNL A   1      38.963  28.784  27.819  1.00  0.00     0.031 C 
ATOM     38  C   UNL A   1      37.343  31.656  31.601  1.00  0.00     0.029 A 
ATOM     39  N   UNL A   1      39.321  30.646  31.855  1.00  0.00    -0.354 N 
ATOM     40  C   UNL A   1      40.848  27.960  28.824  1.00  0.00     0.074 A 
ATOM     41  C   UNL A   1      39.999  27.973  27.652  1.00  0.00     0.031 C 
ATOM     42  C   UNL A   1      37.846  32.048  32.781  1.00  0.00     0.029 A 
ATOM     43  C   UNL A   1      39.104  31.348  33.016  1.00  0.00     0.049 A 
ATOM     44  H   UNL A   1      40.142  30.131  31.681  1.00  0.00     0.167 HD
ATOM     45  C   UNL A   1      42.001  27.258  28.932  1.00  0.00     0.037 A 
ATOM     46  C   UNL A   1      39.813  31.382  34.160  1.00  0.00     0.037 A 
ATOM     47  C   UNL A   1      42.856  27.280  30.091  1.00  0.00     0.049 A 
ATOM     48  C   UNL A   1      41.063  30.554  34.271  1.00  0.00     0.074 A 
ATOM     49  C   UNL A   1      44.062  26.628  30.286  1.00  0.00     0.029 A 
ATOM     50  N   UNL A   1      42.595  27.994  31.251  1.00  0.00    -0.354 N 
ATOM     51  N   UNL A   1      41.617  29.767  33.382  1.00  0.00    -0.248 NA
ATOM     52  C   UNL A   1      41.781  30.610  35.553  1.00  0.00     0.031 C 
ATOM     53  C   UNL A   1      44.508  26.914  31.581  1.00  0.00     0.029 A 
ATOM     54  C   UNL A   1      43.605  27.781  32.175  1.00  0.00     0.049 A 
ATOM     55  H   UNL A   1      41.807  28.567  31.396  1.00  0.00     0.167 HD
ATOM     56  C   UNL A   1      42.752  29.247  33.986  1.00  0.00     0.074 A 
ATOM     57  C   UNL A   1      42.821  29.825  35.313  1.00  0.00     0.031 C 
ATOM     58  C   UNL A   1      43.656  28.368  33.490  1.00  0.00     0.037 A 
BRANCH  45  59
ATOM     59  C   UNL A   1      42.395  26.379  27.781  1.00  0.00     0.064 A 
ATOM     60  C   UNL A   1      41.812  25.120  27.576  1.00  0.00     0.173 A 
ATOM     61  C   UNL A   1      43.335  26.830  26.842  1.00  0.00     0.173 A 
ATOM     62  F   UNL A   1      40.917  24.639  28.450  1.00  0.00    -0.203 F 
ATOM     63  C   UNL A   1      42.172  24.337  26.480  1.00  0.00     0.198 A 
ATOM     64  C   UNL A   1      43.672  26.055  25.735  1.00  0.00     0.198 A 
ATOM     65  F   UNL A   1      43.918  28.029  26.990  1.00  0.00    -0.203 F 
ATOM     66  F   UNL A   1      41.629  23.121  26.322  1.00  0.00    -0.200 F 
ATOM     67  C   UNL A   1      43.094  24.808  25.558  1.00  0.00     0.200 A 
ATOM     68  F   UNL A   1      44.555  26.517  24.838  1.00  0.00    -0.200 F 
ATOM     69  F   UNL A   1      43.429  24.057  24.500  1.00  0.00    -0.200 F 
ENDBRANCH  45  59
BRANCH  46  70
ATOM     70  C   UNL A   1      39.328  32.192  35.308  1.00  0.00     0.064 A 
ATOM     71  C   UNL A   1      39.690  33.538  35.447  1.00  0.00     0.173 A 
ATOM     72  C   UNL A   1      38.501  31.633  36.294  1.00  0.00     0.173 A 
ATOM     73  F   UNL A   1      40.501  34.109  34.544  1.00  0.00    -0.203 F 
ATOM     74  C   UNL A   1      39.255  34.291  36.536  1.00  0.00     0.198 A 
ATOM     75  C   UNL A   1      38.041  32.395  37.366  1.00  0.00     0.198 A 
ATOM     76  F   UNL A   1      38.128  30.348  36.211  1.00  0.00    -0.203 F 
ATOM     77  F   UNL A   1      39.654  35.563  36.669  1.00  0.00    -0.200 F 
ATOM     78  C   UNL A   1      38.426  33.721  37.491  1.00  0.00     0.200 A 
ATOM     79  F   UNL A   1      37.230  31.844  38.279  1.00  0.00    -0.200 F 
ATOM     80  F   UNL A   1      38.005  34.447  38.535  1.00  0.00    -0.200 F 
ENDBRANCH  46  70
BRANCH  58  81
ATOM     81  C   UNL A   1      44.810  28.000  34.376  1.00  0.00     0.064 A 
ATOM     82  C   UNL A   1      45.988  28.760  34.399  1.00  0.00     0.173 A 
ATOM     83  C   UNL A   1      44.723  26.893  35.233  1.00  0.00     0.173 A 
ATOM     84  F   UNL A   1      46.127  29.817  33.584  1.00  0.00    -0.203 F 
ATOM     85  C   UNL A   1      47.048  28.410  35.231  1.00  0.00     0.198 A 
ATOM     86  C   UNL A   1      45.773  26.562  36.084  1.00  0.00     0.198 A 
ATOM     87  F   UNL A   1      43.614  26.138  35.251  1.00  0.00    -0.203 F 
ATOM     88  F   UNL A   1      48.183  29.121  35.203  1.00  0.00    -0.200 F 
ATOM     89  C   UNL A   1      46.937  27.317  36.077  1.00  0.00     0.200 A 
ATOM     90  F   UNL A   1      45.659  25.513  36.909  1.00  0.00    -0.200 F 
ATOM     91  F   UNL A   1      47.955  26.984  36.881  1.00  0.00    -0.200 F 
ENDBRANCH  58  81
ENDBRANCH  32  33
ENDBRANCH  25  27
ENDBRANCH  24  25
ENDBRANCH  23  24
ENDBRANCH   1  23
TORSDOF 14
ENDMDL
