MODEL 1
REMARK VINA RESULT:     -12.4      0.000      0.000
REMARK SMILES Cc1ccc2c(c1)C=C(C(=O)OCCOC(=O)c1ccc(-c3c4nc(c(-c5c(F)c(F)c(F)c(F)c5F)c5ccc([nH]5)c(-c5c(F)c(F)c(F)c(F)c5F)c5nc(c(-c6c(F)c(F)c(F)c(F)c6F)c6ccc3[nH]6)C=C5)C=C4)cc1)[C@@H](C(F)(F)F)O2
REMARK SMILES IDX 14 1 13 2 12 3 10 4 11 5 9 6 1 7 2 8 3 9 7 10 4 11 6 12 5 13
REMARK SMILES IDX 8 14 86 15 81 16 82 17 83 18 84 19 85 20 15 21 16 22 17 23
REMARK SMILES IDX 18 24 19 25 80 26 20 27 79 28 21 29 22 30 23 31 73 32 24 33
REMARK SMILES IDX 78 34 72 35 74 36 25 37 77 38 71 39 70 40 26 42 58 43 38 44
REMARK SMILES IDX 57 45 39 46 42 47 56 48 75 49 40 50 41 51 55 53 76 54 43 55
REMARK SMILES IDX 27 56 28 57 36 58 29 59 30 60 34 61 37 62 31 63 32 64 35 65
REMARK SMILES IDX 33 66 59 67 60 68 68 69 61 70 62 71 66 72 69 73 63 74 64 75
REMARK SMILES IDX 67 76 65 77 44 78 45 79 53 80 46 81 47 82 51 83 54 84 48 85
REMARK SMILES IDX 49 86 52 87 50 88
REMARK H PARENT 74 41 42 52
REMARK Flexibility Score: inf
ROOT
ATOM      1  C   UNL A   1      31.842  30.266  25.702  1.00  0.00     0.275 C 
ENDROOT
BRANCH   1   2
ATOM      2  C   UNL A   1      32.463  29.269  24.723  1.00  0.00     0.275 C 
BRANCH   2   3
ATOM      3  O   UNL A   1      32.925  28.077  25.398  1.00  0.00    -0.459 OA
BRANCH   3   4
ATOM      4  C   UNL A   1      32.204  26.956  25.166  1.00  0.00     0.338 C 
ATOM      5  O   UNL A   1      30.996  26.828  25.298  1.00  0.00    -0.246 OA
BRANCH   4   6
ATOM      6  C   UNL A   1      33.074  25.875  24.660  1.00  0.00     0.087 C 
ATOM      7  C   UNL A   1      38.247  22.822  26.042  1.00  0.00     0.044 C 
ATOM      8  C   UNL A   1      37.065  23.221  25.208  1.00  0.00    -0.050 A 
ATOM      9  C   UNL A   1      36.843  22.647  23.952  1.00  0.00     0.007 A 
ATOM     10  C   UNL A   1      36.142  24.150  25.695  1.00  0.00     0.015 A 
ATOM     11  C   UNL A   1      35.719  23.000  23.195  1.00  0.00     0.047 A 
ATOM     12  C   UNL A   1      35.033  24.521  24.923  1.00  0.00     0.017 A 
ATOM     13  C   UNL A   1      34.811  23.939  23.681  1.00  0.00     0.128 A 
ATOM     14  C   UNL A   1      34.123  25.530  25.416  1.00  0.00     0.027 C 
ATOM     15  O   UNL A   1      33.726  24.219  22.899  1.00  0.00    -0.475 OA
ATOM     16  C   UNL A   1      32.833  25.305  23.290  1.00  0.00     0.316 C 
BRANCH  16  17
ATOM     17  C   UNL A   1      32.908  26.409  22.222  1.00  0.00     0.430 C 
ATOM     18  F   UNL A   1      33.929  27.265  22.462  1.00  0.00    -0.167 F 
ATOM     19  F   UNL A   1      33.119  25.891  20.987  1.00  0.00    -0.167 F 
ATOM     20  F   UNL A   1      31.771  27.138  22.162  1.00  0.00    -0.167 F 
ENDBRANCH  16  17
ENDBRANCH   4   6
ENDBRANCH   3   4
ENDBRANCH   2   3
ENDBRANCH   1   2
BRANCH   1  21
ATOM     21  O   UNL A   1      32.579  30.282  26.938  1.00  0.00    -0.458 OA
BRANCH  21  22
ATOM     22  C   UNL A   1      33.229  31.434  27.218  1.00  0.00     0.338 C 
ATOM     23  O   UNL A   1      32.801  32.572  27.145  1.00  0.00    -0.246 OA
BRANCH  22  24
ATOM     24  C   UNL A   1      34.567  31.119  27.738  1.00  0.00     0.060 A 
ATOM     25  C   UNL A   1      35.503  32.114  27.997  1.00  0.00     0.016 A 
ATOM     26  C   UNL A   1      34.831  29.805  28.103  1.00  0.00     0.016 A 
ATOM     27  C   UNL A   1      36.714  31.765  28.608  1.00  0.00     0.010 A 
ATOM     28  C   UNL A   1      35.974  29.480  28.824  1.00  0.00     0.010 A 
ATOM     29  C   UNL A   1      36.953  30.449  29.061  1.00  0.00    -0.014 A 
BRANCH  29  30
ATOM     30  C   UNL A   1      38.211  30.087  29.775  1.00  0.00     0.031 A 
ATOM     31  C   UNL A   1      38.485  30.580  31.177  1.00  0.00     0.074 A 
ATOM     32  C   UNL A   1      39.140  29.337  29.147  1.00  0.00     0.049 A 
ATOM     33  N   UNL A   1      39.516  30.342  31.952  1.00  0.00    -0.248 NA
ATOM     34  C   UNL A   1      37.500  31.496  31.775  1.00  0.00     0.031 C 
ATOM     35  C   UNL A   1      39.063  28.886  27.757  1.00  0.00     0.029 A 
ATOM     36  N   UNL A   1      40.323  28.805  29.601  1.00  0.00    -0.354 N 
ATOM     37  C   UNL A   1      39.311  31.093  33.103  1.00  0.00     0.074 A 
ATOM     38  C   UNL A   1      38.099  31.852  32.901  1.00  0.00     0.031 C 
ATOM     39  C   UNL A   1      40.104  28.079  27.497  1.00  0.00     0.029 A 
ATOM     40  C   UNL A   1      40.940  27.983  28.689  1.00  0.00     0.049 A 
ATOM     41  H   UNL A   1      40.694  28.996  30.493  1.00  0.00     0.167 HD
ATOM     42  C   UNL A   1      40.039  31.115  34.246  1.00  0.00     0.037 A 
ATOM     43  C   UNL A   1      42.039  27.214  28.807  1.00  0.00     0.037 A 
ATOM     44  C   UNL A   1      41.206  30.307  34.479  1.00  0.00     0.049 A 
ATOM     45  C   UNL A   1      42.789  27.192  30.111  1.00  0.00     0.074 A 
ATOM     46  C   UNL A   1      41.958  30.191  35.634  1.00  0.00     0.029 A 
ATOM     47  N   UNL A   1      41.779  29.465  33.539  1.00  0.00    -0.354 N 
ATOM     48  N   UNL A   1      42.535  27.844  31.219  1.00  0.00    -0.248 NA
ATOM     49  C   UNL A   1      43.973  26.325  30.182  1.00  0.00     0.031 C 
ATOM     50  C   UNL A   1      43.003  29.295  35.386  1.00  0.00     0.029 A 
ATOM     51  C   UNL A   1      42.881  28.830  34.087  1.00  0.00     0.049 A 
ATOM     52  H   UNL A   1      41.453  29.338  32.619  1.00  0.00     0.167 HD
ATOM     53  C   UNL A   1      43.517  27.461  32.120  1.00  0.00     0.074 A 
ATOM     54  C   UNL A   1      44.359  26.499  31.438  1.00  0.00     0.031 C 
ATOM     55  C   UNL A   1      43.708  27.874  33.396  1.00  0.00     0.037 A 
BRANCH  42  56
ATOM     56  C   UNL A   1      39.567  32.009  35.358  1.00  0.00     0.064 A 
ATOM     57  C   UNL A   1      39.995  33.343  35.455  1.00  0.00     0.173 A 
ATOM     58  C   UNL A   1      38.636  31.551  36.302  1.00  0.00     0.173 A 
ATOM     59  F   UNL A   1      40.888  33.829  34.580  1.00  0.00    -0.203 F 
ATOM     60  C   UNL A   1      39.532  34.174  36.471  1.00  0.00     0.198 A 
ATOM     61  C   UNL A   1      38.152  32.395  37.300  1.00  0.00     0.198 A 
ATOM     62  F   UNL A   1      38.183  30.290  36.250  1.00  0.00    -0.203 F 
ATOM     63  F   UNL A   1      39.992  35.430  36.568  1.00  0.00    -0.200 F 
ATOM     64  C   UNL A   1      38.606  33.703  37.388  1.00  0.00     0.200 A 
ATOM     65  F   UNL A   1      37.243  31.943  38.176  1.00  0.00    -0.200 F 
ATOM     66  F   UNL A   1      38.152  34.508  38.358  1.00  0.00    -0.200 F 
ENDBRANCH  42  56
BRANCH  43  67
ATOM     67  C   UNL A   1      42.446  26.337  27.679  1.00  0.00     0.064 A 
ATOM     68  C   UNL A   1      41.821  25.099  27.481  1.00  0.00     0.173 A 
ATOM     69  C   UNL A   1      43.429  26.729  26.760  1.00  0.00     0.173 A 
ATOM     70  F   UNL A   1      40.886  24.675  28.344  1.00  0.00    -0.203 F 
ATOM     71  C   UNL A   1      42.171  24.279  26.409  1.00  0.00     0.198 A 
ATOM     72  C   UNL A   1      43.761  25.919  25.675  1.00  0.00     0.198 A 
ATOM     73  F   UNL A   1      44.051  27.908  26.903  1.00  0.00    -0.203 F 
ATOM     74  F   UNL A   1      41.576  23.088  26.259  1.00  0.00    -0.200 F 
ATOM     75  C   UNL A   1      43.134  24.693  25.503  1.00  0.00     0.200 A 
ATOM     76  F   UNL A   1      44.682  26.329  24.792  1.00  0.00    -0.200 F 
ATOM     77  F   UNL A   1      43.461  23.911  24.465  1.00  0.00    -0.200 F 
ENDBRANCH  43  67
BRANCH  55  78
ATOM     78  C   UNL A   1      44.870  27.295  34.146  1.00  0.00     0.064 A 
ATOM     79  C   UNL A   1      46.111  27.944  34.175  1.00  0.00     0.173 A 
ATOM     80  C   UNL A   1      44.718  26.122  34.901  1.00  0.00     0.173 A 
ATOM     81  F   UNL A   1      46.307  29.062  33.459  1.00  0.00    -0.203 F 
ATOM     82  C   UNL A   1      47.166  27.431  34.925  1.00  0.00     0.198 A 
ATOM     83  C   UNL A   1      45.767  25.627  35.669  1.00  0.00     0.198 A 
ATOM     84  F   UNL A   1      43.545  25.471  34.910  1.00  0.00    -0.203 F 
ATOM     85  F   UNL A   1      48.355  28.051  34.917  1.00  0.00    -0.200 F 
ATOM     86  C   UNL A   1      46.991  26.280  35.678  1.00  0.00     0.200 A 
ATOM     87  F   UNL A   1      45.593  24.522  36.406  1.00  0.00    -0.200 F 
ATOM     88  F   UNL A   1      48.003  25.797  36.411  1.00  0.00    -0.200 F 
ENDBRANCH  55  78
ENDBRANCH  29  30
ENDBRANCH  22  24
ENDBRANCH  21  22
ENDBRANCH   1  21
TORSDOF 12
ENDMDL
MODEL 2
REMARK VINA RESULT:     -12.3      0.199      2.035
REMARK SMILES Cc1ccc2c(c1)C=C(C(=O)OCCOC(=O)c1ccc(-c3c4nc(c(-c5c(F)c(F)c(F)c(F)c5F)c5ccc([nH]5)c(-c5c(F)c(F)c(F)c(F)c5F)c5nc(c(-c6c(F)c(F)c(F)c(F)c6F)c6ccc3[nH]6)C=C5)C=C4)cc1)[C@@H](C(F)(F)F)O2
REMARK SMILES IDX 14 1 13 2 12 3 10 4 11 5 9 6 1 7 2 8 3 9 7 10 4 11 6 12 5 13
REMARK SMILES IDX 8 14 86 15 81 16 82 17 83 18 84 19 85 20 15 21 16 22 17 23
REMARK SMILES IDX 18 24 19 25 80 26 20 27 79 28 21 29 22 30 23 31 73 32 24 33
REMARK SMILES IDX 78 34 72 35 74 36 25 37 77 38 71 39 70 40 26 42 58 43 38 44
REMARK SMILES IDX 57 45 39 46 42 47 56 48 75 49 40 50 41 51 55 53 76 54 43 55
REMARK SMILES IDX 27 56 28 57 36 58 29 59 30 60 34 61 37 62 31 63 32 64 35 65
REMARK SMILES IDX 33 66 59 67 60 68 68 69 61 70 62 71 66 72 69 73 63 74 64 75
REMARK SMILES IDX 67 76 65 77 44 78 45 79 53 80 46 81 47 82 51 83 54 84 48 85
REMARK SMILES IDX 49 86 52 87 50 88
REMARK H PARENT 74 41 42 52
REMARK Flexibility Score: inf
ROOT
ATOM      1  C   UNL A   1      31.824  30.161  25.525  1.00  0.00     0.275 C 
ENDROOT
BRANCH   1   2
ATOM      2  C   UNL A   1      32.470  29.164  24.561  1.00  0.00     0.275 C 
BRANCH   2   3
ATOM      3  O   UNL A   1      32.938  27.984  25.251  1.00  0.00    -0.459 OA
BRANCH   3   4
ATOM      4  C   UNL A   1      32.237  26.851  25.015  1.00  0.00     0.338 C 
ATOM      5  O   UNL A   1      31.028  26.710  25.115  1.00  0.00    -0.246 OA
BRANCH   4   6
ATOM      6  C   UNL A   1      33.134  25.773  24.551  1.00  0.00     0.087 C 
ATOM      7  C   UNL A   1      38.299  22.801  26.126  1.00  0.00     0.044 C 
ATOM      8  C   UNL A   1      37.137  23.174  25.253  1.00  0.00    -0.050 A 
ATOM      9  C   UNL A   1      36.958  22.579  23.999  1.00  0.00     0.007 A 
ATOM     10  C   UNL A   1      36.190  24.099  25.699  1.00  0.00     0.015 A 
ATOM     11  C   UNL A   1      35.853  22.908  23.205  1.00  0.00     0.047 A 
ATOM     12  C   UNL A   1      35.100  24.446  24.890  1.00  0.00     0.017 A 
ATOM     13  C   UNL A   1      34.921  23.843  23.650  1.00  0.00     0.128 A 
ATOM     14  C   UNL A   1      34.164  25.451  25.341  1.00  0.00     0.027 C 
ATOM     15  O   UNL A   1      33.856  24.100  22.833  1.00  0.00    -0.475 OA
ATOM     16  C   UNL A   1      32.940  25.180  23.182  1.00  0.00     0.316 C 
BRANCH  16  17
ATOM     17  C   UNL A   1      33.033  26.270  22.101  1.00  0.00     0.430 C 
ATOM     18  F   UNL A   1      31.892  26.995  22.025  1.00  0.00    -0.167 F 
ATOM     19  F   UNL A   1      34.032  27.147  22.365  1.00  0.00    -0.167 F 
ATOM     20  F   UNL A   1      33.268  25.752  20.874  1.00  0.00    -0.167 F 
ENDBRANCH  16  17
ENDBRANCH   4   6
ENDBRANCH   3   4
ENDBRANCH   2   3
ENDBRANCH   1   2
BRANCH   1  21
ATOM     21  O   UNL A   1      32.500  30.142  26.795  1.00  0.00    -0.458 OA
BRANCH  21  22
ATOM     22  C   UNL A   1      33.098  31.298  27.159  1.00  0.00     0.338 C 
ATOM     23  O   UNL A   1      32.627  32.421  27.148  1.00  0.00    -0.246 OA
BRANCH  22  24
ATOM     24  C   UNL A   1      34.440  31.003  27.683  1.00  0.00     0.060 A 
ATOM     25  C   UNL A   1      35.338  32.015  28.001  1.00  0.00     0.016 A 
ATOM     26  C   UNL A   1      34.743  29.682  27.990  1.00  0.00     0.016 A 
ATOM     27  C   UNL A   1      36.552  31.678  28.612  1.00  0.00     0.010 A 
ATOM     28  C   UNL A   1      35.887  29.363  28.712  1.00  0.00     0.010 A 
ATOM     29  C   UNL A   1      36.830  30.351  29.008  1.00  0.00    -0.014 A 
BRANCH  29  30
ATOM     30  C   UNL A   1      38.090  29.997  29.723  1.00  0.00     0.031 A 
ATOM     31  C   UNL A   1      38.350  30.476  31.132  1.00  0.00     0.074 A 
ATOM     32  C   UNL A   1      39.032  29.270  29.090  1.00  0.00     0.049 A 
ATOM     33  N   UNL A   1      39.381  30.242  31.908  1.00  0.00    -0.248 NA
ATOM     34  C   UNL A   1      37.349  31.370  31.738  1.00  0.00     0.031 C 
ATOM     35  C   UNL A   1      38.967  28.835  27.693  1.00  0.00     0.029 A 
ATOM     36  N   UNL A   1      40.220  28.748  29.542  1.00  0.00    -0.354 N 
ATOM     37  C   UNL A   1      39.160  30.975  33.069  1.00  0.00     0.074 A 
ATOM     38  C   UNL A   1      37.939  31.719  32.871  1.00  0.00     0.031 C 
ATOM     39  C   UNL A   1      40.020  28.047  27.427  1.00  0.00     0.029 A 
ATOM     40  C   UNL A   1      40.853  27.947  28.622  1.00  0.00     0.049 A 
ATOM     41  H   UNL A   1      40.584  28.932  30.438  1.00  0.00     0.167 HD
ATOM     42  C   UNL A   1      39.883  30.993  34.215  1.00  0.00     0.037 A 
ATOM     43  C   UNL A   1      41.962  27.193  28.735  1.00  0.00     0.037 A 
ATOM     44  C   UNL A   1      41.060  30.198  34.442  1.00  0.00     0.049 A 
ATOM     45  C   UNL A   1      42.706  27.165  30.041  1.00  0.00     0.074 A 
ATOM     46  C   UNL A   1      41.809  30.077  35.600  1.00  0.00     0.029 A 
ATOM     47  N   UNL A   1      41.650  29.377  33.494  1.00  0.00    -0.354 N 
ATOM     48  N   UNL A   1      42.438  27.798  31.156  1.00  0.00    -0.248 NA
ATOM     49  C   UNL A   1      43.903  26.313  30.106  1.00  0.00     0.031 C 
ATOM     50  C   UNL A   1      42.868  29.200  35.344  1.00  0.00     0.029 A 
ATOM     51  C   UNL A   1      42.758  28.750  34.039  1.00  0.00     0.049 A 
ATOM     52  H   UNL A   1      41.329  29.257  32.571  1.00  0.00     0.167 HD
ATOM     53  C   UNL A   1      43.422  27.416  32.057  1.00  0.00     0.074 A 
ATOM     54  C   UNL A   1      44.281  26.476  31.366  1.00  0.00     0.031 C 
ATOM     55  C   UNL A   1      43.602  27.816  33.339  1.00  0.00     0.037 A 
BRANCH  42  56
ATOM     56  C   UNL A   1      39.393  31.865  35.337  1.00  0.00     0.064 A 
ATOM     57  C   UNL A   1      38.564  31.355  36.350  1.00  0.00     0.173 A 
ATOM     58  C   UNL A   1      39.799  33.204  35.435  1.00  0.00     0.173 A 
ATOM     59  F   UNL A   1      38.143  30.082  36.299  1.00  0.00    -0.203 F 
ATOM     60  C   UNL A   1      38.137  32.161  37.401  1.00  0.00     0.198 A 
ATOM     61  C   UNL A   1      39.393  33.999  36.506  1.00  0.00     0.198 A 
ATOM     62  F   UNL A   1      40.600  33.739  34.503  1.00  0.00    -0.203 F 
ATOM     63  F   UNL A   1      37.308  31.662  38.330  1.00  0.00    -0.200 F 
ATOM     64  C   UNL A   1      38.557  33.479  37.483  1.00  0.00     0.200 A 
ATOM     65  F   UNL A   1      39.814  35.268  36.594  1.00  0.00    -0.200 F 
ATOM     66  F   UNL A   1      38.155  34.249  38.503  1.00  0.00    -0.200 F 
ENDBRANCH  42  56
BRANCH  43  67
ATOM     67  C   UNL A   1      42.387  26.337  27.596  1.00  0.00     0.064 A 
ATOM     68  C   UNL A   1      43.393  26.767  26.721  1.00  0.00     0.173 A 
ATOM     69  C   UNL A   1      41.831  25.068  27.382  1.00  0.00     0.173 A 
ATOM     70  F   UNL A   1      43.942  27.980  26.877  1.00  0.00    -0.203 F 
ATOM     71  C   UNL A   1      43.822  25.963  25.667  1.00  0.00     0.198 A 
ATOM     72  C   UNL A   1      42.277  24.255  26.341  1.00  0.00     0.198 A 
ATOM     73  F   UNL A   1      40.870  24.610  28.197  1.00  0.00    -0.203 F 
ATOM     74  F   UNL A   1      44.767  26.410  24.829  1.00  0.00    -0.200 F 
ATOM     75  C   UNL A   1      43.270  24.705  25.483  1.00  0.00     0.200 A 
ATOM     76  F   UNL A   1      41.752  23.034  26.175  1.00  0.00    -0.200 F 
ATOM     77  F   UNL A   1      43.693  23.926  24.478  1.00  0.00    -0.200 F 
ENDBRANCH  43  67
BRANCH  55  78
ATOM     78  C   UNL A   1      44.768  27.243  34.086  1.00  0.00     0.064 A 
ATOM     79  C   UNL A   1      44.660  26.035  34.786  1.00  0.00     0.173 A 
ATOM     80  C   UNL A   1      46.022  27.871  34.039  1.00  0.00     0.173 A 
ATOM     81  F   UNL A   1      43.478  25.405  34.869  1.00  0.00    -0.203 F 
ATOM     82  C   UNL A   1      45.765  25.478  35.424  1.00  0.00     0.198 A 
ATOM     83  C   UNL A   1      47.131  27.298  34.657  1.00  0.00     0.198 A 
ATOM     84  F   UNL A   1      46.176  29.025  33.374  1.00  0.00    -0.203 F 
ATOM     85  F   UNL A   1      45.634  24.336  36.113  1.00  0.00    -0.200 F 
ATOM     86  C   UNL A   1      47.001  26.105  35.351  1.00  0.00     0.200 A 
ATOM     87  F   UNL A   1      48.326  27.899  34.575  1.00  0.00    -0.200 F 
ATOM     88  F   UNL A   1      48.066  25.560  35.954  1.00  0.00    -0.200 F 
ENDBRANCH  55  78
ENDBRANCH  29  30
ENDBRANCH  22  24
ENDBRANCH  21  22
ENDBRANCH   1  21
TORSDOF 12
ENDMDL
MODEL 3
REMARK VINA RESULT:     -12.3      4.242      9.587
REMARK SMILES Cc1ccc2c(c1)C=C(C(=O)OCCOC(=O)c1ccc(-c3c4nc(c(-c5c(F)c(F)c(F)c(F)c5F)c5ccc([nH]5)c(-c5c(F)c(F)c(F)c(F)c5F)c5nc(c(-c6c(F)c(F)c(F)c(F)c6F)c6ccc3[nH]6)C=C5)C=C4)cc1)[C@@H](C(F)(F)F)O2
REMARK SMILES IDX 14 1 13 2 12 3 10 4 11 5 9 6 1 7 2 8 3 9 7 10 4 11 6 12 5 13
REMARK SMILES IDX 8 14 86 15 81 16 82 17 83 18 84 19 85 20 15 21 16 22 17 23
REMARK SMILES IDX 18 24 19 25 80 26 20 27 79 28 21 29 22 30 23 31 73 32 24 33
REMARK SMILES IDX 78 34 72 35 74 36 25 37 77 38 71 39 70 40 26 42 58 43 38 44
REMARK SMILES IDX 57 45 39 46 42 47 56 48 75 49 40 50 41 51 55 53 76 54 43 55
REMARK SMILES IDX 27 56 28 57 36 58 29 59 30 60 34 61 37 62 31 63 32 64 35 65
REMARK SMILES IDX 33 66 59 67 60 68 68 69 61 70 62 71 66 72 69 73 63 74 64 75
REMARK SMILES IDX 67 76 65 77 44 78 45 79 53 80 46 81 47 82 51 83 54 84 48 85
REMARK SMILES IDX 49 86 52 87 50 88
REMARK H PARENT 74 41 42 52
REMARK Flexibility Score: inf
ROOT
ATOM      1  C   UNL A   1      36.336  20.751  25.376  1.00  0.00     0.275 C 
ENDROOT
BRANCH   1   2
ATOM      2  C   UNL A   1      35.128  21.470  25.977  1.00  0.00     0.275 C 
BRANCH   2   3
ATOM      3  O   UNL A   1      35.076  22.856  25.570  1.00  0.00    -0.459 OA
BRANCH   3   4
ATOM      4  C   UNL A   1      34.067  23.182  24.730  1.00  0.00     0.338 C 
ATOM      5  O   UNL A   1      33.753  22.593  23.707  1.00  0.00    -0.246 OA
BRANCH   4   6
ATOM      6  C   UNL A   1      33.322  24.349  25.244  1.00  0.00     0.087 C 
ATOM      7  C   UNL A   1      34.202  30.103  27.275  1.00  0.00     0.044 C 
ATOM      8  C   UNL A   1      33.428  28.853  26.970  1.00  0.00    -0.050 A 
ATOM      9  C   UNL A   1      32.059  28.770  27.243  1.00  0.00     0.007 A 
ATOM     10  C   UNL A   1      34.062  27.763  26.368  1.00  0.00     0.015 A 
ATOM     11  C   UNL A   1      31.337  27.613  26.924  1.00  0.00     0.047 A 
ATOM     12  C   UNL A   1      33.342  26.597  26.074  1.00  0.00     0.017 A 
ATOM     13  C   UNL A   1      31.979  26.523  26.338  1.00  0.00     0.128 A 
ATOM     14  C   UNL A   1      34.026  25.456  25.510  1.00  0.00     0.027 C 
ATOM     15  O   UNL A   1      31.209  25.436  26.033  1.00  0.00    -0.475 OA
ATOM     16  C   UNL A   1      31.859  24.217  25.565  1.00  0.00     0.316 C 
BRANCH  16  17
ATOM     17  C   UNL A   1      31.630  23.109  26.606  1.00  0.00     0.430 C 
ATOM     18  F   UNL A   1      30.448  23.265  27.247  1.00  0.00    -0.167 F 
ATOM     19  F   UNL A   1      31.599  21.883  26.028  1.00  0.00    -0.167 F 
ATOM     20  F   UNL A   1      32.603  23.084  27.547  1.00  0.00    -0.167 F 
ENDBRANCH  16  17
ENDBRANCH   4   6
ENDBRANCH   3   4
ENDBRANCH   2   3
ENDBRANCH   1   2
BRANCH   1  21
ATOM     21  O   UNL A   1      37.437  21.664  25.217  1.00  0.00    -0.458 OA
BRANCH  21  22
ATOM     22  C   UNL A   1      38.596  21.293  25.805  1.00  0.00     0.338 C 
ATOM     23  O   UNL A   1      39.122  20.195  25.796  1.00  0.00    -0.246 OA
BRANCH  22  24
ATOM     24  C   UNL A   1      39.225  22.471  26.419  1.00  0.00     0.060 A 
ATOM     25  C   UNL A   1      40.401  22.373  27.152  1.00  0.00     0.016 A 
ATOM     26  C   UNL A   1      38.689  23.720  26.129  1.00  0.00     0.016 A 
ATOM     27  C   UNL A   1      41.019  23.545  27.607  1.00  0.00     0.010 A 
ATOM     28  C   UNL A   1      39.368  24.884  26.468  1.00  0.00     0.010 A 
ATOM     29  C   UNL A   1      40.530  24.818  27.243  1.00  0.00    -0.014 A 
BRANCH  29  30
ATOM     30  C   UNL A   1      41.223  26.070  27.665  1.00  0.00     0.031 A 
ATOM     31  C   UNL A   1      42.635  26.370  27.219  1.00  0.00     0.074 A 
ATOM     32  C   UNL A   1      40.595  26.933  28.489  1.00  0.00     0.049 A 
ATOM     33  N   UNL A   1      43.378  27.421  27.474  1.00  0.00    -0.248 NA
ATOM     34  C   UNL A   1      43.325  25.343  26.422  1.00  0.00     0.031 C 
ATOM     35  C   UNL A   1      39.277  26.720  29.089  1.00  0.00     0.029 A 
ATOM     36  N   UNL A   1      40.971  28.172  28.951  1.00  0.00    -0.354 N 
ATOM     37  C   UNL A   1      44.615  27.165  26.894  1.00  0.00     0.074 A 
ATOM     38  C   UNL A   1      44.552  25.834  26.338  1.00  0.00     0.031 C 
ATOM     39  C   UNL A   1      38.918  27.821  29.768  1.00  0.00     0.029 A 
ATOM     40  C   UNL A   1      39.994  28.804  29.681  1.00  0.00     0.049 A 
ATOM     41  H   UNL A   1      41.855  28.567  28.776  1.00  0.00     0.167 HD
ATOM     42  C   UNL A   1      45.692  27.981  26.791  1.00  0.00     0.037 A 
ATOM     43  C   UNL A   1      39.954  30.047  30.198  1.00  0.00     0.037 A 
ATOM     44  C   UNL A   1      45.734  29.333  27.280  1.00  0.00     0.049 A 
ATOM     45  C   UNL A   1      41.130  30.965  30.004  1.00  0.00     0.074 A 
ATOM     46  C   UNL A   1      46.744  30.268  27.144  1.00  0.00     0.029 A 
ATOM     47  N   UNL A   1      44.711  29.945  27.988  1.00  0.00    -0.354 N 
ATOM     48  N   UNL A   1      42.259  30.738  29.381  1.00  0.00    -0.248 NA
ATOM     49  C   UNL A   1      41.022  32.312  30.582  1.00  0.00     0.031 C 
ATOM     50  C   UNL A   1      46.342  31.441  27.791  1.00  0.00     0.029 A 
ATOM     51  C   UNL A   1      45.069  31.245  28.301  1.00  0.00     0.049 A 
ATOM     52  H   UNL A   1      43.858  29.519  28.231  1.00  0.00     0.167 HD
ATOM     53  C   UNL A   1      42.992  31.911  29.480  1.00  0.00     0.074 A 
ATOM     54  C   UNL A   1      42.169  32.859  30.204  1.00  0.00     0.031 C 
ATOM     55  C   UNL A   1      44.239  32.177  29.020  1.00  0.00     0.037 A 
BRANCH  42  56
ATOM     56  C   UNL A   1      46.904  27.451  26.077  1.00  0.00     0.064 A 
ATOM     57  C   UNL A   1      47.063  27.612  24.691  1.00  0.00     0.173 A 
ATOM     58  C   UNL A   1      47.942  26.830  26.787  1.00  0.00     0.173 A 
ATOM     59  F   UNL A   1      46.097  28.195  23.965  1.00  0.00    -0.203 F 
ATOM     60  C   UNL A   1      48.201  27.144  24.040  1.00  0.00     0.198 A 
ATOM     61  C   UNL A   1      49.093  26.391  26.136  1.00  0.00     0.198 A 
ATOM     62  F   UNL A   1      47.849  26.662  28.114  1.00  0.00    -0.203 F 
ATOM     63  F   UNL A   1      48.308  27.269  22.709  1.00  0.00    -0.200 F 
ATOM     64  C   UNL A   1      49.218  26.541  24.763  1.00  0.00     0.200 A 
ATOM     65  F   UNL A   1      50.084  25.823  26.838  1.00  0.00    -0.200 F 
ATOM     66  F   UNL A   1      50.318  26.103  24.136  1.00  0.00    -0.200 F 
ENDBRANCH  42  56
BRANCH  43  67
ATOM     67  C   UNL A   1      38.720  30.520  30.877  1.00  0.00     0.064 A 
ATOM     68  C   UNL A   1      38.626  30.496  32.275  1.00  0.00     0.173 A 
ATOM     69  C   UNL A   1      37.635  31.037  30.157  1.00  0.00     0.173 A 
ATOM     70  F   UNL A   1      39.633  29.995  33.006  1.00  0.00    -0.203 F 
ATOM     71  C   UNL A   1      37.487  30.964  32.928  1.00  0.00     0.198 A 
ATOM     72  C   UNL A   1      36.506  31.526  30.812  1.00  0.00     0.198 A 
ATOM     73  F   UNL A   1      37.681  31.087  28.817  1.00  0.00    -0.203 F 
ATOM     74  F   UNL A   1      37.412  30.904  34.265  1.00  0.00    -0.200 F 
ATOM     75  C   UNL A   1      36.432  31.486  32.197  1.00  0.00     0.200 A 
ATOM     76  F   UNL A   1      35.494  32.044  30.103  1.00  0.00    -0.200 F 
ATOM     77  F   UNL A   1      35.343  31.949  32.825  1.00  0.00    -0.200 F 
ENDBRANCH  43  67
BRANCH  55  78
ATOM     78  C   UNL A   1      44.797  33.543  29.280  1.00  0.00     0.064 A 
ATOM     79  C   UNL A   1      45.586  33.803  30.408  1.00  0.00     0.173 A 
ATOM     80  C   UNL A   1      44.602  34.581  28.356  1.00  0.00     0.173 A 
ATOM     81  F   UNL A   1      45.790  32.844  31.325  1.00  0.00    -0.203 F 
ATOM     82  C   UNL A   1      46.153  35.058  30.609  1.00  0.00     0.198 A 
ATOM     83  C   UNL A   1      45.190  35.828  28.548  1.00  0.00     0.198 A 
ATOM     84  F   UNL A   1      43.860  34.377  27.257  1.00  0.00    -0.203 F 
ATOM     85  F   UNL A   1      46.881  35.295  31.709  1.00  0.00    -0.200 F 
ATOM     86  C   UNL A   1      45.962  36.066  29.675  1.00  0.00     0.200 A 
ATOM     87  F   UNL A   1      45.016  36.796  27.639  1.00  0.00    -0.200 F 
ATOM     88  F   UNL A   1      46.521  37.269  29.863  1.00  0.00    -0.200 F 
ENDBRANCH  55  78
ENDBRANCH  29  30
ENDBRANCH  22  24
ENDBRANCH  21  22
ENDBRANCH   1  21
TORSDOF 12
ENDMDL
