MODEL 1
REMARK VINA RESULT:     -13.9      0.000      0.000
REMARK SMILES O=C(NC(=S)Nc1ccccc1C(=O)OCCOC(=O)c1ccc(-c2c3nc(c(-c4c(F)c(F)c(F)c(F)c4F)c4ccc([nH]4)c(-c4c(F)c(F)c(F)c(F)c4F)c4nc(c(-c5c(F)c(F)c(F)c(F)c5F)c5ccc2[nH]5)C=C4)C=C3)cc1)c1ccc2ccccc2c1
REMARK SMILES IDX 16 1 15 2 13 3 14 4 12 5 7 6 8 7 9 8 11 9 10 10 6 11 4 13
REMARK SMILES IDX 5 14 3 15 1 16 2 17 84 19 85 20 93 21 86 22 92 23 87 24
REMARK SMILES IDX 91 25 88 26 90 27 89 28 17 29 18 30 19 31 20 32 21 33 22 34
REMARK SMILES IDX 83 35 23 36 82 37 24 38 25 39 26 40 76 41 27 42 81 43 75 44
REMARK SMILES IDX 77 45 28 46 80 47 74 48 73 49 29 51 61 52 41 53 60 54 42 55
REMARK SMILES IDX 45 56 59 57 78 58 43 59 44 60 58 62 79 63 46 64 30 65 31 66
REMARK SMILES IDX 39 67 32 68 33 69 37 70 40 71 34 72 35 73 38 74 36 75 62 76
REMARK SMILES IDX 63 77 71 78 64 79 65 80 69 81 72 82 66 83 67 84 70 85 68 86
REMARK SMILES IDX 47 87 48 88 56 89 49 90 50 91 54 92 57 93 51 94 52 95 55 96
REMARK SMILES IDX 53 97
REMARK H PARENT 6 12 3 18 77 50 45 61
REMARK Flexibility Score: inf
ROOT
ATOM      1  C   UNL A   1      32.872  29.690  24.978  1.00  0.00     0.275 C 
ENDROOT
BRANCH   1   2
ATOM      2  O   UNL A   1      32.357  28.416  24.510  1.00  0.00    -0.458 OA
BRANCH   2   3
ATOM      3  C   UNL A   1      32.154  28.406  23.177  1.00  0.00     0.340 C 
ATOM      4  O   UNL A   1      32.996  28.729  22.348  1.00  0.00    -0.246 OA
BRANCH   3   5
ATOM      5  C   UNL A   1      30.775  28.141  22.688  1.00  0.00     0.083 A 
ATOM      6  C   UNL A   1      29.805  26.690  23.604  1.00  0.00     0.055 A 
ATOM      7  C   UNL A   1      27.818  26.864  23.882  1.00  0.00     0.027 A 
ATOM      8  C   UNL A   1      27.094  28.557  23.152  1.00  0.00     0.002 A 
ATOM      9  C   UNL A   1      30.044  29.847  22.004  1.00  0.00     0.018 A 
ATOM     10  C   UNL A   1      28.061  30.016  22.250  1.00  0.00     0.001 A 
BRANCH   6  11
ATOM     11  N   UNL A   1      30.484  25.984  24.613  1.00  0.00    -0.332 N 
ATOM     12  H   UNL A   1      30.845  26.507  25.364  1.00  0.00     0.169 HD
BRANCH  11  13
ATOM     13  C   UNL A   1      30.684  24.644  24.638  1.00  0.00     0.177 C 
ATOM     14  S   UNL A   1      31.464  23.934  23.337  1.00  0.00    -0.040 S 
BRANCH  13  15
ATOM     15  N   UNL A   1      30.214  23.814  25.655  1.00  0.00    -0.299 N 
ATOM     16  O   UNL A   1      29.663  22.598  27.513  1.00  0.00    -0.269 OA
ATOM     17  C   UNL A   1      30.569  23.107  26.847  1.00  0.00     0.257 C 
ATOM     18  H   UNL A   1      29.258  23.650  25.486  1.00  0.00     0.172 HD
BRANCH  17  19
ATOM     19  C   UNL A   1      31.940  22.981  27.428  1.00  0.00     0.040 A 
ATOM     20  C   UNL A   1      32.854  23.653  26.847  1.00  0.00     0.014 A 
ATOM     21  C   UNL A   1      33.114  22.648  26.915  1.00  0.00     0.022 A 
ATOM     22  C   UNL A   1      34.678  23.880  25.963  1.00  0.00     0.009 A 
ATOM     23  C   UNL A   1      34.993  22.591  26.030  1.00  0.00    -0.018 A 
ATOM     24  C   UNL A   1      35.822  23.456  25.635  1.00  0.00    -0.018 A 
ATOM     25  C   UNL A   1      36.121  21.496  25.558  1.00  0.00     0.009 A 
ATOM     26  C   UNL A   1      37.180  23.766  26.015  1.00  0.00     0.009 A 
ATOM     27  C   UNL A   1      37.535  21.616  25.333  1.00  0.00     0.001 A 
ATOM     28  C   UNL A   1      38.095  22.805  25.711  1.00  0.00     0.001 A 
ENDBRANCH  17  19
ENDBRANCH  13  15
ENDBRANCH  11  13
ENDBRANCH   6  11
ENDBRANCH   3   5
ENDBRANCH   2   3
ENDBRANCH   1   2
BRANCH   1  29
ATOM     29  C   UNL A   1      31.952  30.407  25.973  1.00  0.00     0.275 C 
BRANCH  29  30
ATOM     30  O   UNL A   1      32.544  30.534  27.280  1.00  0.00    -0.458 OA
BRANCH  30  31
ATOM     31  C   UNL A   1      33.301  31.640  27.450  1.00  0.00     0.338 C 
ATOM     32  O   UNL A   1      32.923  32.802  27.433  1.00  0.00    -0.246 OA
BRANCH  31  33
ATOM     33  C   UNL A   1      34.705  31.304  27.744  1.00  0.00     0.060 A 
ATOM     34  C   UNL A   1      35.029  29.991  28.040  1.00  0.00     0.016 A 
ATOM     35  C   UNL A   1      35.627  32.311  28.017  1.00  0.00     0.016 A 
ATOM     36  C   UNL A   1      36.154  29.704  28.797  1.00  0.00     0.010 A 
ATOM     37  C   UNL A   1      36.859  31.984  28.605  1.00  0.00     0.010 A 
ATOM     38  C   UNL A   1      37.115  30.679  29.063  1.00  0.00    -0.014 A 
BRANCH  38  39
ATOM     39  C   UNL A   1      38.338  30.315  29.839  1.00  0.00     0.031 A 
ATOM     40  C   UNL A   1      39.384  29.410  29.236  1.00  0.00     0.074 A 
ATOM     41  C   UNL A   1      38.546  30.828  31.072  1.00  0.00     0.049 A 
ATOM     42  N   UNL A   1      40.384  28.796  29.819  1.00  0.00    -0.248 NA
ATOM     43  C   UNL A   1      39.282  29.143  27.793  1.00  0.00     0.031 C 
ATOM     44  C   UNL A   1      37.669  31.780  31.760  1.00  0.00     0.029 A 
ATOM     45  N   UNL A   1      39.570  30.634  31.969  1.00  0.00    -0.354 N 
ATOM     46  C   UNL A   1      40.972  28.009  28.835  1.00  0.00     0.074 A 
ATOM     47  C   UNL A   1      40.221  28.225  27.618  1.00  0.00     0.031 C 
ATOM     48  C   UNL A   1      38.222  32.144  32.922  1.00  0.00     0.029 A 
ATOM     49  C   UNL A   1      39.401  31.323  33.147  1.00  0.00     0.049 A 
ATOM     50  H   UNL A   1      40.348  30.060  31.785  1.00  0.00     0.167 HD
ATOM     51  C   UNL A   1      42.037  27.177  28.950  1.00  0.00     0.037 A 
ATOM     52  C   UNL A   1      40.055  31.245  34.319  1.00  0.00     0.037 A 
ATOM     53  C   UNL A   1      42.806  27.019  30.160  1.00  0.00     0.049 A 
ATOM     54  C   UNL A   1      41.179  30.260  34.446  1.00  0.00     0.074 A 
ATOM     55  C   UNL A   1      43.908  26.213  30.384  1.00  0.00     0.029 A 
ATOM     56  N   UNL A   1      42.555  27.690  31.350  1.00  0.00    -0.354 N 
ATOM     57  N   UNL A   1      41.682  29.459  33.539  1.00  0.00    -0.248 NA
ATOM     58  C   UNL A   1      41.810  30.151  35.766  1.00  0.00     0.031 C 
ATOM     59  C   UNL A   1      44.281  26.345  31.726  1.00  0.00     0.029 A 
ATOM     60  C   UNL A   1      43.462  27.293  32.320  1.00  0.00     0.049 A 
ATOM     61  H   UNL A   1      41.839  28.352  31.485  1.00  0.00     0.167 HD
ATOM     62  C   UNL A   1      42.699  28.761  34.171  1.00  0.00     0.074 A 
ATOM     63  C   UNL A   1      42.758  29.256  35.532  1.00  0.00     0.031 C 
ATOM     64  C   UNL A   1      43.508  27.794  33.671  1.00  0.00     0.037 A 
BRANCH  51  65
ATOM     65  C   UNL A   1      42.390  26.323  27.762  1.00  0.00     0.064 A 
ATOM     66  C   UNL A   1      43.394  26.675  26.848  1.00  0.00     0.173 A 
ATOM     67  C   UNL A   1      41.714  25.110  27.548  1.00  0.00     0.173 A 
ATOM     68  F   UNL A   1      44.067  27.826  26.994  1.00  0.00    -0.203 F 
ATOM     69  C   UNL A   1      43.680  25.867  25.747  1.00  0.00     0.198 A 
ATOM     70  C   UNL A   1      42.028  24.286  26.470  1.00  0.00     0.198 A 
ATOM     71  F   UNL A   1      40.749  24.715  28.393  1.00  0.00    -0.203 F 
ATOM     72  F   UNL A   1      44.599  26.258  24.853  1.00  0.00    -0.200 F 
ATOM     73  C   UNL A   1      43.003  24.672  25.563  1.00  0.00     0.200 A 
ATOM     74  F   UNL A   1      41.384  23.122  26.307  1.00  0.00    -0.200 F 
ATOM     75  F   UNL A   1      43.281  23.895  24.507  1.00  0.00    -0.200 F 
ENDBRANCH  51  65
BRANCH  52  76
ATOM     76  C   UNL A   1      39.602  32.060  35.480  1.00  0.00     0.064 A 
ATOM     77  C   UNL A   1      40.099  33.352  35.694  1.00  0.00     0.173 A 
ATOM     78  C   UNL A   1      38.652  31.570  36.392  1.00  0.00     0.173 A 
ATOM     79  F   UNL A   1      41.027  33.858  34.869  1.00  0.00    -0.203 F 
ATOM     80  C   UNL A   1      39.673  34.116  36.780  1.00  0.00     0.198 A 
ATOM     81  C   UNL A   1      38.194  32.351  37.449  1.00  0.00     0.198 A 
ATOM     82  F   UNL A   1      38.141  30.339  36.236  1.00  0.00    -0.203 F 
ATOM     83  F   UNL A   1      40.201  35.330  36.989  1.00  0.00    -0.200 F 
ATOM     84  C   UNL A   1      38.711  33.620  37.649  1.00  0.00     0.200 A 
ATOM     85  F   UNL A   1      37.248  31.876  38.270  1.00  0.00    -0.200 F 
ATOM     86  F   UNL A   1      38.292  34.363  38.682  1.00  0.00    -0.200 F 
ENDBRANCH  52  76
BRANCH  64  87
ATOM     87  C   UNL A   1      44.557  27.245  34.595  1.00  0.00     0.064 A 
ATOM     88  C   UNL A   1      45.818  27.844  34.723  1.00  0.00     0.173 A 
ATOM     89  C   UNL A   1      44.290  26.103  35.366  1.00  0.00     0.173 A 
ATOM     90  F   UNL A   1      46.131  28.925  33.993  1.00  0.00    -0.203 F 
ATOM     91  C   UNL A   1      46.787  27.297  35.560  1.00  0.00     0.198 A 
ATOM     92  C   UNL A   1      45.246  25.585  36.234  1.00  0.00     0.198 A 
ATOM     93  F   UNL A   1      43.097  25.494  35.285  1.00  0.00    -0.203 F 
ATOM     94  F   UNL A   1      48.009  27.845  35.613  1.00  0.00    -0.200 F 
ATOM     95  C   UNL A   1      46.498  26.175  36.320  1.00  0.00     0.200 A 
ATOM     96  F   UNL A   1      44.958  24.510  36.980  1.00  0.00    -0.200 F 
ATOM     97  F   UNL A   1      47.431  25.652  37.129  1.00  0.00    -0.200 F 
ENDBRANCH  64  87
ENDBRANCH  38  39
ENDBRANCH  31  33
ENDBRANCH  30  31
ENDBRANCH  29  30
ENDBRANCH   1  29
TORSDOF 15
ENDMDL
MODEL 2
REMARK VINA RESULT:     -13.5      1.608      2.474
REMARK SMILES O=C(NC(=S)Nc1ccccc1C(=O)OCCOC(=O)c1ccc(-c2c3nc(c(-c4c(F)c(F)c(F)c(F)c4F)c4ccc([nH]4)c(-c4c(F)c(F)c(F)c(F)c4F)c4nc(c(-c5c(F)c(F)c(F)c(F)c5F)c5ccc2[nH]5)C=C4)C=C3)cc1)c1ccc2ccccc2c1
REMARK SMILES IDX 16 1 15 2 13 3 14 4 12 5 7 6 8 7 9 8 11 9 10 10 6 11 4 13
REMARK SMILES IDX 5 14 3 15 1 16 2 17 84 19 85 20 93 21 86 22 92 23 87 24
REMARK SMILES IDX 91 25 88 26 90 27 89 28 17 29 18 30 19 31 20 32 21 33 22 34
REMARK SMILES IDX 83 35 23 36 82 37 24 38 25 39 26 40 76 41 27 42 81 43 75 44
REMARK SMILES IDX 77 45 28 46 80 47 74 48 73 49 29 51 61 52 41 53 60 54 42 55
REMARK SMILES IDX 45 56 59 57 78 58 43 59 44 60 58 62 79 63 46 64 30 65 31 66
REMARK SMILES IDX 39 67 32 68 33 69 37 70 40 71 34 72 35 73 38 74 36 75 62 76
REMARK SMILES IDX 63 77 71 78 64 79 65 80 69 81 72 82 66 83 67 84 70 85 68 86
REMARK SMILES IDX 47 87 48 88 56 89 49 90 50 91 54 92 57 93 51 94 52 95 55 96
REMARK SMILES IDX 53 97
REMARK H PARENT 6 12 3 18 77 50 45 61
REMARK Flexibility Score: inf
ROOT
ATOM      1  C   UNL A   1      31.276  30.231  25.243  1.00  0.00     0.275 C 
ENDROOT
BRANCH   1   2
ATOM      2  O   UNL A   1      32.309  29.275  24.887  1.00  0.00    -0.458 OA
BRANCH   2   3
ATOM      3  C   UNL A   1      32.288  28.965  23.576  1.00  0.00     0.340 C 
ATOM      4  O   UNL A   1      33.199  29.208  22.793  1.00  0.00    -0.246 OA
BRANCH   3   5
ATOM      5  C   UNL A   1      31.018  28.442  23.007  1.00  0.00     0.083 A 
ATOM      6  C   UNL A   1      30.154  26.994  24.029  1.00  0.00     0.055 A 
ATOM      7  C   UNL A   1      28.143  26.912  24.102  1.00  0.00     0.027 A 
ATOM      8  C   UNL A   1      27.286  28.373  23.078  1.00  0.00     0.002 A 
ATOM      9  C   UNL A   1      30.146  29.922  22.027  1.00  0.00     0.018 A 
ATOM     10  C   UNL A   1      28.143  29.831  22.068  1.00  0.00     0.001 A 
BRANCH   6  11
ATOM     11  N   UNL A   1      30.807  26.529  25.185  1.00  0.00    -0.332 N 
ATOM     12  H   UNL A   1      30.825  27.129  25.964  1.00  0.00     0.169 HD
BRANCH  11  13
ATOM     13  C   UNL A   1      31.415  25.325  25.315  1.00  0.00     0.177 C 
ATOM     14  S   UNL A   1      33.059  25.228  25.008  1.00  0.00    -0.040 S 
BRANCH  13  15
ATOM     15  N   UNL A   1      30.733  24.148  25.621  1.00  0.00    -0.299 N 
ATOM     16  O   UNL A   1      29.888  22.123  26.267  1.00  0.00    -0.269 OA
ATOM     17  C   UNL A   1      30.865  22.740  25.835  1.00  0.00     0.257 C 
ATOM     18  H   UNL A   1      29.782  24.378  25.736  1.00  0.00     0.172 HD
BRANCH  17  19
ATOM     19  C   UNL A   1      32.108  21.930  25.661  1.00  0.00     0.040 A 
ATOM     20  C   UNL A   1      32.131  21.154  24.649  1.00  0.00     0.014 A 
ATOM     21  C   UNL A   1      32.333  20.632  25.526  1.00  0.00     0.022 A 
ATOM     22  C   UNL A   1      32.406  19.356  23.727  1.00  0.00     0.009 A 
ATOM     23  C   UNL A   1      32.638  18.690  24.853  1.00  0.00    -0.018 A 
ATOM     24  C   UNL A   1      32.768  18.146  23.722  1.00  0.00    -0.018 A 
ATOM     25  C   UNL A   1      32.872  17.180  25.452  1.00  0.00     0.009 A 
ATOM     26  C   UNL A   1      33.837  17.396  23.105  1.00  0.00     0.009 A 
ATOM     27  C   UNL A   1      33.469  16.006  24.879  1.00  0.00     0.001 A 
ATOM     28  C   UNL A   1      34.092  16.187  23.675  1.00  0.00     0.001 A 
ENDBRANCH  17  19
ENDBRANCH  13  15
ENDBRANCH  11  13
ENDBRANCH   6  11
ENDBRANCH   3   5
ENDBRANCH   2   3
ENDBRANCH   1   2
BRANCH   1  29
ATOM     29  C   UNL A   1      31.635  31.121  26.438  1.00  0.00     0.275 C 
BRANCH  29  30
ATOM     30  O   UNL A   1      32.882  30.743  27.053  1.00  0.00    -0.458 OA
BRANCH  30  31
ATOM     31  C   UNL A   1      33.625  31.779  27.501  1.00  0.00     0.338 C 
ATOM     32  O   UNL A   1      33.247  32.923  27.705  1.00  0.00    -0.246 OA
BRANCH  31  33
ATOM     33  C   UNL A   1      35.007  31.371  27.808  1.00  0.00     0.060 A 
ATOM     34  C   UNL A   1      35.244  30.068  28.213  1.00  0.00     0.016 A 
ATOM     35  C   UNL A   1      36.002  32.330  27.983  1.00  0.00     0.016 A 
ATOM     36  C   UNL A   1      36.359  29.768  28.980  1.00  0.00     0.010 A 
ATOM     37  C   UNL A   1      37.217  31.967  28.584  1.00  0.00     0.010 A 
ATOM     38  C   UNL A   1      37.390  30.692  29.150  1.00  0.00    -0.014 A 
BRANCH  38  39
ATOM     39  C   UNL A   1      38.598  30.309  29.941  1.00  0.00     0.031 A 
ATOM     40  C   UNL A   1      39.652  29.415  29.341  1.00  0.00     0.074 A 
ATOM     41  C   UNL A   1      38.783  30.797  31.188  1.00  0.00     0.049 A 
ATOM     42  N   UNL A   1      40.640  28.787  29.929  1.00  0.00    -0.248 NA
ATOM     43  C   UNL A   1      39.577  29.177  27.891  1.00  0.00     0.031 C 
ATOM     44  C   UNL A   1      37.894  31.737  31.879  1.00  0.00     0.029 A 
ATOM     45  N   UNL A   1      39.789  30.583  32.100  1.00  0.00    -0.354 N 
ATOM     46  C   UNL A   1      41.246  28.019  28.941  1.00  0.00     0.074 A 
ATOM     47  C   UNL A   1      40.518  28.260  27.714  1.00  0.00     0.031 C 
ATOM     48  C   UNL A   1      38.427  32.076  33.058  1.00  0.00     0.029 A 
ATOM     49  C   UNL A   1      39.599  31.248  33.288  1.00  0.00     0.049 A 
ATOM     50  H   UNL A   1      40.570  30.011  31.919  1.00  0.00     0.167 HD
ATOM     51  C   UNL A   1      42.307  27.182  29.059  1.00  0.00     0.037 A 
ATOM     52  C   UNL A   1      40.231  31.145  34.471  1.00  0.00     0.037 A 
ATOM     53  C   UNL A   1      43.052  26.999  30.280  1.00  0.00     0.049 A 
ATOM     54  C   UNL A   1      41.351  30.156  34.599  1.00  0.00     0.074 A 
ATOM     55  C   UNL A   1      44.148  26.186  30.508  1.00  0.00     0.029 A 
ATOM     56  N   UNL A   1      42.780  27.646  31.478  1.00  0.00    -0.354 N 
ATOM     57  N   UNL A   1      41.869  29.372  33.686  1.00  0.00    -0.248 NA
ATOM     58  C   UNL A   1      41.956  30.019  35.928  1.00  0.00     0.031 C 
ATOM     59  C   UNL A   1      44.496  26.289  31.860  1.00  0.00     0.029 A 
ATOM     60  C   UNL A   1      43.669  27.227  32.457  1.00  0.00     0.049 A 
ATOM     61  H   UNL A   1      42.063  28.307  31.613  1.00  0.00     0.167 HD
ATOM     62  C   UNL A   1      42.873  28.660  34.323  1.00  0.00     0.074 A 
ATOM     63  C   UNL A   1      42.907  29.127  35.694  1.00  0.00     0.031 C 
ATOM     64  C   UNL A   1      43.689  27.701  33.819  1.00  0.00     0.037 A 
BRANCH  51  65
ATOM     65  C   UNL A   1      42.681  26.351  27.861  1.00  0.00     0.064 A 
ATOM     66  C   UNL A   1      42.111  25.096  27.601  1.00  0.00     0.173 A 
ATOM     67  C   UNL A   1      43.624  26.840  26.940  1.00  0.00     0.173 A 
ATOM     68  F   UNL A   1      41.213  24.573  28.450  1.00  0.00    -0.203 F 
ATOM     69  C   UNL A   1      42.499  24.347  26.490  1.00  0.00     0.198 A 
ATOM     70  C   UNL A   1      43.979  26.107  25.811  1.00  0.00     0.198 A 
ATOM     71  F   UNL A   1      44.198  28.037  27.131  1.00  0.00    -0.203 F 
ATOM     72  F   UNL A   1      41.987  23.123  26.299  1.00  0.00    -0.200 F 
ATOM     73  C   UNL A   1      43.426  24.855  25.593  1.00  0.00     0.200 A 
ATOM     74  F   UNL A   1      44.862  26.610  24.937  1.00  0.00    -0.200 F 
ATOM     75  F   UNL A   1      43.794  24.135  24.524  1.00  0.00    -0.200 F 
ENDBRANCH  51  65
BRANCH  52  76
ATOM     76  C   UNL A   1      39.758  31.938  35.639  1.00  0.00     0.064 A 
ATOM     77  C   UNL A   1      40.337  33.173  35.958  1.00  0.00     0.173 A 
ATOM     78  C   UNL A   1      38.706  31.485  36.453  1.00  0.00     0.173 A 
ATOM     79  F   UNL A   1      41.362  33.640  35.230  1.00  0.00    -0.203 F 
ATOM     80  C   UNL A   1      39.892  33.916  37.051  1.00  0.00     0.198 A 
ATOM     81  C   UNL A   1      38.232  32.249  37.516  1.00  0.00     0.198 A 
ATOM     82  F   UNL A   1      38.113  30.309  36.195  1.00  0.00    -0.203 F 
ATOM     83  F   UNL A   1      40.497  35.070  37.363  1.00  0.00    -0.200 F 
ATOM     84  C   UNL A   1      38.832  33.460  37.821  1.00  0.00     0.200 A 
ATOM     85  F   UNL A   1      37.193  31.814  38.240  1.00  0.00    -0.200 F 
ATOM     86  F   UNL A   1      38.395  34.184  38.861  1.00  0.00    -0.200 F 
ENDBRANCH  52  76
BRANCH  64  87
ATOM     87  C   UNL A   1      44.720  27.131  34.751  1.00  0.00     0.064 A 
ATOM     88  C   UNL A   1      44.477  25.976  35.507  1.00  0.00     0.173 A 
ATOM     89  C   UNL A   1      45.972  27.751  34.881  1.00  0.00     0.173 A 
ATOM     90  F   UNL A   1      43.289  25.356  35.435  1.00  0.00    -0.203 F 
ATOM     91  C   UNL A   1      45.436  25.485  36.390  1.00  0.00     0.198 A 
ATOM     92  C   UNL A   1      46.943  27.233  35.732  1.00  0.00     0.198 A 
ATOM     93  F   UNL A   1      46.257  28.856  34.175  1.00  0.00    -0.203 F 
ATOM     94  F   UNL A   1      45.156  24.422  37.156  1.00  0.00    -0.200 F 
ATOM     95  C   UNL A   1      46.669  26.109  36.496  1.00  0.00     0.200 A 
ATOM     96  F   UNL A   1      48.141  27.828  35.819  1.00  0.00    -0.200 F 
ATOM     97  F   UNL A   1      47.593  25.633  37.343  1.00  0.00    -0.200 F 
ENDBRANCH  64  87
ENDBRANCH  38  39
ENDBRANCH  31  33
ENDBRANCH  30  31
ENDBRANCH  29  30
ENDBRANCH   1  29
TORSDOF 15
ENDMDL
MODEL 3
REMARK VINA RESULT:     -13.5      1.467      2.111
REMARK SMILES O=C(NC(=S)Nc1ccccc1C(=O)OCCOC(=O)c1ccc(-c2c3nc(c(-c4c(F)c(F)c(F)c(F)c4F)c4ccc([nH]4)c(-c4c(F)c(F)c(F)c(F)c4F)c4nc(c(-c5c(F)c(F)c(F)c(F)c5F)c5ccc2[nH]5)C=C4)C=C3)cc1)c1ccc2ccccc2c1
REMARK SMILES IDX 16 1 15 2 13 3 14 4 12 5 7 6 8 7 9 8 11 9 10 10 6 11 4 13
REMARK SMILES IDX 5 14 3 15 1 16 2 17 84 19 85 20 93 21 86 22 92 23 87 24
REMARK SMILES IDX 91 25 88 26 90 27 89 28 17 29 18 30 19 31 20 32 21 33 22 34
REMARK SMILES IDX 83 35 23 36 82 37 24 38 25 39 26 40 76 41 27 42 81 43 75 44
REMARK SMILES IDX 77 45 28 46 80 47 74 48 73 49 29 51 61 52 41 53 60 54 42 55
REMARK SMILES IDX 45 56 59 57 78 58 43 59 44 60 58 62 79 63 46 64 30 65 31 66
REMARK SMILES IDX 39 67 32 68 33 69 37 70 40 71 34 72 35 73 38 74 36 75 62 76
REMARK SMILES IDX 63 77 71 78 64 79 65 80 69 81 72 82 66 83 67 84 70 85 68 86
REMARK SMILES IDX 47 87 48 88 56 89 49 90 50 91 54 92 57 93 51 94 52 95 55 96
REMARK SMILES IDX 53 97
REMARK H PARENT 6 12 3 18 77 50 45 61
REMARK Flexibility Score: inf
ROOT
ATOM      1  C   UNL A   1      32.871  29.362  25.240  1.00  0.00     0.275 C 
ENDROOT
BRANCH   1   2
ATOM      2  O   UNL A   1      32.064  28.218  24.854  1.00  0.00    -0.458 OA
BRANCH   2   3
ATOM      3  C   UNL A   1      31.957  28.097  23.516  1.00  0.00     0.340 C 
ATOM      4  O   UNL A   1      32.885  28.256  22.731  1.00  0.00    -0.246 OA
BRANCH   3   5
ATOM      5  C   UNL A   1      30.597  27.917  22.942  1.00  0.00     0.083 A 
ATOM      6  C   UNL A   1      29.440  26.620  23.872  1.00  0.00     0.055 A 
ATOM      7  C   UNL A   1      27.462  26.982  23.990  1.00  0.00     0.027 A 
ATOM      8  C   UNL A   1      26.945  28.675  23.103  1.00  0.00     0.002 A 
ATOM      9  C   UNL A   1      30.071  29.627  22.100  1.00  0.00     0.018 A 
ATOM     10  C   UNL A   1      28.099  29.981  22.186  1.00  0.00     0.001 A 
BRANCH   6  11
ATOM     11  N   UNL A   1      29.982  25.930  24.971  1.00  0.00    -0.332 N 
ATOM     12  H   UNL A   1      29.891  26.351  25.856  1.00  0.00     0.169 HD
BRANCH  11  13
ATOM     13  C   UNL A   1      30.619  24.735  24.914  1.00  0.00     0.177 C 
ATOM     14  S   UNL A   1      30.835  24.022  23.415  1.00  0.00    -0.040 S 
BRANCH  13  15
ATOM     15  N   UNL A   1      31.041  24.034  26.043  1.00  0.00    -0.299 N 
ATOM     16  O   UNL A   1      32.030  22.894  27.763  1.00  0.00    -0.269 OA
ATOM     17  C   UNL A   1      31.975  23.073  26.543  1.00  0.00     0.257 C 
ATOM     18  H   UNL A   1      30.469  24.311  26.795  1.00  0.00     0.172 HD
BRANCH  17  19
ATOM     19  C   UNL A   1      32.970  22.302  25.737  1.00  0.00     0.040 A 
ATOM     20  C   UNL A   1      32.484  21.462  24.911  1.00  0.00     0.014 A 
ATOM     21  C   UNL A   1      33.171  21.007  25.545  1.00  0.00     0.022 A 
ATOM     22  C   UNL A   1      32.328  19.618  24.053  1.00  0.00     0.009 A 
ATOM     23  C   UNL A   1      33.188  19.038  24.884  1.00  0.00    -0.018 A 
ATOM     24  C   UNL A   1      32.710  18.425  23.890  1.00  0.00    -0.018 A 
ATOM     25  C   UNL A   1      33.816  17.582  25.304  1.00  0.00     0.009 A 
ATOM     26  C   UNL A   1      33.310  17.677  22.810  1.00  0.00     0.009 A 
ATOM     27  C   UNL A   1      34.078  16.395  24.538  1.00  0.00     0.001 A 
ATOM     28  C   UNL A   1      33.920  16.519  23.185  1.00  0.00     0.001 A 
ENDBRANCH  17  19
ENDBRANCH  13  15
ENDBRANCH  11  13
ENDBRANCH   6  11
ENDBRANCH   3   5
ENDBRANCH   2   3
ENDBRANCH   1   2
BRANCH   1  29
ATOM     29  C   UNL A   1      32.074  30.491  25.904  1.00  0.00     0.275 C 
BRANCH  29  30
ATOM     30  O   UNL A   1      32.486  30.731  27.263  1.00  0.00    -0.458 OA
BRANCH  30  31
ATOM     31  C   UNL A   1      33.263  31.824  27.431  1.00  0.00     0.338 C 
ATOM     32  O   UNL A   1      32.907  32.993  27.400  1.00  0.00    -0.246 OA
BRANCH  31  33
ATOM     33  C   UNL A   1      34.657  31.464  27.741  1.00  0.00     0.060 A 
ATOM     34  C   UNL A   1      34.946  30.155  28.089  1.00  0.00     0.016 A 
ATOM     35  C   UNL A   1      35.605  32.456  27.976  1.00  0.00     0.016 A 
ATOM     36  C   UNL A   1      36.063  29.869  28.860  1.00  0.00     0.010 A 
ATOM     37  C   UNL A   1      36.827  32.120  28.580  1.00  0.00     0.010 A 
ATOM     38  C   UNL A   1      37.048  30.829  29.089  1.00  0.00    -0.014 A 
BRANCH  38  39
ATOM     39  C   UNL A   1      38.261  30.463  29.881  1.00  0.00     0.031 A 
ATOM     40  C   UNL A   1      39.328  29.582  29.283  1.00  0.00     0.074 A 
ATOM     41  C   UNL A   1      38.439  30.955  31.127  1.00  0.00     0.049 A 
ATOM     42  N   UNL A   1      40.324  28.969  29.873  1.00  0.00    -0.248 NA
ATOM     43  C   UNL A   1      39.257  29.342  27.833  1.00  0.00     0.031 C 
ATOM     44  C   UNL A   1      37.538  31.885  31.816  1.00  0.00     0.029 A 
ATOM     45  N   UNL A   1      39.447  30.757  32.040  1.00  0.00    -0.354 N 
ATOM     46  C   UNL A   1      40.940  28.207  28.886  1.00  0.00     0.074 A 
ATOM     47  C   UNL A   1      40.209  28.437  27.659  1.00  0.00     0.031 C 
ATOM     48  C   UNL A   1      38.065  32.233  32.995  1.00  0.00     0.029 A 
ATOM     49  C   UNL A   1      39.248  31.421  33.227  1.00  0.00     0.049 A 
ATOM     50  H   UNL A   1      40.236  30.195  31.861  1.00  0.00     0.167 HD
ATOM     51  C   UNL A   1      42.012  27.384  29.006  1.00  0.00     0.037 A 
ATOM     52  C   UNL A   1      39.881  31.329  34.411  1.00  0.00     0.037 A 
ATOM     53  C   UNL A   1      42.759  27.213  30.228  1.00  0.00     0.049 A 
ATOM     54  C   UNL A   1      41.014  30.354  34.541  1.00  0.00     0.074 A 
ATOM     55  C   UNL A   1      43.866  26.416  30.457  1.00  0.00     0.029 A 
ATOM     56  N   UNL A   1      42.478  27.859  31.424  1.00  0.00    -0.354 N 
ATOM     57  N   UNL A   1      41.543  29.576  33.629  1.00  0.00    -0.248 NA
ATOM     58  C   UNL A   1      41.620  30.227  35.870  1.00  0.00     0.031 C 
ATOM     59  C   UNL A   1      44.212  26.526  31.809  1.00  0.00     0.029 A 
ATOM     60  C   UNL A   1      43.371  27.453  32.404  1.00  0.00     0.049 A 
ATOM     61  H   UNL A   1      41.752  28.510  31.558  1.00  0.00     0.167 HD
ATOM     62  C   UNL A   1      42.556  28.878  34.268  1.00  0.00     0.074 A 
ATOM     63  C   UNL A   1      42.583  29.347  35.638  1.00  0.00     0.031 C 
ATOM     64  C   UNL A   1      43.385  27.929  33.765  1.00  0.00     0.037 A 
BRANCH  51  65
ATOM     65  C   UNL A   1      42.398  26.557  27.809  1.00  0.00     0.064 A 
ATOM     66  C   UNL A   1      43.294  27.012  26.831  1.00  0.00     0.173 A 
ATOM     67  C   UNL A   1      41.867  25.265  27.653  1.00  0.00     0.173 A 
ATOM     68  F   UNL A   1      43.825  28.241  26.920  1.00  0.00    -0.203 F 
ATOM     69  C   UNL A   1      43.612  26.224  25.725  1.00  0.00     0.198 A 
ATOM     70  C   UNL A   1      42.217  24.465  26.568  1.00  0.00     0.198 A 
ATOM     71  F   UNL A   1      41.011  24.772  28.560  1.00  0.00    -0.203 F 
ATOM     72  F   UNL A   1      44.420  26.707  24.771  1.00  0.00    -0.200 F 
ATOM     73  C   UNL A   1      43.080  24.950  25.598  1.00  0.00     0.200 A 
ATOM     74  F   UNL A   1      41.715  23.228  26.460  1.00  0.00    -0.200 F 
ATOM     75  F   UNL A   1      43.390  24.193  24.537  1.00  0.00    -0.200 F 
ENDBRANCH  51  65
BRANCH  52  76
ATOM     76  C   UNL A   1      39.397  32.117  35.577  1.00  0.00     0.064 A 
ATOM     77  C   UNL A   1      38.508  31.562  36.507  1.00  0.00     0.173 A 
ATOM     78  C   UNL A   1      39.823  33.438  35.795  1.00  0.00     0.173 A 
ATOM     79  F   UNL A   1      38.049  30.314  36.332  1.00  0.00    -0.203 F 
ATOM     80  C   UNL A   1      38.056  32.300  37.600  1.00  0.00     0.198 A 
ATOM     81  C   UNL A   1      39.406  34.158  36.911  1.00  0.00     0.198 A 
ATOM     82  F   UNL A   1      40.674  34.022  34.938  1.00  0.00    -0.203 F 
ATOM     83  F   UNL A   1      37.168  31.761  38.446  1.00  0.00    -0.200 F 
ATOM     84  C   UNL A   1      38.515  33.593  37.808  1.00  0.00     0.200 A 
ATOM     85  F   UNL A   1      39.873  35.397  37.119  1.00  0.00    -0.200 F 
ATOM     86  F   UNL A   1      38.092  34.294  38.869  1.00  0.00    -0.200 F 
ENDBRANCH  52  76
BRANCH  64  87
ATOM     87  C   UNL A   1      44.423  27.375  34.698  1.00  0.00     0.064 A 
ATOM     88  C   UNL A   1      45.658  28.008  34.893  1.00  0.00     0.173 A 
ATOM     89  C   UNL A   1      44.170  26.193  35.412  1.00  0.00     0.173 A 
ATOM     90  F   UNL A   1      45.958  29.130  34.220  1.00  0.00    -0.203 F 
ATOM     91  C   UNL A   1      46.619  27.457  35.738  1.00  0.00     0.198 A 
ATOM     92  C   UNL A   1      45.116  25.669  36.288  1.00  0.00     0.198 A 
ATOM     93  F   UNL A   1      43.002  25.550  35.266  1.00  0.00    -0.203 F 
ATOM     94  F   UNL A   1      47.819  28.041  35.853  1.00  0.00    -0.200 F 
ATOM     95  C   UNL A   1      46.344  26.294  36.439  1.00  0.00     0.200 A 
ATOM     96  F   UNL A   1      44.841  24.554  36.978  1.00  0.00    -0.200 F 
ATOM     97  F   UNL A   1      47.268  25.767  37.255  1.00  0.00    -0.200 F 
ENDBRANCH  64  87
ENDBRANCH  38  39
ENDBRANCH  31  33
ENDBRANCH  30  31
ENDBRANCH  29  30
ENDBRANCH   1  29
TORSDOF 15
ENDMDL
