MODEL 1
REMARK VINA RESULT:     -11.6      0.000      0.000
REMARK SMILES CO[C@@H]1C[C@@H](C(=O)OCCOC(=O)c2ccc(-c3c4nc(c(-c5c(F)c(F)c(F)c(F)c5F)c5ccc([nH]5)c(-c5c(F)c(F)c(F)c(F)c5F)c5nc(c(-c6c(F)c(F)c(F)c(F)c6F)c6ccc3[nH]6)C=C5)C=C4)cc2)N(S(=O)(=O)c2ccc(Cl)cc2F)C1
REMARK SMILES IDX 9 1 8 2 6 3 7 4 5 5 3 6 4 7 89 8 77 9 2 10 1 11 78 12 79 13
REMARK SMILES IDX 80 14 81 15 82 16 87 17 83 18 86 19 88 20 84 21 85 22 10 23
REMARK SMILES IDX 11 24 12 25 13 26 14 27 15 28 76 29 16 30 75 31 17 32 18 33
REMARK SMILES IDX 19 34 69 35 20 36 74 37 68 38 70 39 21 40 73 41 67 42 66 43
REMARK SMILES IDX 22 45 54 46 34 47 53 48 35 49 38 50 52 51 71 52 36 53 37 54
REMARK SMILES IDX 51 56 72 57 39 58 23 59 24 60 32 61 25 62 26 63 30 64 33 65
REMARK SMILES IDX 27 66 28 67 31 68 29 69 55 70 56 71 64 72 57 73 58 74 62 75
REMARK SMILES IDX 65 76 59 77 60 78 63 79 61 80 40 81 41 82 49 83 42 84 43 85
REMARK SMILES IDX 47 86 50 87 44 88 45 89 48 90 46 91
REMARK H PARENT 70 44 38 55
REMARK Flexibility Score: inf
ROOT
ATOM      1  C   UNL A   1      36.231  22.516  23.594  1.00  0.00     0.274 C 
ENDROOT
BRANCH   1   2
ATOM      2  O   UNL A   1      35.640  23.827  23.672  1.00  0.00    -0.461 OA
BRANCH   2   3
ATOM      3  C   UNL A   1      34.368  23.836  23.224  1.00  0.00     0.324 C 
ATOM      4  O   UNL A   1      34.057  24.250  22.101  1.00  0.00    -0.250 OA
BRANCH   3   5
ATOM      5  C   UNL A   1      33.341  23.275  24.155  1.00  0.00     0.185 C 
ATOM      6  C   UNL A   1      32.094  21.320  24.423  1.00  0.00     0.135 C 
ATOM      7  C   UNL A   1      32.350  22.403  23.394  1.00  0.00     0.065 C 
ATOM      8  C   UNL A   1      32.086  22.107  25.774  1.00  0.00     0.135 C 
ATOM      9  N   UNL A   1      32.726  23.505  25.525  1.00  0.00    -0.181 NA
BRANCH   6  10
ATOM     10  O   UNL A   1      32.966  20.176  24.430  1.00  0.00    -0.380 OA
ATOM     11  C   UNL A   1      32.885  19.170  25.433  1.00  0.00     0.195 C 
ENDBRANCH   6  10
BRANCH   9  12
ATOM     12  S   UNL A   1      31.641  24.828  25.932  1.00  0.00     0.246 S 
ATOM     13  O   UNL A   1      30.751  25.030  24.825  1.00  0.00    -0.207 OA
ATOM     14  O   UNL A   1      31.078  24.364  27.208  1.00  0.00    -0.207 OA
BRANCH  12  15
ATOM     15  C   UNL A   1      32.291  26.472  26.455  1.00  0.00     0.118 A 
ATOM     16  C   UNL A   1      31.388  27.430  26.980  1.00  0.00     0.026 A 
ATOM     17  C   UNL A   1      33.548  26.974  26.103  1.00  0.00     0.144 A 
ATOM     18  C   UNL A   1      31.780  28.755  27.272  1.00  0.00     0.022 A 
ATOM     19  C   UNL A   1      33.995  28.244  26.529  1.00  0.00     0.061 A 
ATOM     20  F   UNL A   1      34.392  26.286  25.324  1.00  0.00    -0.205 F 
ATOM     21  C   UNL A   1      33.103  29.137  27.105  1.00  0.00     0.044 A 
ATOM     22  Cl  UNL A   1      33.612  30.724  27.537  1.00  0.00    -0.084 Cl
ENDBRANCH  12  15
ENDBRANCH   9  12
ENDBRANCH   3   5
ENDBRANCH   2   3
ENDBRANCH   1   2
BRANCH   1  23
ATOM     23  C   UNL A   1      37.337  22.336  24.665  1.00  0.00     0.275 C 
BRANCH  23  24
ATOM     24  O   UNL A   1      37.725  23.533  25.440  1.00  0.00    -0.458 OA
BRANCH  24  25
ATOM     25  C   UNL A   1      38.825  23.334  26.194  1.00  0.00     0.338 C 
ATOM     26  O   UNL A   1      39.344  22.228  26.278  1.00  0.00    -0.246 OA
BRANCH  25  27
ATOM     27  C   UNL A   1      39.541  24.343  26.993  1.00  0.00     0.060 A 
ATOM     28  C   UNL A   1      39.082  24.636  28.287  1.00  0.00     0.016 A 
ATOM     29  C   UNL A   1      40.180  25.365  26.276  1.00  0.00     0.016 A 
ATOM     30  C   UNL A   1      39.266  25.917  28.853  1.00  0.00     0.010 A 
ATOM     31  C   UNL A   1      40.378  26.639  26.845  1.00  0.00     0.010 A 
ATOM     32  C   UNL A   1      39.941  26.934  28.147  1.00  0.00    -0.014 A 
BRANCH  32  33
ATOM     33  C   UNL A   1      40.549  28.102  28.865  1.00  0.00     0.031 A 
ATOM     34  C   UNL A   1      41.900  28.141  29.539  1.00  0.00     0.074 A 
ATOM     35  C   UNL A   1      39.704  29.132  29.066  1.00  0.00     0.049 A 
ATOM     36  N   UNL A   1      42.428  29.110  30.261  1.00  0.00    -0.248 NA
ATOM     37  C   UNL A   1      42.760  26.961  29.417  1.00  0.00     0.031 C 
ATOM     38  C   UNL A   1      38.331  29.181  28.562  1.00  0.00     0.029 A 
ATOM     39  N   UNL A   1      39.837  30.291  29.787  1.00  0.00    -0.354 N 
ATOM     40  C   UNL A   1      43.676  28.661  30.684  1.00  0.00     0.074 A 
ATOM     41  C   UNL A   1      43.812  27.314  30.156  1.00  0.00     0.031 C 
ATOM     42  C   UNL A   1      37.730  30.278  29.026  1.00  0.00     0.029 A 
ATOM     43  C   UNL A   1      38.673  31.011  29.863  1.00  0.00     0.049 A 
ATOM     44  H   UNL A   1      40.681  30.575  30.208  1.00  0.00     0.167 HD
ATOM     45  C   UNL A   1      44.611  29.311  31.434  1.00  0.00     0.037 A 
ATOM     46  C   UNL A   1      38.363  32.135  30.531  1.00  0.00     0.037 A 
ATOM     47  C   UNL A   1      44.463  30.654  31.967  1.00  0.00     0.049 A 
ATOM     48  C   UNL A   1      39.414  32.852  31.310  1.00  0.00     0.074 A 
ATOM     49  C   UNL A   1      45.408  31.439  32.615  1.00  0.00     0.029 A 
ATOM     50  N   UNL A   1      43.291  31.398  31.952  1.00  0.00    -0.354 N 
ATOM     51  N   UNL A   1      40.645  32.486  31.563  1.00  0.00    -0.248 NA
ATOM     52  C   UNL A   1      39.044  34.159  31.864  1.00  0.00     0.031 C 
ATOM     53  C   UNL A   1      44.791  32.617  33.054  1.00  0.00     0.029 A 
ATOM     54  C   UNL A   1      43.477  32.606  32.620  1.00  0.00     0.049 A 
ATOM     55  H   UNL A   1      42.449  31.112  31.530  1.00  0.00     0.167 HD
ATOM     56  C   UNL A   1      41.206  33.524  32.289  1.00  0.00     0.074 A 
ATOM     57  C   UNL A   1      40.184  34.543  32.421  1.00  0.00     0.031 C 
ATOM     58  C   UNL A   1      42.462  33.617  32.790  1.00  0.00     0.037 A 
BRANCH  45  59
ATOM     59  C   UNL A   1      45.910  28.600  31.746  1.00  0.00     0.064 A 
ATOM     60  C   UNL A   1      47.039  28.722  30.920  1.00  0.00     0.173 A 
ATOM     61  C   UNL A   1      46.066  27.878  32.944  1.00  0.00     0.173 A 
ATOM     62  F   UNL A   1      46.966  29.422  29.779  1.00  0.00    -0.203 F 
ATOM     63  C   UNL A   1      48.252  28.122  31.257  1.00  0.00     0.198 A 
ATOM     64  C   UNL A   1      47.290  27.306  33.294  1.00  0.00     0.198 A 
ATOM     65  F   UNL A   1      45.039  27.754  33.798  1.00  0.00    -0.203 F 
ATOM     66  F   UNL A   1      49.302  28.224  30.430  1.00  0.00    -0.200 F 
ATOM     67  C   UNL A   1      48.378  27.419  32.446  1.00  0.00     0.200 A 
ATOM     68  F   UNL A   1      47.417  26.656  34.460  1.00  0.00    -0.200 F 
ATOM     69  F   UNL A   1      49.549  26.854  32.774  1.00  0.00    -0.200 F 
ENDBRANCH  45  59
BRANCH  46  70
ATOM     70  C   UNL A   1      36.984  32.660  30.402  1.00  0.00     0.064 A 
ATOM     71  C   UNL A   1      36.052  32.453  31.426  1.00  0.00     0.173 A 
ATOM     72  C   UNL A   1      36.621  33.490  29.332  1.00  0.00     0.173 A 
ATOM     73  F   UNL A   1      36.366  31.668  32.467  1.00  0.00    -0.203 F 
ATOM     74  C   UNL A   1      34.801  33.059  31.383  1.00  0.00     0.198 A 
ATOM     75  C   UNL A   1      35.379  34.115  29.304  1.00  0.00     0.198 A 
ATOM     76  F   UNL A   1      37.500  33.742  28.349  1.00  0.00    -0.203 F 
ATOM     77  F   UNL A   1      33.922  32.842  32.371  1.00  0.00    -0.200 F 
ATOM     78  C   UNL A   1      34.470  33.899  30.329  1.00  0.00     0.200 A 
ATOM     79  F   UNL A   1      35.075  34.952  28.304  1.00  0.00    -0.200 F 
ATOM     80  F   UNL A   1      33.278  34.510  30.309  1.00  0.00    -0.200 F 
ENDBRANCH  46  70
BRANCH  58  81
ATOM     81  C   UNL A   1      42.806  34.880  33.532  1.00  0.00     0.064 A 
ATOM     82  C   UNL A   1      42.689  34.969  34.929  1.00  0.00     0.173 A 
ATOM     83  C   UNL A   1      43.245  36.020  32.841  1.00  0.00     0.173 A 
ATOM     84  F   UNL A   1      42.251  33.918  35.639  1.00  0.00    -0.203 F 
ATOM     85  C   UNL A   1      42.966  36.160  35.599  1.00  0.00     0.198 A 
ATOM     86  C   UNL A   1      43.551  37.198  33.518  1.00  0.00     0.198 A 
ATOM     87  F   UNL A   1      43.372  35.993  31.506  1.00  0.00    -0.203 F 
ATOM     88  F   UNL A   1      42.788  36.238  36.925  1.00  0.00    -0.200 F 
ATOM     89  C   UNL A   1      43.402  37.271  34.894  1.00  0.00     0.200 A 
ATOM     90  F   UNL A   1      43.979  38.270  32.835  1.00  0.00    -0.200 F 
ATOM     91  F   UNL A   1      43.666  38.416  35.540  1.00  0.00    -0.200 F 
ENDBRANCH  58  81
ENDBRANCH  32  33
ENDBRANCH  25  27
ENDBRANCH  24  25
ENDBRANCH  23  24
ENDBRANCH   1  23
TORSDOF 14
ENDMDL
MODEL 2
REMARK VINA RESULT:     -11.6      3.413      8.716
REMARK SMILES CO[C@@H]1C[C@@H](C(=O)OCCOC(=O)c2ccc(-c3c4nc(c(-c5c(F)c(F)c(F)c(F)c5F)c5ccc([nH]5)c(-c5c(F)c(F)c(F)c(F)c5F)c5nc(c(-c6c(F)c(F)c(F)c(F)c6F)c6ccc3[nH]6)C=C5)C=C4)cc2)N(S(=O)(=O)c2ccc(Cl)cc2F)C1
REMARK SMILES IDX 9 1 8 2 6 3 7 4 5 5 3 6 4 7 89 8 77 9 2 10 1 11 78 12 79 13
REMARK SMILES IDX 80 14 81 15 82 16 87 17 83 18 86 19 88 20 84 21 85 22 10 23
REMARK SMILES IDX 11 24 12 25 13 26 14 27 15 28 76 29 16 30 75 31 17 32 18 33
REMARK SMILES IDX 19 34 69 35 20 36 74 37 68 38 70 39 21 40 73 41 67 42 66 43
REMARK SMILES IDX 22 45 54 46 34 47 53 48 35 49 38 50 52 51 71 52 36 53 37 54
REMARK SMILES IDX 51 56 72 57 39 58 23 59 24 60 32 61 25 62 26 63 30 64 33 65
REMARK SMILES IDX 27 66 28 67 31 68 29 69 55 70 56 71 64 72 57 73 58 74 62 75
REMARK SMILES IDX 65 76 59 77 60 78 63 79 61 80 40 81 41 82 49 83 42 84 43 85
REMARK SMILES IDX 47 86 50 87 44 88 45 89 48 90 46 91
REMARK H PARENT 70 44 38 55
REMARK Flexibility Score: inf
ROOT
ATOM      1  C   UNL A   1      32.521  27.502  26.895  1.00  0.00     0.274 C 
ENDROOT
BRANCH   1   2
ATOM      2  O   UNL A   1      31.108  27.227  26.940  1.00  0.00    -0.461 OA
BRANCH   2   3
ATOM      3  C   UNL A   1      30.745  26.296  26.034  1.00  0.00     0.324 C 
ATOM      4  O   UNL A   1      29.966  25.373  26.297  1.00  0.00    -0.250 OA
BRANCH   3   5
ATOM      5  C   UNL A   1      31.313  26.463  24.660  1.00  0.00     0.185 C 
ATOM      6  C   UNL A   1      30.801  27.571  22.671  1.00  0.00     0.135 C 
ATOM      7  C   UNL A   1      30.195  26.565  23.630  1.00  0.00     0.065 C 
ATOM      8  C   UNL A   1      32.313  27.174  22.647  1.00  0.00     0.135 C 
ATOM      9  N   UNL A   1      32.591  26.248  23.868  1.00  0.00    -0.181 NA
BRANCH   6  10
ATOM     10  O   UNL A   1      30.578  28.968  22.927  1.00  0.00    -0.380 OA
ATOM     11  C   UNL A   1      29.929  29.815  21.987  1.00  0.00     0.195 C 
ENDBRANCH   6  10
BRANCH   9  12
ATOM     12  S   UNL A   1      33.230  24.679  23.395  1.00  0.00     0.246 S 
ATOM     13  O   UNL A   1      32.205  23.699  23.608  1.00  0.00    -0.207 OA
ATOM     14  O   UNL A   1      33.670  24.944  22.018  1.00  0.00    -0.207 OA
BRANCH  12  15
ATOM     15  C   UNL A   1      34.803  24.032  24.108  1.00  0.00     0.118 A 
ATOM     16  C   UNL A   1      35.640  23.224  23.298  1.00  0.00     0.026 A 
ATOM     17  C   UNL A   1      35.105  24.016  25.473  1.00  0.00     0.144 A 
ATOM     18  C   UNL A   1      36.786  22.578  23.810  1.00  0.00     0.022 A 
ATOM     19  C   UNL A   1      36.325  23.504  25.966  1.00  0.00     0.061 A 
ATOM     20  F   UNL A   1      34.243  24.466  26.394  1.00  0.00    -0.205 F 
ATOM     21  C   UNL A   1      37.160  22.776  25.131  1.00  0.00     0.044 A 
ATOM     22  Cl  UNL A   1      38.602  22.062  25.744  1.00  0.00    -0.084 Cl
ENDBRANCH  12  15
ENDBRANCH   9  12
ENDBRANCH   3   5
ENDBRANCH   2   3
ENDBRANCH   1   2
BRANCH   1  23
ATOM     23  C   UNL A   1      32.822  28.957  27.338  1.00  0.00     0.275 C 
BRANCH  23  24
ATOM     24  O   UNL A   1      34.077  29.565  26.849  1.00  0.00    -0.458 OA
BRANCH  24  25
ATOM     25  C   UNL A   1      34.647  30.388  27.751  1.00  0.00     0.338 C 
ATOM     26  O   UNL A   1      34.016  31.310  28.255  1.00  0.00    -0.246 OA
BRANCH  25  27
ATOM     27  C   UNL A   1      36.030  30.325  28.253  1.00  0.00     0.060 A 
ATOM     28  C   UNL A   1      37.087  30.309  27.329  1.00  0.00     0.016 A 
ATOM     29  C   UNL A   1      36.219  29.670  29.478  1.00  0.00     0.016 A 
ATOM     30  C   UNL A   1      38.306  29.661  27.627  1.00  0.00     0.010 A 
ATOM     31  C   UNL A   1      37.440  29.036  29.784  1.00  0.00     0.010 A 
ATOM     32  C   UNL A   1      38.510  29.033  28.873  1.00  0.00    -0.014 A 
BRANCH  32  33
ATOM     33  C   UNL A   1      39.893  28.763  29.387  1.00  0.00     0.031 A 
ATOM     34  C   UNL A   1      40.797  29.741  30.099  1.00  0.00     0.074 A 
ATOM     35  C   UNL A   1      40.411  27.583  28.993  1.00  0.00     0.049 A 
ATOM     36  N   UNL A   1      42.049  29.574  30.477  1.00  0.00    -0.248 NA
ATOM     37  C   UNL A   1      40.259  31.068  30.410  1.00  0.00     0.031 C 
ATOM     38  C   UNL A   1      39.684  26.586  28.206  1.00  0.00     0.029 A 
ATOM     39  N   UNL A   1      41.666  27.049  29.132  1.00  0.00    -0.354 N 
ATOM     40  C   UNL A   1      42.454  30.769  31.066  1.00  0.00     0.074 A 
ATOM     41  C   UNL A   1      41.313  31.664  30.968  1.00  0.00     0.031 C 
ATOM     42  C   UNL A   1      40.510  25.588  27.888  1.00  0.00     0.029 A 
ATOM     43  C   UNL A   1      41.827  25.873  28.445  1.00  0.00     0.049 A 
ATOM     44  H   UNL A   1      42.379  27.467  29.668  1.00  0.00     0.167 HD
ATOM     45  C   UNL A   1      43.654  31.081  31.632  1.00  0.00     0.037 A 
ATOM     46  C   UNL A   1      42.904  25.093  28.256  1.00  0.00     0.037 A 
ATOM     47  C   UNL A   1      44.792  30.183  31.717  1.00  0.00     0.049 A 
ATOM     48  C   UNL A   1      44.196  25.432  28.921  1.00  0.00     0.074 A 
ATOM     49  C   UNL A   1      45.992  30.366  32.392  1.00  0.00     0.029 A 
ATOM     50  N   UNL A   1      44.894  28.954  31.080  1.00  0.00    -0.354 N 
ATOM     51  N   UNL A   1      44.510  26.496  29.614  1.00  0.00    -0.248 NA
ATOM     52  C   UNL A   1      45.272  24.441  28.809  1.00  0.00     0.031 C 
ATOM     53  C   UNL A   1      46.841  29.289  32.103  1.00  0.00     0.029 A 
ATOM     54  C   UNL A   1      46.149  28.395  31.305  1.00  0.00     0.049 A 
ATOM     55  H   UNL A   1      44.181  28.538  30.544  1.00  0.00     0.167 HD
ATOM     56  C   UNL A   1      45.813  26.297  30.041  1.00  0.00     0.074 A 
ATOM     57  C   UNL A   1      46.225  25.001  29.542  1.00  0.00     0.031 C 
ATOM     58  C   UNL A   1      46.588  27.122  30.788  1.00  0.00     0.037 A 
BRANCH  45  59
ATOM     59  C   UNL A   1      43.837  32.462  32.226  1.00  0.00     0.064 A 
ATOM     60  C   UNL A   1      44.313  33.540  31.462  1.00  0.00     0.173 A 
ATOM     61  C   UNL A   1      43.425  32.739  33.542  1.00  0.00     0.173 A 
ATOM     62  F   UNL A   1      44.693  33.348  30.190  1.00  0.00    -0.203 F 
ATOM     63  C   UNL A   1      44.407  34.823  32.001  1.00  0.00     0.198 A 
ATOM     64  C   UNL A   1      43.491  34.030  34.067  1.00  0.00     0.198 A 
ATOM     65  F   UNL A   1      42.925  31.764  34.315  1.00  0.00    -0.203 F 
ATOM     66  F   UNL A   1      44.901  35.825  31.259  1.00  0.00    -0.200 F 
ATOM     67  C   UNL A   1      43.992  35.069  33.300  1.00  0.00     0.200 A 
ATOM     68  F   UNL A   1      43.056  34.270  35.313  1.00  0.00    -0.200 F 
ATOM     69  F   UNL A   1      44.071  36.306  33.811  1.00  0.00    -0.200 F 
ENDBRANCH  45  59
BRANCH  46  70
ATOM     70  C   UNL A   1      42.738  23.868  27.439  1.00  0.00     0.064 A 
ATOM     71  C   UNL A   1      43.079  23.874  26.081  1.00  0.00     0.173 A 
ATOM     72  C   UNL A   1      42.376  22.648  28.027  1.00  0.00     0.173 A 
ATOM     73  F   UNL A   1      43.434  25.023  25.486  1.00  0.00    -0.203 F 
ATOM     74  C   UNL A   1      43.063  22.699  25.338  1.00  0.00     0.198 A 
ATOM     75  C   UNL A   1      42.386  21.470  27.288  1.00  0.00     0.198 A 
ATOM     76  F   UNL A   1      42.078  22.594  29.334  1.00  0.00    -0.203 F 
ATOM     77  F   UNL A   1      43.387  22.730  24.038  1.00  0.00    -0.200 F 
ATOM     78  C   UNL A   1      42.729  21.497  25.944  1.00  0.00     0.200 A 
ATOM     79  F   UNL A   1      42.096  20.305  27.882  1.00  0.00    -0.200 F 
ATOM     80  F   UNL A   1      42.749  20.361  25.234  1.00  0.00    -0.200 F 
ENDBRANCH  46  70
BRANCH  58  81
ATOM     81  C   UNL A   1      47.974  26.638  31.117  1.00  0.00     0.064 A 
ATOM     82  C   UNL A   1      48.229  25.846  32.248  1.00  0.00     0.173 A 
ATOM     83  C   UNL A   1      49.064  26.979  30.302  1.00  0.00     0.173 A 
ATOM     84  F   UNL A   1      47.228  25.509  33.077  1.00  0.00    -0.203 F 
ATOM     85  C   UNL A   1      49.525  25.443  32.568  1.00  0.00     0.198 A 
ATOM     86  C   UNL A   1      50.354  26.548  30.607  1.00  0.00     0.198 A 
ATOM     87  F   UNL A   1      48.882  27.736  29.210  1.00  0.00    -0.203 F 
ATOM     88  F   UNL A   1      49.750  24.740  33.686  1.00  0.00    -0.200 F 
ATOM     89  C   UNL A   1      50.584  25.789  31.745  1.00  0.00     0.200 A 
ATOM     90  F   UNL A   1      51.377  26.878  29.806  1.00  0.00    -0.200 F 
ATOM     91  F   UNL A   1      51.831  25.403  32.055  1.00  0.00    -0.200 F 
ENDBRANCH  58  81
ENDBRANCH  32  33
ENDBRANCH  25  27
ENDBRANCH  24  25
ENDBRANCH  23  24
ENDBRANCH   1  23
TORSDOF 14
ENDMDL
MODEL 3
REMARK VINA RESULT:     -11.6      0.184      1.140
REMARK SMILES CO[C@@H]1C[C@@H](C(=O)OCCOC(=O)c2ccc(-c3c4nc(c(-c5c(F)c(F)c(F)c(F)c5F)c5ccc([nH]5)c(-c5c(F)c(F)c(F)c(F)c5F)c5nc(c(-c6c(F)c(F)c(F)c(F)c6F)c6ccc3[nH]6)C=C5)C=C4)cc2)N(S(=O)(=O)c2ccc(Cl)cc2F)C1
REMARK SMILES IDX 9 1 8 2 6 3 7 4 5 5 3 6 4 7 89 8 77 9 2 10 1 11 78 12 79 13
REMARK SMILES IDX 80 14 81 15 82 16 87 17 83 18 86 19 88 20 84 21 85 22 10 23
REMARK SMILES IDX 11 24 12 25 13 26 14 27 15 28 76 29 16 30 75 31 17 32 18 33
REMARK SMILES IDX 19 34 69 35 20 36 74 37 68 38 70 39 21 40 73 41 67 42 66 43
REMARK SMILES IDX 22 45 54 46 34 47 53 48 35 49 38 50 52 51 71 52 36 53 37 54
REMARK SMILES IDX 51 56 72 57 39 58 23 59 24 60 32 61 25 62 26 63 30 64 33 65
REMARK SMILES IDX 27 66 28 67 31 68 29 69 55 70 56 71 64 72 57 73 58 74 62 75
REMARK SMILES IDX 65 76 59 77 60 78 63 79 61 80 40 81 41 82 49 83 42 84 43 85
REMARK SMILES IDX 47 86 50 87 44 88 45 89 48 90 46 91
REMARK H PARENT 70 44 38 55
REMARK Flexibility Score: inf
ROOT
ATOM      1  C   UNL A   1      36.145  22.466  23.656  1.00  0.00     0.274 C 
ENDROOT
BRANCH   1   2
ATOM      2  O   UNL A   1      35.561  23.781  23.738  1.00  0.00    -0.461 OA
BRANCH   2   3
ATOM      3  C   UNL A   1      34.305  23.807  23.246  1.00  0.00     0.324 C 
ATOM      4  O   UNL A   1      34.044  24.184  22.098  1.00  0.00    -0.250 OA
BRANCH   3   5
ATOM      5  C   UNL A   1      33.232  23.314  24.163  1.00  0.00     0.185 C 
ATOM      6  C   UNL A   1      31.876  21.433  24.429  1.00  0.00     0.135 C 
ATOM      7  C   UNL A   1      32.210  22.487  23.392  1.00  0.00     0.065 C 
ATOM      8  C   UNL A   1      31.885  22.235  25.770  1.00  0.00     0.135 C 
ATOM      9  N   UNL A   1      32.604  23.594  25.518  1.00  0.00    -0.181 NA
BRANCH   6  10
ATOM     10  O   UNL A   1      32.685  20.244  24.467  1.00  0.00    -0.380 OA
ATOM     11  C   UNL A   1      33.423  19.868  25.624  1.00  0.00     0.195 C 
ENDBRANCH   6  10
BRANCH   9  12
ATOM     12  S   UNL A   1      31.584  24.978  25.887  1.00  0.00     0.246 S 
ATOM     13  O   UNL A   1      30.740  25.225  24.754  1.00  0.00    -0.207 OA
ATOM     14  O   UNL A   1      30.959  24.554  27.148  1.00  0.00    -0.207 OA
BRANCH  12  15
ATOM     15  C   UNL A   1      32.312  26.586  26.424  1.00  0.00     0.118 A 
ATOM     16  C   UNL A   1      31.462  27.562  27.003  1.00  0.00     0.026 A 
ATOM     17  C   UNL A   1      33.573  27.052  26.038  1.00  0.00     0.144 A 
ATOM     18  C   UNL A   1      31.912  28.865  27.310  1.00  0.00     0.022 A 
ATOM     19  C   UNL A   1      34.079  28.294  26.476  1.00  0.00     0.061 A 
ATOM     20  F   UNL A   1      34.363  26.353  25.214  1.00  0.00    -0.205 F 
ATOM     21  C   UNL A   1      33.241  29.204  27.105  1.00  0.00     0.044 A 
ATOM     22  Cl  UNL A   1      33.821  30.762  27.553  1.00  0.00    -0.084 Cl
ENDBRANCH  12  15
ENDBRANCH   9  12
ENDBRANCH   3   5
ENDBRANCH   2   3
ENDBRANCH   1   2
BRANCH   1  23
ATOM     23  C   UNL A   1      37.275  22.290  24.702  1.00  0.00     0.275 C 
BRANCH  23  24
ATOM     24  O   UNL A   1      37.658  23.482  25.487  1.00  0.00    -0.458 OA
BRANCH  24  25
ATOM     25  C   UNL A   1      38.781  23.295  26.210  1.00  0.00     0.338 C 
ATOM     26  O   UNL A   1      39.319  22.196  26.270  1.00  0.00    -0.246 OA
BRANCH  25  27
ATOM     27  C   UNL A   1      39.503  24.309  26.996  1.00  0.00     0.060 A 
ATOM     28  C   UNL A   1      39.056  24.606  28.293  1.00  0.00     0.016 A 
ATOM     29  C   UNL A   1      40.133  25.329  26.269  1.00  0.00     0.016 A 
ATOM     30  C   UNL A   1      39.244  25.890  28.852  1.00  0.00     0.010 A 
ATOM     31  C   UNL A   1      40.335  26.605  26.830  1.00  0.00     0.010 A 
ATOM     32  C   UNL A   1      39.909  26.905  28.135  1.00  0.00    -0.014 A 
BRANCH  32  33
ATOM     33  C   UNL A   1      40.523  28.077  28.842  1.00  0.00     0.031 A 
ATOM     34  C   UNL A   1      41.877  28.120  29.510  1.00  0.00     0.074 A 
ATOM     35  C   UNL A   1      39.681  29.111  29.039  1.00  0.00     0.049 A 
ATOM     36  N   UNL A   1      42.410  29.092  30.222  1.00  0.00    -0.248 NA
ATOM     37  C   UNL A   1      42.735  26.937  29.393  1.00  0.00     0.031 C 
ATOM     38  C   UNL A   1      38.305  29.158  28.540  1.00  0.00     0.029 A 
ATOM     39  N   UNL A   1      39.819  30.274  29.751  1.00  0.00    -0.354 N 
ATOM     40  C   UNL A   1      43.658  28.645  30.644  1.00  0.00     0.074 A 
ATOM     41  C   UNL A   1      43.790  27.293  30.124  1.00  0.00     0.031 C 
ATOM     42  C   UNL A   1      37.709  30.260  28.999  1.00  0.00     0.029 A 
ATOM     43  C   UNL A   1      38.656  30.997  29.826  1.00  0.00     0.049 A 
ATOM     44  H   UNL A   1      40.664  30.560  30.167  1.00  0.00     0.167 HD
ATOM     45  C   UNL A   1      44.597  29.299  31.385  1.00  0.00     0.037 A 
ATOM     46  C   UNL A   1      38.351  32.126  30.488  1.00  0.00     0.037 A 
ATOM     47  C   UNL A   1      44.454  30.646  31.908  1.00  0.00     0.049 A 
ATOM     48  C   UNL A   1      39.406  32.847  31.257  1.00  0.00     0.074 A 
ATOM     49  C   UNL A   1      45.403  31.434  32.547  1.00  0.00     0.029 A 
ATOM     50  N   UNL A   1      43.283  31.392  31.893  1.00  0.00    -0.354 N 
ATOM     51  N   UNL A   1      40.637  32.481  31.507  1.00  0.00    -0.248 NA
ATOM     52  C   UNL A   1      39.040  34.159  31.803  1.00  0.00     0.031 C 
ATOM     53  C   UNL A   1      44.790  32.617  32.980  1.00  0.00     0.029 A 
ATOM     54  C   UNL A   1      43.474  32.604  32.551  1.00  0.00     0.049 A 
ATOM     55  H   UNL A   1      42.439  31.104  31.477  1.00  0.00     0.167 HD
ATOM     56  C   UNL A   1      41.203  33.524  32.223  1.00  0.00     0.074 A 
ATOM     57  C   UNL A   1      40.184  34.545  32.352  1.00  0.00     0.031 C 
ATOM     58  C   UNL A   1      42.461  33.618  32.719  1.00  0.00     0.037 A 
BRANCH  45  59
ATOM     59  C   UNL A   1      45.897  28.588  31.697  1.00  0.00     0.064 A 
ATOM     60  C   UNL A   1      46.054  27.803  32.850  1.00  0.00     0.173 A 
ATOM     61  C   UNL A   1      46.962  28.598  30.776  1.00  0.00     0.173 A 
ATOM     62  F   UNL A   1      45.065  27.727  33.753  1.00  0.00    -0.203 F 
ATOM     63  C   UNL A   1      47.232  27.094  33.089  1.00  0.00     0.198 A 
ATOM     64  C   UNL A   1      48.125  27.862  31.003  1.00  0.00     0.198 A 
ATOM     65  F   UNL A   1      46.864  29.296  29.636  1.00  0.00    -0.203 F 
ATOM     66  F   UNL A   1      47.367  26.384  34.218  1.00  0.00    -0.200 F 
ATOM     67  C   UNL A   1      48.264  27.119  32.164  1.00  0.00     0.200 A 
ATOM     68  F   UNL A   1      49.107  27.862  30.090  1.00  0.00    -0.200 F 
ATOM     69  F   UNL A   1      49.389  26.427  32.390  1.00  0.00    -0.200 F 
ENDBRANCH  45  59
BRANCH  46  70
ATOM     70  C   UNL A   1      36.972  32.653  30.361  1.00  0.00     0.064 A 
ATOM     71  C   UNL A   1      36.057  32.493  31.408  1.00  0.00     0.173 A 
ATOM     72  C   UNL A   1      36.594  33.438  29.262  1.00  0.00     0.173 A 
ATOM     73  F   UNL A   1      36.386  31.752  32.476  1.00  0.00    -0.203 F 
ATOM     74  C   UNL A   1      34.808  33.104  31.362  1.00  0.00     0.198 A 
ATOM     75  C   UNL A   1      35.355  34.069  29.230  1.00  0.00     0.198 A 
ATOM     76  F   UNL A   1      37.456  33.645  28.255  1.00  0.00    -0.203 F 
ATOM     77  F   UNL A   1      33.946  32.933  32.373  1.00  0.00    -0.200 F 
ATOM     78  C   UNL A   1      34.463  33.900  30.279  1.00  0.00     0.200 A 
ATOM     79  F   UNL A   1      35.036  34.865  28.201  1.00  0.00    -0.200 F 
ATOM     80  F   UNL A   1      33.273  34.516  30.254  1.00  0.00    -0.200 F 
ENDBRANCH  46  70
BRANCH  58  81
ATOM     81  C   UNL A   1      42.811  34.886  33.450  1.00  0.00     0.064 A 
ATOM     82  C   UNL A   1      42.719  34.980  34.848  1.00  0.00     0.173 A 
ATOM     83  C   UNL A   1      43.229  36.026  32.746  1.00  0.00     0.173 A 
ATOM     84  F   UNL A   1      42.300  33.929  35.569  1.00  0.00    -0.203 F 
ATOM     85  C   UNL A   1      43.000  36.174  35.509  1.00  0.00     0.198 A 
ATOM     86  C   UNL A   1      43.541  37.209  33.414  1.00  0.00     0.198 A 
ATOM     87  F   UNL A   1      43.333  35.996  31.410  1.00  0.00    -0.203 F 
ATOM     88  F   UNL A   1      42.845  36.256  36.837  1.00  0.00    -0.200 F 
ATOM     89  C   UNL A   1      43.416  37.285  34.792  1.00  0.00     0.200 A 
ATOM     90  F   UNL A   1      43.950  38.281  32.719  1.00  0.00    -0.200 F 
ATOM     91  F   UNL A   1      43.684  38.434  35.429  1.00  0.00    -0.200 F 
ENDBRANCH  58  81
ENDBRANCH  32  33
ENDBRANCH  25  27
ENDBRANCH  24  25
ENDBRANCH  23  24
ENDBRANCH   1  23
TORSDOF 14
ENDMDL
