MODEL 1
REMARK VINA RESULT:     -11.3      0.000      0.000
REMARK SMILES CC1(C)CCC[C@@](C)(CCC(=O)OCCOC(=O)c2ccc(-c3c4nc(c(-c5c(F)c(F)c(F)c(F)c5F)c5ccc([nH]5)c(-c5c(F)c(F)c(F)c(F)c5F)c5nc(c(-c6c(F)c(F)c(F)c(F)c6F)c6ccc3[nH]6)C=C5)C=C4)cc2)C1=O
REMARK SMILES IDX 14 1 13 2 11 3 12 4 10 5 9 6 7 7 1 8 2 9 3 10 4 11 82 12
REMARK SMILES IDX 5 13 83 14 6 15 8 16 15 17 16 18 17 19 18 20 19 21 20 22
REMARK SMILES IDX 81 23 21 24 80 25 22 26 23 27 24 28 74 29 25 30 79 31 73 32
REMARK SMILES IDX 75 33 26 34 78 35 72 36 71 37 27 39 59 40 39 41 58 42 40 43
REMARK SMILES IDX 43 44 57 45 76 46 41 47 42 48 56 50 77 51 44 52 28 53 29 54
REMARK SMILES IDX 37 55 30 56 31 57 35 58 38 59 32 60 33 61 36 62 34 63 60 64
REMARK SMILES IDX 61 65 69 66 62 67 63 68 67 69 70 70 64 71 65 72 68 73 66 74
REMARK SMILES IDX 45 75 46 76 54 77 47 78 48 79 52 80 55 81 49 82 50 83 53 84
REMARK SMILES IDX 51 85
REMARK H PARENT 75 38 43 49
REMARK Flexibility Score: inf
ROOT
ATOM      1  C   UNL A   1      31.502  28.998  24.787  1.00  0.00     0.274 C 
ENDROOT
BRANCH   1   2
ATOM      2  O   UNL A   1      32.728  28.287  24.529  1.00  0.00    -0.462 OA
BRANCH   2   3
ATOM      3  C   UNL A   1      32.683  26.936  24.593  1.00  0.00     0.305 C 
ATOM      4  O   UNL A   1      31.755  26.246  24.187  1.00  0.00    -0.252 OA
BRANCH   3   5
ATOM      5  C   UNL A   1      33.889  26.352  25.294  1.00  0.00     0.124 C 
BRANCH   5   6
ATOM      6  C   UNL A   1      33.767  24.904  25.791  1.00  0.00     0.026 C 
BRANCH   6   7
ATOM      7  C   UNL A   1      34.630  23.785  25.123  1.00  0.00     0.027 C 
ATOM      8  C   UNL A   1      31.475  22.602  24.957  1.00  0.00     0.019 C 
ATOM      9  C   UNL A   1      32.788  21.947  24.502  1.00  0.00     0.024 C 
ATOM     10  C   UNL A   1      32.634  20.421  24.651  1.00  0.00     0.019 C 
ATOM     11  C   UNL A   1      33.083  22.245  23.024  1.00  0.00     0.014 C 
ATOM     12  C   UNL A   1      33.943  22.424  25.408  1.00  0.00     0.144 C 
ATOM     13  C   UNL A   1      33.530  23.677  22.788  1.00  0.00     0.002 C 
ATOM     14  O   UNL A   1      34.232  21.787  26.427  1.00  0.00    -0.298 OA
ATOM     15  C   UNL A   1      34.786  23.973  23.598  1.00  0.00     0.014 C 
ATOM     16  C   UNL A   1      36.050  23.704  25.728  1.00  0.00     0.020 C 
ENDBRANCH   6   7
ENDBRANCH   5   6
ENDBRANCH   3   5
ENDBRANCH   2   3
ENDBRANCH   1   2
BRANCH   1  17
ATOM     17  C   UNL A   1      31.708  30.133  25.793  1.00  0.00     0.275 C 
BRANCH  17  18
ATOM     18  O   UNL A   1      33.105  30.339  26.063  1.00  0.00    -0.458 OA
BRANCH  18  19
ATOM     19  C   UNL A   1      33.378  31.309  26.964  1.00  0.00     0.338 C 
ATOM     20  O   UNL A   1      32.671  32.246  27.283  1.00  0.00    -0.246 OA
BRANCH  19  21
ATOM     21  C   UNL A   1      34.657  31.022  27.622  1.00  0.00     0.060 A 
ATOM     22  C   UNL A   1      34.924  29.706  28.012  1.00  0.00     0.016 A 
ATOM     23  C   UNL A   1      35.546  32.055  27.921  1.00  0.00     0.016 A 
ATOM     24  C   UNL A   1      36.095  29.413  28.704  1.00  0.00     0.010 A 
ATOM     25  C   UNL A   1      36.718  31.759  28.616  1.00  0.00     0.010 A 
ATOM     26  C   UNL A   1      36.993  30.441  29.018  1.00  0.00    -0.014 A 
BRANCH  26  27
ATOM     27  C   UNL A   1      38.210  30.151  29.808  1.00  0.00     0.031 A 
ATOM     28  C   UNL A   1      39.252  29.231  29.248  1.00  0.00     0.074 A 
ATOM     29  C   UNL A   1      38.361  30.700  31.025  1.00  0.00     0.049 A 
ATOM     30  N   UNL A   1      40.322  28.745  29.821  1.00  0.00    -0.248 NA
ATOM     31  C   UNL A   1      39.060  28.795  27.857  1.00  0.00     0.031 C 
ATOM     32  C   UNL A   1      37.429  31.640  31.646  1.00  0.00     0.029 A 
ATOM     33  N   UNL A   1      39.348  30.534  31.961  1.00  0.00    -0.354 N 
ATOM     34  C   UNL A   1      40.920  27.929  28.870  1.00  0.00     0.074 A 
ATOM     35  C   UNL A   1      40.087  27.975  27.688  1.00  0.00     0.031 C 
ATOM     36  C   UNL A   1      37.885  31.962  32.868  1.00  0.00     0.029 A 
ATOM     37  C   UNL A   1      39.113  31.215  33.129  1.00  0.00     0.049 A 
ATOM     38  H   UNL A   1      40.148  29.979  31.812  1.00  0.00     0.167 HD
ATOM     39  C   UNL A   1      42.062  27.210  28.981  1.00  0.00     0.037 A 
ATOM     40  C   UNL A   1      39.796  31.209  34.288  1.00  0.00     0.037 A 
ATOM     41  C   UNL A   1      42.886  27.178  30.161  1.00  0.00     0.049 A 
ATOM     42  C   UNL A   1      41.032  30.360  34.403  1.00  0.00     0.074 A 
ATOM     43  C   UNL A   1      44.065  26.488  30.376  1.00  0.00     0.029 A 
ATOM     44  N   UNL A   1      42.610  27.872  31.331  1.00  0.00    -0.354 N 
ATOM     45  N   UNL A   1      41.590  29.584  33.505  1.00  0.00    -0.248 NA
ATOM     46  C   UNL A   1      41.731  30.379  35.696  1.00  0.00     0.031 C 
ATOM     47  C   UNL A   1      44.483  26.734  31.688  1.00  0.00     0.029 A 
ATOM     48  C   UNL A   1      43.588  27.614  32.277  1.00  0.00     0.049 A 
ATOM     49  H   UNL A   1      41.833  28.462  31.468  1.00  0.00     0.167 HD
ATOM     50  C   UNL A   1      42.714  29.042  34.112  1.00  0.00     0.074 A 
ATOM     51  C   UNL A   1      42.765  29.585  35.454  1.00  0.00     0.031 C 
ATOM     52  C   UNL A   1      43.621  28.173  33.605  1.00  0.00     0.037 A 
BRANCH  39  53
ATOM     53  C   UNL A   1      42.466  26.373  27.804  1.00  0.00     0.064 A 
ATOM     54  C   UNL A   1      41.935  25.092  27.592  1.00  0.00     0.173 A 
ATOM     55  C   UNL A   1      43.387  26.866  26.867  1.00  0.00     0.173 A 
ATOM     56  F   UNL A   1      41.065  24.569  28.468  1.00  0.00    -0.203 F 
ATOM     57  C   UNL A   1      42.330  24.326  26.497  1.00  0.00     0.198 A 
ATOM     58  C   UNL A   1      43.758  26.108  25.759  1.00  0.00     0.198 A 
ATOM     59  F   UNL A   1      43.923  28.086  27.023  1.00  0.00    -0.203 F 
ATOM     60  F   UNL A   1      41.843  23.087  26.338  1.00  0.00    -0.200 F 
ATOM     61  C   UNL A   1      43.236  24.837  25.579  1.00  0.00     0.200 A 
ATOM     62  F   UNL A   1      44.629  26.606  24.870  1.00  0.00    -0.200 F 
ATOM     63  F   UNL A   1      43.613  24.099  24.526  1.00  0.00    -0.200 F 
ENDBRANCH  39  53
BRANCH  40  64
ATOM     64  C   UNL A   1      39.316  32.025  35.431  1.00  0.00     0.064 A 
ATOM     65  C   UNL A   1      38.483  31.471  36.412  1.00  0.00     0.173 A 
ATOM     66  C   UNL A   1      39.689  33.369  35.574  1.00  0.00     0.173 A 
ATOM     67  F   UNL A   1      38.079  30.196  36.305  1.00  0.00    -0.203 F 
ATOM     68  C   UNL A   1      38.033  32.233  37.488  1.00  0.00     0.198 A 
ATOM     69  C   UNL A   1      39.260  34.124  36.663  1.00  0.00     0.198 A 
ATOM     70  F   UNL A   1      40.484  33.945  34.661  1.00  0.00    -0.203 F 
ATOM     71  F   UNL A   1      37.208  31.689  38.393  1.00  0.00    -0.200 F 
ATOM     72  C   UNL A   1      38.428  33.557  37.616  1.00  0.00     0.200 A 
ATOM     73  F   UNL A   1      39.652  35.399  36.789  1.00  0.00    -0.200 F 
ATOM     74  F   UNL A   1      38.000  34.288  38.655  1.00  0.00    -0.200 F 
ENDBRANCH  40  64
BRANCH  52  75
ATOM     75  C   UNL A   1      44.766  27.784  34.493  1.00  0.00     0.064 A 
ATOM     76  C   UNL A   1      44.747  26.596  35.236  1.00  0.00     0.173 A 
ATOM     77  C   UNL A   1      45.910  28.593  34.568  1.00  0.00     0.173 A 
ATOM     78  F   UNL A   1      43.669  25.799  35.208  1.00  0.00    -0.203 F 
ATOM     79  C   UNL A   1      45.828  26.240  36.040  1.00  0.00     0.198 A 
ATOM     80  C   UNL A   1      46.997  28.222  35.353  1.00  0.00     0.198 A 
ATOM     81  F   UNL A   1      45.975  29.737  33.871  1.00  0.00    -0.203 F 
ATOM     82  F   UNL A   1      45.774  25.120  36.773  1.00  0.00    -0.200 F 
ATOM     83  C   UNL A   1      46.954  27.049  36.092  1.00  0.00     0.200 A 
ATOM     84  F   UNL A   1      48.088  29.000  35.395  1.00  0.00    -0.200 F 
ATOM     85  F   UNL A   1      47.994  26.702  36.861  1.00  0.00    -0.200 F 
ENDBRANCH  52  75
ENDBRANCH  26  27
ENDBRANCH  19  21
ENDBRANCH  18  19
ENDBRANCH  17  18
ENDBRANCH   1  17
TORSDOF 13
ENDMDL
MODEL 2
REMARK VINA RESULT:     -11.3      0.513      1.735
REMARK SMILES CC1(C)CCC[C@@](C)(CCC(=O)OCCOC(=O)c2ccc(-c3c4nc(c(-c5c(F)c(F)c(F)c(F)c5F)c5ccc([nH]5)c(-c5c(F)c(F)c(F)c(F)c5F)c5nc(c(-c6c(F)c(F)c(F)c(F)c6F)c6ccc3[nH]6)C=C5)C=C4)cc2)C1=O
REMARK SMILES IDX 14 1 13 2 11 3 12 4 10 5 9 6 7 7 1 8 2 9 3 10 4 11 82 12
REMARK SMILES IDX 5 13 83 14 6 15 8 16 15 17 16 18 17 19 18 20 19 21 20 22
REMARK SMILES IDX 81 23 21 24 80 25 22 26 23 27 24 28 74 29 25 30 79 31 73 32
REMARK SMILES IDX 75 33 26 34 78 35 72 36 71 37 27 39 59 40 39 41 58 42 40 43
REMARK SMILES IDX 43 44 57 45 76 46 41 47 42 48 56 50 77 51 44 52 28 53 29 54
REMARK SMILES IDX 37 55 30 56 31 57 35 58 38 59 32 60 33 61 36 62 34 63 60 64
REMARK SMILES IDX 61 65 69 66 62 67 63 68 67 69 70 70 64 71 65 72 68 73 66 74
REMARK SMILES IDX 45 75 46 76 54 77 47 78 48 79 52 80 55 81 49 82 50 83 53 84
REMARK SMILES IDX 51 85
REMARK H PARENT 75 38 43 49
REMARK Flexibility Score: inf
ROOT
ATOM      1  C   UNL A   1      31.718  28.518  25.028  1.00  0.00     0.274 C 
ENDROOT
BRANCH   1   2
ATOM      2  O   UNL A   1      32.976  27.816  25.023  1.00  0.00    -0.462 OA
BRANCH   2   3
ATOM      3  C   UNL A   1      32.975  26.546  25.489  1.00  0.00     0.305 C 
ATOM      4  O   UNL A   1      32.214  26.116  26.347  1.00  0.00    -0.252 OA
BRANCH   3   5
ATOM      5  C   UNL A   1      34.077  25.707  24.880  1.00  0.00     0.124 C 
BRANCH   5   6
ATOM      6  C   UNL A   1      34.080  24.212  25.227  1.00  0.00     0.026 C 
BRANCH   6   7
ATOM      7  C   UNL A   1      34.571  23.176  24.164  1.00  0.00     0.027 C 
ATOM      8  C   UNL A   1      31.724  21.829  25.372  1.00  0.00     0.019 C 
ATOM      9  C   UNL A   1      32.700  21.271  24.324  1.00  0.00     0.024 C 
ATOM     10  C   UNL A   1      32.673  19.733  24.422  1.00  0.00     0.019 C 
ATOM     11  C   UNL A   1      32.277  21.657  22.899  1.00  0.00     0.014 C 
ATOM     12  C   UNL A   1      34.128  21.766  24.636  1.00  0.00     0.144 C 
ATOM     13  C   UNL A   1      32.527  23.121  22.585  1.00  0.00     0.002 C 
ATOM     14  O   UNL A   1      34.869  21.098  25.365  1.00  0.00    -0.298 OA
ATOM     15  C   UNL A   1      34.007  23.446  22.751  1.00  0.00     0.014 C 
ATOM     16  C   UNL A   1      36.112  23.144  24.048  1.00  0.00     0.020 C 
ENDBRANCH   6   7
ENDBRANCH   5   6
ENDBRANCH   3   5
ENDBRANCH   2   3
ENDBRANCH   1   2
BRANCH   1  17
ATOM     17  C   UNL A   1      31.777  29.777  25.897  1.00  0.00     0.275 C 
BRANCH  17  18
ATOM     18  O   UNL A   1      33.112  30.307  25.952  1.00  0.00    -0.458 OA
BRANCH  18  19
ATOM     19  C   UNL A   1      33.328  31.220  26.924  1.00  0.00     0.338 C 
ATOM     20  O   UNL A   1      32.580  32.109  27.287  1.00  0.00    -0.246 OA
BRANCH  19  21
ATOM     21  C   UNL A   1      34.598  30.931  27.598  1.00  0.00     0.060 A 
ATOM     22  C   UNL A   1      34.853  29.615  27.998  1.00  0.00     0.016 A 
ATOM     23  C   UNL A   1      35.490  31.960  27.899  1.00  0.00     0.016 A 
ATOM     24  C   UNL A   1      36.015  29.320  28.705  1.00  0.00     0.010 A 
ATOM     25  C   UNL A   1      36.653  31.663  28.608  1.00  0.00     0.010 A 
ATOM     26  C   UNL A   1      36.916  30.345  29.022  1.00  0.00    -0.014 A 
BRANCH  26  27
ATOM     27  C   UNL A   1      38.123  30.054  29.826  1.00  0.00     0.031 A 
ATOM     28  C   UNL A   1      39.171  29.133  29.279  1.00  0.00     0.074 A 
ATOM     29  C   UNL A   1      38.260  30.602  31.045  1.00  0.00     0.049 A 
ATOM     30  N   UNL A   1      40.234  28.645  29.864  1.00  0.00    -0.248 NA
ATOM     31  C   UNL A   1      38.995  28.698  27.885  1.00  0.00     0.031 C 
ATOM     32  C   UNL A   1      37.322  31.543  31.655  1.00  0.00     0.029 A 
ATOM     33  N   UNL A   1      39.236  30.435  31.993  1.00  0.00    -0.354 N 
ATOM     34  C   UNL A   1      40.842  27.829  28.920  1.00  0.00     0.074 A 
ATOM     35  C   UNL A   1      40.023  27.877  27.728  1.00  0.00     0.031 C 
ATOM     36  C   UNL A   1      37.763  31.864  32.883  1.00  0.00     0.029 A 
ATOM     37  C   UNL A   1      38.987  31.115  33.158  1.00  0.00     0.049 A 
ATOM     38  H   UNL A   1      40.036  29.879  31.853  1.00  0.00     0.167 HD
ATOM     39  C   UNL A   1      41.982  27.109  29.044  1.00  0.00     0.037 A 
ATOM     40  C   UNL A   1      39.656  31.108  34.326  1.00  0.00     0.037 A 
ATOM     41  C   UNL A   1      42.791  27.075  30.234  1.00  0.00     0.049 A 
ATOM     42  C   UNL A   1      40.889  30.257  34.456  1.00  0.00     0.074 A 
ATOM     43  C   UNL A   1      43.967  26.384  30.463  1.00  0.00     0.029 A 
ATOM     44  N   UNL A   1      42.502  27.769  31.401  1.00  0.00    -0.354 N 
ATOM     45  N   UNL A   1      41.458  29.481  33.564  1.00  0.00    -0.248 NA
ATOM     46  C   UNL A   1      41.573  30.275  35.756  1.00  0.00     0.031 C 
ATOM     47  C   UNL A   1      44.369  26.629  31.780  1.00  0.00     0.029 A 
ATOM     48  C   UNL A   1      43.468  27.510  32.359  1.00  0.00     0.049 A 
ATOM     49  H   UNL A   1      41.724  28.360  31.529  1.00  0.00     0.167 HD
ATOM     50  C   UNL A   1      42.573  28.938  34.184  1.00  0.00     0.074 A 
ATOM     51  C   UNL A   1      42.609  29.480  35.527  1.00  0.00     0.031 C 
ATOM     52  C   UNL A   1      43.486  28.068  33.688  1.00  0.00     0.037 A 
BRANCH  39  53
ATOM     53  C   UNL A   1      42.399  26.272  27.872  1.00  0.00     0.064 A 
ATOM     54  C   UNL A   1      41.844  25.006  27.633  1.00  0.00     0.173 A 
ATOM     55  C   UNL A   1      43.358  26.750  26.966  1.00  0.00     0.173 A 
ATOM     56  F   UNL A   1      40.936  24.498  28.479  1.00  0.00    -0.203 F 
ATOM     57  C   UNL A   1      42.251  24.240  26.543  1.00  0.00     0.198 A 
ATOM     58  C   UNL A   1      43.743  25.993  25.863  1.00  0.00     0.198 A 
ATOM     59  F   UNL A   1      43.919  27.955  27.148  1.00  0.00    -0.203 F 
ATOM     60  F   UNL A   1      41.739  23.015  26.359  1.00  0.00    -0.200 F 
ATOM     61  C   UNL A   1      43.195  24.736  25.656  1.00  0.00     0.200 A 
ATOM     62  F   UNL A   1      44.651  26.476  25.003  1.00  0.00    -0.200 F 
ATOM     63  F   UNL A   1      43.584  23.998  24.608  1.00  0.00    -0.200 F 
ENDBRANCH  39  53
BRANCH  40  64
ATOM     64  C   UNL A   1      39.163  31.923  35.463  1.00  0.00     0.064 A 
ATOM     65  C   UNL A   1      39.506  33.276  35.582  1.00  0.00     0.173 A 
ATOM     66  C   UNL A   1      38.329  31.371  36.447  1.00  0.00     0.173 A 
ATOM     67  F   UNL A   1      40.321  33.842  34.679  1.00  0.00    -0.203 F 
ATOM     68  C   UNL A   1      39.042  34.045  36.647  1.00  0.00     0.198 A 
ATOM     69  C   UNL A   1      37.845  32.147  37.498  1.00  0.00     0.198 A 
ATOM     70  F   UNL A   1      37.973  30.080  36.379  1.00  0.00    -0.203 F 
ATOM     71  F   UNL A   1      39.415  35.327  36.757  1.00  0.00    -0.200 F 
ATOM     72  C   UNL A   1      38.206  33.481  37.601  1.00  0.00     0.200 A 
ATOM     73  F   UNL A   1      37.029  31.601  38.411  1.00  0.00    -0.200 F 
ATOM     74  F   UNL A   1      37.755  34.224  38.621  1.00  0.00    -0.200 F 
ENDBRANCH  40  64
BRANCH  52  75
ATOM     75  C   UNL A   1      44.619  27.677  34.589  1.00  0.00     0.064 A 
ATOM     76  C   UNL A   1      45.804  28.424  34.643  1.00  0.00     0.173 A 
ATOM     77  C   UNL A   1      44.500  26.563  35.434  1.00  0.00     0.173 A 
ATOM     78  F   UNL A   1      45.969  29.487  33.842  1.00  0.00    -0.203 F 
ATOM     79  C   UNL A   1      46.839  28.059  35.501  1.00  0.00     0.198 A 
ATOM     80  C   UNL A   1      45.527  26.216  36.307  1.00  0.00     0.198 A 
ATOM     81  F   UNL A   1      43.383  25.821  35.420  1.00  0.00    -0.203 F 
ATOM     82  F   UNL A   1      47.979  28.763  35.510  1.00  0.00    -0.200 F 
ATOM     83  C   UNL A   1      46.696  26.961  36.337  1.00  0.00     0.200 A 
ATOM     84  F   UNL A   1      45.383  25.161  37.120  1.00  0.00    -0.200 F 
ATOM     85  F   UNL A   1      47.690  26.614  37.165  1.00  0.00    -0.200 F 
ENDBRANCH  52  75
ENDBRANCH  26  27
ENDBRANCH  19  21
ENDBRANCH  18  19
ENDBRANCH  17  18
ENDBRANCH   1  17
TORSDOF 13
ENDMDL
MODEL 3
REMARK VINA RESULT:     -11.3      1.946      3.043
REMARK SMILES CC1(C)CCC[C@@](C)(CCC(=O)OCCOC(=O)c2ccc(-c3c4nc(c(-c5c(F)c(F)c(F)c(F)c5F)c5ccc([nH]5)c(-c5c(F)c(F)c(F)c(F)c5F)c5nc(c(-c6c(F)c(F)c(F)c(F)c6F)c6ccc3[nH]6)C=C5)C=C4)cc2)C1=O
REMARK SMILES IDX 14 1 13 2 11 3 12 4 10 5 9 6 7 7 1 8 2 9 3 10 4 11 82 12
REMARK SMILES IDX 5 13 83 14 6 15 8 16 15 17 16 18 17 19 18 20 19 21 20 22
REMARK SMILES IDX 81 23 21 24 80 25 22 26 23 27 24 28 74 29 25 30 79 31 73 32
REMARK SMILES IDX 75 33 26 34 78 35 72 36 71 37 27 39 59 40 39 41 58 42 40 43
REMARK SMILES IDX 43 44 57 45 76 46 41 47 42 48 56 50 77 51 44 52 28 53 29 54
REMARK SMILES IDX 37 55 30 56 31 57 35 58 38 59 32 60 33 61 36 62 34 63 60 64
REMARK SMILES IDX 61 65 69 66 62 67 63 68 67 69 70 70 64 71 65 72 68 73 66 74
REMARK SMILES IDX 45 75 46 76 54 77 47 78 48 79 52 80 55 81 49 82 50 83 53 84
REMARK SMILES IDX 51 85
REMARK H PARENT 75 38 43 49
REMARK Flexibility Score: inf
ROOT
ATOM      1  C   UNL A   1      31.948  31.427  26.505  1.00  0.00     0.274 C 
ENDROOT
BRANCH   1   2
ATOM      2  O   UNL A   1      32.522  30.586  27.525  1.00  0.00    -0.462 OA
BRANCH   2   3
ATOM      3  C   UNL A   1      33.715  30.011  27.250  1.00  0.00     0.305 C 
ATOM      4  O   UNL A   1      34.789  30.599  27.235  1.00  0.00    -0.252 OA
BRANCH   3   5
ATOM      5  C   UNL A   1      33.580  28.548  26.889  1.00  0.00     0.124 C 
BRANCH   5   6
ATOM      6  C   UNL A   1      33.717  28.186  25.404  1.00  0.00     0.026 C 
BRANCH   6   7
ATOM      7  C   UNL A   1      33.203  26.799  24.899  1.00  0.00     0.027 C 
ATOM      8  C   UNL A   1      30.789  28.962  23.961  1.00  0.00     0.019 C 
ATOM      9  C   UNL A   1      30.854  27.437  23.788  1.00  0.00     0.024 C 
ATOM     10  C   UNL A   1      29.412  26.893  23.827  1.00  0.00     0.019 C 
ATOM     11  C   UNL A   1      31.463  27.050  22.432  1.00  0.00     0.014 C 
ATOM     12  C   UNL A   1      31.652  26.819  24.956  1.00  0.00     0.144 C 
ATOM     13  C   UNL A   1      32.963  27.279  22.372  1.00  0.00     0.002 C 
ATOM     14  O   UNL A   1      31.067  26.459  25.983  1.00  0.00    -0.298 OA
ATOM     15  C   UNL A   1      33.660  26.472  23.460  1.00  0.00     0.014 C 
ATOM     16  C   UNL A   1      33.667  25.638  25.807  1.00  0.00     0.020 C 
ENDBRANCH   6   7
ENDBRANCH   5   6
ENDBRANCH   3   5
ENDBRANCH   2   3
ENDBRANCH   1   2
BRANCH   1  17
ATOM     17  C   UNL A   1      31.801  32.873  26.982  1.00  0.00     0.275 C 
BRANCH  17  18
ATOM     18  O   UNL A   1      33.084  33.505  27.128  1.00  0.00    -0.458 OA
BRANCH  18  19
ATOM     19  C   UNL A   1      33.234  34.250  28.245  1.00  0.00     0.338 C 
ATOM     20  O   UNL A   1      32.516  35.150  28.639  1.00  0.00    -0.246 OA
BRANCH  19  21
ATOM     21  C   UNL A   1      34.371  33.747  29.023  1.00  0.00     0.060 A 
ATOM     22  C   UNL A   1      35.638  34.285  28.773  1.00  0.00     0.016 A 
ATOM     23  C   UNL A   1      34.200  32.702  29.931  1.00  0.00     0.016 A 
ATOM     24  C   UNL A   1      36.749  33.778  29.440  1.00  0.00     0.010 A 
ATOM     25  C   UNL A   1      35.314  32.195  30.598  1.00  0.00     0.010 A 
ATOM     26  C   UNL A   1      36.593  32.723  30.349  1.00  0.00    -0.014 A 
BRANCH  26  27
ATOM     27  C   UNL A   1      37.774  32.136  31.018  1.00  0.00     0.031 A 
ATOM     28  C   UNL A   1      38.563  31.069  30.321  1.00  0.00     0.074 A 
ATOM     29  C   UNL A   1      38.118  32.549  32.249  1.00  0.00     0.049 A 
ATOM     30  N   UNL A   1      39.545  30.334  30.773  1.00  0.00    -0.248 NA
ATOM     31  C   UNL A   1      38.190  30.786  28.926  1.00  0.00     0.031 C 
ATOM     32  C   UNL A   1      37.446  33.608  33.000  1.00  0.00     0.029 A 
ATOM     33  N   UNL A   1      39.111  32.116  33.090  1.00  0.00    -0.354 N 
ATOM     34  C   UNL A   1      39.895  29.488  29.730  1.00  0.00     0.074 A 
ATOM     35  C   UNL A   1      39.011  29.791  28.624  1.00  0.00     0.031 C 
ATOM     36  C   UNL A   1      38.040  33.738  34.197  1.00  0.00     0.029 A 
ATOM     37  C   UNL A   1      39.101  32.741  34.311  1.00  0.00     0.049 A 
ATOM     38  H   UNL A   1      39.766  31.424  32.842  1.00  0.00     0.167 HD
ATOM     39  C   UNL A   1      40.868  28.547  29.704  1.00  0.00     0.037 A 
ATOM     40  C   UNL A   1      39.846  32.509  35.409  1.00  0.00     0.037 A 
ATOM     41  C   UNL A   1      41.745  28.260  30.808  1.00  0.00     0.049 A 
ATOM     42  C   UNL A   1      40.884  31.421  35.371  1.00  0.00     0.074 A 
ATOM     43  C   UNL A   1      42.768  27.332  30.884  1.00  0.00     0.029 A 
ATOM     44  N   UNL A   1      41.699  28.905  32.036  1.00  0.00    -0.354 N 
ATOM     45  N   UNL A   1      41.206  30.619  34.385  1.00  0.00    -0.248 NA
ATOM     46  C   UNL A   1      41.658  31.201  36.600  1.00  0.00     0.031 C 
ATOM     47  C   UNL A   1      43.316  27.389  32.169  1.00  0.00     0.029 A 
ATOM     48  C   UNL A   1      42.665  28.384  32.882  1.00  0.00     0.049 A 
ATOM     49  H   UNL A   1      41.073  29.628  32.272  1.00  0.00     0.167 HD
ATOM     50  C   UNL A   1      42.232  29.817  34.864  1.00  0.00     0.074 A 
ATOM     51  C   UNL A   1      42.485  30.235  36.228  1.00  0.00     0.031 C 
ATOM     52  C   UNL A   1      42.903  28.823  34.234  1.00  0.00     0.037 A 
BRANCH  39  53
ATOM     53  C   UNL A   1      41.009  27.736  28.449  1.00  0.00     0.064 A 
ATOM     54  C   UNL A   1      41.866  28.127  27.410  1.00  0.00     0.173 A 
ATOM     55  C   UNL A   1      40.287  26.543  28.292  1.00  0.00     0.173 A 
ATOM     56  F   UNL A   1      42.565  29.268  27.505  1.00  0.00    -0.203 F 
ATOM     57  C   UNL A   1      41.977  27.365  26.249  1.00  0.00     0.198 A 
ATOM     58  C   UNL A   1      40.421  25.771  27.141  1.00  0.00     0.198 A 
ATOM     59  F   UNL A   1      39.454  26.124  29.257  1.00  0.00    -0.203 F 
ATOM     60  F   UNL A   1      42.768  27.781  25.250  1.00  0.00    -0.200 F 
ATOM     61  C   UNL A   1      41.259  26.186  26.118  1.00  0.00     0.200 A 
ATOM     62  F   UNL A   1      39.731  24.628  27.019  1.00  0.00    -0.200 F 
ATOM     63  F   UNL A   1      41.368  25.454  25.001  1.00  0.00    -0.200 F 
ENDBRANCH  39  53
BRANCH  40  64
ATOM     64  C   UNL A   1      39.624  33.316  36.634  1.00  0.00     0.064 A 
ATOM     65  C   UNL A   1      38.712  32.903  37.614  1.00  0.00     0.173 A 
ATOM     66  C   UNL A   1      40.327  34.509  36.857  1.00  0.00     0.173 A 
ATOM     67  F   UNL A   1      37.998  31.781  37.433  1.00  0.00    -0.203 F 
ATOM     68  C   UNL A   1      38.503  33.657  38.766  1.00  0.00     0.198 A 
ATOM     69  C   UNL A   1      40.137  35.250  38.021  1.00  0.00     0.198 A 
ATOM     70  F   UNL A   1      41.210  34.948  35.948  1.00  0.00    -0.203 F 
ATOM     71  F   UNL A   1      37.599  33.258  39.671  1.00  0.00    -0.200 F 
ATOM     72  C   UNL A   1      39.222  34.826  38.972  1.00  0.00     0.200 A 
ATOM     73  F   UNL A   1      40.841  36.373  38.221  1.00  0.00    -0.200 F 
ATOM     74  F   UNL A   1      39.026  35.547  40.085  1.00  0.00    -0.200 F 
ENDBRANCH  40  64
BRANCH  52  75
ATOM     75  C   UNL A   1      44.000  28.145  34.999  1.00  0.00     0.064 A 
ATOM     76  C   UNL A   1      43.767  26.972  35.731  1.00  0.00     0.173 A 
ATOM     77  C   UNL A   1      45.306  28.656  34.967  1.00  0.00     0.173 A 
ATOM     78  F   UNL A   1      42.531  26.456  35.804  1.00  0.00    -0.203 F 
ATOM     79  C   UNL A   1      44.802  26.344  36.420  1.00  0.00     0.198 A 
ATOM     80  C   UNL A   1      46.342  28.011  35.637  1.00  0.00     0.198 A 
ATOM     81  F   UNL A   1      45.578  29.773  34.276  1.00  0.00    -0.203 F 
ATOM     82  F   UNL A   1      44.551  25.246  37.146  1.00  0.00    -0.200 F 
ATOM     83  C   UNL A   1      46.088  26.860  36.366  1.00  0.00     0.200 A 
ATOM     84  F   UNL A   1      47.586  28.506  35.576  1.00  0.00    -0.200 F 
ATOM     85  F   UNL A   1      47.083  26.251  37.025  1.00  0.00    -0.200 F 
ENDBRANCH  52  75
ENDBRANCH  26  27
ENDBRANCH  19  21
ENDBRANCH  18  19
ENDBRANCH  17  18
ENDBRANCH   1  17
TORSDOF 13
ENDMDL
