MODEL 1
REMARK VINA RESULT:     -12.5      0.000      0.000
REMARK SMILES CCOC(=O)C1=NN(c2ccc([N+](=O)[O-])cc2C(F)(F)F)[C@@](C)(C(=O)OCCOC(=O)c2ccc(-c3c4nc(c(-c5c(F)c(F)c(F)c(F)c5F)c5ccc([nH]5)c(-c5c(F)c(F)c(F)c(F)c5F)c5nc(c(-c6c(F)c(F)c(F)c(F)c6F)c6ccc3[nH]6)C=C5)C=C4)cc2)C1
REMARK SMILES IDX 27 1 26 2 24 3 25 4 22 5 6 6 7 7 95 8 8 9 23 10 4 11 5 12
REMARK SMILES IDX 3 13 2 14 1 15 9 16 10 17 17 18 11 19 16 20 12 21 18 22
REMARK SMILES IDX 19 23 20 24 21 25 13 26 14 27 15 28 28 29 29 30 30 31 31 32
REMARK SMILES IDX 32 33 33 34 94 35 34 36 93 37 35 38 36 39 37 40 87 41 38 42
REMARK SMILES IDX 92 43 86 44 88 45 39 46 91 47 85 48 84 49 40 51 72 52 52 53
REMARK SMILES IDX 71 54 53 55 56 56 70 57 89 58 54 59 55 60 69 62 90 63 57 64
REMARK SMILES IDX 41 65 42 66 50 67 43 68 44 69 48 70 51 71 45 72 46 73 49 74
REMARK SMILES IDX 47 75 73 76 74 77 82 78 75 79 76 80 80 81 83 82 77 83 78 84
REMARK SMILES IDX 81 85 79 86 58 87 59 88 67 89 60 90 61 91 65 92 68 93 62 94
REMARK SMILES IDX 63 95 66 96 64 97
REMARK H PARENT 88 50 56 61
REMARK Flexibility Score: inf
ROOT
ATOM      1  C   UNL A   1      31.834  28.351  27.626  1.00  0.00     0.274 C 
ENDROOT
BRANCH   1   2
ATOM      2  O   UNL A   1      31.433  27.130  26.966  1.00  0.00    -0.460 OA
BRANCH   2   3
ATOM      3  C   UNL A   1      32.408  26.477  26.281  1.00  0.00     0.334 C 
ATOM      4  O   UNL A   1      33.577  26.856  26.237  1.00  0.00    -0.249 OA
BRANCH   3   5
ATOM      5  C   UNL A   1      31.926  25.264  25.463  1.00  0.00     0.163 C 
ATOM      6  C   UNL A   1      31.744  25.822  23.229  1.00  0.00     0.149 C 
ATOM      7  N   UNL A   1      32.878  25.201  23.298  1.00  0.00    -0.169 NA
ATOM      8  C   UNL A   1      30.867  25.727  24.435  1.00  0.00     0.108 C 
ATOM      9  N   UNL A   1      32.941  24.674  24.558  1.00  0.00    -0.247 N 
ATOM     10  C   UNL A   1      31.320  24.310  26.486  1.00  0.00     0.050 C 
BRANCH   6  11
ATOM     11  C   UNL A   1      31.300  26.548  21.988  1.00  0.00     0.354 C 
ATOM     12  O   UNL A   1      31.699  26.234  20.881  1.00  0.00    -0.245 OA
BRANCH  11  13
ATOM     13  O   UNL A   1      30.421  27.511  22.317  1.00  0.00    -0.461 OA
BRANCH  13  14
ATOM     14  C   UNL A   1      30.998  28.771  22.698  1.00  0.00     0.230 C 
ATOM     15  C   UNL A   1      29.958  29.607  23.417  1.00  0.00     0.049 C 
ENDBRANCH  13  14
ENDBRANCH  11  13
ENDBRANCH   6  11
BRANCH   9  16
ATOM     16  C   UNL A   1      33.995  23.817  24.814  1.00  0.00     0.073 A 
ATOM     17  C   UNL A   1      35.195  24.370  25.314  1.00  0.00     0.036 A 
ATOM     18  C   UNL A   1      34.002  22.459  24.439  1.00  0.00     0.088 A 
ATOM     19  C   UNL A   1      36.354  23.610  25.492  1.00  0.00     0.088 A 
ATOM     20  C   UNL A   1      35.161  21.676  24.662  1.00  0.00     0.101 A 
ATOM     21  C   UNL A   1      36.327  22.256  25.170  1.00  0.00     0.270 A 
BRANCH  18  22
ATOM     22  C   UNL A   1      32.853  21.781  23.732  1.00  0.00     0.418 C 
ATOM     23  F   UNL A   1      31.647  22.059  24.308  1.00  0.00    -0.166 F 
ATOM     24  F   UNL A   1      32.732  22.204  22.441  1.00  0.00    -0.166 F 
ATOM     25  F   UNL A   1      32.915  20.422  23.682  1.00  0.00    -0.166 F 
ENDBRANCH  18  22
BRANCH  21  26
ATOM     26  N   UNL A   1      37.539  21.440  25.319  1.00  0.00     0.062 N 
ATOM     27  O   UNL A   1      38.554  21.992  25.764  1.00  0.00    -0.258 OA
ATOM     28  O   UNL A   1      37.470  20.247  24.991  1.00  0.00    -0.258 OA
ENDBRANCH  21  26
ENDBRANCH   9  16
ENDBRANCH   3   5
ENDBRANCH   2   3
ENDBRANCH   1   2
BRANCH   1  29
ATOM     29  C   UNL A   1      31.567  29.574  26.753  1.00  0.00     0.275 C 
BRANCH  29  30
ATOM     30  O   UNL A   1      32.816  30.142  26.326  1.00  0.00    -0.458 OA
BRANCH  30  31
ATOM     31  C   UNL A   1      33.276  31.176  27.069  1.00  0.00     0.338 C 
ATOM     32  O   UNL A   1      32.676  32.199  27.352  1.00  0.00    -0.246 OA
BRANCH  31  33
ATOM     33  C   UNL A   1      34.653  30.896  27.528  1.00  0.00     0.060 A 
ATOM     34  C   UNL A   1      35.116  29.585  27.626  1.00  0.00     0.016 A 
ATOM     35  C   UNL A   1      35.442  31.942  28.002  1.00  0.00     0.016 A 
ATOM     36  C   UNL A   1      36.286  29.305  28.330  1.00  0.00     0.010 A 
ATOM     37  C   UNL A   1      36.678  31.667  28.599  1.00  0.00     0.010 A 
ATOM     38  C   UNL A   1      37.086  30.342  28.831  1.00  0.00    -0.014 A 
BRANCH  38  39
ATOM     39  C   UNL A   1      38.294  30.049  29.659  1.00  0.00     0.031 A 
ATOM     40  C   UNL A   1      39.404  29.188  29.102  1.00  0.00     0.074 A 
ATOM     41  C   UNL A   1      38.440  30.574  30.893  1.00  0.00     0.049 A 
ATOM     42  N   UNL A   1      40.435  28.661  29.716  1.00  0.00    -0.248 NA
ATOM     43  C   UNL A   1      39.348  28.880  27.663  1.00  0.00     0.031 C 
ATOM     44  C   UNL A   1      37.498  31.483  31.547  1.00  0.00     0.029 A 
ATOM     45  N   UNL A   1      39.446  30.423  31.819  1.00  0.00    -0.354 N 
ATOM     46  C   UNL A   1      41.110  27.916  28.757  1.00  0.00     0.074 A 
ATOM     47  C   UNL A   1      40.378  28.058  27.517  1.00  0.00     0.031 C 
ATOM     48  C   UNL A   1      37.988  31.844  32.741  1.00  0.00     0.029 A 
ATOM     49  C   UNL A   1      39.222  31.107  32.989  1.00  0.00     0.049 A 
ATOM     50  H   UNL A   1      40.250  29.878  31.658  1.00  0.00     0.167 HD
ATOM     51  C   UNL A   1      42.240  27.181  28.896  1.00  0.00     0.037 A 
ATOM     52  C   UNL A   1      39.890  31.098  34.159  1.00  0.00     0.037 A 
ATOM     53  C   UNL A   1      43.003  27.077  30.112  1.00  0.00     0.049 A 
ATOM     54  C   UNL A   1      41.089  30.207  34.318  1.00  0.00     0.074 A 
ATOM     55  C   UNL A   1      44.165  26.359  30.345  1.00  0.00     0.029 A 
ATOM     56  N   UNL A   1      42.688  27.721  31.297  1.00  0.00    -0.354 N 
ATOM     57  N   UNL A   1      41.670  29.438  33.430  1.00  0.00    -0.248 NA
ATOM     58  C   UNL A   1      41.703  30.156  35.652  1.00  0.00     0.031 C 
ATOM     59  C   UNL A   1      44.535  26.546  31.681  1.00  0.00     0.029 A 
ATOM     60  C   UNL A   1      43.624  27.406  32.270  1.00  0.00     0.049 A 
ATOM     61  H   UNL A   1      41.914  28.314  31.430  1.00  0.00     0.167 HD
ATOM     62  C   UNL A   1      42.714  28.812  34.095  1.00  0.00     0.074 A 
ATOM     63  C   UNL A   1      42.704  29.309  35.456  1.00  0.00     0.031 C 
ATOM     64  C   UNL A   1      43.598  27.900  33.622  1.00  0.00     0.037 A 
BRANCH  51  65
ATOM     65  C   UNL A   1      42.712  26.401  27.704  1.00  0.00     0.064 A 
ATOM     66  C   UNL A   1      43.673  26.912  26.820  1.00  0.00     0.173 A 
ATOM     67  C   UNL A   1      42.227  25.105  27.473  1.00  0.00     0.173 A 
ATOM     68  F   UNL A   1      44.155  28.152  26.990  1.00  0.00    -0.203 F 
ATOM     69  C   UNL A   1      44.118  26.157  25.737  1.00  0.00     0.198 A 
ATOM     70  C   UNL A   1      42.691  24.345  26.402  1.00  0.00     0.198 A 
ATOM     71  F   UNL A   1      41.310  24.570  28.294  1.00  0.00    -0.203 F 
ATOM     72  F   UNL A   1      45.013  26.677  24.885  1.00  0.00    -0.200 F 
ATOM     73  C   UNL A   1      43.634  24.874  25.533  1.00  0.00     0.200 A 
ATOM     74  F   UNL A   1      42.228  23.102  26.213  1.00  0.00    -0.200 F 
ATOM     75  F   UNL A   1      44.071  24.146  24.496  1.00  0.00    -0.200 F 
ENDBRANCH  51  65
BRANCH  52  76
ATOM     76  C   UNL A   1      39.391  31.911  35.298  1.00  0.00     0.064 A 
ATOM     77  C   UNL A   1      39.756  33.255  35.442  1.00  0.00     0.173 A 
ATOM     78  C   UNL A   1      38.524  31.362  36.256  1.00  0.00     0.173 A 
ATOM     79  F   UNL A   1      40.607  33.815  34.570  1.00  0.00    -0.203 F 
ATOM     80  C   UNL A   1      39.270  34.022  36.500  1.00  0.00     0.198 A 
ATOM     81  C   UNL A   1      38.014  32.137  37.294  1.00  0.00     0.198 A 
ATOM     82  F   UNL A   1      38.149  30.078  36.166  1.00  0.00    -0.203 F 
ATOM     83  F   UNL A   1      39.659  35.296  36.635  1.00  0.00    -0.200 F 
ATOM     84  C   UNL A   1      38.392  33.465  37.418  1.00  0.00     0.200 A 
ATOM     85  F   UNL A   1      37.153  31.599  38.168  1.00  0.00    -0.200 F 
ATOM     86  F   UNL A   1      37.911  34.207  38.425  1.00  0.00    -0.200 F 
ENDBRANCH  52  76
BRANCH  64  87
ATOM     87  C   UNL A   1      44.633  27.392  34.580  1.00  0.00     0.064 A 
ATOM     88  C   UNL A   1      44.423  26.226  35.329  1.00  0.00     0.173 A 
ATOM     89  C   UNL A   1      45.855  28.063  34.730  1.00  0.00     0.173 A 
ATOM     90  F   UNL A   1      43.261  25.562  35.233  1.00  0.00    -0.203 F 
ATOM     91  C   UNL A   1      45.392  25.762  36.213  1.00  0.00     0.198 A 
ATOM     92  C   UNL A   1      46.832  27.583  35.597  1.00  0.00     0.198 A 
ATOM     93  F   UNL A   1      46.103  29.181  34.032  1.00  0.00    -0.203 F 
ATOM     94  F   UNL A   1      45.155  24.669  36.953  1.00  0.00    -0.200 F 
ATOM     95  C   UNL A   1      46.598  26.437  36.343  1.00  0.00     0.200 A 
ATOM     96  F   UNL A   1      47.998  28.232  35.717  1.00  0.00    -0.200 F 
ATOM     97  F   UNL A   1      47.530  25.988  37.194  1.00  0.00    -0.200 F 
ENDBRANCH  64  87
ENDBRANCH  38  39
ENDBRANCH  31  33
ENDBRANCH  30  31
ENDBRANCH  29  30
ENDBRANCH   1  29
TORSDOF 17
ENDMDL
MODEL 2
REMARK VINA RESULT:     -12.3      1.898      3.943
REMARK SMILES CCOC(=O)C1=NN(c2ccc([N+](=O)[O-])cc2C(F)(F)F)[C@@](C)(C(=O)OCCOC(=O)c2ccc(-c3c4nc(c(-c5c(F)c(F)c(F)c(F)c5F)c5ccc([nH]5)c(-c5c(F)c(F)c(F)c(F)c5F)c5nc(c(-c6c(F)c(F)c(F)c(F)c6F)c6ccc3[nH]6)C=C5)C=C4)cc2)C1
REMARK SMILES IDX 27 1 26 2 24 3 25 4 22 5 6 6 7 7 95 8 8 9 23 10 4 11 5 12
REMARK SMILES IDX 3 13 2 14 1 15 9 16 10 17 17 18 11 19 16 20 12 21 18 22
REMARK SMILES IDX 19 23 20 24 21 25 13 26 14 27 15 28 28 29 29 30 30 31 31 32
REMARK SMILES IDX 32 33 33 34 94 35 34 36 93 37 35 38 36 39 37 40 87 41 38 42
REMARK SMILES IDX 92 43 86 44 88 45 39 46 91 47 85 48 84 49 40 51 72 52 52 53
REMARK SMILES IDX 71 54 53 55 56 56 70 57 89 58 54 59 55 60 69 62 90 63 57 64
REMARK SMILES IDX 41 65 42 66 50 67 43 68 44 69 48 70 51 71 45 72 46 73 49 74
REMARK SMILES IDX 47 75 73 76 74 77 82 78 75 79 76 80 80 81 83 82 77 83 78 84
REMARK SMILES IDX 81 85 79 86 58 87 59 88 67 89 60 90 61 91 65 92 68 93 62 94
REMARK SMILES IDX 63 95 66 96 64 97
REMARK H PARENT 88 50 56 61
REMARK Flexibility Score: inf
ROOT
ATOM      1  C   UNL A   1      31.825  28.252  26.910  1.00  0.00     0.274 C 
ENDROOT
BRANCH   1   2
ATOM      2  O   UNL A   1      33.000  27.782  26.214  1.00  0.00    -0.460 OA
BRANCH   2   3
ATOM      3  C   UNL A   1      32.823  26.703  25.407  1.00  0.00     0.334 C 
ATOM      4  O   UNL A   1      32.577  25.574  25.828  1.00  0.00    -0.249 OA
BRANCH   3   5
ATOM      5  C   UNL A   1      33.054  26.967  23.908  1.00  0.00     0.163 C 
ATOM      6  C   UNL A   1      32.824  25.010  22.702  1.00  0.00     0.149 C 
ATOM      7  N   UNL A   1      31.689  25.610  22.532  1.00  0.00    -0.169 NA
ATOM      8  C   UNL A   1      33.915  25.828  23.313  1.00  0.00     0.108 C 
ATOM      9  N   UNL A   1      31.844  26.863  23.058  1.00  0.00    -0.247 N 
ATOM     10  C   UNL A   1      33.789  28.302  23.848  1.00  0.00     0.050 C 
BRANCH   6  11
ATOM     11  C   UNL A   1      33.058  23.593  22.256  1.00  0.00     0.354 C 
ATOM     12  O   UNL A   1      33.501  23.331  21.151  1.00  0.00    -0.245 OA
BRANCH  11  13
ATOM     13  O   UNL A   1      32.740  22.746  23.250  1.00  0.00    -0.461 OA
BRANCH  13  14
ATOM     14  C   UNL A   1      32.157  21.499  22.839  1.00  0.00     0.230 C 
ATOM     15  C   UNL A   1      32.531  20.414  23.828  1.00  0.00     0.049 C 
ENDBRANCH  13  14
ENDBRANCH  11  13
ENDBRANCH   6  11
BRANCH   9  16
ATOM     16  C   UNL A   1      30.809  27.753  22.841  1.00  0.00     0.073 A 
ATOM     17  C   UNL A   1      31.121  29.007  22.268  1.00  0.00     0.036 A 
ATOM     18  C   UNL A   1      29.498  27.555  23.318  1.00  0.00     0.088 A 
ATOM     19  C   UNL A   1      30.170  30.020  22.119  1.00  0.00     0.088 A 
ATOM     20  C   UNL A   1      28.522  28.562  23.125  1.00  0.00     0.101 A 
ATOM     21  C   UNL A   1      28.865  29.787  22.544  1.00  0.00     0.270 A 
BRANCH  18  22
ATOM     22  C   UNL A   1      29.071  26.339  24.104  1.00  0.00     0.418 C 
ATOM     23  F   UNL A   1      29.646  26.286  25.342  1.00  0.00    -0.166 F 
ATOM     24  F   UNL A   1      27.727  26.336  24.340  1.00  0.00    -0.166 F 
ATOM     25  F   UNL A   1      29.358  25.139  23.530  1.00  0.00    -0.166 F 
ENDBRANCH  18  22
BRANCH  21  26
ATOM     26  N   UNL A   1      27.853  30.844  22.426  1.00  0.00     0.062 N 
ATOM     27  O   UNL A   1      27.668  31.344  21.308  1.00  0.00    -0.258 OA
ATOM     28  O   UNL A   1      27.244  31.171  23.455  1.00  0.00    -0.258 OA
ENDBRANCH  21  26
ENDBRANCH   9  16
ENDBRANCH   3   5
ENDBRANCH   2   3
ENDBRANCH   1   2
BRANCH   1  29
ATOM     29  C   UNL A   1      31.669  29.766  26.788  1.00  0.00     0.275 C 
BRANCH  29  30
ATOM     30  O   UNL A   1      32.919  30.345  26.375  1.00  0.00    -0.458 OA
BRANCH  30  31
ATOM     31  C   UNL A   1      33.406  31.322  27.174  1.00  0.00     0.338 C 
ATOM     32  O   UNL A   1      32.838  32.348  27.506  1.00  0.00    -0.246 OA
BRANCH  31  33
ATOM     33  C   UNL A   1      34.769  30.972  27.627  1.00  0.00     0.060 A 
ATOM     34  C   UNL A   1      35.132  29.641  27.821  1.00  0.00     0.016 A 
ATOM     35  C   UNL A   1      35.648  31.987  28.000  1.00  0.00     0.016 A 
ATOM     36  C   UNL A   1      36.295  29.327  28.523  1.00  0.00     0.010 A 
ATOM     37  C   UNL A   1      36.874  31.664  28.593  1.00  0.00     0.010 A 
ATOM     38  C   UNL A   1      37.185  30.333  28.923  1.00  0.00    -0.014 A 
BRANCH  38  39
ATOM     39  C   UNL A   1      38.388  30.013  29.748  1.00  0.00     0.031 A 
ATOM     40  C   UNL A   1      39.476  29.127  29.189  1.00  0.00     0.074 A 
ATOM     41  C   UNL A   1      38.549  30.536  30.982  1.00  0.00     0.049 A 
ATOM     42  N   UNL A   1      40.496  28.575  29.801  1.00  0.00    -0.248 NA
ATOM     43  C   UNL A   1      39.409  28.819  27.751  1.00  0.00     0.031 C 
ATOM     44  C   UNL A   1      37.630  31.466  31.637  1.00  0.00     0.029 A 
ATOM     45  N   UNL A   1      39.554  30.362  31.905  1.00  0.00    -0.354 N 
ATOM     46  C   UNL A   1      41.151  27.814  28.840  1.00  0.00     0.074 A 
ATOM     47  C   UNL A   1      40.420  27.973  27.603  1.00  0.00     0.031 C 
ATOM     48  C   UNL A   1      38.132  31.816  32.830  1.00  0.00     0.029 A 
ATOM     49  C   UNL A   1      39.349  31.051  33.075  1.00  0.00     0.049 A 
ATOM     50  H   UNL A   1      40.345  29.798  31.742  1.00  0.00     0.167 HD
ATOM     51  C   UNL A   1      42.264  27.053  28.977  1.00  0.00     0.037 A 
ATOM     52  C   UNL A   1      40.019  31.027  34.243  1.00  0.00     0.037 A 
ATOM     53  C   UNL A   1      43.028  26.932  30.192  1.00  0.00     0.049 A 
ATOM     54  C   UNL A   1      41.197  30.108  34.400  1.00  0.00     0.074 A 
ATOM     55  C   UNL A   1      44.173  26.188  30.422  1.00  0.00     0.029 A 
ATOM     56  N   UNL A   1      42.731  27.584  31.377  1.00  0.00    -0.354 N 
ATOM     57  N   UNL A   1      41.758  29.326  33.511  1.00  0.00    -0.248 NA
ATOM     58  C   UNL A   1      41.814  30.044  35.732  1.00  0.00     0.031 C 
ATOM     59  C   UNL A   1      44.551  26.367  31.757  1.00  0.00     0.029 A 
ATOM     60  C   UNL A   1      43.661  27.248  32.348  1.00  0.00     0.049 A 
ATOM     61  H   UNL A   1      41.971  28.195  31.511  1.00  0.00     0.167 HD
ATOM     62  C   UNL A   1      42.789  28.676  34.174  1.00  0.00     0.074 A 
ATOM     63  C   UNL A   1      42.794  29.174  35.534  1.00  0.00     0.031 C 
ATOM     64  C   UNL A   1      43.650  27.744  33.699  1.00  0.00     0.037 A 
BRANCH  51  65
ATOM     65  C   UNL A   1      42.715  26.263  27.784  1.00  0.00     0.064 A 
ATOM     66  C   UNL A   1      43.664  26.762  26.882  1.00  0.00     0.173 A 
ATOM     67  C   UNL A   1      42.221  24.966  27.570  1.00  0.00     0.173 A 
ATOM     68  F   UNL A   1      44.155  28.001  27.035  1.00  0.00    -0.203 F 
ATOM     69  C   UNL A   1      44.091  25.997  25.799  1.00  0.00     0.198 A 
ATOM     70  C   UNL A   1      42.665  24.197  26.500  1.00  0.00     0.198 A 
ATOM     71  F   UNL A   1      41.315  24.442  28.410  1.00  0.00    -0.203 F 
ATOM     72  F   UNL A   1      44.975  26.506  24.929  1.00  0.00    -0.200 F 
ATOM     73  C   UNL A   1      43.597  24.714  25.612  1.00  0.00     0.200 A 
ATOM     74  F   UNL A   1      42.195  22.954  26.327  1.00  0.00    -0.200 F 
ATOM     75  F   UNL A   1      44.017  23.977  24.574  1.00  0.00    -0.200 F 
ENDBRANCH  51  65
BRANCH  52  76
ATOM     76  C   UNL A   1      39.542  31.852  35.384  1.00  0.00     0.064 A 
ATOM     77  C   UNL A   1      39.992  33.166  35.564  1.00  0.00     0.173 A 
ATOM     78  C   UNL A   1      38.611  31.347  36.305  1.00  0.00     0.173 A 
ATOM     79  F   UNL A   1      40.904  33.681  34.728  1.00  0.00    -0.203 F 
ATOM     80  C   UNL A   1      39.528  33.945  36.622  1.00  0.00     0.198 A 
ATOM     81  C   UNL A   1      38.124  32.136  37.343  1.00  0.00     0.198 A 
ATOM     82  F   UNL A   1      38.154  30.093  36.179  1.00  0.00    -0.203 F 
ATOM     83  F   UNL A   1      39.997  35.188  36.793  1.00  0.00    -0.200 F 
ATOM     84  C   UNL A   1      38.586  33.433  37.504  1.00  0.00     0.200 A 
ATOM     85  F   UNL A   1      37.204  31.642  38.182  1.00  0.00    -0.200 F 
ATOM     86  F   UNL A   1      38.127  34.189  38.511  1.00  0.00    -0.200 F 
ENDBRANCH  52  76
BRANCH  64  87
ATOM     87  C   UNL A   1      44.676  27.212  34.654  1.00  0.00     0.064 A 
ATOM     88  C   UNL A   1      44.433  26.063  35.419  1.00  0.00     0.173 A 
ATOM     89  C   UNL A   1      45.921  27.843  34.788  1.00  0.00     0.173 A 
ATOM     90  F   UNL A   1      43.249  25.436  35.340  1.00  0.00    -0.203 F 
ATOM     91  C   UNL A   1      45.394  25.576  36.301  1.00  0.00     0.198 A 
ATOM     92  C   UNL A   1      46.888  27.341  35.653  1.00  0.00     0.198 A 
ATOM     93  F   UNL A   1      46.200  28.945  34.074  1.00  0.00    -0.203 F 
ATOM     94  F   UNL A   1      45.126  24.500  37.055  1.00  0.00    -0.200 F 
ATOM     95  C   UNL A   1      46.622  26.212  36.413  1.00  0.00     0.200 A 
ATOM     96  F   UNL A   1      48.076  27.952  35.756  1.00  0.00    -0.200 F 
ATOM     97  F   UNL A   1      47.546  25.741  37.262  1.00  0.00    -0.200 F 
ENDBRANCH  64  87
ENDBRANCH  38  39
ENDBRANCH  31  33
ENDBRANCH  30  31
ENDBRANCH  29  30
ENDBRANCH   1  29
TORSDOF 17
ENDMDL
MODEL 3
REMARK VINA RESULT:     -12.3      4.070      9.491
REMARK SMILES CCOC(=O)C1=NN(c2ccc([N+](=O)[O-])cc2C(F)(F)F)[C@@](C)(C(=O)OCCOC(=O)c2ccc(-c3c4nc(c(-c5c(F)c(F)c(F)c(F)c5F)c5ccc([nH]5)c(-c5c(F)c(F)c(F)c(F)c5F)c5nc(c(-c6c(F)c(F)c(F)c(F)c6F)c6ccc3[nH]6)C=C5)C=C4)cc2)C1
REMARK SMILES IDX 27 1 26 2 24 3 25 4 22 5 6 6 7 7 95 8 8 9 23 10 4 11 5 12
REMARK SMILES IDX 3 13 2 14 1 15 9 16 10 17 17 18 11 19 16 20 12 21 18 22
REMARK SMILES IDX 19 23 20 24 21 25 13 26 14 27 15 28 28 29 29 30 30 31 31 32
REMARK SMILES IDX 32 33 33 34 94 35 34 36 93 37 35 38 36 39 37 40 87 41 38 42
REMARK SMILES IDX 92 43 86 44 88 45 39 46 91 47 85 48 84 49 40 51 72 52 52 53
REMARK SMILES IDX 71 54 53 55 56 56 70 57 89 58 54 59 55 60 69 62 90 63 57 64
REMARK SMILES IDX 41 65 42 66 50 67 43 68 44 69 48 70 51 71 45 72 46 73 49 74
REMARK SMILES IDX 47 75 73 76 74 77 82 78 75 79 76 80 80 81 83 82 77 83 78 84
REMARK SMILES IDX 81 85 79 86 58 87 59 88 67 89 60 90 61 91 65 92 68 93 62 94
REMARK SMILES IDX 63 95 66 96 64 97
REMARK H PARENT 88 50 56 61
REMARK Flexibility Score: inf
ROOT
ATOM      1  C   UNL A   1      36.671  22.937  23.488  1.00  0.00     0.274 C 
ENDROOT
BRANCH   1   2
ATOM      2  O   UNL A   1      35.350  23.387  23.114  1.00  0.00    -0.460 OA
BRANCH   2   3
ATOM      3  C   UNL A   1      34.730  24.213  23.997  1.00  0.00     0.334 C 
ATOM      4  O   UNL A   1      35.250  24.605  25.040  1.00  0.00    -0.249 OA
BRANCH   3   5
ATOM      5  C   UNL A   1      33.268  24.553  23.653  1.00  0.00     0.163 C 
ATOM      6  C   UNL A   1      31.825  23.246  24.898  1.00  0.00     0.149 C 
ATOM      7  N   UNL A   1      31.836  24.377  25.529  1.00  0.00    -0.169 NA
ATOM      8  C   UNL A   1      32.450  23.244  23.540  1.00  0.00     0.108 C 
ATOM      9  N   UNL A   1      32.516  25.248  24.724  1.00  0.00    -0.247 N 
ATOM     10  C   UNL A   1      33.332  25.278  22.314  1.00  0.00     0.050 C 
BRANCH   6  11
ATOM     11  C   UNL A   1      31.168  22.016  25.463  1.00  0.00     0.354 C 
ATOM     12  O   UNL A   1      30.248  22.087  26.258  1.00  0.00    -0.245 OA
BRANCH  11  13
ATOM     13  O   UNL A   1      31.732  20.917  24.933  1.00  0.00    -0.461 OA
BRANCH  13  14
ATOM     14  C   UNL A   1      32.846  20.380  25.664  1.00  0.00     0.230 C 
ATOM     15  C   UNL A   1      33.600  19.399  24.788  1.00  0.00     0.049 C 
ENDBRANCH  13  14
ENDBRANCH  11  13
ENDBRANCH   6  11
BRANCH   9  16
ATOM     16  C   UNL A   1      32.512  26.575  25.113  1.00  0.00     0.073 A 
ATOM     17  C   UNL A   1      33.463  26.989  26.073  1.00  0.00     0.036 A 
ATOM     18  C   UNL A   1      31.507  27.491  24.745  1.00  0.00     0.088 A 
ATOM     19  C   UNL A   1      33.465  28.275  26.620  1.00  0.00     0.088 A 
ATOM     20  C   UNL A   1      31.536  28.809  25.262  1.00  0.00     0.101 A 
ATOM     21  C   UNL A   1      32.500  29.187  26.202  1.00  0.00     0.270 A 
BRANCH  18  22
ATOM     22  C   UNL A   1      30.332  27.134  23.868  1.00  0.00     0.418 C 
ATOM     23  F   UNL A   1      29.566  26.136  24.399  1.00  0.00    -0.166 F 
ATOM     24  F   UNL A   1      29.478  28.186  23.711  1.00  0.00    -0.166 F 
ATOM     25  F   UNL A   1      30.644  26.708  22.613  1.00  0.00    -0.166 F 
ENDBRANCH  18  22
BRANCH  21  26
ATOM     26  N   UNL A   1      32.461  30.534  26.782  1.00  0.00     0.062 N 
ATOM     27  O   UNL A   1      31.530  31.279  26.448  1.00  0.00    -0.258 OA
ATOM     28  O   UNL A   1      33.365  30.844  27.571  1.00  0.00    -0.258 OA
ENDBRANCH  21  26
ENDBRANCH   9  16
ENDBRANCH   3   5
ENDBRANCH   2   3
ENDBRANCH   1   2
BRANCH   1  29
ATOM     29  C   UNL A   1      36.614  21.639  24.290  1.00  0.00     0.275 C 
BRANCH  29  30
ATOM     30  O   UNL A   1      37.066  21.884  25.632  1.00  0.00    -0.458 OA
BRANCH  30  31
ATOM     31  C   UNL A   1      38.379  21.653  25.862  1.00  0.00     0.338 C 
ATOM     32  O   UNL A   1      39.015  20.662  25.545  1.00  0.00    -0.246 OA
BRANCH  31  33
ATOM     33  C   UNL A   1      38.981  22.807  26.563  1.00  0.00     0.060 A 
ATOM     34  C   UNL A   1      38.429  24.080  26.437  1.00  0.00     0.016 A 
ATOM     35  C   UNL A   1      40.189  22.644  27.237  1.00  0.00     0.016 A 
ATOM     36  C   UNL A   1      39.151  25.201  26.843  1.00  0.00     0.010 A 
ATOM     37  C   UNL A   1      40.854  23.762  27.755  1.00  0.00     0.010 A 
ATOM     38  C   UNL A   1      40.378  25.061  27.507  1.00  0.00    -0.014 A 
BRANCH  38  39
ATOM     39  C   UNL A   1      41.198  26.256  27.868  1.00  0.00     0.031 A 
ATOM     40  C   UNL A   1      40.611  27.342  28.739  1.00  0.00     0.074 A 
ATOM     41  C   UNL A   1      42.480  26.372  27.465  1.00  0.00     0.049 A 
ATOM     42  N   UNL A   1      41.079  28.537  29.008  1.00  0.00    -0.248 NA
ATOM     43  C   UNL A   1      39.327  27.045  29.397  1.00  0.00     0.031 C 
ATOM     44  C   UNL A   1      43.218  25.380  26.684  1.00  0.00     0.029 A 
ATOM     45  N   UNL A   1      43.396  27.380  27.665  1.00  0.00    -0.354 N 
ATOM     46  C   UNL A   1      40.124  29.149  29.810  1.00  0.00     0.074 A 
ATOM     47  C   UNL A   1      39.050  28.198  29.991  1.00  0.00     0.031 C 
ATOM     48  C   UNL A   1      44.479  25.802  26.511  1.00  0.00     0.029 A 
ATOM     49  C   UNL A   1      44.610  27.144  27.068  1.00  0.00     0.049 A 
ATOM     50  H   UNL A   1      43.199  28.191  28.187  1.00  0.00     0.167 HD
ATOM     51  C   UNL A   1      40.143  30.392  30.350  1.00  0.00     0.037 A 
ATOM     52  C   UNL A   1      45.690  27.935  26.922  1.00  0.00     0.037 A 
ATOM     53  C   UNL A   1      41.232  31.325  30.219  1.00  0.00     0.049 A 
ATOM     54  C   UNL A   1      45.654  29.340  27.451  1.00  0.00     0.074 A 
ATOM     55  C   UNL A   1      41.341  32.605  30.736  1.00  0.00     0.029 A 
ATOM     56  N   UNL A   1      42.407  31.071  29.531  1.00  0.00    -0.354 N 
ATOM     57  N   UNL A   1      44.711  29.941  28.134  1.00  0.00    -0.248 NA
ATOM     58  C   UNL A   1      46.818  30.188  27.159  1.00  0.00     0.031 C 
ATOM     59  C   UNL A   1      42.571  33.137  30.334  1.00  0.00     0.029 A 
ATOM     60  C   UNL A   1      43.242  32.176  29.597  1.00  0.00     0.049 A 
ATOM     61  H   UNL A   1      42.619  30.231  29.064  1.00  0.00     0.167 HD
ATOM     62  C   UNL A   1      45.164  31.234  28.352  1.00  0.00     0.074 A 
ATOM     63  C   UNL A   1      46.479  31.325  27.750  1.00  0.00     0.031 C 
ATOM     64  C   UNL A   1      44.543  32.257  28.987  1.00  0.00     0.037 A 
BRANCH  51  65
ATOM     65  C   UNL A   1      38.931  30.834  31.116  1.00  0.00     0.064 A 
ATOM     66  C   UNL A   1      38.852  30.711  32.510  1.00  0.00     0.173 A 
ATOM     67  C   UNL A   1      37.852  31.432  30.445  1.00  0.00     0.173 A 
ATOM     68  F   UNL A   1      39.851  30.133  33.194  1.00  0.00    -0.203 F 
ATOM     69  C   UNL A   1      37.729  31.157  33.203  1.00  0.00     0.198 A 
ATOM     70  C   UNL A   1      36.741  31.895  31.144  1.00  0.00     0.198 A 
ATOM     71  F   UNL A   1      37.883  31.576  29.112  1.00  0.00    -0.203 F 
ATOM     72  F   UNL A   1      37.660  31.000  34.533  1.00  0.00    -0.200 F 
ATOM     73  C   UNL A   1      36.679  31.754  32.522  1.00  0.00     0.200 A 
ATOM     74  F   UNL A   1      35.733  32.482  30.484  1.00  0.00    -0.200 F 
ATOM     75  F   UNL A   1      35.604  32.191  33.193  1.00  0.00    -0.200 F 
ENDBRANCH  51  65
BRANCH  52  76
ATOM     76  C   UNL A   1      46.874  27.434  26.175  1.00  0.00     0.064 A 
ATOM     77  C   UNL A   1      46.977  27.598  24.788  1.00  0.00     0.173 A 
ATOM     78  C   UNL A   1      47.934  26.798  26.839  1.00  0.00     0.173 A 
ATOM     79  F   UNL A   1      45.975  28.172  24.106  1.00  0.00    -0.203 F 
ATOM     80  C   UNL A   1      48.097  27.146  24.093  1.00  0.00     0.198 A 
ATOM     81  C   UNL A   1      49.066  26.375  26.149  1.00  0.00     0.198 A 
ATOM     82  F   UNL A   1      47.881  26.611  28.166  1.00  0.00    -0.203 F 
ATOM     83  F   UNL A   1      48.158  27.285  22.762  1.00  0.00    -0.200 F 
ATOM     84  C   UNL A   1      49.145  26.545  24.775  1.00  0.00     0.200 A 
ATOM     85  F   UNL A   1      50.082  25.810  26.815  1.00  0.00    -0.200 F 
ATOM     86  F   UNL A   1      50.229  26.127  24.109  1.00  0.00    -0.200 F 
ENDBRANCH  52  76
BRANCH  64  87
ATOM     87  C   UNL A   1      45.283  33.557  29.073  1.00  0.00     0.064 A 
ATOM     88  C   UNL A   1      46.174  33.821  30.123  1.00  0.00     0.173 A 
ATOM     89  C   UNL A   1      45.120  34.537  28.084  1.00  0.00     0.173 A 
ATOM     90  F   UNL A   1      46.348  32.921  31.103  1.00  0.00    -0.203 F 
ATOM     91  C   UNL A   1      46.859  35.031  30.191  1.00  0.00     0.198 A 
ATOM     92  C   UNL A   1      45.824  35.736  28.142  1.00  0.00     0.198 A 
ATOM     93  F   UNL A   1      44.281  34.329  27.058  1.00  0.00    -0.203 F 
ATOM     94  F   UNL A   1      47.674  35.281  31.226  1.00  0.00    -0.200 F 
ATOM     95  C   UNL A   1      46.688  35.985  29.198  1.00  0.00     0.200 A 
ATOM     96  F   UNL A   1      45.662  36.654  27.179  1.00  0.00    -0.200 F 
ATOM     97  F   UNL A   1      47.349  37.148  29.265  1.00  0.00    -0.200 F 
ENDBRANCH  64  87
ENDBRANCH  38  39
ENDBRANCH  31  33
ENDBRANCH  30  31
ENDBRANCH  29  30
ENDBRANCH   1  29
TORSDOF 17
ENDMDL
