MODEL 1
REMARK VINA RESULT:     -10.0      0.000      0.000
REMARK SMILES O=C(OCCOC(=O)[C@H]1CC[C@H](CNC(=O)c2ccccc2O)O1)c1ccc(-c2c3nc(c(-c4c(F)c(F)c(F)c(F)c4F)c4ccc([nH]4)c(-c4c(F)c(F)c(F)c(F)c4F)c4nc(c(-c5c(F)c(F)c(F)c(F)c5F)c5ccc2[nH]5)C=C4)C=C3)cc1
REMARK SMILES IDX 5 1 4 2 3 3 2 4 1 5 25 6 26 7 87 8 27 9 86 10 28 11 29 12
REMARK SMILES IDX 30 13 80 14 31 15 85 16 79 17 81 18 32 19 84 20 78 21 77 22
REMARK SMILES IDX 33 24 65 25 45 26 64 27 46 28 49 29 63 30 82 31 47 32 48 33
REMARK SMILES IDX 62 35 83 36 50 37 34 38 35 39 43 40 36 41 37 42 41 43 44 44
REMARK SMILES IDX 38 45 39 46 42 47 40 48 66 49 67 50 75 51 68 52 69 53 73 54
REMARK SMILES IDX 76 55 70 56 71 57 74 58 72 59 51 60 52 61 60 62 53 63 54 64
REMARK SMILES IDX 58 65 61 66 55 67 56 68 59 69 57 70 6 71 7 72 8 73 9 74
REMARK SMILES IDX 10 75 24 76 11 77 12 78 13 79 14 80 15 81 16 83 17 84 18 85
REMARK SMILES IDX 22 86 19 87 21 88 20 89 23 90
REMARK H PARENT 81 23 49 34 14 82 23 91
REMARK Flexibility Score: inf
ROOT
ATOM      1  C   UNL A   1      41.270  19.961  26.196  1.00  0.00     0.274 C 
ENDROOT
BRANCH   1   2
ATOM      2  C   UNL A   1      40.087  20.794  26.698  1.00  0.00     0.275 C 
BRANCH   2   3
ATOM      3  O   UNL A   1      39.769  21.902  25.843  1.00  0.00    -0.458 OA
BRANCH   3   4
ATOM      4  C   UNL A   1      38.882  22.887  26.128  1.00  0.00     0.338 C 
ATOM      5  O   UNL A   1      37.748  22.844  25.658  1.00  0.00    -0.246 OA
BRANCH   4   6
ATOM      6  C   UNL A   1      39.340  24.173  26.738  1.00  0.00     0.060 A 
ATOM      7  C   UNL A   1      40.156  25.135  26.134  1.00  0.00     0.016 A 
ATOM      8  C   UNL A   1      38.915  24.400  28.058  1.00  0.00     0.016 A 
ATOM      9  C   UNL A   1      40.481  26.330  26.801  1.00  0.00     0.010 A 
ATOM     10  C   UNL A   1      39.214  25.596  28.714  1.00  0.00     0.010 A 
ATOM     11  C   UNL A   1      39.999  26.580  28.088  1.00  0.00    -0.014 A 
BRANCH  11  12
ATOM     12  C   UNL A   1      40.400  27.779  28.870  1.00  0.00     0.031 A 
ATOM     13  C   UNL A   1      41.707  27.716  29.612  1.00  0.00     0.074 A 
ATOM     14  C   UNL A   1      39.605  28.864  28.994  1.00  0.00     0.049 A 
ATOM     15  N   UNL A   1      42.243  28.580  30.432  1.00  0.00    -0.248 NA
ATOM     16  C   UNL A   1      42.516  26.500  29.406  1.00  0.00     0.031 C 
ATOM     17  C   UNL A   1      38.323  29.070  28.324  1.00  0.00     0.029 A 
ATOM     18  N   UNL A   1      39.739  29.985  29.782  1.00  0.00    -0.354 N 
ATOM     19  C   UNL A   1      43.464  28.033  30.795  1.00  0.00     0.074 A 
ATOM     20  C   UNL A   1      43.532  26.708  30.224  1.00  0.00     0.031 C 
ATOM     21  C   UNL A   1      37.744  30.187  28.803  1.00  0.00     0.029 A 
ATOM     22  C   UNL A   1      38.624  30.797  29.793  1.00  0.00     0.049 A 
ATOM     23  H   UNL A   1      40.557  30.188  30.291  1.00  0.00     0.167 HD
ATOM     24  C   UNL A   1      44.480  28.616  31.472  1.00  0.00     0.037 A 
ATOM     25  C   UNL A   1      38.354  31.892  30.535  1.00  0.00     0.037 A 
ATOM     26  C   UNL A   1      44.410  29.930  32.039  1.00  0.00     0.049 A 
ATOM     27  C   UNL A   1      39.437  32.444  31.423  1.00  0.00     0.074 A 
ATOM     28  C   UNL A   1      45.402  30.664  32.662  1.00  0.00     0.029 A 
ATOM     29  N   UNL A   1      43.257  30.703  32.066  1.00  0.00    -0.354 N 
ATOM     30  N   UNL A   1      40.631  31.966  31.675  1.00  0.00    -0.248 NA
ATOM     31  C   UNL A   1      39.160  33.739  32.063  1.00  0.00     0.031 C 
ATOM     32  C   UNL A   1      44.841  31.869  33.097  1.00  0.00     0.029 A 
ATOM     33  C   UNL A   1      43.509  31.899  32.712  1.00  0.00     0.049 A 
ATOM     34  H   UNL A   1      42.390  30.439  31.682  1.00  0.00     0.167 HD
ATOM     35  C   UNL A   1      41.261  32.919  32.462  1.00  0.00     0.074 A 
ATOM     36  C   UNL A   1      40.306  33.986  32.677  1.00  0.00     0.031 C 
ATOM     37  C   UNL A   1      42.535  32.936  32.921  1.00  0.00     0.037 A 
BRANCH  24  38
ATOM     38  C   UNL A   1      45.757  27.838  31.559  1.00  0.00     0.064 A 
ATOM     39  C   UNL A   1      46.803  28.070  30.648  1.00  0.00     0.173 A 
ATOM     40  C   UNL A   1      45.932  26.834  32.519  1.00  0.00     0.173 A 
ATOM     41  F   UNL A   1      46.675  29.009  29.697  1.00  0.00    -0.203 F 
ATOM     42  C   UNL A   1      47.954  27.290  30.665  1.00  0.00     0.198 A 
ATOM     43  C   UNL A   1      47.099  26.075  32.551  1.00  0.00     0.198 A 
ATOM     44  F   UNL A   1      44.964  26.573  33.410  1.00  0.00    -0.203 F 
ATOM     45  F   UNL A   1      48.905  27.481  29.739  1.00  0.00    -0.200 F 
ATOM     46  C   UNL A   1      48.103  26.295  31.617  1.00  0.00     0.200 A 
ATOM     47  F   UNL A   1      47.247  25.114  33.473  1.00  0.00    -0.200 F 
ATOM     48  F   UNL A   1      49.207  25.535  31.624  1.00  0.00    -0.200 F 
ENDBRANCH  24  38
BRANCH  25  49
ATOM     49  C   UNL A   1      37.041  32.596  30.469  1.00  0.00     0.064 A 
ATOM     50  C   UNL A   1      36.038  32.362  31.419  1.00  0.00     0.173 A 
ATOM     51  C   UNL A   1      36.720  33.436  29.387  1.00  0.00     0.173 A 
ATOM     52  F   UNL A   1      36.259  31.515  32.434  1.00  0.00    -0.203 F 
ATOM     53  C   UNL A   1      34.785  32.966  31.309  1.00  0.00     0.198 A 
ATOM     54  C   UNL A   1      35.474  34.054  29.288  1.00  0.00     0.198 A 
ATOM     55  F   UNL A   1      37.584  33.584  28.372  1.00  0.00    -0.203 F 
ATOM     56  F   UNL A   1      33.836  32.703  32.218  1.00  0.00    -0.200 F 
ATOM     57  C   UNL A   1      34.508  33.821  30.253  1.00  0.00     0.200 A 
ATOM     58  F   UNL A   1      35.197  34.846  28.244  1.00  0.00    -0.200 F 
ATOM     59  F   UNL A   1      33.302  34.395  30.149  1.00  0.00    -0.200 F 
ENDBRANCH  25  49
BRANCH  37  60
ATOM     60  C   UNL A   1      42.979  34.176  33.631  1.00  0.00     0.064 A 
ATOM     61  C   UNL A   1      42.913  34.297  35.025  1.00  0.00     0.173 A 
ATOM     62  C   UNL A   1      43.494  35.252  32.894  1.00  0.00     0.173 A 
ATOM     63  F   UNL A   1      42.401  33.303  35.767  1.00  0.00    -0.203 F 
ATOM     64  C   UNL A   1      43.334  35.463  35.656  1.00  0.00     0.198 A 
ATOM     65  C   UNL A   1      43.939  36.405  33.530  1.00  0.00     0.198 A 
ATOM     66  F   UNL A   1      43.569  35.182  31.555  1.00  0.00    -0.203 F 
ATOM     67  F   UNL A   1      43.223  35.581  36.986  1.00  0.00    -0.200 F 
ATOM     68  C   UNL A   1      43.853  36.512  34.909  1.00  0.00     0.200 A 
ATOM     69  F   UNL A   1      44.446  37.414  32.808  1.00  0.00    -0.200 F 
ATOM     70  F   UNL A   1      44.263  37.633  35.520  1.00  0.00    -0.200 F 
ENDBRANCH  37  60
ENDBRANCH  11  12
ENDBRANCH   4   6
ENDBRANCH   3   4
ENDBRANCH   2   3
ENDBRANCH   1   2
BRANCH   1  71
ATOM     71  O   UNL A   1      42.535  20.453  26.662  1.00  0.00    -0.460 OA
BRANCH  71  72
ATOM     72  C   UNL A   1      43.310  21.105  25.742  1.00  0.00     0.335 C 
ATOM     73  O   UNL A   1      43.974  20.550  24.875  1.00  0.00    -0.249 OA
BRANCH  72  74
ATOM     74  C   UNL A   1      43.274  22.636  25.930  1.00  0.00     0.228 C 
ATOM     75  C   UNL A   1      42.982  23.027  27.364  1.00  0.00     0.047 C 
ATOM     76  O   UNL A   1      44.497  23.298  25.568  1.00  0.00    -0.361 OA
ATOM     77  C   UNL A   1      44.370  23.241  27.910  1.00  0.00     0.037 C 
ATOM     78  C   UNL A   1      45.084  23.884  26.745  1.00  0.00     0.138 C 
BRANCH  78  79
ATOM     79  C   UNL A   1      44.884  25.404  26.764  1.00  0.00     0.148 C 
BRANCH  79  80
ATOM     80  N   UNL A   1      45.551  26.051  25.641  1.00  0.00    -0.349 N 
ATOM     81  C   UNL A   1      45.415  27.346  25.230  1.00  0.00     0.255 C 
ATOM     82  H   UNL A   1      46.170  25.489  25.120  1.00  0.00     0.163 HD
ATOM     83  O   UNL A   1      46.011  27.773  24.251  1.00  0.00    -0.269 OA
BRANCH  81  84
ATOM     84  C   UNL A   1      44.471  28.192  25.963  1.00  0.00     0.081 A 
ATOM     85  C   UNL A   1      44.955  28.950  27.034  1.00  0.00     0.018 A 
ATOM     86  C   UNL A   1      43.166  28.352  25.496  1.00  0.00     0.128 A 
ATOM     87  C   UNL A   1      44.114  29.874  27.647  1.00  0.00     0.001 A 
ATOM     88  C   UNL A   1      42.325  29.267  26.117  1.00  0.00     0.047 A 
ATOM     89  C   UNL A   1      42.803  30.030  27.188  1.00  0.00     0.004 A 
BRANCH  86  90
ATOM     90  O   UNL A   1      42.749  27.661  24.394  1.00  0.00    -0.507 OA
ATOM     91  H   UNL A   1      43.378  27.293  23.805  1.00  0.00     0.293 HD
ENDBRANCH  86  90
ENDBRANCH  81  84
ENDBRANCH  79  80
ENDBRANCH  78  79
ENDBRANCH  72  74
ENDBRANCH  71  72
ENDBRANCH   1  71
TORSDOF 15
ENDMDL
MODEL 2
REMARK VINA RESULT:      -9.7      4.340     10.769
REMARK SMILES O=C(OCCOC(=O)[C@H]1CC[C@H](CNC(=O)c2ccccc2O)O1)c1ccc(-c2c3nc(c(-c4c(F)c(F)c(F)c(F)c4F)c4ccc([nH]4)c(-c4c(F)c(F)c(F)c(F)c4F)c4nc(c(-c5c(F)c(F)c(F)c(F)c5F)c5ccc2[nH]5)C=C4)C=C3)cc1
REMARK SMILES IDX 5 1 4 2 3 3 2 4 1 5 25 6 26 7 87 8 27 9 86 10 28 11 29 12
REMARK SMILES IDX 30 13 80 14 31 15 85 16 79 17 81 18 32 19 84 20 78 21 77 22
REMARK SMILES IDX 33 24 65 25 45 26 64 27 46 28 49 29 63 30 82 31 47 32 48 33
REMARK SMILES IDX 62 35 83 36 50 37 34 38 35 39 43 40 36 41 37 42 41 43 44 44
REMARK SMILES IDX 38 45 39 46 42 47 40 48 66 49 67 50 75 51 68 52 69 53 73 54
REMARK SMILES IDX 76 55 70 56 71 57 74 58 72 59 51 60 52 61 60 62 53 63 54 64
REMARK SMILES IDX 58 65 61 66 55 67 56 68 59 69 57 70 6 71 7 72 8 73 9 74
REMARK SMILES IDX 10 75 24 76 11 77 12 78 13 79 14 80 15 81 16 83 17 84 18 85
REMARK SMILES IDX 22 86 19 87 21 88 20 89 23 90
REMARK H PARENT 81 23 49 34 14 82 23 91
REMARK Flexibility Score: inf
ROOT
ATOM      1  C   UNL A   1      33.470  33.926  27.963  1.00  0.00     0.274 C 
ENDROOT
BRANCH   1   2
ATOM      2  C   UNL A   1      33.242  32.439  27.679  1.00  0.00     0.275 C 
BRANCH   2   3
ATOM      3  O   UNL A   1      34.126  31.577  28.411  1.00  0.00    -0.458 OA
BRANCH   3   4
ATOM      4  C   UNL A   1      34.587  30.376  27.984  1.00  0.00     0.338 C 
ATOM      5  O   UNL A   1      33.794  29.501  27.646  1.00  0.00    -0.246 OA
BRANCH   4   6
ATOM      6  C   UNL A   1      36.012  29.981  28.208  1.00  0.00     0.060 A 
ATOM      7  C   UNL A   1      37.057  30.083  27.283  1.00  0.00     0.016 A 
ATOM      8  C   UNL A   1      36.296  29.433  29.471  1.00  0.00     0.016 A 
ATOM      9  C   UNL A   1      38.370  29.718  27.633  1.00  0.00     0.010 A 
ATOM     10  C   UNL A   1      37.602  29.093  29.829  1.00  0.00     0.010 A 
ATOM     11  C   UNL A   1      38.657  29.238  28.913  1.00  0.00    -0.014 A 
BRANCH  11  12
ATOM     12  C   UNL A   1      40.007  28.742  29.293  1.00  0.00     0.031 A 
ATOM     13  C   UNL A   1      40.915  29.698  30.018  1.00  0.00     0.074 A 
ATOM     14  C   UNL A   1      40.456  27.518  28.944  1.00  0.00     0.049 A 
ATOM     15  N   UNL A   1      42.161  29.551  30.381  1.00  0.00    -0.248 NA
ATOM     16  C   UNL A   1      40.335  31.007  30.373  1.00  0.00     0.031 C 
ATOM     17  C   UNL A   1      39.685  26.485  28.254  1.00  0.00     0.029 A 
ATOM     18  N   UNL A   1      41.705  26.953  29.074  1.00  0.00    -0.354 N 
ATOM     19  C   UNL A   1      42.492  30.723  31.044  1.00  0.00     0.074 A 
ATOM     20  C   UNL A   1      41.371  31.625  30.914  1.00  0.00     0.031 C 
ATOM     21  C   UNL A   1      40.498  25.462  27.933  1.00  0.00     0.029 A 
ATOM     22  C   UNL A   1      41.844  25.748  28.419  1.00  0.00     0.049 A 
ATOM     23  H   UNL A   1      42.432  27.373  29.589  1.00  0.00     0.167 HD
ATOM     24  C   UNL A   1      43.598  30.995  31.774  1.00  0.00     0.037 A 
ATOM     25  C   UNL A   1      42.941  24.983  28.227  1.00  0.00     0.037 A 
ATOM     26  C   UNL A   1      44.710  30.100  31.900  1.00  0.00     0.049 A 
ATOM     27  C   UNL A   1      44.223  25.384  28.907  1.00  0.00     0.074 A 
ATOM     28  C   UNL A   1      45.841  30.221  32.685  1.00  0.00     0.029 A 
ATOM     29  N   UNL A   1      44.833  28.911  31.193  1.00  0.00    -0.354 N 
ATOM     30  N   UNL A   1      44.489  26.451  29.621  1.00  0.00    -0.248 NA
ATOM     31  C   UNL A   1      45.334  24.423  28.823  1.00  0.00     0.031 C 
ATOM     32  C   UNL A   1      46.666  29.121  32.428  1.00  0.00     0.029 A 
ATOM     33  C   UNL A   1      46.031  28.299  31.511  1.00  0.00     0.049 A 
ATOM     34  H   UNL A   1      44.166  28.557  30.561  1.00  0.00     0.167 HD
ATOM     35  C   UNL A   1      45.776  26.269  30.106  1.00  0.00     0.074 A 
ATOM     36  C   UNL A   1      46.252  25.009  29.576  1.00  0.00     0.031 C 
ATOM     37  C   UNL A   1      46.482  27.050  30.958  1.00  0.00     0.037 A 
BRANCH  24  38
ATOM     38  C   UNL A   1      43.598  32.288  32.530  1.00  0.00     0.064 A 
ATOM     39  C   UNL A   1      44.172  33.445  31.975  1.00  0.00     0.173 A 
ATOM     40  C   UNL A   1      43.067  32.373  33.823  1.00  0.00     0.173 A 
ATOM     41  F   UNL A   1      44.711  33.409  30.746  1.00  0.00    -0.203 F 
ATOM     42  C   UNL A   1      44.258  34.624  32.706  1.00  0.00     0.198 A 
ATOM     43  C   UNL A   1      43.130  33.565  34.542  1.00  0.00     0.198 A 
ATOM     44  F   UNL A   1      42.511  31.297  34.399  1.00  0.00    -0.203 F 
ATOM     45  F   UNL A   1      44.876  35.692  32.182  1.00  0.00    -0.200 F 
ATOM     46  C   UNL A   1      43.735  34.685  33.988  1.00  0.00     0.200 A 
ATOM     47  F   UNL A   1      42.621  33.626  35.780  1.00  0.00    -0.200 F 
ATOM     48  F   UNL A   1      43.831  35.817  34.698  1.00  0.00    -0.200 F 
ENDBRANCH  24  38
BRANCH  25  49
ATOM     49  C   UNL A   1      42.913  23.738  27.407  1.00  0.00     0.064 A 
ATOM     50  C   UNL A   1      42.555  22.504  27.964  1.00  0.00     0.173 A 
ATOM     51  C   UNL A   1      43.355  23.739  26.071  1.00  0.00     0.173 A 
ATOM     52  F   UNL A   1      42.194  22.429  29.254  1.00  0.00    -0.203 F 
ATOM     53  C   UNL A   1      42.604  21.330  27.211  1.00  0.00     0.198 A 
ATOM     54  C   UNL A   1      43.385  22.569  25.314  1.00  0.00     0.198 A 
ATOM     55  F   UNL A   1      43.848  24.860  25.527  1.00  0.00    -0.203 F 
ATOM     56  F   UNL A   1      42.280  20.160  27.778  1.00  0.00    -0.200 F 
ATOM     57  C   UNL A   1      43.006  21.365  25.884  1.00  0.00     0.200 A 
ATOM     58  F   UNL A   1      43.814  22.600  24.045  1.00  0.00    -0.200 F 
ATOM     59  F   UNL A   1      43.055  20.235  25.166  1.00  0.00    -0.200 F 
ENDBRANCH  25  49
BRANCH  37  60
ATOM     60  C   UNL A   1      47.803  26.520  31.420  1.00  0.00     0.064 A 
ATOM     61  C   UNL A   1      47.917  25.688  32.541  1.00  0.00     0.173 A 
ATOM     62  C   UNL A   1      48.969  26.845  30.712  1.00  0.00     0.173 A 
ATOM     63  F   UNL A   1      46.831  25.375  33.264  1.00  0.00    -0.203 F 
ATOM     64  C   UNL A   1      49.159  25.211  32.947  1.00  0.00     0.198 A 
ATOM     65  C   UNL A   1      50.204  26.345  31.104  1.00  0.00     0.198 A 
ATOM     66  F   UNL A   1      48.907  27.645  29.636  1.00  0.00    -0.203 F 
ATOM     67  F   UNL A   1      49.258  24.453  34.047  1.00  0.00    -0.200 F 
ATOM     68  C   UNL A   1      50.300  25.533  32.224  1.00  0.00     0.200 A 
ATOM     69  F   UNL A   1      51.304  26.652  30.401  1.00  0.00    -0.200 F 
ATOM     70  F   UNL A   1      51.495  25.069  32.614  1.00  0.00    -0.200 F 
ENDBRANCH  37  60
ENDBRANCH  11  12
ENDBRANCH   4   6
ENDBRANCH   3   4
ENDBRANCH   2   3
ENDBRANCH   1   2
BRANCH   1  71
ATOM     71  O   UNL A   1      32.617  34.431  29.001  1.00  0.00    -0.460 OA
BRANCH  71  72
ATOM     72  C   UNL A   1      32.750  35.759  29.305  1.00  0.00     0.335 C 
ATOM     73  O   UNL A   1      32.148  36.664  28.740  1.00  0.00    -0.249 OA
BRANCH  72  74
ATOM     74  C   UNL A   1      33.768  35.997  30.439  1.00  0.00     0.228 C 
ATOM     75  C   UNL A   1      33.276  37.022  31.440  1.00  0.00     0.047 C 
ATOM     76  O   UNL A   1      34.093  34.817  31.191  1.00  0.00    -0.361 OA
ATOM     77  C   UNL A   1      32.670  36.142  32.504  1.00  0.00     0.037 C 
ATOM     78  C   UNL A   1      33.626  34.974  32.543  1.00  0.00     0.138 C 
BRANCH  78  79
ATOM     79  C   UNL A   1      34.789  35.262  33.500  1.00  0.00     0.148 C 
BRANCH  79  80
ATOM     80  N   UNL A   1      35.291  34.045  34.123  1.00  0.00    -0.349 N 
ATOM     81  C   UNL A   1      36.258  33.207  33.645  1.00  0.00     0.255 C 
ATOM     82  H   UNL A   1      34.886  33.798  34.987  1.00  0.00     0.163 HD
ATOM     83  O   UNL A   1      36.581  32.192  34.249  1.00  0.00    -0.269 OA
BRANCH  81  84
ATOM     84  C   UNL A   1      36.848  33.528  32.345  1.00  0.00     0.081 A 
ATOM     85  C   UNL A   1      37.992  34.331  32.317  1.00  0.00     0.018 A 
ATOM     86  C   UNL A   1      36.369  32.912  31.188  1.00  0.00     0.128 A 
ATOM     87  C   UNL A   1      38.657  34.524  31.110  1.00  0.00     0.001 A 
ATOM     88  C   UNL A   1      37.030  33.115  29.982  1.00  0.00     0.047 A 
ATOM     89  C   UNL A   1      38.175  33.917  29.947  1.00  0.00     0.004 A 
BRANCH  86  90
ATOM     90  O   UNL A   1      35.302  32.063  31.262  1.00  0.00    -0.507 OA
ATOM     91  H   UNL A   1      35.111  31.618  32.064  1.00  0.00     0.293 HD
ENDBRANCH  86  90
ENDBRANCH  81  84
ENDBRANCH  79  80
ENDBRANCH  78  79
ENDBRANCH  72  74
ENDBRANCH  71  72
ENDBRANCH   1  71
TORSDOF 15
ENDMDL
MODEL 3
REMARK VINA RESULT:      -9.7      4.376     11.003
REMARK SMILES O=C(OCCOC(=O)[C@H]1CC[C@H](CNC(=O)c2ccccc2O)O1)c1ccc(-c2c3nc(c(-c4c(F)c(F)c(F)c(F)c4F)c4ccc([nH]4)c(-c4c(F)c(F)c(F)c(F)c4F)c4nc(c(-c5c(F)c(F)c(F)c(F)c5F)c5ccc2[nH]5)C=C4)C=C3)cc1
REMARK SMILES IDX 5 1 4 2 3 3 2 4 1 5 25 6 26 7 87 8 27 9 86 10 28 11 29 12
REMARK SMILES IDX 30 13 80 14 31 15 85 16 79 17 81 18 32 19 84 20 78 21 77 22
REMARK SMILES IDX 33 24 65 25 45 26 64 27 46 28 49 29 63 30 82 31 47 32 48 33
REMARK SMILES IDX 62 35 83 36 50 37 34 38 35 39 43 40 36 41 37 42 41 43 44 44
REMARK SMILES IDX 38 45 39 46 42 47 40 48 66 49 67 50 75 51 68 52 69 53 73 54
REMARK SMILES IDX 76 55 70 56 71 57 74 58 72 59 51 60 52 61 60 62 53 63 54 64
REMARK SMILES IDX 58 65 61 66 55 67 56 68 59 69 57 70 6 71 7 72 8 73 9 74
REMARK SMILES IDX 10 75 24 76 11 77 12 78 13 79 14 80 15 81 16 83 17 84 18 85
REMARK SMILES IDX 22 86 19 87 21 88 20 89 23 90
REMARK H PARENT 81 23 49 34 14 82 23 91
REMARK Flexibility Score: inf
ROOT
ATOM      1  C   UNL A   1      33.817  34.048  28.205  1.00  0.00     0.274 C 
ENDROOT
BRANCH   1   2
ATOM      2  C   UNL A   1      33.607  32.630  27.666  1.00  0.00     0.275 C 
BRANCH   2   3
ATOM      3  O   UNL A   1      34.221  31.617  28.477  1.00  0.00    -0.458 OA
BRANCH   3   4
ATOM      4  C   UNL A   1      34.710  30.437  28.026  1.00  0.00     0.338 C 
ATOM      5  O   UNL A   1      33.963  29.637  27.467  1.00  0.00    -0.246 OA
BRANCH   4   6
ATOM      6  C   UNL A   1      36.056  29.950  28.464  1.00  0.00     0.060 A 
ATOM      7  C   UNL A   1      36.379  29.419  29.717  1.00  0.00     0.016 A 
ATOM      8  C   UNL A   1      37.082  30.074  27.512  1.00  0.00     0.016 A 
ATOM      9  C   UNL A   1      37.677  28.953  29.991  1.00  0.00     0.010 A 
ATOM     10  C   UNL A   1      38.365  29.590  27.772  1.00  0.00     0.010 A 
ATOM     11  C   UNL A   1      38.676  29.017  29.017  1.00  0.00    -0.014 A 
BRANCH  11  12
ATOM     12  C   UNL A   1      40.086  28.633  29.296  1.00  0.00     0.031 A 
ATOM     13  C   UNL A   1      40.985  29.685  29.884  1.00  0.00     0.074 A 
ATOM     14  C   UNL A   1      40.587  27.422  28.969  1.00  0.00     0.049 A 
ATOM     15  N   UNL A   1      42.266  29.641  30.137  1.00  0.00    -0.248 NA
ATOM     16  C   UNL A   1      40.350  30.972  30.224  1.00  0.00     0.031 C 
ATOM     17  C   UNL A   1      39.832  26.304  28.407  1.00  0.00     0.029 A 
ATOM     18  N   UNL A   1      41.879  26.948  29.012  1.00  0.00    -0.354 N 
ATOM     19  C   UNL A   1      42.572  30.867  30.707  1.00  0.00     0.074 A 
ATOM     20  C   UNL A   1      41.383  31.685  30.635  1.00  0.00     0.031 C 
ATOM     21  C   UNL A   1      40.683  25.319  28.065  1.00  0.00     0.029 A 
ATOM     22  C   UNL A   1      42.043  25.719  28.409  1.00  0.00     0.049 A 
ATOM     23  H   UNL A   1      42.617  27.443  29.435  1.00  0.00     0.167 HD
ATOM     24  C   UNL A   1      43.717  31.252  31.316  1.00  0.00     0.037 A 
ATOM     25  C   UNL A   1      43.169  25.018  28.156  1.00  0.00     0.037 A 
ATOM     26  C   UNL A   1      44.895  30.439  31.383  1.00  0.00     0.049 A 
ATOM     27  C   UNL A   1      44.475  25.539  28.693  1.00  0.00     0.074 A 
ATOM     28  C   UNL A   1      46.080  30.679  32.054  1.00  0.00     0.029 A 
ATOM     29  N   UNL A   1      45.038  29.223  30.730  1.00  0.00    -0.354 N 
ATOM     30  N   UNL A   1      44.729  26.660  29.323  1.00  0.00    -0.248 NA
ATOM     31  C   UNL A   1      45.639  24.650  28.555  1.00  0.00     0.031 C 
ATOM     32  C   UNL A   1      46.955  29.622  31.778  1.00  0.00     0.029 A 
ATOM     33  C   UNL A   1      46.300  28.709  30.966  1.00  0.00     0.049 A 
ATOM     34  H   UNL A   1      44.344  28.791  30.181  1.00  0.00     0.167 HD
ATOM     35  C   UNL A   1      46.063  26.590  29.696  1.00  0.00     0.074 A 
ATOM     36  C   UNL A   1      46.577  25.336  29.189  1.00  0.00     0.031 C 
ATOM     37  C   UNL A   1      46.786  27.463  30.438  1.00  0.00     0.037 A 
BRANCH  24  38
ATOM     38  C   UNL A   1      43.694  32.583  32.002  1.00  0.00     0.064 A 
ATOM     39  C   UNL A   1      43.251  32.698  33.332  1.00  0.00     0.173 A 
ATOM     40  C   UNL A   1      44.070  33.753  31.331  1.00  0.00     0.173 A 
ATOM     41  F   UNL A   1      42.861  31.607  34.011  1.00  0.00    -0.203 F 
ATOM     42  C   UNL A   1      43.140  33.941  33.946  1.00  0.00     0.198 A 
ATOM     43  C   UNL A   1      43.984  34.993  31.960  1.00  0.00     0.198 A 
ATOM     44  F   UNL A   1      44.497  33.698  30.062  1.00  0.00    -0.203 F 
ATOM     45  F   UNL A   1      42.645  34.031  35.189  1.00  0.00    -0.200 F 
ATOM     46  C   UNL A   1      43.509  35.087  33.261  1.00  0.00     0.200 A 
ATOM     47  F   UNL A   1      44.344  36.103  31.301  1.00  0.00    -0.200 F 
ATOM     48  F   UNL A   1      43.388  36.286  33.848  1.00  0.00    -0.200 F 
ENDBRANCH  24  38
BRANCH  25  49
ATOM     49  C   UNL A   1      43.156  23.729  27.406  1.00  0.00     0.064 A 
ATOM     50  C   UNL A   1      43.525  23.666  26.056  1.00  0.00     0.173 A 
ATOM     51  C   UNL A   1      42.663  22.551  27.995  1.00  0.00     0.173 A 
ATOM     52  F   UNL A   1      43.934  24.772  25.418  1.00  0.00    -0.203 F 
ATOM     53  C   UNL A   1      43.438  22.471  25.339  1.00  0.00     0.198 A 
ATOM     54  C   UNL A   1      42.595  21.354  27.284  1.00  0.00     0.198 A 
ATOM     55  F   UNL A   1      42.159  22.581  29.237  1.00  0.00    -0.203 F 
ATOM     56  F   UNL A   1      43.773  22.446  24.042  1.00  0.00    -0.200 F 
ATOM     57  C   UNL A   1      42.986  21.315  25.956  1.00  0.00     0.200 A 
ATOM     58  F   UNL A   1      42.118  20.248  27.872  1.00  0.00    -0.200 F 
ATOM     59  F   UNL A   1      42.899  20.172  25.263  1.00  0.00    -0.200 F 
ENDBRANCH  25  49
BRANCH  37  60
ATOM     60  C   UNL A   1      48.176  27.047  30.802  1.00  0.00     0.064 A 
ATOM     61  C   UNL A   1      49.291  27.458  30.060  1.00  0.00     0.173 A 
ATOM     62  C   UNL A   1      48.388  26.236  31.927  1.00  0.00     0.173 A 
ATOM     63  F   UNL A   1      49.133  28.211  28.962  1.00  0.00    -0.203 F 
ATOM     64  C   UNL A   1      50.572  27.055  30.425  1.00  0.00     0.198 A 
ATOM     65  C   UNL A   1      49.670  25.858  32.303  1.00  0.00     0.198 A 
ATOM     66  F   UNL A   1      47.347  25.815  32.662  1.00  0.00    -0.203 F 
ATOM     67  F   UNL A   1      51.625  27.418  29.680  1.00  0.00    -0.200 F 
ATOM     68  C   UNL A   1      50.762  26.263  31.549  1.00  0.00     0.200 A 
ATOM     69  F   UNL A   1      49.852  25.098  33.393  1.00  0.00    -0.200 F 
ATOM     70  F   UNL A   1      51.997  25.880  31.901  1.00  0.00    -0.200 F 
ENDBRANCH  37  60
ENDBRANCH  11  12
ENDBRANCH   4   6
ENDBRANCH   3   4
ENDBRANCH   2   3
ENDBRANCH   1   2
BRANCH   1  71
ATOM     71  O   UNL A   1      32.642  34.585  28.829  1.00  0.00    -0.460 OA
BRANCH  71  72
ATOM     72  C   UNL A   1      32.713  35.888  29.241  1.00  0.00     0.335 C 
ATOM     73  O   UNL A   1      32.047  36.802  28.771  1.00  0.00    -0.249 OA
BRANCH  72  74
ATOM     74  C   UNL A   1      33.752  36.089  30.363  1.00  0.00     0.228 C 
ATOM     75  C   UNL A   1      33.346  37.186  31.326  1.00  0.00     0.047 C 
ATOM     76  O   UNL A   1      33.986  34.915  31.159  1.00  0.00    -0.361 OA
ATOM     77  C   UNL A   1      32.677  36.397  32.423  1.00  0.00     0.037 C 
ATOM     78  C   UNL A   1      33.539  35.159  32.505  1.00  0.00     0.138 C 
BRANCH  78  79
ATOM     79  C   UNL A   1      34.726  35.391  33.448  1.00  0.00     0.148 C 
BRANCH  79  80
ATOM     80  N   UNL A   1      35.165  34.154  34.078  1.00  0.00    -0.349 N 
ATOM     81  C   UNL A   1      36.131  33.296  33.635  1.00  0.00     0.255 C 
ATOM     82  H   UNL A   1      34.714  33.908  34.919  1.00  0.00     0.163 HD
ATOM     83  O   UNL A   1      36.398  32.266  34.240  1.00  0.00    -0.269 OA
BRANCH  81  84
ATOM     84  C   UNL A   1      36.789  33.616  32.367  1.00  0.00     0.081 A 
ATOM     85  C   UNL A   1      37.968  34.367  32.405  1.00  0.00     0.018 A 
ATOM     86  C   UNL A   1      36.334  33.045  31.179  1.00  0.00     0.128 A 
ATOM     87  C   UNL A   1      38.692  34.554  31.232  1.00  0.00     0.001 A 
ATOM     88  C   UNL A   1      37.053  33.242  30.006  1.00  0.00     0.047 A 
ATOM     89  C   UNL A   1      38.233  33.992  30.037  1.00  0.00     0.004 A 
BRANCH  86  90
ATOM     90  O   UNL A   1      35.228  32.243  31.189  1.00  0.00    -0.507 OA
ATOM     91  H   UNL A   1      34.681  32.208  31.949  1.00  0.00     0.293 HD
ENDBRANCH  86  90
ENDBRANCH  81  84
ENDBRANCH  79  80
ENDBRANCH  78  79
ENDBRANCH  72  74
ENDBRANCH  71  72
ENDBRANCH   1  71
TORSDOF 15
ENDMDL
