MODEL 1
REMARK VINA RESULT:     -13.0      0.000      0.000
REMARK SMILES Cc1ccccc1OCC(=O)N1C[C@H](O)C[C@H]1C(=O)OCCOC(=O)c1ccc(-c2c3nc(c(-c4c(F)c(F)c(F)c(F)c4F)c4ccc([nH]4)c(-c4c(F)c(F)c(F)c(F)c4F)c4nc(c(-c5c(F)c(F)c(F)c(F)c5F)c5ccc2[nH]5)C=C4)C=C3)cc1
REMARK SMILES IDX 21 1 20 2 18 3 19 4 17 5 12 6 13 7 14 8 16 9 10 10 11 11
REMARK SMILES IDX 9 12 8 13 7 14 1 15 2 16 3 17 4 18 6 19 5 20 15 21 22 23
REMARK SMILES IDX 23 24 24 25 25 26 26 27 27 28 88 29 28 30 87 31 29 32 30 33
REMARK SMILES IDX 31 34 81 35 32 36 86 37 80 38 82 39 33 40 85 41 79 42 78 43
REMARK SMILES IDX 34 45 66 46 46 47 65 48 47 49 50 50 64 51 83 52 48 53 49 54
REMARK SMILES IDX 63 56 84 57 51 58 35 59 36 60 44 61 37 62 38 63 42 64 45 65
REMARK SMILES IDX 39 66 40 67 43 68 41 69 67 70 68 71 76 72 69 73 70 74 74 75
REMARK SMILES IDX 77 76 71 77 72 78 75 79 73 80 52 81 53 82 61 83 54 84 55 85
REMARK SMILES IDX 59 86 62 87 56 88 57 89 60 90 58 91
REMARK H PARENT 15 22 82 44 50 55
REMARK Flexibility Score: inf
ROOT
ATOM      1  C   UNL A   1      32.510  28.384  27.290  1.00  0.00     0.274 C 
ENDROOT
BRANCH   1   2
ATOM      2  O   UNL A   1      31.946  28.000  26.038  1.00  0.00    -0.461 OA
BRANCH   2   3
ATOM      3  C   UNL A   1      32.828  27.837  25.015  1.00  0.00     0.329 C 
ATOM      4  O   UNL A   1      33.828  27.133  25.089  1.00  0.00    -0.250 OA
BRANCH   3   5
ATOM      5  C   UNL A   1      32.312  28.509  23.726  1.00  0.00     0.198 C 
ATOM      6  N   UNL A   1      31.979  27.533  22.690  1.00  0.00    -0.323 N 
ATOM      7  C   UNL A   1      30.560  27.580  22.374  1.00  0.00     0.152 C 
ATOM      8  C   UNL A   1      30.202  29.031  22.686  1.00  0.00     0.136 C 
ATOM      9  C   UNL A   1      31.029  29.329  23.932  1.00  0.00     0.070 C 
BRANCH   6  10
ATOM     10  C   UNL A   1      32.963  26.892  21.976  1.00  0.00     0.261 C 
ATOM     11  O   UNL A   1      34.042  27.442  21.751  1.00  0.00    -0.271 OA
BRANCH  10  12
ATOM     12  C   UNL A   1      32.668  25.502  21.398  1.00  0.00     0.329 C 
BRANCH  12  13
ATOM     13  O   UNL A   1      33.243  24.317  21.903  1.00  0.00    -0.484 OA
BRANCH  13  14
ATOM     14  C   UNL A   1      33.412  24.116  23.241  1.00  0.00     0.122 A 
ATOM     15  C   UNL A   1      30.970  24.200  24.064  1.00  0.00     0.048 C 
ATOM     16  C   UNL A   1      32.446  24.023  24.251  1.00  0.00    -0.009 A 
ATOM     17  C   UNL A   1      32.880  23.771  25.572  1.00  0.00     0.007 A 
ATOM     18  C   UNL A   1      34.235  23.690  25.898  1.00  0.00     0.001 A 
ATOM     19  C   UNL A   1      34.773  24.069  23.591  1.00  0.00     0.047 A 
ATOM     20  C   UNL A   1      35.186  23.857  24.903  1.00  0.00     0.004 A 
ENDBRANCH  13  14
ENDBRANCH  12  13
ENDBRANCH  10  12
ENDBRANCH   6  10
BRANCH   8  21
ATOM     21  O   UNL A   1      30.609  29.893  21.622  1.00  0.00    -0.391 OA
ATOM     22  H   UNL A   1      29.827  30.209  21.143  1.00  0.00     0.211 HD
ENDBRANCH   8  21
ENDBRANCH   3   5
ENDBRANCH   2   3
ENDBRANCH   1   2
BRANCH   1  23
ATOM     23  C   UNL A   1      33.151  29.782  27.224  1.00  0.00     0.275 C 
BRANCH  23  24
ATOM     24  O   UNL A   1      34.596  29.902  27.053  1.00  0.00    -0.458 OA
BRANCH  24  25
ATOM     25  C   UNL A   1      35.504  30.703  27.674  1.00  0.00     0.338 C 
ATOM     26  O   UNL A   1      35.330  31.895  27.845  1.00  0.00    -0.246 OA
BRANCH  25  27
ATOM     27  C   UNL A   1      36.737  30.065  28.152  1.00  0.00     0.060 A 
ATOM     28  C   UNL A   1      36.751  29.387  29.381  1.00  0.00     0.016 A 
ATOM     29  C   UNL A   1      37.853  30.087  27.332  1.00  0.00     0.016 A 
ATOM     30  C   UNL A   1      37.849  28.590  29.723  1.00  0.00     0.010 A 
ATOM     31  C   UNL A   1      38.886  29.226  27.616  1.00  0.00     0.010 A 
ATOM     32  C   UNL A   1      38.898  28.480  28.812  1.00  0.00    -0.014 A 
BRANCH  32  33
ATOM     33  C   UNL A   1      40.152  27.767  29.041  1.00  0.00     0.031 A 
ATOM     34  C   UNL A   1      40.384  26.346  28.715  1.00  0.00     0.074 A 
ATOM     35  C   UNL A   1      41.157  28.592  29.400  1.00  0.00     0.049 A 
ATOM     36  N   UNL A   1      41.491  25.721  28.935  1.00  0.00    -0.248 NA
ATOM     37  C   UNL A   1      39.370  25.473  28.149  1.00  0.00     0.031 C 
ATOM     38  C   UNL A   1      42.595  28.405  29.351  1.00  0.00     0.029 A 
ATOM     39  N   UNL A   1      40.986  29.808  30.082  1.00  0.00    -0.354 N 
ATOM     40  C   UNL A   1      41.427  24.482  28.326  1.00  0.00     0.074 A 
ATOM     41  C   UNL A   1      40.054  24.345  27.926  1.00  0.00     0.031 C 
ATOM     42  C   UNL A   1      43.162  29.272  30.212  1.00  0.00     0.029 A 
ATOM     43  C   UNL A   1      42.070  29.882  30.963  1.00  0.00     0.049 A 
ATOM     44  H   UNL A   1      40.262  30.466  29.965  1.00  0.00     0.167 HD
ATOM     45  C   UNL A   1      42.594  23.793  28.151  1.00  0.00     0.037 A 
ATOM     46  C   UNL A   1      41.846  29.691  32.299  1.00  0.00     0.037 A 
ATOM     47  C   UNL A   1      43.636  24.399  28.977  1.00  0.00     0.049 A 
ATOM     48  C   UNL A   1      42.642  28.526  32.824  1.00  0.00     0.074 A 
ATOM     49  C   UNL A   1      44.641  25.309  28.700  1.00  0.00     0.029 A 
ATOM     50  N   UNL A   1      43.501  24.356  30.363  1.00  0.00    -0.354 N 
ATOM     51  N   UNL A   1      42.872  27.427  32.158  1.00  0.00    -0.248 NA
ATOM     52  C   UNL A   1      43.307  28.570  34.119  1.00  0.00     0.031 C 
ATOM     53  C   UNL A   1      45.017  25.914  29.930  1.00  0.00     0.029 A 
ATOM     54  C   UNL A   1      44.282  25.329  30.952  1.00  0.00     0.049 A 
ATOM     55  H   UNL A   1      42.930  23.720  30.853  1.00  0.00     0.167 HD
ATOM     56  C   UNL A   1      43.763  26.666  32.868  1.00  0.00     0.074 A 
ATOM     57  C   UNL A   1      43.984  27.410  34.097  1.00  0.00     0.031 C 
ATOM     58  C   UNL A   1      44.303  25.505  32.394  1.00  0.00     0.037 A 
BRANCH  45  59
ATOM     59  C   UNL A   1      42.891  22.737  27.094  1.00  0.00     0.064 A 
ATOM     60  C   UNL A   1      42.274  21.462  27.180  1.00  0.00     0.173 A 
ATOM     61  C   UNL A   1      43.845  22.839  26.062  1.00  0.00     0.173 A 
ATOM     62  F   UNL A   1      41.310  21.213  28.077  1.00  0.00    -0.203 F 
ATOM     63  C   UNL A   1      42.635  20.383  26.362  1.00  0.00     0.198 A 
ATOM     64  C   UNL A   1      44.196  21.762  25.235  1.00  0.00     0.198 A 
ATOM     65  F   UNL A   1      44.493  23.975  25.799  1.00  0.00    -0.203 F 
ATOM     66  F   UNL A   1      42.045  19.190  26.534  1.00  0.00    -0.200 F 
ATOM     67  C   UNL A   1      43.606  20.530  25.396  1.00  0.00     0.200 A 
ATOM     68  F   UNL A   1      45.133  21.933  24.289  1.00  0.00    -0.200 F 
ATOM     69  F   UNL A   1      43.968  19.495  24.626  1.00  0.00    -0.200 F 
ENDBRANCH  45  59
BRANCH  46  70
ATOM     70  C   UNL A   1      40.457  30.049  32.737  1.00  0.00     0.064 A 
ATOM     71  C   UNL A   1      40.068  31.407  32.724  1.00  0.00     0.173 A 
ATOM     72  C   UNL A   1      39.433  29.098  32.844  1.00  0.00     0.173 A 
ATOM     73  F   UNL A   1      41.002  32.369  32.622  1.00  0.00    -0.203 F 
ATOM     74  C   UNL A   1      38.727  31.787  32.698  1.00  0.00     0.198 A 
ATOM     75  C   UNL A   1      38.088  29.485  32.838  1.00  0.00     0.198 A 
ATOM     76  F   UNL A   1      39.717  27.790  32.871  1.00  0.00    -0.203 F 
ATOM     77  F   UNL A   1      38.401  33.081  32.573  1.00  0.00    -0.200 F 
ATOM     78  C   UNL A   1      37.736  30.823  32.735  1.00  0.00     0.200 A 
ATOM     79  F   UNL A   1      37.125  28.551  32.862  1.00  0.00    -0.200 F 
ATOM     80  F   UNL A   1      36.446  31.177  32.645  1.00  0.00    -0.200 F 
ENDBRANCH  46  70
BRANCH  58  81
ATOM     81  C   UNL A   1      45.021  24.485  33.242  1.00  0.00     0.064 A 
ATOM     82  C   UNL A   1      44.444  23.265  33.634  1.00  0.00     0.173 A 
ATOM     83  C   UNL A   1      46.392  24.639  33.555  1.00  0.00     0.173 A 
ATOM     84  F   UNL A   1      43.196  22.934  33.275  1.00  0.00    -0.203 F 
ATOM     85  C   UNL A   1      45.157  22.310  34.361  1.00  0.00     0.198 A 
ATOM     86  C   UNL A   1      47.118  23.656  34.224  1.00  0.00     0.198 A 
ATOM     87  F   UNL A   1      47.079  25.733  33.193  1.00  0.00    -0.203 F 
ATOM     88  F   UNL A   1      44.543  21.187  34.758  1.00  0.00    -0.200 F 
ATOM     89  C   UNL A   1      46.495  22.501  34.646  1.00  0.00     0.200 A 
ATOM     90  F   UNL A   1      48.431  23.826  34.435  1.00  0.00    -0.200 F 
ATOM     91  F   UNL A   1      47.188  21.561  35.303  1.00  0.00    -0.200 F 
ENDBRANCH  58  81
ENDBRANCH  32  33
ENDBRANCH  25  27
ENDBRANCH  24  25
ENDBRANCH  23  24
ENDBRANCH   1  23
TORSDOF 16
ENDMDL
MODEL 2
REMARK VINA RESULT:     -12.9      0.908      1.720
REMARK SMILES Cc1ccccc1OCC(=O)N1C[C@H](O)C[C@H]1C(=O)OCCOC(=O)c1ccc(-c2c3nc(c(-c4c(F)c(F)c(F)c(F)c4F)c4ccc([nH]4)c(-c4c(F)c(F)c(F)c(F)c4F)c4nc(c(-c5c(F)c(F)c(F)c(F)c5F)c5ccc2[nH]5)C=C4)C=C3)cc1
REMARK SMILES IDX 21 1 20 2 18 3 19 4 17 5 12 6 13 7 14 8 16 9 10 10 11 11
REMARK SMILES IDX 9 12 8 13 7 14 1 15 2 16 3 17 4 18 6 19 5 20 15 21 22 23
REMARK SMILES IDX 23 24 24 25 25 26 26 27 27 28 88 29 28 30 87 31 29 32 30 33
REMARK SMILES IDX 31 34 81 35 32 36 86 37 80 38 82 39 33 40 85 41 79 42 78 43
REMARK SMILES IDX 34 45 66 46 46 47 65 48 47 49 50 50 64 51 83 52 48 53 49 54
REMARK SMILES IDX 63 56 84 57 51 58 35 59 36 60 44 61 37 62 38 63 42 64 45 65
REMARK SMILES IDX 39 66 40 67 43 68 41 69 67 70 68 71 76 72 69 73 70 74 74 75
REMARK SMILES IDX 77 76 71 77 72 78 75 79 73 80 52 81 53 82 61 83 54 84 55 85
REMARK SMILES IDX 59 86 62 87 56 88 57 89 60 90 58 91
REMARK H PARENT 15 22 82 44 50 55
REMARK Flexibility Score: inf
ROOT
ATOM      1  C   UNL A   1      33.494  29.203  25.993  1.00  0.00     0.274 C 
ENDROOT
BRANCH   1   2
ATOM      2  O   UNL A   1      32.747  28.079  26.452  1.00  0.00    -0.461 OA
BRANCH   2   3
ATOM      3  C   UNL A   1      31.714  27.688  25.656  1.00  0.00     0.329 C 
ATOM      4  O   UNL A   1      30.782  26.997  26.049  1.00  0.00    -0.250 OA
BRANCH   3   5
ATOM      5  C   UNL A   1      31.794  28.363  24.272  1.00  0.00     0.198 C 
ATOM      6  N   UNL A   1      31.777  27.390  23.181  1.00  0.00    -0.323 N 
ATOM      7  C   UNL A   1      30.594  27.565  22.352  1.00  0.00     0.152 C 
ATOM      8  C   UNL A   1      30.298  29.054  22.514  1.00  0.00     0.136 C 
ATOM      9  C   UNL A   1      30.621  29.312  23.982  1.00  0.00     0.070 C 
BRANCH   6  10
ATOM     10  C   UNL A   1      32.885  26.631  22.889  1.00  0.00     0.261 C 
ATOM     11  O   UNL A   1      34.001  26.959  23.296  1.00  0.00    -0.271 OA
BRANCH  10  12
ATOM     12  C   UNL A   1      32.722  25.406  21.981  1.00  0.00     0.329 C 
BRANCH  12  13
ATOM     13  O   UNL A   1      33.683  24.377  21.891  1.00  0.00    -0.484 OA
BRANCH  13  14
ATOM     14  C   UNL A   1      33.653  23.293  22.719  1.00  0.00     0.122 A 
ATOM     15  C   UNL A   1      35.834  23.631  24.052  1.00  0.00     0.048 C 
ATOM     16  C   UNL A   1      34.557  22.919  23.719  1.00  0.00    -0.009 A 
ATOM     17  C   UNL A   1      34.278  21.757  24.474  1.00  0.00     0.007 A 
ATOM     18  C   UNL A   1      33.177  20.946  24.195  1.00  0.00     0.001 A 
ATOM     19  C   UNL A   1      32.569  22.448  22.425  1.00  0.00     0.047 A 
ATOM     20  C   UNL A   1      32.327  21.286  23.154  1.00  0.00     0.004 A 
ENDBRANCH  13  14
ENDBRANCH  12  13
ENDBRANCH  10  12
ENDBRANCH   6  10
BRANCH   8  21
ATOM     21  O   UNL A   1      31.163  29.835  21.688  1.00  0.00    -0.391 OA
ATOM     22  H   UNL A   1      31.041  29.582  20.760  1.00  0.00     0.211 HD
ENDBRANCH   8  21
ENDBRANCH   3   5
ENDBRANCH   2   3
ENDBRANCH   1   2
BRANCH   1  23
ATOM     23  C   UNL A   1      33.575  30.311  27.059  1.00  0.00     0.275 C 
BRANCH  23  24
ATOM     24  O   UNL A   1      34.649  30.281  28.046  1.00  0.00    -0.458 OA
BRANCH  24  25
ATOM     25  C   UNL A   1      35.878  30.864  28.045  1.00  0.00     0.338 C 
ATOM     26  O   UNL A   1      36.041  32.068  28.004  1.00  0.00    -0.246 OA
BRANCH  25  27
ATOM     27  C   UNL A   1      37.040  29.968  28.100  1.00  0.00     0.060 A 
ATOM     28  C   UNL A   1      37.951  29.926  27.033  1.00  0.00     0.016 A 
ATOM     29  C   UNL A   1      37.250  29.228  29.252  1.00  0.00     0.016 A 
ATOM     30  C   UNL A   1      39.168  29.254  27.184  1.00  0.00     0.010 A 
ATOM     31  C   UNL A   1      38.486  28.657  29.441  1.00  0.00     0.010 A 
ATOM     32  C   UNL A   1      39.448  28.656  28.411  1.00  0.00    -0.014 A 
BRANCH  32  33
ATOM     33  C   UNL A   1      40.624  27.843  28.713  1.00  0.00     0.031 A 
ATOM     34  C   UNL A   1      40.732  26.392  28.460  1.00  0.00     0.074 A 
ATOM     35  C   UNL A   1      41.690  28.589  29.065  1.00  0.00     0.049 A 
ATOM     36  N   UNL A   1      41.769  25.680  28.744  1.00  0.00    -0.248 NA
ATOM     37  C   UNL A   1      39.657  25.589  27.903  1.00  0.00     0.031 C 
ATOM     38  C   UNL A   1      43.106  28.269  29.072  1.00  0.00     0.029 A 
ATOM     39  N   UNL A   1      41.614  29.848  29.685  1.00  0.00    -0.354 N 
ATOM     40  C   UNL A   1      41.608  24.424  28.191  1.00  0.00     0.074 A 
ATOM     41  C   UNL A   1      40.239  24.394  27.754  1.00  0.00     0.031 C 
ATOM     42  C   UNL A   1      43.726  29.122  29.909  1.00  0.00     0.029 A 
ATOM     43  C   UNL A   1      42.676  29.865  30.596  1.00  0.00     0.049 A 
ATOM     44  H   UNL A   1      40.958  30.562  29.514  1.00  0.00     0.167 HD
ATOM     45  C   UNL A   1      42.709  23.624  28.085  1.00  0.00     0.037 A 
ATOM     46  C   UNL A   1      42.398  29.760  31.931  1.00  0.00     0.037 A 
ATOM     47  C   UNL A   1      43.780  24.172  28.916  1.00  0.00     0.049 A 
ATOM     48  C   UNL A   1      43.068  28.555  32.535  1.00  0.00     0.074 A 
ATOM     49  C   UNL A   1      44.873  24.971  28.630  1.00  0.00     0.029 A 
ATOM     50  N   UNL A   1      43.604  24.208  30.297  1.00  0.00    -0.354 N 
ATOM     51  N   UNL A   1      43.213  27.408  31.927  1.00  0.00    -0.248 NA
ATOM     52  C   UNL A   1      43.698  28.601  33.847  1.00  0.00     0.031 C 
ATOM     53  C   UNL A   1      45.269  25.598  29.842  1.00  0.00     0.029 A 
ATOM     54  C   UNL A   1      44.455  25.134  30.865  1.00  0.00     0.049 A 
ATOM     55  H   UNL A   1      42.962  23.652  30.797  1.00  0.00     0.167 HD
ATOM     56  C   UNL A   1      44.009  26.604  32.701  1.00  0.00     0.074 A 
ATOM     57  C   UNL A   1      44.265  27.384  33.900  1.00  0.00     0.031 C 
ATOM     58  C   UNL A   1      44.452  25.377  32.298  1.00  0.00     0.037 A 
BRANCH  45  59
ATOM     59  C   UNL A   1      42.936  22.494  27.088  1.00  0.00     0.064 A 
ATOM     60  C   UNL A   1      42.201  21.287  27.213  1.00  0.00     0.173 A 
ATOM     61  C   UNL A   1      43.925  22.459  26.083  1.00  0.00     0.173 A 
ATOM     62  F   UNL A   1      41.194  21.172  28.089  1.00  0.00    -0.203 F 
ATOM     63  C   UNL A   1      42.484  20.141  26.457  1.00  0.00     0.198 A 
ATOM     64  C   UNL A   1      44.197  21.315  25.319  1.00  0.00     0.198 A 
ATOM     65  F   UNL A   1      44.682  23.516  25.790  1.00  0.00    -0.203 F 
ATOM     66  F   UNL A   1      41.781  19.017  26.664  1.00  0.00    -0.200 F 
ATOM     67  C   UNL A   1      43.490  20.151  25.517  1.00  0.00     0.200 A 
ATOM     68  F   UNL A   1      45.171  21.353  24.396  1.00  0.00    -0.200 F 
ATOM     69  F   UNL A   1      43.776  19.051  24.808  1.00  0.00    -0.200 F 
ENDBRANCH  45  59
BRANCH  46  70
ATOM     70  C   UNL A   1      41.037  30.265  32.308  1.00  0.00     0.064 A 
ATOM     71  C   UNL A   1      39.986  29.334  32.467  1.00  0.00     0.173 A 
ATOM     72  C   UNL A   1      40.828  31.550  32.826  1.00  0.00     0.173 A 
ATOM     73  F   UNL A   1      40.123  28.083  31.994  1.00  0.00    -0.203 F 
ATOM     74  C   UNL A   1      38.842  29.636  33.205  1.00  0.00     0.198 A 
ATOM     75  C   UNL A   1      39.669  31.855  33.549  1.00  0.00     0.198 A 
ATOM     76  F   UNL A   1      41.771  32.493  32.711  1.00  0.00    -0.203 F 
ATOM     77  F   UNL A   1      37.919  28.689  33.425  1.00  0.00    -0.200 F 
ATOM     78  C   UNL A   1      38.694  30.892  33.764  1.00  0.00     0.200 A 
ATOM     79  F   UNL A   1      39.528  33.069  34.102  1.00  0.00    -0.200 F 
ATOM     80  F   UNL A   1      37.628  31.169  34.529  1.00  0.00    -0.200 F 
ENDBRANCH  46  70
BRANCH  58  81
ATOM     81  C   UNL A   1      45.048  24.338  33.214  1.00  0.00     0.064 A 
ATOM     82  C   UNL A   1      44.396  23.140  33.549  1.00  0.00     0.173 A 
ATOM     83  C   UNL A   1      46.387  24.450  33.661  1.00  0.00     0.173 A 
ATOM     84  F   UNL A   1      43.180  22.848  33.068  1.00  0.00    -0.203 F 
ATOM     85  C   UNL A   1      45.001  22.166  34.345  1.00  0.00     0.198 A 
ATOM     86  C   UNL A   1      47.010  23.446  34.401  1.00  0.00     0.198 A 
ATOM     87  F   UNL A   1      47.141  25.518  33.368  1.00  0.00    -0.203 F 
ATOM     88  F   UNL A   1      44.315  21.065  34.680  1.00  0.00    -0.200 F 
ATOM     89  C   UNL A   1      46.310  22.314  34.761  1.00  0.00     0.200 A 
ATOM     90  F   UNL A   1      48.300  23.575  34.741  1.00  0.00    -0.200 F 
ATOM     91  F   UNL A   1      46.904  21.355  35.484  1.00  0.00    -0.200 F 
ENDBRANCH  58  81
ENDBRANCH  32  33
ENDBRANCH  25  27
ENDBRANCH  24  25
ENDBRANCH  23  24
ENDBRANCH   1  23
TORSDOF 16
ENDMDL
MODEL 3
REMARK VINA RESULT:     -12.8      5.162     12.036
REMARK SMILES Cc1ccccc1OCC(=O)N1C[C@H](O)C[C@H]1C(=O)OCCOC(=O)c1ccc(-c2c3nc(c(-c4c(F)c(F)c(F)c(F)c4F)c4ccc([nH]4)c(-c4c(F)c(F)c(F)c(F)c4F)c4nc(c(-c5c(F)c(F)c(F)c(F)c5F)c5ccc2[nH]5)C=C4)C=C3)cc1
REMARK SMILES IDX 21 1 20 2 18 3 19 4 17 5 12 6 13 7 14 8 16 9 10 10 11 11
REMARK SMILES IDX 9 12 8 13 7 14 1 15 2 16 3 17 4 18 6 19 5 20 15 21 22 23
REMARK SMILES IDX 23 24 24 25 25 26 26 27 27 28 88 29 28 30 87 31 29 32 30 33
REMARK SMILES IDX 31 34 81 35 32 36 86 37 80 38 82 39 33 40 85 41 79 42 78 43
REMARK SMILES IDX 34 45 66 46 46 47 65 48 47 49 50 50 64 51 83 52 48 53 49 54
REMARK SMILES IDX 63 56 84 57 51 58 35 59 36 60 44 61 37 62 38 63 42 64 45 65
REMARK SMILES IDX 39 66 40 67 43 68 41 69 67 70 68 71 76 72 69 73 70 74 74 75
REMARK SMILES IDX 77 76 71 77 72 78 75 79 73 80 52 81 53 82 61 83 54 84 55 85
REMARK SMILES IDX 59 86 62 87 56 88 57 89 60 90 58 91
REMARK H PARENT 15 22 82 44 50 55
REMARK Flexibility Score: inf
ROOT
ATOM      1  C   UNL A   1      41.367  20.429  27.602  1.00  0.00     0.274 C 
ENDROOT
BRANCH   1   2
ATOM      2  O   UNL A   1      42.279  19.971  26.608  1.00  0.00    -0.461 OA
BRANCH   2   3
ATOM      3  C   UNL A   1      43.200  20.879  26.183  1.00  0.00     0.329 C 
ATOM      4  O   UNL A   1      43.437  21.927  26.771  1.00  0.00    -0.250 OA
BRANCH   3   5
ATOM      5  C   UNL A   1      44.004  20.334  24.985  1.00  0.00     0.198 C 
ATOM      6  N   UNL A   1      45.203  21.126  24.719  1.00  0.00    -0.323 N 
ATOM      7  C   UNL A   1      46.403  20.325  24.911  1.00  0.00     0.152 C 
ATOM      8  C   UNL A   1      45.911  18.916  24.589  1.00  0.00     0.136 C 
ATOM      9  C   UNL A   1      44.508  18.897  25.185  1.00  0.00     0.070 C 
BRANCH   6  10
ATOM     10  C   UNL A   1      45.122  22.360  24.120  1.00  0.00     0.261 C 
ATOM     11  O   UNL A   1      44.107  22.700  23.509  1.00  0.00    -0.271 OA
BRANCH  10  12
ATOM     12  C   UNL A   1      46.346  23.282  24.159  1.00  0.00     0.329 C 
BRANCH  12  13
ATOM     13  O   UNL A   1      46.253  24.687  24.250  1.00  0.00    -0.484 OA
BRANCH  13  14
ATOM     14  C   UNL A   1      46.932  25.390  25.201  1.00  0.00     0.122 A 
ATOM     15  C   UNL A   1      46.788  27.780  24.243  1.00  0.00     0.048 C 
ATOM     16  C   UNL A   1      47.180  26.766  25.276  1.00  0.00    -0.009 A 
ATOM     17  C   UNL A   1      47.883  27.261  26.398  1.00  0.00     0.007 A 
ATOM     18  C   UNL A   1      48.394  26.409  27.378  1.00  0.00     0.001 A 
ATOM     19  C   UNL A   1      47.484  24.542  26.177  1.00  0.00     0.047 A 
ATOM     20  C   UNL A   1      48.208  25.041  27.257  1.00  0.00     0.004 A 
ENDBRANCH  13  14
ENDBRANCH  12  13
ENDBRANCH  10  12
ENDBRANCH   6  10
BRANCH   8  21
ATOM     21  O   UNL A   1      45.835  18.716  23.176  1.00  0.00    -0.391 OA
ATOM     22  H   UNL A   1      46.606  18.207  22.879  1.00  0.00     0.211 HD
ENDBRANCH   8  21
ENDBRANCH   3   5
ENDBRANCH   2   3
ENDBRANCH   1   2
BRANCH   1  23
ATOM     23  C   UNL A   1      40.262  21.317  27.001  1.00  0.00     0.275 C 
BRANCH  23  24
ATOM     24  O   UNL A   1      40.048  22.658  27.537  1.00  0.00    -0.458 OA
BRANCH  24  25
ATOM     25  C   UNL A   1      39.206  23.651  27.143  1.00  0.00     0.338 C 
ATOM     26  O   UNL A   1      38.227  23.455  26.447  1.00  0.00    -0.246 OA
BRANCH  25  27
ATOM     27  C   UNL A   1      39.520  25.011  27.600  1.00  0.00     0.060 A 
ATOM     28  C   UNL A   1      40.069  25.946  26.709  1.00  0.00     0.016 A 
ATOM     29  C   UNL A   1      39.194  25.364  28.899  1.00  0.00     0.016 A 
ATOM     30  C   UNL A   1      40.150  27.293  27.077  1.00  0.00     0.010 A 
ATOM     31  C   UNL A   1      39.176  26.699  29.224  1.00  0.00     0.010 A 
ATOM     32  C   UNL A   1      39.660  27.670  28.326  1.00  0.00    -0.014 A 
BRANCH  32  33
ATOM     33  C   UNL A   1      39.744  29.009  28.904  1.00  0.00     0.031 A 
ATOM     34  C   UNL A   1      38.738  30.073  28.714  1.00  0.00     0.074 A 
ATOM     35  C   UNL A   1      40.741  29.120  29.805  1.00  0.00     0.049 A 
ATOM     36  N   UNL A   1      38.829  31.257  29.216  1.00  0.00    -0.248 NA
ATOM     37  C   UNL A   1      37.549  29.920  27.894  1.00  0.00     0.031 C 
ATOM     38  C   UNL A   1      40.951  30.086  30.867  1.00  0.00     0.029 A 
ATOM     39  N   UNL A   1      41.925  28.363  29.783  1.00  0.00    -0.354 N 
ATOM     40  C   UNL A   1      37.632  31.917  29.012  1.00  0.00     0.074 A 
ATOM     41  C   UNL A   1      36.902  31.071  28.108  1.00  0.00     0.031 C 
ATOM     42  C   UNL A   1      42.258  30.082  31.189  1.00  0.00     0.029 A 
ATOM     43  C   UNL A   1      42.927  29.251  30.193  1.00  0.00     0.049 A 
ATOM     44  H   UNL A   1      42.028  27.416  29.534  1.00  0.00     0.167 HD
ATOM     45  C   UNL A   1      37.390  33.047  29.740  1.00  0.00     0.037 A 
ATOM     46  C   UNL A   1      43.812  29.718  29.261  1.00  0.00     0.037 A 
ATOM     47  C   UNL A   1      38.640  33.501  30.347  1.00  0.00     0.049 A 
ATOM     48  C   UNL A   1      43.760  31.219  29.164  1.00  0.00     0.074 A 
ATOM     49  C   UNL A   1      39.186  33.332  31.607  1.00  0.00     0.029 A 
ATOM     50  N   UNL A   1      39.671  33.931  29.515  1.00  0.00    -0.354 N 
ATOM     51  N   UNL A   1      42.670  31.930  29.268  1.00  0.00    -0.248 NA
ATOM     52  C   UNL A   1      44.967  32.024  29.028  1.00  0.00     0.031 C 
ATOM     53  C   UNL A   1      40.588  33.534  31.493  1.00  0.00     0.029 A 
ATOM     54  C   UNL A   1      40.878  33.880  30.181  1.00  0.00     0.049 A 
ATOM     55  H   UNL A   1      39.555  34.227  28.582  1.00  0.00     0.167 HD
ATOM     56  C   UNL A   1      43.015  33.256  29.301  1.00  0.00     0.074 A 
ATOM     57  C   UNL A   1      44.458  33.264  29.121  1.00  0.00     0.031 C 
ATOM     58  C   UNL A   1      42.117  34.260  29.522  1.00  0.00     0.037 A 
BRANCH  45  59
ATOM     59  C   UNL A   1      36.034  33.631  30.113  1.00  0.00     0.064 A 
ATOM     60  C   UNL A   1      35.213  34.202  29.106  1.00  0.00     0.173 A 
ATOM     61  C   UNL A   1      35.528  33.790  31.419  1.00  0.00     0.173 A 
ATOM     62  F   UNL A   1      35.527  34.098  27.808  1.00  0.00    -0.203 F 
ATOM     63  C   UNL A   1      34.045  34.923  29.392  1.00  0.00     0.198 A 
ATOM     64  C   UNL A   1      34.351  34.500  31.702  1.00  0.00     0.198 A 
ATOM     65  F   UNL A   1      36.139  33.278  32.488  1.00  0.00    -0.203 F 
ATOM     66  F   UNL A   1      33.345  35.480  28.392  1.00  0.00    -0.200 F 
ATOM     67  C   UNL A   1      33.620  35.081  30.692  1.00  0.00     0.200 A 
ATOM     68  F   UNL A   1      33.947  34.627  32.976  1.00  0.00    -0.200 F 
ATOM     69  F   UNL A   1      32.516  35.787  30.971  1.00  0.00    -0.200 F 
ENDBRANCH  45  59
BRANCH  46  70
ATOM     70  C   UNL A   1      44.018  28.790  28.102  1.00  0.00     0.064 A 
ATOM     71  C   UNL A   1      44.557  27.506  28.345  1.00  0.00     0.173 A 
ATOM     72  C   UNL A   1      43.411  28.995  26.856  1.00  0.00     0.173 A 
ATOM     73  F   UNL A   1      45.153  27.243  29.521  1.00  0.00    -0.203 F 
ATOM     74  C   UNL A   1      44.392  26.456  27.442  1.00  0.00     0.198 A 
ATOM     75  C   UNL A   1      43.265  27.944  25.944  1.00  0.00     0.198 A 
ATOM     76  F   UNL A   1      42.881  30.185  26.543  1.00  0.00    -0.203 F 
ATOM     77  F   UNL A   1      44.822  25.227  27.760  1.00  0.00    -0.200 F 
ATOM     78  C   UNL A   1      43.727  26.672  26.249  1.00  0.00     0.200 A 
ATOM     79  F   UNL A   1      42.609  28.147  24.791  1.00  0.00    -0.200 F 
ATOM     80  F   UNL A   1      43.507  25.653  25.406  1.00  0.00    -0.200 F 
ENDBRANCH  46  70
BRANCH  58  81
ATOM     81  C   UNL A   1      42.381  35.720  29.253  1.00  0.00     0.064 A 
ATOM     82  C   UNL A   1      43.228  36.509  30.049  1.00  0.00     0.173 A 
ATOM     83  C   UNL A   1      41.906  36.337  28.071  1.00  0.00     0.173 A 
ATOM     84  F   UNL A   1      43.857  36.001  31.118  1.00  0.00    -0.203 F 
ATOM     85  C   UNL A   1      43.508  37.840  29.737  1.00  0.00     0.198 A 
ATOM     86  C   UNL A   1      42.241  37.645  27.729  1.00  0.00     0.198 A 
ATOM     87  F   UNL A   1      41.132  35.680  27.196  1.00  0.00    -0.203 F 
ATOM     88  F   UNL A   1      44.278  38.565  30.560  1.00  0.00    -0.200 F 
ATOM     89  C   UNL A   1      43.024  38.404  28.572  1.00  0.00     0.200 A 
ATOM     90  F   UNL A   1      41.818  38.157  26.564  1.00  0.00    -0.200 F 
ATOM     91  F   UNL A   1      43.335  39.668  28.252  1.00  0.00    -0.200 F 
ENDBRANCH  58  81
ENDBRANCH  32  33
ENDBRANCH  25  27
ENDBRANCH  24  25
ENDBRANCH  23  24
ENDBRANCH   1  23
TORSDOF 16
ENDMDL
