MODEL 1
REMARK VINA RESULT:     -12.6      0.000      0.000
REMARK SMILES [NH3+][C@H](CS[C@@H]1CC(=O)N(c2ccc3ccccc3c2)C1=O)C(=O)OCCOC(=O)c1ccc(-c2c3nc(c(-c4c(F)c(F)c(F)c(F)c4F)c4ccc([nH]4)c(-c4c(F)c(F)c(F)c(F)c4F)c4nc(c(-c5c(F)c(F)c(F)c(F)c5F)c5ccc2[nH]5)C=C4)C=C3)cc1
REMARK SMILES IDX 25 1 24 2 22 3 23 4 2 5 1 6 3 10 4 11 5 12 6 13 20 14 7 15
REMARK SMILES IDX 9 16 21 17 8 18 10 19 11 20 19 21 12 22 18 23 13 24 17 25
REMARK SMILES IDX 14 26 16 27 15 28 26 29 27 30 28 31 29 32 30 33 31 34 92 35
REMARK SMILES IDX 32 36 91 37 33 38 34 39 35 40 85 41 36 42 90 43 84 44 86 45
REMARK SMILES IDX 37 46 89 47 83 48 82 49 38 51 70 52 50 53 69 54 51 55 54 56
REMARK SMILES IDX 68 57 87 58 52 59 53 60 67 62 88 63 55 64 39 65 40 66 48 67
REMARK SMILES IDX 41 68 42 69 46 70 49 71 43 72 44 73 47 74 45 75 71 76 72 77
REMARK SMILES IDX 80 78 73 79 74 80 78 81 81 82 75 83 76 84 79 85 77 86 56 87
REMARK SMILES IDX 57 88 65 89 58 90 59 91 63 92 66 93 60 94 61 95 64 96 62 97
REMARK H PARENT 1 7 1 8 1 9 86 50 54 61
REMARK Flexibility Score: inf
ROOT
ATOM      1  C   UNL A   1      38.060  19.902  24.748  1.00  0.00     0.274 C 
ENDROOT
BRANCH   1   2
ATOM      2  O   UNL A   1      37.123  20.902  25.250  1.00  0.00    -0.458 OA
BRANCH   2   3
ATOM      3  C   UNL A   1      35.801  20.623  25.312  1.00  0.00     0.365 C 
ATOM      4  O   UNL A   1      35.333  19.582  24.858  1.00  0.00    -0.245 OA
BRANCH   3   5
ATOM      5  C   UNL A   1      34.889  21.735  25.970  1.00  0.00     0.301 C 
BRANCH   5   6
ATOM      6  N   UNL A   1      34.707  21.545  27.431  1.00  0.00    -0.345 N 
ATOM      7  H   UNL A   1      33.768  21.192  27.613  1.00  0.00     0.345 HD
ATOM      8  H   UNL A   1      34.833  22.438  27.908  1.00  0.00     0.345 HD
ATOM      9  H   UNL A   1      35.395  20.876  27.775  1.00  0.00     0.345 HD
ENDBRANCH   5   6
BRANCH   5  10
ATOM     10  C   UNL A   1      33.592  22.252  25.244  1.00  0.00     0.147 C 
BRANCH  10  11
ATOM     11  S   UNL A   1      33.616  22.729  23.377  1.00  0.00    -0.141 SA
BRANCH  11  12
ATOM     12  C   UNL A   1      34.288  24.460  23.484  1.00  0.00     0.146 C 
ATOM     13  C   UNL A   1      34.498  25.221  24.787  1.00  0.00     0.125 C 
ATOM     14  C   UNL A   1      33.202  25.265  22.912  1.00  0.00     0.247 C 
ATOM     15  C   UNL A   1      33.345  26.212  24.863  1.00  0.00     0.235 C 
ATOM     16  N   UNL A   1      32.494  25.939  23.840  1.00  0.00    -0.250 N 
ATOM     17  O   UNL A   1      33.075  25.284  21.705  1.00  0.00    -0.273 OA
ATOM     18  O   UNL A   1      33.282  27.121  25.676  1.00  0.00    -0.274 OA
BRANCH  16  19
ATOM     19  C   UNL A   1      31.259  26.548  23.520  1.00  0.00     0.052 A 
ATOM     20  C   UNL A   1      30.034  26.028  23.924  1.00  0.00     0.027 A 
ATOM     21  C   UNL A   1      31.276  27.787  22.848  1.00  0.00     0.035 A 
ATOM     22  C   UNL A   1      28.860  26.778  23.735  1.00  0.00     0.011 A 
ATOM     23  C   UNL A   1      30.106  28.540  22.626  1.00  0.00    -0.016 A 
ATOM     24  C   UNL A   1      28.879  28.037  23.100  1.00  0.00    -0.018 A 
ATOM     25  C   UNL A   1      30.138  29.792  21.980  1.00  0.00     0.009 A 
ATOM     26  C   UNL A   1      27.717  28.819  22.940  1.00  0.00     0.009 A 
ATOM     27  C   UNL A   1      28.975  30.545  21.816  1.00  0.00     0.001 A 
ATOM     28  C   UNL A   1      27.766  30.062  22.304  1.00  0.00     0.001 A 
ENDBRANCH  16  19
ENDBRANCH  11  12
ENDBRANCH  10  11
ENDBRANCH   5  10
ENDBRANCH   3   5
ENDBRANCH   2   3
ENDBRANCH   1   2
BRANCH   1  29
ATOM     29  C   UNL A   1      39.266  19.546  25.659  1.00  0.00     0.275 C 
BRANCH  29  30
ATOM     30  O   UNL A   1      39.851  20.742  26.179  1.00  0.00    -0.458 OA
BRANCH  30  31
ATOM     31  C   UNL A   1      40.653  20.688  27.267  1.00  0.00     0.338 C 
ATOM     32  O   UNL A   1      41.204  19.746  27.800  1.00  0.00    -0.246 OA
BRANCH  31  33
ATOM     33  C   UNL A   1      40.880  22.101  27.589  1.00  0.00     0.060 A 
ATOM     34  C   UNL A   1      41.838  22.427  28.554  1.00  0.00     0.016 A 
ATOM     35  C   UNL A   1      40.312  23.074  26.765  1.00  0.00     0.016 A 
ATOM     36  C   UNL A   1      42.316  23.726  28.622  1.00  0.00     0.010 A 
ATOM     37  C   UNL A   1      40.772  24.377  26.850  1.00  0.00     0.010 A 
ATOM     38  C   UNL A   1      41.786  24.698  27.765  1.00  0.00    -0.014 A 
BRANCH  38  39
ATOM     39  C   UNL A   1      42.204  26.098  27.910  1.00  0.00     0.031 A 
ATOM     40  C   UNL A   1      43.530  26.483  27.341  1.00  0.00     0.074 A 
ATOM     41  C   UNL A   1      41.404  26.978  28.535  1.00  0.00     0.049 A 
ATOM     42  N   UNL A   1      44.154  27.628  27.392  1.00  0.00    -0.248 NA
ATOM     43  C   UNL A   1      44.264  25.424  26.625  1.00  0.00     0.031 C 
ATOM     44  C   UNL A   1      40.087  26.673  29.099  1.00  0.00     0.029 A 
ATOM     45  N   UNL A   1      41.589  28.307  28.806  1.00  0.00    -0.354 N 
ATOM     46  C   UNL A   1      45.345  27.429  26.711  1.00  0.00     0.074 A 
ATOM     47  C   UNL A   1      45.387  26.045  26.301  1.00  0.00     0.031 C 
ATOM     48  C   UNL A   1      39.585  27.788  29.657  1.00  0.00     0.029 A 
ATOM     49  C   UNL A   1      40.558  28.867  29.520  1.00  0.00     0.049 A 
ATOM     50  H   UNL A   1      42.383  28.812  28.517  1.00  0.00     0.167 HD
ATOM     51  C   UNL A   1      46.307  28.338  26.443  1.00  0.00     0.037 A 
ATOM     52  C   UNL A   1      40.443  30.111  30.019  1.00  0.00     0.037 A 
ATOM     53  C   UNL A   1      46.243  29.706  26.879  1.00  0.00     0.049 A 
ATOM     54  C   UNL A   1      41.564  31.086  29.754  1.00  0.00     0.074 A 
ATOM     55  C   UNL A   1      47.158  30.721  26.681  1.00  0.00     0.029 A 
ATOM     56  N   UNL A   1      45.191  30.245  27.610  1.00  0.00    -0.354 N 
ATOM     57  N   UNL A   1      42.683  30.906  29.092  1.00  0.00    -0.248 NA
ATOM     58  C   UNL A   1      41.401  32.440  30.296  1.00  0.00     0.031 C 
ATOM     59  C   UNL A   1      46.685  31.862  27.338  1.00  0.00     0.029 A 
ATOM     60  C   UNL A   1      45.444  31.578  27.888  1.00  0.00     0.049 A 
ATOM     61  H   UNL A   1      44.385  29.753  27.890  1.00  0.00     0.167 HD
ATOM     62  C   UNL A   1      43.346  32.125  29.117  1.00  0.00     0.074 A 
ATOM     63  C   UNL A   1      42.483  33.046  29.831  1.00  0.00     0.031 C 
ATOM     64  C   UNL A   1      44.559  32.460  28.608  1.00  0.00     0.037 A 
BRANCH  51  65
ATOM     65  C   UNL A   1      47.501  27.872  25.664  1.00  0.00     0.064 A 
ATOM     66  C   UNL A   1      47.476  27.776  24.263  1.00  0.00     0.173 A 
ATOM     67  C   UNL A   1      48.693  27.535  26.322  1.00  0.00     0.173 A 
ATOM     68  F   UNL A   1      46.352  28.059  23.587  1.00  0.00    -0.203 F 
ATOM     69  C   UNL A   1      48.593  27.345  23.554  1.00  0.00     0.198 A 
ATOM     70  C   UNL A   1      49.818  27.135  25.607  1.00  0.00     0.198 A 
ATOM     71  F   UNL A   1      48.768  27.598  27.660  1.00  0.00    -0.203 F 
ATOM     72  F   UNL A   1      48.531  27.216  22.221  1.00  0.00    -0.200 F 
ATOM     73  C   UNL A   1      49.766  27.035  24.225  1.00  0.00     0.200 A 
ATOM     74  F   UNL A   1      50.953  26.842  26.257  1.00  0.00    -0.200 F 
ATOM     75  F   UNL A   1      50.846  26.632  23.540  1.00  0.00    -0.200 F 
ENDBRANCH  51  65
BRANCH  52  76
ATOM     76  C   UNL A   1      39.252  30.501  30.821  1.00  0.00     0.064 A 
ATOM     77  C   UNL A   1      39.189  30.260  32.200  1.00  0.00     0.173 A 
ATOM     78  C   UNL A   1      38.131  31.093  30.216  1.00  0.00     0.173 A 
ATOM     79  F   UNL A   1      40.223  29.679  32.826  1.00  0.00    -0.203 F 
ATOM     80  C   UNL A   1      38.043  30.559  32.936  1.00  0.00     0.198 A 
ATOM     81  C   UNL A   1      37.000  31.426  30.959  1.00  0.00     0.198 A 
ATOM     82  F   UNL A   1      38.133  31.347  28.900  1.00  0.00    -0.203 F 
ATOM     83  F   UNL A   1      37.987  30.254  34.240  1.00  0.00    -0.200 F 
ATOM     84  C   UNL A   1      36.951  31.146  32.315  1.00  0.00     0.200 A 
ATOM     85  F   UNL A   1      35.953  32.006  30.357  1.00  0.00    -0.200 F 
ATOM     86  F   UNL A   1      35.848  31.428  33.021  1.00  0.00    -0.200 F 
ENDBRANCH  52  76
BRANCH  64  87
ATOM     87  C   UNL A   1      44.993  33.886  28.785  1.00  0.00     0.064 A 
ATOM     88  C   UNL A   1      45.754  34.293  29.891  1.00  0.00     0.173 A 
ATOM     89  C   UNL A   1      44.646  34.856  27.832  1.00  0.00     0.173 A 
ATOM     90  F   UNL A   1      46.101  33.405  30.836  1.00  0.00    -0.203 F 
ATOM     91  C   UNL A   1      46.108  35.628  30.062  1.00  0.00     0.198 A 
ATOM     92  C   UNL A   1      45.039  36.181  27.985  1.00  0.00     0.198 A 
ATOM     93  F   UNL A   1      43.932  34.517  26.748  1.00  0.00    -0.203 F 
ATOM     94  F   UNL A   1      46.767  36.006  31.166  1.00  0.00    -0.200 F 
ATOM     95  C   UNL A   1      45.754  36.569  29.108  1.00  0.00     0.200 A 
ATOM     96  F   UNL A   1      44.716  37.087  27.051  1.00  0.00    -0.200 F 
ATOM     97  F   UNL A   1      46.094  37.855  29.275  1.00  0.00    -0.200 F 
ENDBRANCH  64  87
ENDBRANCH  38  39
ENDBRANCH  31  33
ENDBRANCH  30  31
ENDBRANCH  29  30
ENDBRANCH   1  29
TORSDOF 16
ENDMDL
MODEL 2
REMARK VINA RESULT:     -12.6      5.016      9.050
REMARK SMILES [NH3+][C@H](CS[C@@H]1CC(=O)N(c2ccc3ccccc3c2)C1=O)C(=O)OCCOC(=O)c1ccc(-c2c3nc(c(-c4c(F)c(F)c(F)c(F)c4F)c4ccc([nH]4)c(-c4c(F)c(F)c(F)c(F)c4F)c4nc(c(-c5c(F)c(F)c(F)c(F)c5F)c5ccc2[nH]5)C=C4)C=C3)cc1
REMARK SMILES IDX 25 1 24 2 22 3 23 4 2 5 1 6 3 10 4 11 5 12 6 13 20 14 7 15
REMARK SMILES IDX 9 16 21 17 8 18 10 19 11 20 19 21 12 22 18 23 13 24 17 25
REMARK SMILES IDX 14 26 16 27 15 28 26 29 27 30 28 31 29 32 30 33 31 34 92 35
REMARK SMILES IDX 32 36 91 37 33 38 34 39 35 40 85 41 36 42 90 43 84 44 86 45
REMARK SMILES IDX 37 46 89 47 83 48 82 49 38 51 70 52 50 53 69 54 51 55 54 56
REMARK SMILES IDX 68 57 87 58 52 59 53 60 67 62 88 63 55 64 39 65 40 66 48 67
REMARK SMILES IDX 41 68 42 69 46 70 49 71 43 72 44 73 47 74 45 75 71 76 72 77
REMARK SMILES IDX 80 78 73 79 74 80 78 81 81 82 75 83 76 84 79 85 77 86 56 87
REMARK SMILES IDX 57 88 65 89 58 90 59 91 63 92 66 93 60 94 61 95 64 96 62 97
REMARK H PARENT 1 7 1 8 1 9 86 50 54 61
REMARK Flexibility Score: inf
ROOT
ATOM      1  C   UNL A   1      31.574  31.794  26.458  1.00  0.00     0.274 C 
ENDROOT
BRANCH   1   2
ATOM      2  O   UNL A   1      32.264  30.787  27.256  1.00  0.00    -0.458 OA
BRANCH   2   3
ATOM      3  C   UNL A   1      33.300  30.095  26.729  1.00  0.00     0.365 C 
ATOM      4  O   UNL A   1      34.460  30.289  27.084  1.00  0.00    -0.245 OA
BRANCH   3   5
ATOM      5  C   UNL A   1      32.932  29.049  25.602  1.00  0.00     0.301 C 
BRANCH   5   6
ATOM      6  N   UNL A   1      33.258  29.529  24.236  1.00  0.00    -0.345 N 
ATOM      7  H   UNL A   1      33.071  30.530  24.174  1.00  0.00     0.345 HD
ATOM      8  H   UNL A   1      32.683  29.033  23.555  1.00  0.00     0.345 HD
ATOM      9  H   UNL A   1      34.243  29.355  24.040  1.00  0.00     0.345 HD
ENDBRANCH   5   6
BRANCH   5  10
ATOM     10  C   UNL A   1      31.591  28.227  25.668  1.00  0.00     0.147 C 
BRANCH  10  11
ATOM     11  S   UNL A   1      30.666  27.695  24.063  1.00  0.00    -0.141 SA
BRANCH  11  12
ATOM     12  C   UNL A   1      30.147  25.972  24.534  1.00  0.00     0.146 C 
ATOM     13  C   UNL A   1      29.937  25.500  25.967  1.00  0.00     0.125 C 
ATOM     14  C   UNL A   1      31.331  25.173  24.193  1.00  0.00     0.247 C 
ATOM     15  C   UNL A   1      31.168  24.670  26.301  1.00  0.00     0.235 C 
ATOM     16  N   UNL A   1      32.044  24.794  25.271  1.00  0.00    -0.250 N 
ATOM     17  O   UNL A   1      31.523  24.901  23.026  1.00  0.00    -0.273 OA
ATOM     18  O   UNL A   1      31.269  23.973  27.299  1.00  0.00    -0.274 OA
BRANCH  16  19
ATOM     19  C   UNL A   1      33.345  24.255  25.136  1.00  0.00     0.052 A 
ATOM     20  C   UNL A   1      34.497  25.024  25.262  1.00  0.00     0.027 A 
ATOM     21  C   UNL A   1      33.480  22.863  24.966  1.00  0.00     0.035 A 
ATOM     22  C   UNL A   1      35.754  24.397  25.303  1.00  0.00     0.011 A 
ATOM     23  C   UNL A   1      34.733  22.220  24.977  1.00  0.00    -0.016 A 
ATOM     24  C   UNL A   1      35.890  22.999  25.174  1.00  0.00    -0.018 A 
ATOM     25  C   UNL A   1      34.855  20.823  24.836  1.00  0.00     0.009 A 
ATOM     26  C   UNL A   1      37.139  22.352  25.255  1.00  0.00     0.009 A 
ATOM     27  C   UNL A   1      36.102  20.201  24.902  1.00  0.00     0.001 A 
ATOM     28  C   UNL A   1      37.244  20.965  25.120  1.00  0.00     0.001 A 
ENDBRANCH  16  19
ENDBRANCH  11  12
ENDBRANCH  10  11
ENDBRANCH   5  10
ENDBRANCH   3   5
ENDBRANCH   2   3
ENDBRANCH   1   2
BRANCH   1  29
ATOM     29  C   UNL A   1      31.762  33.278  26.879  1.00  0.00     0.275 C 
BRANCH  29  30
ATOM     30  O   UNL A   1      32.952  33.413  27.661  1.00  0.00    -0.458 OA
BRANCH  30  31
ATOM     31  C   UNL A   1      33.140  34.512  28.426  1.00  0.00     0.338 C 
ATOM     32  O   UNL A   1      32.477  35.524  28.537  1.00  0.00    -0.246 OA
BRANCH  31  33
ATOM     33  C   UNL A   1      34.276  34.141  29.276  1.00  0.00     0.060 A 
ATOM     34  C   UNL A   1      34.065  33.252  30.334  1.00  0.00     0.016 A 
ATOM     35  C   UNL A   1      35.562  34.495  28.864  1.00  0.00     0.016 A 
ATOM     36  C   UNL A   1      35.153  32.622  30.917  1.00  0.00     0.010 A 
ATOM     37  C   UNL A   1      36.650  33.883  29.463  1.00  0.00     0.010 A 
ATOM     38  C   UNL A   1      36.444  32.934  30.476  1.00  0.00    -0.014 A 
BRANCH  38  39
ATOM     39  C   UNL A   1      37.605  32.359  31.167  1.00  0.00     0.031 A 
ATOM     40  C   UNL A   1      38.336  31.252  30.479  1.00  0.00     0.074 A 
ATOM     41  C   UNL A   1      37.974  32.830  32.369  1.00  0.00     0.049 A 
ATOM     42  N   UNL A   1      39.344  30.538  30.898  1.00  0.00    -0.248 NA
ATOM     43  C   UNL A   1      37.854  30.891  29.134  1.00  0.00     0.031 C 
ATOM     44  C   UNL A   1      37.316  33.921  33.091  1.00  0.00     0.029 A 
ATOM     45  N   UNL A   1      38.991  32.440  33.200  1.00  0.00    -0.354 N 
ATOM     46  C   UNL A   1      39.619  29.651  29.869  1.00  0.00     0.074 A 
ATOM     47  C   UNL A   1      38.645  29.876  28.827  1.00  0.00     0.031 C 
ATOM     48  C   UNL A   1      37.945  34.109  34.264  1.00  0.00     0.029 A 
ATOM     49  C   UNL A   1      39.022  33.131  34.386  1.00  0.00     0.049 A 
ATOM     50  H   UNL A   1      39.637  31.735  32.968  1.00  0.00     0.167 HD
ATOM     51  C   UNL A   1      40.616  28.741  29.805  1.00  0.00     0.037 A 
ATOM     52  C   UNL A   1      39.824  32.960  35.452  1.00  0.00     0.037 A 
ATOM     53  C   UNL A   1      41.561  28.531  30.867  1.00  0.00     0.049 A 
ATOM     54  C   UNL A   1      40.888  31.893  35.373  1.00  0.00     0.074 A 
ATOM     55  C   UNL A   1      42.608  27.632  30.928  1.00  0.00     0.029 A 
ATOM     56  N   UNL A   1      41.563  29.237  32.064  1.00  0.00    -0.354 N 
ATOM     57  N   UNL A   1      41.164  31.066  34.392  1.00  0.00    -0.248 NA
ATOM     58  C   UNL A   1      41.760  31.744  36.544  1.00  0.00     0.031 C 
ATOM     59  C   UNL A   1      43.212  27.759  32.183  1.00  0.00     0.029 A 
ATOM     60  C   UNL A   1      42.584  28.781  32.879  1.00  0.00     0.049 A 
ATOM     61  H   UNL A   1      40.931  29.956  32.298  1.00  0.00     0.167 HD
ATOM     62  C   UNL A   1      42.252  30.315  34.815  1.00  0.00     0.074 A 
ATOM     63  C   UNL A   1      42.605  30.812  36.131  1.00  0.00     0.031 C 
ATOM     64  C   UNL A   1      42.900  29.302  34.187  1.00  0.00     0.037 A 
BRANCH  51  65
ATOM     65  C   UNL A   1      40.712  27.908  28.561  1.00  0.00     0.064 A 
ATOM     66  C   UNL A   1      40.023  26.690  28.435  1.00  0.00     0.173 A 
ATOM     67  C   UNL A   1      41.487  28.337  27.475  1.00  0.00     0.173 A 
ATOM     68  F   UNL A   1      39.290  26.220  29.456  1.00  0.00    -0.203 F 
ATOM     69  C   UNL A   1      40.121  25.929  27.274  1.00  0.00     0.198 A 
ATOM     70  C   UNL A   1      41.557  27.588  26.304  1.00  0.00     0.198 A 
ATOM     71  F   UNL A   1      42.176  29.486  27.548  1.00  0.00    -0.203 F 
ATOM     72  F   UNL A   1      39.491  24.748  27.194  1.00  0.00    -0.200 F 
ATOM     73  C   UNL A   1      40.878  26.383  26.206  1.00  0.00     0.200 A 
ATOM     74  F   UNL A   1      42.284  28.032  25.269  1.00  0.00    -0.200 F 
ATOM     75  F   UNL A   1      40.961  25.655  25.083  1.00  0.00    -0.200 F 
ENDBRANCH  51  65
BRANCH  52  76
ATOM     76  C   UNL A   1      39.650  33.789  36.675  1.00  0.00     0.064 A 
ATOM     77  C   UNL A   1      38.846  33.362  37.740  1.00  0.00     0.173 A 
ATOM     78  C   UNL A   1      40.259  35.050  36.790  1.00  0.00     0.173 A 
ATOM     79  F   UNL A   1      38.223  32.176  37.675  1.00  0.00    -0.203 F 
ATOM     80  C   UNL A   1      38.625  34.174  38.853  1.00  0.00     0.198 A 
ATOM     81  C   UNL A   1      40.069  35.845  37.919  1.00  0.00     0.198 A 
ATOM     82  F   UNL A   1      41.040  35.512  35.803  1.00  0.00    -0.203 F 
ATOM     83  F   UNL A   1      37.796  33.767  39.823  1.00  0.00    -0.200 F 
ATOM     84  C   UNL A   1      39.241  35.413  38.942  1.00  0.00     0.200 A 
ATOM     85  F   UNL A   1      40.677  37.035  38.007  1.00  0.00    -0.200 F 
ATOM     86  F   UNL A   1      39.025  36.195  40.009  1.00  0.00    -0.200 F 
ENDBRANCH  52  76
BRANCH  64  87
ATOM     87  C   UNL A   1      44.068  28.698  34.911  1.00  0.00     0.064 A 
ATOM     88  C   UNL A   1      45.368  29.206  34.765  1.00  0.00     0.173 A 
ATOM     89  C   UNL A   1      43.882  27.602  35.766  1.00  0.00     0.173 A 
ATOM     90  F   UNL A   1      45.600  30.246  33.950  1.00  0.00    -0.203 F 
ATOM     91  C   UNL A   1      46.446  28.604  35.408  1.00  0.00     0.198 A 
ATOM     92  C   UNL A   1      44.956  27.031  36.441  1.00  0.00     0.198 A 
ATOM     93  F   UNL A   1      42.657  27.087  35.953  1.00  0.00    -0.203 F 
ATOM     94  F   UNL A   1      47.689  29.057  35.192  1.00  0.00    -0.200 F 
ATOM     95  C   UNL A   1      46.238  27.521  36.249  1.00  0.00     0.200 A 
ATOM     96  F   UNL A   1      44.752  25.998  37.271  1.00  0.00    -0.200 F 
ATOM     97  F   UNL A   1      47.278  26.943  36.866  1.00  0.00    -0.200 F 
ENDBRANCH  64  87
ENDBRANCH  38  39
ENDBRANCH  31  33
ENDBRANCH  30  31
ENDBRANCH  29  30
ENDBRANCH   1  29
TORSDOF 16
ENDMDL
MODEL 3
REMARK VINA RESULT:     -12.5      1.356      2.339
REMARK SMILES [NH3+][C@H](CS[C@@H]1CC(=O)N(c2ccc3ccccc3c2)C1=O)C(=O)OCCOC(=O)c1ccc(-c2c3nc(c(-c4c(F)c(F)c(F)c(F)c4F)c4ccc([nH]4)c(-c4c(F)c(F)c(F)c(F)c4F)c4nc(c(-c5c(F)c(F)c(F)c(F)c5F)c5ccc2[nH]5)C=C4)C=C3)cc1
REMARK SMILES IDX 25 1 24 2 22 3 23 4 2 5 1 6 3 10 4 11 5 12 6 13 20 14 7 15
REMARK SMILES IDX 9 16 21 17 8 18 10 19 11 20 19 21 12 22 18 23 13 24 17 25
REMARK SMILES IDX 14 26 16 27 15 28 26 29 27 30 28 31 29 32 30 33 31 34 92 35
REMARK SMILES IDX 32 36 91 37 33 38 34 39 35 40 85 41 36 42 90 43 84 44 86 45
REMARK SMILES IDX 37 46 89 47 83 48 82 49 38 51 70 52 50 53 69 54 51 55 54 56
REMARK SMILES IDX 68 57 87 58 52 59 53 60 67 62 88 63 55 64 39 65 40 66 48 67
REMARK SMILES IDX 41 68 42 69 46 70 49 71 43 72 44 73 47 74 45 75 71 76 72 77
REMARK SMILES IDX 80 78 73 79 74 80 78 81 81 82 75 83 76 84 79 85 77 86 56 87
REMARK SMILES IDX 57 88 65 89 58 90 59 91 63 92 66 93 60 94 61 95 64 96 62 97
REMARK H PARENT 1 7 1 8 1 9 86 50 54 61
REMARK Flexibility Score: inf
ROOT
ATOM      1  C   UNL A   1      38.047  19.627  24.897  1.00  0.00     0.274 C 
ENDROOT
BRANCH   1   2
ATOM      2  O   UNL A   1      37.353  20.858  25.259  1.00  0.00    -0.458 OA
BRANCH   2   3
ATOM      3  C   UNL A   1      36.084  21.071  24.840  1.00  0.00     0.365 C 
ATOM      4  O   UNL A   1      35.209  20.216  24.951  1.00  0.00    -0.245 OA
BRANCH   3   5
ATOM      5  C   UNL A   1      35.805  22.473  24.165  1.00  0.00     0.301 C 
BRANCH   5   6
ATOM      6  N   UNL A   1      37.047  23.193  23.786  1.00  0.00    -0.345 N 
ATOM      7  H   UNL A   1      36.870  24.197  23.783  1.00  0.00     0.345 HD
ATOM      8  H   UNL A   1      37.341  22.897  22.855  1.00  0.00     0.345 HD
ATOM      9  H   UNL A   1      37.782  22.979  24.459  1.00  0.00     0.345 HD
ENDBRANCH   5   6
BRANCH   5  10
ATOM     10  C   UNL A   1      34.678  23.425  24.713  1.00  0.00     0.147 C 
BRANCH  10  11
ATOM     11  S   UNL A   1      32.836  22.864  24.769  1.00  0.00    -0.141 SA
BRANCH  11  12
ATOM     12  C   UNL A   1      32.165  23.777  23.293  1.00  0.00     0.146 C 
ATOM     13  C   UNL A   1      33.008  24.232  22.110  1.00  0.00     0.125 C 
ATOM     14  C   UNL A   1      31.818  25.088  23.854  1.00  0.00     0.247 C 
ATOM     15  C   UNL A   1      33.200  25.729  22.305  1.00  0.00     0.235 C 
ATOM     16  N   UNL A   1      32.692  26.057  23.521  1.00  0.00    -0.250 N 
ATOM     17  O   UNL A   1      30.795  25.184  24.501  1.00  0.00    -0.273 OA
ATOM     18  O   UNL A   1      33.667  26.472  21.456  1.00  0.00    -0.274 OA
BRANCH  16  19
ATOM     19  C   UNL A   1      32.680  27.312  24.174  1.00  0.00     0.052 A 
ATOM     20  C   UNL A   1      31.645  28.229  24.026  1.00  0.00     0.027 A 
ATOM     21  C   UNL A   1      33.711  27.601  25.090  1.00  0.00     0.035 A 
ATOM     22  C   UNL A   1      31.601  29.371  24.844  1.00  0.00     0.011 A 
ATOM     23  C   UNL A   1      33.698  28.755  25.898  1.00  0.00    -0.016 A 
ATOM     24  C   UNL A   1      32.611  29.644  25.791  1.00  0.00    -0.018 A 
ATOM     25  C   UNL A   1      34.718  29.020  26.834  1.00  0.00     0.009 A 
ATOM     26  C   UNL A   1      32.559  30.762  26.646  1.00  0.00     0.009 A 
ATOM     27  C   UNL A   1      34.659  30.142  27.661  1.00  0.00     0.001 A 
ATOM     28  C   UNL A   1      33.575  31.009  27.574  1.00  0.00     0.001 A 
ENDBRANCH  16  19
ENDBRANCH  11  12
ENDBRANCH  10  11
ENDBRANCH   5  10
ENDBRANCH   3   5
ENDBRANCH   2   3
ENDBRANCH   1   2
BRANCH   1  29
ATOM     29  C   UNL A   1      39.374  19.320  25.644  1.00  0.00     0.275 C 
BRANCH  29  30
ATOM     30  O   UNL A   1      39.939  20.533  26.148  1.00  0.00    -0.458 OA
BRANCH  30  31
ATOM     31  C   UNL A   1      40.775  20.502  27.210  1.00  0.00     0.338 C 
ATOM     32  O   UNL A   1      41.373  19.577  27.721  1.00  0.00    -0.246 OA
BRANCH  31  33
ATOM     33  C   UNL A   1      40.964  21.921  27.532  1.00  0.00     0.060 A 
ATOM     34  C   UNL A   1      41.867  22.268  28.541  1.00  0.00     0.016 A 
ATOM     35  C   UNL A   1      40.423  22.879  26.673  1.00  0.00     0.016 A 
ATOM     36  C   UNL A   1      42.320  23.576  28.623  1.00  0.00     0.010 A 
ATOM     37  C   UNL A   1      40.858  24.189  26.770  1.00  0.00     0.010 A 
ATOM     38  C   UNL A   1      41.820  24.532  27.733  1.00  0.00    -0.014 A 
BRANCH  38  39
ATOM     39  C   UNL A   1      42.209  25.940  27.888  1.00  0.00     0.031 A 
ATOM     40  C   UNL A   1      43.530  26.355  27.329  1.00  0.00     0.074 A 
ATOM     41  C   UNL A   1      41.387  26.800  28.511  1.00  0.00     0.049 A 
ATOM     42  N   UNL A   1      44.130  27.512  27.390  1.00  0.00    -0.248 NA
ATOM     43  C   UNL A   1      44.290  25.314  26.612  1.00  0.00     0.031 C 
ATOM     44  C   UNL A   1      40.073  26.466  29.065  1.00  0.00     0.029 A 
ATOM     45  N   UNL A   1      41.543  28.131  28.791  1.00  0.00    -0.354 N 
ATOM     46  C   UNL A   1      45.329  27.340  26.716  1.00  0.00     0.074 A 
ATOM     47  C   UNL A   1      45.402  25.959  26.299  1.00  0.00     0.031 C 
ATOM     48  C   UNL A   1      39.545  27.568  29.626  1.00  0.00     0.029 A 
ATOM     49  C   UNL A   1      40.497  28.667  29.500  1.00  0.00     0.049 A 
ATOM     50  H   UNL A   1      42.329  28.654  28.509  1.00  0.00     0.167 HD
ATOM     51  C   UNL A   1      46.275  28.270  26.458  1.00  0.00     0.037 A 
ATOM     52  C   UNL A   1      40.353  29.906  30.005  1.00  0.00     0.037 A 
ATOM     53  C   UNL A   1      46.180  29.634  26.900  1.00  0.00     0.049 A 
ATOM     54  C   UNL A   1      41.456  30.905  29.753  1.00  0.00     0.074 A 
ATOM     55  C   UNL A   1      47.076  30.668  26.714  1.00  0.00     0.029 A 
ATOM     56  N   UNL A   1      45.113  30.148  27.628  1.00  0.00    -0.354 N 
ATOM     57  N   UNL A   1      42.582  30.750  29.097  1.00  0.00    -0.248 NA
ATOM     58  C   UNL A   1      41.262  32.252  30.300  1.00  0.00     0.031 C 
ATOM     59  C   UNL A   1      46.576  31.796  27.373  1.00  0.00     0.029 A 
ATOM     60  C   UNL A   1      45.337  31.484  27.914  1.00  0.00     0.049 A 
ATOM     61  H   UNL A   1      44.315  29.639  27.900  1.00  0.00     0.167 HD
ATOM     62  C   UNL A   1      43.221  31.982  29.133  1.00  0.00     0.074 A 
ATOM     63  C   UNL A   1      42.336  32.882  29.846  1.00  0.00     0.031 C 
ATOM     64  C   UNL A   1      44.430  32.344  28.632  1.00  0.00     0.037 A 
BRANCH  51  65
ATOM     65  C   UNL A   1      47.483  27.832  25.685  1.00  0.00     0.064 A 
ATOM     66  C   UNL A   1      47.477  27.768  24.282  1.00  0.00     0.173 A 
ATOM     67  C   UNL A   1      48.668  27.490  26.351  1.00  0.00     0.173 A 
ATOM     68  F   UNL A   1      46.360  28.058  23.597  1.00  0.00    -0.203 F 
ATOM     69  C   UNL A   1      48.607  27.363  23.578  1.00  0.00     0.198 A 
ATOM     70  C   UNL A   1      49.806  27.115  25.642  1.00  0.00     0.198 A 
ATOM     71  F   UNL A   1      48.725  27.521  27.691  1.00  0.00    -0.203 F 
ATOM     72  F   UNL A   1      48.563  27.265  22.242  1.00  0.00    -0.200 F 
ATOM     73  C   UNL A   1      49.774  27.047  24.257  1.00  0.00     0.200 A 
ATOM     74  F   UNL A   1      50.935  26.817  26.299  1.00  0.00    -0.200 F 
ATOM     75  F   UNL A   1      50.865  26.669  23.577  1.00  0.00    -0.200 F 
ENDBRANCH  51  65
BRANCH  52  76
ATOM     76  C   UNL A   1      39.150  30.267  30.801  1.00  0.00     0.064 A 
ATOM     77  C   UNL A   1      38.014  30.824  30.197  1.00  0.00     0.173 A 
ATOM     78  C   UNL A   1      39.123  30.096  32.195  1.00  0.00     0.173 A 
ATOM     79  F   UNL A   1      37.993  31.030  28.872  1.00  0.00    -0.203 F 
ATOM     80  C   UNL A   1      36.916  31.230  30.956  1.00  0.00     0.198 A 
ATOM     81  C   UNL A   1      38.010  30.467  32.948  1.00  0.00     0.198 A 
ATOM     82  F   UNL A   1      40.180  29.568  32.828  1.00  0.00    -0.203 F 
ATOM     83  F   UNL A   1      35.874  31.823  30.358  1.00  0.00    -0.200 F 
ATOM     84  C   UNL A   1      36.914  31.047  32.330  1.00  0.00     0.200 A 
ATOM     85  F   UNL A   1      38.007  30.275  34.274  1.00  0.00    -0.200 F 
ATOM     86  F   UNL A   1      35.861  31.442  33.059  1.00  0.00    -0.200 F 
ENDBRANCH  52  76
BRANCH  64  87
ATOM     87  C   UNL A   1      44.834  33.778  28.820  1.00  0.00     0.064 A 
ATOM     88  C   UNL A   1      45.571  34.196  29.938  1.00  0.00     0.173 A 
ATOM     89  C   UNL A   1      44.483  34.744  27.864  1.00  0.00     0.173 A 
ATOM     90  F   UNL A   1      45.920  33.313  30.886  1.00  0.00    -0.203 F 
ATOM     91  C   UNL A   1      45.896  35.537  30.118  1.00  0.00     0.198 A 
ATOM     92  C   UNL A   1      44.849  36.076  28.026  1.00  0.00     0.198 A 
ATOM     93  F   UNL A   1      43.792  34.394  26.768  1.00  0.00    -0.203 F 
ATOM     94  F   UNL A   1      46.532  35.925  31.232  1.00  0.00    -0.200 F 
ATOM     95  C   UNL A   1      45.539  36.474  29.160  1.00  0.00     0.200 A 
ATOM     96  F   UNL A   1      44.522  36.977  27.090  1.00  0.00    -0.200 F 
ATOM     97  F   UNL A   1      45.852  37.766  29.336  1.00  0.00    -0.200 F 
ENDBRANCH  64  87
ENDBRANCH  38  39
ENDBRANCH  31  33
ENDBRANCH  30  31
ENDBRANCH  29  30
ENDBRANCH   1  29
TORSDOF 16
ENDMDL
