MODEL 1
REMARK VINA RESULT:     -11.6      0.000      0.000
REMARK SMILES CC(C)[C@H](NC(=O)[C@H](C)NC(=O)CNC(=O)OCc1ccccc1)C(=O)OCCOC(=O)c1ccc(-c2c3nc(c(-c4c(F)c(F)c(F)c(F)c4F)c4ccc([nH]4)c(-c4c(F)c(F)c(F)c(F)c4F)c4nc(c(-c5c(F)c(F)c(F)c(F)c5F)c5ccc2[nH]5)C=C4)C=C3)cc1
REMARK SMILES IDX 4 1 2 2 1 3 3 4 25 5 26 6 27 7 28 8 29 9 30 10 31 11 32 12
REMARK SMILES IDX 33 13 34 14 95 15 35 16 94 17 36 18 37 19 38 20 88 21 39 22
REMARK SMILES IDX 93 23 87 24 89 25 40 26 92 27 86 28 85 29 41 31 73 32 53 33
REMARK SMILES IDX 72 34 54 35 57 36 71 37 90 38 55 39 56 40 70 42 91 43 58 44
REMARK SMILES IDX 42 45 43 46 51 47 44 48 45 49 49 50 52 51 46 52 47 53 50 54
REMARK SMILES IDX 48 55 74 56 75 57 83 58 76 59 77 60 81 61 84 62 78 63 79 64
REMARK SMILES IDX 82 65 80 66 59 67 60 68 68 69 61 70 62 71 66 72 69 73 63 74
REMARK SMILES IDX 64 75 67 76 65 77 5 78 6 79 7 81 8 82 9 83 10 84 11 85 12 87
REMARK SMILES IDX 13 88 14 89 15 90 16 92 17 93 18 94 19 95 20 96 24 97 21 98
REMARK SMILES IDX 23 99 22 100
REMARK H PARENT 89 30 57 41 5 80 10 86 14 91
REMARK Flexibility Score: inf
ROOT
ATOM      1  C   UNL A   1      33.268  21.631  24.884  1.00  0.00     0.194 C 
ENDROOT
BRANCH   1   2
ATOM      2  C   UNL A   1      33.207  21.944  23.366  1.00  0.00     0.017 C 
ATOM      3  C   UNL A   1      31.912  21.570  22.631  1.00  0.00     0.010 C 
ATOM      4  C   UNL A   1      33.493  23.424  23.076  1.00  0.00     0.010 C 
ENDBRANCH   1   2
BRANCH   1   5
ATOM      5  C   UNL A   1      34.503  22.223  25.625  1.00  0.00     0.329 C 
ATOM      6  O   UNL A   1      34.405  23.005  26.566  1.00  0.00    -0.250 OA
BRANCH   5   7
ATOM      7  O   UNL A   1      35.691  21.935  25.027  1.00  0.00    -0.461 OA
BRANCH   7   8
ATOM      8  C   UNL A   1      36.079  20.539  25.052  1.00  0.00     0.274 C 
BRANCH   8   9
ATOM      9  C   UNL A   1      37.600  20.360  25.085  1.00  0.00     0.275 C 
BRANCH   9  10
ATOM     10  O   UNL A   1      38.257  21.519  25.620  1.00  0.00    -0.458 OA
BRANCH  10  11
ATOM     11  C   UNL A   1      39.392  21.246  26.296  1.00  0.00     0.338 C 
ATOM     12  O   UNL A   1      40.003  20.191  26.343  1.00  0.00    -0.246 OA
BRANCH  11  13
ATOM     13  C   UNL A   1      39.945  22.485  26.846  1.00  0.00     0.060 A 
ATOM     14  C   UNL A   1      39.487  23.674  26.288  1.00  0.00     0.016 A 
ATOM     15  C   UNL A   1      40.973  22.490  27.781  1.00  0.00     0.016 A 
ATOM     16  C   UNL A   1      40.127  24.865  26.543  1.00  0.00     0.010 A 
ATOM     17  C   UNL A   1      41.558  23.711  28.123  1.00  0.00     0.010 A 
ATOM     18  C   UNL A   1      41.159  24.897  27.477  1.00  0.00    -0.014 A 
BRANCH  18  19
ATOM     19  C   UNL A   1      41.822  26.190  27.727  1.00  0.00     0.031 A 
ATOM     20  C   UNL A   1      41.127  27.223  28.557  1.00  0.00     0.074 A 
ATOM     21  C   UNL A   1      43.073  26.378  27.269  1.00  0.00     0.049 A 
ATOM     22  N   UNL A   1      41.494  28.448  28.825  1.00  0.00    -0.248 NA
ATOM     23  C   UNL A   1      39.844  26.831  29.162  1.00  0.00     0.031 C 
ATOM     24  C   UNL A   1      43.856  25.392  26.517  1.00  0.00     0.029 A 
ATOM     25  N   UNL A   1      43.915  27.451  27.383  1.00  0.00    -0.354 N 
ATOM     26  C   UNL A   1      40.469  28.987  29.589  1.00  0.00     0.074 A 
ATOM     27  C   UNL A   1      39.458  27.962  29.734  1.00  0.00     0.031 C 
ATOM     28  C   UNL A   1      45.071  25.896  26.260  1.00  0.00     0.029 A 
ATOM     29  C   UNL A   1      45.121  27.266  26.754  1.00  0.00     0.049 A 
ATOM     30  H   UNL A   1      43.679  28.275  27.868  1.00  0.00     0.167 HD
ATOM     31  C   UNL A   1      40.390  30.231  30.115  1.00  0.00     0.037 A 
ATOM     32  C   UNL A   1      46.135  28.127  26.561  1.00  0.00     0.037 A 
ATOM     33  C   UNL A   1      41.429  31.218  29.977  1.00  0.00     0.049 A 
ATOM     34  C   UNL A   1      45.996  29.517  27.110  1.00  0.00     0.074 A 
ATOM     35  C   UNL A   1      41.466  32.509  30.468  1.00  0.00     0.029 A 
ATOM     36  N   UNL A   1      42.621  31.013  29.293  1.00  0.00    -0.354 N 
ATOM     37  N   UNL A   1      45.009  30.037  27.802  1.00  0.00    -0.248 NA
ATOM     38  C   UNL A   1      47.102  30.444  26.845  1.00  0.00     0.031 C 
ATOM     39  C   UNL A   1      42.659  33.103  30.039  1.00  0.00     0.029 A 
ATOM     40  C   UNL A   1      43.391  32.164  29.330  1.00  0.00     0.049 A 
ATOM     41  H   UNL A   1      42.880  30.174  28.848  1.00  0.00     0.167 HD
ATOM     42  C   UNL A   1      45.379  31.345  28.070  1.00  0.00     0.074 A 
ATOM     43  C   UNL A   1      46.694  31.531  27.485  1.00  0.00     0.031 C 
ATOM     44  C   UNL A   1      44.697  32.311  28.734  1.00  0.00     0.037 A 
BRANCH  31  45
ATOM     45  C   UNL A   1      39.128  30.600  30.838  1.00  0.00     0.064 A 
ATOM     46  C   UNL A   1      38.013  31.132  30.172  1.00  0.00     0.173 A 
ATOM     47  C   UNL A   1      39.033  30.414  32.226  1.00  0.00     0.173 A 
ATOM     48  F   UNL A   1      38.058  31.352  28.850  1.00  0.00    -0.203 F 
ATOM     49  C   UNL A   1      36.861  31.487  30.872  1.00  0.00     0.198 A 
ATOM     50  C   UNL A   1      37.869  30.740  32.918  1.00  0.00     0.198 A 
ATOM     51  F   UNL A   1      40.070  29.913  32.914  1.00  0.00    -0.203 F 
ATOM     52  F   UNL A   1      35.829  32.044  30.223  1.00  0.00    -0.200 F 
ATOM     53  C   UNL A   1      36.788  31.285  32.242  1.00  0.00     0.200 A 
ATOM     54  F   UNL A   1      37.798  30.537  34.240  1.00  0.00    -0.200 F 
ATOM     55  F   UNL A   1      35.679  31.624  32.913  1.00  0.00    -0.200 F 
ENDBRANCH  31  45
BRANCH  32  56
ATOM     56  C   UNL A   1      47.332  27.704  25.789  1.00  0.00     0.064 A 
ATOM     57  C   UNL A   1      48.477  27.222  26.435  1.00  0.00     0.173 A 
ATOM     58  C   UNL A   1      47.349  27.757  24.386  1.00  0.00     0.173 A 
ATOM     59  F   UNL A   1      48.517  27.167  27.774  1.00  0.00    -0.203 F 
ATOM     60  C   UNL A   1      49.598  26.822  25.711  1.00  0.00     0.198 A 
ATOM     61  C   UNL A   1      48.458  27.327  23.661  1.00  0.00     0.198 A 
ATOM     62  F   UNL A   1      46.277  28.204  23.716  1.00  0.00    -0.203 F 
ATOM     63  F   UNL A   1      50.696  26.404  26.355  1.00  0.00    -0.200 F 
ATOM     64  C   UNL A   1      49.585  26.867  24.323  1.00  0.00     0.200 A 
ATOM     65  F   UNL A   1      48.431  27.353  22.322  1.00  0.00    -0.200 F 
ATOM     66  F   UNL A   1      50.660  26.473  23.627  1.00  0.00    -0.200 F 
ENDBRANCH  32  56
BRANCH  44  67
ATOM     67  C   UNL A   1      45.380  33.638  28.881  1.00  0.00     0.064 A 
ATOM     68  C   UNL A   1      46.242  33.906  29.954  1.00  0.00     0.173 A 
ATOM     69  C   UNL A   1      45.187  34.644  27.922  1.00  0.00     0.173 A 
ATOM     70  F   UNL A   1      46.443  32.981  30.906  1.00  0.00    -0.203 F 
ATOM     71  C   UNL A   1      46.862  35.145  30.078  1.00  0.00     0.198 A 
ATOM     72  C   UNL A   1      45.836  35.869  28.031  1.00  0.00     0.198 A 
ATOM     73  F   UNL A   1      44.378  34.432  26.873  1.00  0.00    -0.203 F 
ATOM     74  F   UNL A   1      47.637  35.400  31.142  1.00  0.00    -0.200 F 
ATOM     75  C   UNL A   1      46.666  36.122  29.113  1.00  0.00     0.200 A 
ATOM     76  F   UNL A   1      45.656  36.805  27.090  1.00  0.00    -0.200 F 
ATOM     77  F   UNL A   1      47.268  37.313  29.231  1.00  0.00    -0.200 F 
ENDBRANCH  44  67
ENDBRANCH  18  19
ENDBRANCH  11  13
ENDBRANCH  10  11
ENDBRANCH   9  10
ENDBRANCH   8   9
ENDBRANCH   7   8
ENDBRANCH   5   7
ENDBRANCH   1   5
BRANCH   1  78
ATOM     78  N   UNL A   1      31.978  21.656  25.591  1.00  0.00    -0.341 N 
ATOM     79  C   UNL A   1      30.993  22.565  25.795  1.00  0.00     0.242 C 
ATOM     80  H   UNL A   1      31.779  20.795  26.025  1.00  0.00     0.164 HD
ATOM     81  O   UNL A   1      29.955  22.141  26.314  1.00  0.00    -0.273 OA
BRANCH  79  82
ATOM     82  C   UNL A   1      31.168  24.051  25.440  1.00  0.00     0.168 C 
ATOM     83  C   UNL A   1      31.695  24.805  26.663  1.00  0.00     0.041 C 
BRANCH  82  84
ATOM     84  N   UNL A   1      29.958  24.730  24.986  1.00  0.00    -0.343 N 
ATOM     85  C   UNL A   1      29.855  25.779  24.110  1.00  0.00     0.240 C 
ATOM     86  H   UNL A   1      29.110  24.390  25.354  1.00  0.00     0.164 HD
ATOM     87  O   UNL A   1      28.744  26.269  23.902  1.00  0.00    -0.273 OA
BRANCH  85  88
ATOM     88  C   UNL A   1      31.098  26.269  23.350  1.00  0.00     0.219 C 
BRANCH  88  89
ATOM     89  N   UNL A   1      31.806  27.253  24.142  1.00  0.00    -0.312 N 
ATOM     90  C   UNL A   1      31.846  28.595  23.946  1.00  0.00     0.407 C 
ATOM     91  H   UNL A   1      32.314  26.909  24.912  1.00  0.00     0.167 HD
ATOM     92  O   UNL A   1      32.637  29.296  24.575  1.00  0.00    -0.225 OA
BRANCH  90  93
ATOM     93  O   UNL A   1      30.972  29.044  23.016  1.00  0.00    -0.445 OA
BRANCH  93  94
ATOM     94  C   UNL A   1      29.658  29.371  23.501  1.00  0.00     0.270 C 
BRANCH  94  95
ATOM     95  C   UNL A   1      29.090  30.551  22.750  1.00  0.00    -0.011 A 
ATOM     96  C   UNL A   1      28.554  30.379  21.466  1.00  0.00     0.007 A 
ATOM     97  C   UNL A   1      29.037  31.829  23.325  1.00  0.00     0.007 A 
ATOM     98  C   UNL A   1      28.028  31.456  20.756  1.00  0.00     0.000 A 
ATOM     99  C   UNL A   1      28.518  32.912  22.611  1.00  0.00     0.000 A 
ATOM    100  C   UNL A   1      28.019  32.725  21.324  1.00  0.00     0.000 A 
ENDBRANCH  94  95
ENDBRANCH  93  94
ENDBRANCH  90  93
ENDBRANCH  88  89
ENDBRANCH  85  88
ENDBRANCH  82  84
ENDBRANCH  79  82
ENDBRANCH   1  78
TORSDOF 20
ENDMDL
MODEL 2
REMARK VINA RESULT:     -11.5      1.536      2.551
REMARK SMILES CC(C)[C@H](NC(=O)[C@H](C)NC(=O)CNC(=O)OCc1ccccc1)C(=O)OCCOC(=O)c1ccc(-c2c3nc(c(-c4c(F)c(F)c(F)c(F)c4F)c4ccc([nH]4)c(-c4c(F)c(F)c(F)c(F)c4F)c4nc(c(-c5c(F)c(F)c(F)c(F)c5F)c5ccc2[nH]5)C=C4)C=C3)cc1
REMARK SMILES IDX 4 1 2 2 1 3 3 4 25 5 26 6 27 7 28 8 29 9 30 10 31 11 32 12
REMARK SMILES IDX 33 13 34 14 95 15 35 16 94 17 36 18 37 19 38 20 88 21 39 22
REMARK SMILES IDX 93 23 87 24 89 25 40 26 92 27 86 28 85 29 41 31 73 32 53 33
REMARK SMILES IDX 72 34 54 35 57 36 71 37 90 38 55 39 56 40 70 42 91 43 58 44
REMARK SMILES IDX 42 45 43 46 51 47 44 48 45 49 49 50 52 51 46 52 47 53 50 54
REMARK SMILES IDX 48 55 74 56 75 57 83 58 76 59 77 60 81 61 84 62 78 63 79 64
REMARK SMILES IDX 82 65 80 66 59 67 60 68 68 69 61 70 62 71 66 72 69 73 63 74
REMARK SMILES IDX 64 75 67 76 65 77 5 78 6 79 7 81 8 82 9 83 10 84 11 85 12 87
REMARK SMILES IDX 13 88 14 89 15 90 16 92 17 93 18 94 19 95 20 96 24 97 21 98
REMARK SMILES IDX 23 99 22 100
REMARK H PARENT 89 30 57 41 5 80 10 86 14 91
REMARK Flexibility Score: inf
ROOT
ATOM      1  C   UNL A   1      34.643  21.713  24.507  1.00  0.00     0.194 C 
ENDROOT
BRANCH   1   2
ATOM      2  C   UNL A   1      33.873  20.383  24.715  1.00  0.00     0.017 C 
ATOM      3  C   UNL A   1      33.289  20.128  26.112  1.00  0.00     0.010 C 
ATOM      4  C   UNL A   1      32.735  20.218  23.699  1.00  0.00     0.010 C 
ENDBRANCH   1   2
BRANCH   1   5
ATOM      5  C   UNL A   1      36.194  21.589  24.566  1.00  0.00     0.329 C 
ATOM      6  O   UNL A   1      36.943  22.224  23.830  1.00  0.00    -0.250 OA
BRANCH   5   7
ATOM      7  O   UNL A   1      36.633  20.588  25.378  1.00  0.00    -0.461 OA
BRANCH   7   8
ATOM      8  C   UNL A   1      37.465  19.588  24.740  1.00  0.00     0.274 C 
BRANCH   8   9
ATOM      9  C   UNL A   1      38.869  19.527  25.348  1.00  0.00     0.275 C 
BRANCH   9  10
ATOM     10  O   UNL A   1      39.190  20.735  26.057  1.00  0.00    -0.458 OA
BRANCH  10  11
ATOM     11  C   UNL A   1      40.324  20.662  26.783  1.00  0.00     0.338 C 
ATOM     12  O   UNL A   1      41.046  19.693  26.955  1.00  0.00    -0.246 OA
BRANCH  11  13
ATOM     13  C   UNL A   1      40.718  22.005  27.214  1.00  0.00     0.060 A 
ATOM     14  C   UNL A   1      40.316  23.062  26.404  1.00  0.00     0.016 A 
ATOM     15  C   UNL A   1      41.563  22.221  28.295  1.00  0.00     0.016 A 
ATOM     16  C   UNL A   1      40.849  24.319  26.569  1.00  0.00     0.010 A 
ATOM     17  C   UNL A   1      42.026  23.519  28.531  1.00  0.00     0.010 A 
ATOM     18  C   UNL A   1      41.697  24.563  27.646  1.00  0.00    -0.014 A 
BRANCH  18  19
ATOM     19  C   UNL A   1      42.250  25.922  27.794  1.00  0.00     0.031 A 
ATOM     20  C   UNL A   1      41.493  26.940  28.587  1.00  0.00     0.074 A 
ATOM     21  C   UNL A   1      43.464  26.190  27.279  1.00  0.00     0.049 A 
ATOM     22  N   UNL A   1      41.758  28.207  28.768  1.00  0.00    -0.248 NA
ATOM     23  C   UNL A   1      40.270  26.476  29.262  1.00  0.00     0.031 C 
ATOM     24  C   UNL A   1      44.306  25.230  26.557  1.00  0.00     0.029 A 
ATOM     25  N   UNL A   1      44.209  27.337  27.296  1.00  0.00    -0.354 N 
ATOM     26  C   UNL A   1      40.714  28.700  29.537  1.00  0.00     0.074 A 
ATOM     27  C   UNL A   1      39.804  27.603  29.781  1.00  0.00     0.031 C 
ATOM     28  C   UNL A   1      45.462  25.822  26.224  1.00  0.00     0.029 A 
ATOM     29  C   UNL A   1      45.406  27.218  26.634  1.00  0.00     0.049 A 
ATOM     30  H   UNL A   1      43.917  28.165  27.741  1.00  0.00     0.167 HD
ATOM     31  C   UNL A   1      40.541  29.963  29.992  1.00  0.00     0.037 A 
ATOM     32  C   UNL A   1      46.332  28.151  26.352  1.00  0.00     0.037 A 
ATOM     33  C   UNL A   1      41.483  31.027  29.756  1.00  0.00     0.049 A 
ATOM     34  C   UNL A   1      46.087  29.556  26.823  1.00  0.00     0.074 A 
ATOM     35  C   UNL A   1      41.420  32.344  30.168  1.00  0.00     0.029 A 
ATOM     36  N   UNL A   1      42.666  30.885  29.041  1.00  0.00    -0.354 N 
ATOM     37  N   UNL A   1      45.081  30.029  27.520  1.00  0.00    -0.248 NA
ATOM     38  C   UNL A   1      47.097  30.557  26.462  1.00  0.00     0.031 C 
ATOM     39  C   UNL A   1      42.541  33.012  29.660  1.00  0.00     0.029 A 
ATOM     40  C   UNL A   1      43.331  32.098  28.980  1.00  0.00     0.049 A 
ATOM     41  H   UNL A   1      42.984  30.045  28.637  1.00  0.00     0.167 HD
ATOM     42  C   UNL A   1      45.342  31.379  27.696  1.00  0.00     0.074 A 
ATOM     43  C   UNL A   1      46.615  31.642  27.051  1.00  0.00     0.031 C 
ATOM     44  C   UNL A   1      44.598  32.321  28.327  1.00  0.00     0.037 A 
BRANCH  31  45
ATOM     45  C   UNL A   1      39.276  30.265  30.739  1.00  0.00     0.064 A 
ATOM     46  C   UNL A   1      38.119  30.729  30.094  1.00  0.00     0.173 A 
ATOM     47  C   UNL A   1      39.220  30.083  32.130  1.00  0.00     0.173 A 
ATOM     48  F   UNL A   1      38.124  30.942  28.770  1.00  0.00    -0.203 F 
ATOM     49  C   UNL A   1      36.963  31.022  30.816  1.00  0.00     0.198 A 
ATOM     50  C   UNL A   1      38.054  30.348  32.844  1.00  0.00     0.198 A 
ATOM     51  F   UNL A   1      40.298  29.646  32.799  1.00  0.00    -0.203 F 
ATOM     52  F   UNL A   1      35.888  31.516  30.186  1.00  0.00    -0.200 F 
ATOM     53  C   UNL A   1      36.930  30.826  32.188  1.00  0.00     0.200 A 
ATOM     54  F   UNL A   1      38.022  30.149  34.169  1.00  0.00    -0.200 F 
ATOM     55  F   UNL A   1      35.818  31.106  32.881  1.00  0.00    -0.200 F 
ENDBRANCH  31  45
BRANCH  32  56
ATOM     56  C   UNL A   1      47.536  27.787  25.561  1.00  0.00     0.064 A 
ATOM     57  C   UNL A   1      48.725  27.396  26.191  1.00  0.00     0.173 A 
ATOM     58  C   UNL A   1      47.518  27.805  24.157  1.00  0.00     0.173 A 
ATOM     59  F   UNL A   1      48.799  27.378  27.530  1.00  0.00    -0.203 F 
ATOM     60  C   UNL A   1      49.853  27.052  25.449  1.00  0.00     0.198 A 
ATOM     61  C   UNL A   1      48.636  27.429  23.416  1.00  0.00     0.198 A 
ATOM     62  F   UNL A   1      46.404  28.165  23.504  1.00  0.00    -0.203 F 
ATOM     63  F   UNL A   1      50.990  26.722  26.076  1.00  0.00    -0.200 F 
ATOM     64  C   UNL A   1      49.805  27.061  24.062  1.00  0.00     0.200 A 
ATOM     65  F   UNL A   1      48.577  27.420  22.078  1.00  0.00    -0.200 F 
ATOM     66  F   UNL A   1      50.887  26.719  23.349  1.00  0.00    -0.200 F 
ENDBRANCH  32  56
BRANCH  44  67
ATOM     67  C   UNL A   1      45.164  33.709  28.370  1.00  0.00     0.064 A 
ATOM     68  C   UNL A   1      44.771  34.692  27.451  1.00  0.00     0.173 A 
ATOM     69  C   UNL A   1      46.093  34.064  29.360  1.00  0.00     0.173 A 
ATOM     70  F   UNL A   1      43.899  34.394  26.475  1.00  0.00    -0.203 F 
ATOM     71  C   UNL A   1      45.312  35.972  27.502  1.00  0.00     0.198 A 
ATOM     72  C   UNL A   1      46.605  35.355  29.429  1.00  0.00     0.198 A 
ATOM     73  F   UNL A   1      46.494  33.160  30.266  1.00  0.00    -0.203 F 
ATOM     74  F   UNL A   1      44.966  36.881  26.579  1.00  0.00    -0.200 F 
ATOM     75  C   UNL A   1      46.222  36.305  28.495  1.00  0.00     0.200 A 
ATOM     76  F   UNL A   1      47.473  35.677  30.397  1.00  0.00    -0.200 F 
ATOM     77  F   UNL A   1      46.738  37.541  28.545  1.00  0.00    -0.200 F 
ENDBRANCH  44  67
ENDBRANCH  18  19
ENDBRANCH  11  13
ENDBRANCH  10  11
ENDBRANCH   9  10
ENDBRANCH   8   9
ENDBRANCH   7   8
ENDBRANCH   5   7
ENDBRANCH   1   5
BRANCH   1  78
ATOM     78  N   UNL A   1      34.074  22.627  23.503  1.00  0.00    -0.341 N 
ATOM     79  C   UNL A   1      33.531  23.869  23.510  1.00  0.00     0.242 C 
ATOM     80  H   UNL A   1      34.093  22.239  22.598  1.00  0.00     0.164 HD
ATOM     81  O   UNL A   1      33.320  24.380  22.406  1.00  0.00    -0.273 OA
BRANCH  79  82
ATOM     82  C   UNL A   1      33.157  24.588  24.817  1.00  0.00     0.168 C 
ATOM     83  C   UNL A   1      34.433  24.949  25.580  1.00  0.00     0.041 C 
BRANCH  82  84
ATOM     84  N   UNL A   1      32.298  23.829  25.721  1.00  0.00    -0.343 N 
ATOM     85  C   UNL A   1      31.261  24.292  26.490  1.00  0.00     0.240 C 
ATOM     86  H   UNL A   1      32.486  22.865  25.786  1.00  0.00     0.164 HD
ATOM     87  O   UNL A   1      30.693  23.507  27.251  1.00  0.00    -0.273 OA
BRANCH  85  88
ATOM     88  C   UNL A   1      30.777  25.742  26.333  1.00  0.00     0.219 C 
BRANCH  88  89
ATOM     89  N   UNL A   1      29.628  25.787  25.454  1.00  0.00    -0.312 N 
ATOM     90  C   UNL A   1      29.538  26.393  24.244  1.00  0.00     0.407 C 
ATOM     91  H   UNL A   1      28.819  25.324  25.771  1.00  0.00     0.167 HD
ATOM     92  O   UNL A   1      28.449  26.520  23.687  1.00  0.00    -0.225 OA
BRANCH  90  93
ATOM     93  O   UNL A   1      30.722  26.831  23.756  1.00  0.00    -0.445 OA
BRANCH  93  94
ATOM     94  C   UNL A   1      30.868  28.260  23.662  1.00  0.00     0.270 C 
BRANCH  94  95
ATOM     95  C   UNL A   1      31.836  28.767  24.703  1.00  0.00    -0.011 A 
ATOM     96  C   UNL A   1      31.409  29.679  25.678  1.00  0.00     0.007 A 
ATOM     97  C   UNL A   1      33.160  28.310  24.757  1.00  0.00     0.007 A 
ATOM     98  C   UNL A   1      32.288  30.161  26.646  1.00  0.00     0.000 A 
ATOM     99  C   UNL A   1      34.045  28.799  25.721  1.00  0.00     0.000 A 
ATOM    100  C   UNL A   1      33.609  29.728  26.662  1.00  0.00     0.000 A 
ENDBRANCH  94  95
ENDBRANCH  93  94
ENDBRANCH  90  93
ENDBRANCH  88  89
ENDBRANCH  85  88
ENDBRANCH  82  84
ENDBRANCH  79  82
ENDBRANCH   1  78
TORSDOF 20
ENDMDL
MODEL 3
REMARK VINA RESULT:     -11.4      1.118      7.406
REMARK SMILES CC(C)[C@H](NC(=O)[C@H](C)NC(=O)CNC(=O)OCc1ccccc1)C(=O)OCCOC(=O)c1ccc(-c2c3nc(c(-c4c(F)c(F)c(F)c(F)c4F)c4ccc([nH]4)c(-c4c(F)c(F)c(F)c(F)c4F)c4nc(c(-c5c(F)c(F)c(F)c(F)c5F)c5ccc2[nH]5)C=C4)C=C3)cc1
REMARK SMILES IDX 4 1 2 2 1 3 3 4 25 5 26 6 27 7 28 8 29 9 30 10 31 11 32 12
REMARK SMILES IDX 33 13 34 14 95 15 35 16 94 17 36 18 37 19 38 20 88 21 39 22
REMARK SMILES IDX 93 23 87 24 89 25 40 26 92 27 86 28 85 29 41 31 73 32 53 33
REMARK SMILES IDX 72 34 54 35 57 36 71 37 90 38 55 39 56 40 70 42 91 43 58 44
REMARK SMILES IDX 42 45 43 46 51 47 44 48 45 49 49 50 52 51 46 52 47 53 50 54
REMARK SMILES IDX 48 55 74 56 75 57 83 58 76 59 77 60 81 61 84 62 78 63 79 64
REMARK SMILES IDX 82 65 80 66 59 67 60 68 68 69 61 70 62 71 66 72 69 73 63 74
REMARK SMILES IDX 64 75 67 76 65 77 5 78 6 79 7 81 8 82 9 83 10 84 11 85 12 87
REMARK SMILES IDX 13 88 14 89 15 90 16 92 17 93 18 94 19 95 20 96 24 97 21 98
REMARK SMILES IDX 23 99 22 100
REMARK H PARENT 89 30 57 41 5 80 10 86 14 91
REMARK Flexibility Score: inf
ROOT
ATOM      1  C   UNL A   1      34.952  21.949  24.927  1.00  0.00     0.194 C 
ENDROOT
BRANCH   1   2
ATOM      2  C   UNL A   1      34.213  20.973  25.878  1.00  0.00     0.017 C 
ATOM      3  C   UNL A   1      33.806  21.517  27.256  1.00  0.00     0.010 C 
ATOM      4  C   UNL A   1      32.957  20.380  25.225  1.00  0.00     0.010 C 
ENDBRANCH   1   2
BRANCH   1   5
ATOM      5  C   UNL A   1      36.474  21.673  24.758  1.00  0.00     0.329 C 
ATOM      6  O   UNL A   1      37.165  22.236  23.914  1.00  0.00    -0.250 OA
BRANCH   5   7
ATOM      7  O   UNL A   1      36.929  20.630  25.505  1.00  0.00    -0.461 OA
BRANCH   7   8
ATOM      8  C   UNL A   1      37.816  19.713  24.820  1.00  0.00     0.274 C 
BRANCH   8   9
ATOM      9  C   UNL A   1      39.205  19.660  25.463  1.00  0.00     0.275 C 
BRANCH   9  10
ATOM     10  O   UNL A   1      39.359  20.669  26.473  1.00  0.00    -0.458 OA
BRANCH  10  11
ATOM     11  C   UNL A   1      40.567  20.671  27.071  1.00  0.00     0.338 C 
ATOM     12  O   UNL A   1      41.371  19.756  27.143  1.00  0.00    -0.246 OA
BRANCH  11  13
ATOM     13  C   UNL A   1      40.907  22.034  27.485  1.00  0.00     0.060 A 
ATOM     14  C   UNL A   1      40.348  23.069  26.743  1.00  0.00     0.016 A 
ATOM     15  C   UNL A   1      41.845  22.298  28.476  1.00  0.00     0.016 A 
ATOM     16  C   UNL A   1      40.804  24.360  26.876  1.00  0.00     0.010 A 
ATOM     17  C   UNL A   1      42.237  23.622  28.688  1.00  0.00     0.010 A 
ATOM     18  C   UNL A   1      41.742  24.651  27.864  1.00  0.00    -0.014 A 
BRANCH  18  19
ATOM     19  C   UNL A   1      42.209  26.044  27.980  1.00  0.00     0.031 A 
ATOM     20  C   UNL A   1      43.497  26.444  27.333  1.00  0.00     0.074 A 
ATOM     21  C   UNL A   1      41.421  26.944  28.597  1.00  0.00     0.049 A 
ATOM     22  N   UNL A   1      44.125  27.589  27.385  1.00  0.00    -0.248 NA
ATOM     23  C   UNL A   1      44.177  25.419  26.525  1.00  0.00     0.031 C 
ATOM     24  C   UNL A   1      40.110  26.656  29.188  1.00  0.00     0.029 A 
ATOM     25  N   UNL A   1      41.594  28.284  28.814  1.00  0.00    -0.354 N 
ATOM     26  C   UNL A   1      45.293  27.408  26.657  1.00  0.00     0.074 A 
ATOM     27  C   UNL A   1      45.295  26.042  26.182  1.00  0.00     0.031 C 
ATOM     28  C   UNL A   1      39.588  27.789  29.677  1.00  0.00     0.029 A 
ATOM     29  C   UNL A   1      40.560  28.861  29.510  1.00  0.00     0.049 A 
ATOM     30  H   UNL A   1      42.382  28.786  28.503  1.00  0.00     0.167 HD
ATOM     31  C   UNL A   1      46.270  28.312  26.416  1.00  0.00     0.037 A 
ATOM     32  C   UNL A   1      40.436  30.108  29.995  1.00  0.00     0.037 A 
ATOM     33  C   UNL A   1      46.223  29.675  26.880  1.00  0.00     0.049 A 
ATOM     34  C   UNL A   1      41.561  31.074  29.758  1.00  0.00     0.074 A 
ATOM     35  C   UNL A   1      47.149  30.684  26.696  1.00  0.00     0.029 A 
ATOM     36  N   UNL A   1      45.180  30.216  27.622  1.00  0.00    -0.354 N 
ATOM     37  N   UNL A   1      42.682  30.891  29.100  1.00  0.00    -0.248 NA
ATOM     38  C   UNL A   1      41.413  32.413  30.338  1.00  0.00     0.031 C 
ATOM     39  C   UNL A   1      46.690  31.822  27.369  1.00  0.00     0.029 A 
ATOM     40  C   UNL A   1      45.451  31.540  27.924  1.00  0.00     0.049 A 
ATOM     41  H   UNL A   1      44.368  29.730  27.893  1.00  0.00     0.167 HD
ATOM     42  C   UNL A   1      43.367  32.094  29.171  1.00  0.00     0.074 A 
ATOM     43  C   UNL A   1      42.521  33.006  29.917  1.00  0.00     0.031 C 
ATOM     44  C   UNL A   1      44.585  32.418  28.671  1.00  0.00     0.037 A 
BRANCH  31  45
ATOM     45  C   UNL A   1      47.481  27.842  25.666  1.00  0.00     0.064 A 
ATOM     46  C   UNL A   1      48.658  27.445  26.318  1.00  0.00     0.173 A 
ATOM     47  C   UNL A   1      47.461  27.784  24.263  1.00  0.00     0.173 A 
ATOM     48  F   UNL A   1      48.740  27.501  27.656  1.00  0.00    -0.203 F 
ATOM     49  C   UNL A   1      49.776  27.033  25.595  1.00  0.00     0.198 A 
ATOM     50  C   UNL A   1      48.569  27.343  23.545  1.00  0.00     0.198 A 
ATOM     51  F   UNL A   1      46.363  28.156  23.587  1.00  0.00    -0.203 F 
ATOM     52  F   UNL A   1      50.907  26.710  26.238  1.00  0.00    -0.200 F 
ATOM     53  C   UNL A   1      49.728  26.976  24.210  1.00  0.00     0.200 A 
ATOM     54  F   UNL A   1      48.517  27.281  22.207  1.00  0.00    -0.200 F 
ATOM     55  F   UNL A   1      50.803  26.577  23.516  1.00  0.00    -0.200 F 
ENDBRANCH  31  45
BRANCH  32  56
ATOM     56  C   UNL A   1      39.229  30.485  30.775  1.00  0.00     0.064 A 
ATOM     57  C   UNL A   1      38.124  31.082  30.154  1.00  0.00     0.173 A 
ATOM     58  C   UNL A   1      39.148  30.241  32.155  1.00  0.00     0.173 A 
ATOM     59  F   UNL A   1      38.158  31.351  28.841  1.00  0.00    -0.203 F 
ATOM     60  C   UNL A   1      36.991  31.432  30.885  1.00  0.00     0.198 A 
ATOM     61  C   UNL A   1      38.003  30.562  32.879  1.00  0.00     0.198 A 
ATOM     62  F   UNL A   1      40.175  29.667  32.798  1.00  0.00    -0.203 F 
ATOM     63  F   UNL A   1      35.963  32.040  30.275  1.00  0.00    -0.200 F 
ATOM     64  C   UNL A   1      36.928  31.165  32.246  1.00  0.00     0.200 A 
ATOM     65  F   UNL A   1      37.940  30.283  34.188  1.00  0.00    -0.200 F 
ATOM     66  F   UNL A   1      35.833  31.493  32.946  1.00  0.00    -0.200 F 
ENDBRANCH  32  56
BRANCH  44  67
ATOM     67  C   UNL A   1      45.051  33.825  28.896  1.00  0.00     0.064 A 
ATOM     68  C   UNL A   1      45.881  34.161  29.975  1.00  0.00     0.173 A 
ATOM     69  C   UNL A   1      44.682  34.844  28.004  1.00  0.00     0.173 A 
ATOM     70  F   UNL A   1      46.244  33.225  30.865  1.00  0.00    -0.203 F 
ATOM     71  C   UNL A   1      46.298  35.474  30.172  1.00  0.00     0.198 A 
ATOM     72  C   UNL A   1      45.131  36.148  28.185  1.00  0.00     0.198 A 
ATOM     73  F   UNL A   1      43.896  34.570  26.952  1.00  0.00    -0.203 F 
ATOM     74  F   UNL A   1      47.044  35.784  31.242  1.00  0.00    -0.200 F 
ATOM     75  C   UNL A   1      45.931  36.464  29.273  1.00  0.00     0.200 A 
ATOM     76  F   UNL A   1      44.786  37.100  27.307  1.00  0.00    -0.200 F 
ATOM     77  F   UNL A   1      46.339  37.726  29.460  1.00  0.00    -0.200 F 
ENDBRANCH  44  67
ENDBRANCH  18  19
ENDBRANCH  11  13
ENDBRANCH  10  11
ENDBRANCH   9  10
ENDBRANCH   8   9
ENDBRANCH   7   8
ENDBRANCH   5   7
ENDBRANCH   1   5
BRANCH   1  78
ATOM     78  N   UNL A   1      34.201  22.361  23.730  1.00  0.00    -0.341 N 
ATOM     79  C   UNL A   1      33.506  23.459  23.343  1.00  0.00     0.242 C 
ATOM     80  H   UNL A   1      34.203  21.664  23.035  1.00  0.00     0.164 HD
ATOM     81  O   UNL A   1      33.152  23.495  22.160  1.00  0.00    -0.273 OA
BRANCH  79  82
ATOM     82  C   UNL A   1      33.139  24.582  24.328  1.00  0.00     0.168 C 
ATOM     83  C   UNL A   1      34.418  25.155  24.942  1.00  0.00     0.041 C 
BRANCH  82  84
ATOM     84  N   UNL A   1      32.259  24.185  25.424  1.00  0.00    -0.343 N 
ATOM     85  C   UNL A   1      31.184  24.866  25.934  1.00  0.00     0.240 C 
ATOM     86  H   UNL A   1      32.464  23.320  25.849  1.00  0.00     0.164 HD
ATOM     87  O   UNL A   1      30.602  24.402  26.915  1.00  0.00    -0.273 OA
BRANCH  85  88
ATOM     88  C   UNL A   1      30.678  26.137  25.234  1.00  0.00     0.219 C 
BRANCH  88  89
ATOM     89  N   UNL A   1      29.313  25.948  24.793  1.00  0.00    -0.312 N 
ATOM     90  C   UNL A   1      28.542  26.822  24.099  1.00  0.00     0.407 C 
ATOM     91  H   UNL A   1      28.896  25.086  25.022  1.00  0.00     0.167 HD
ATOM     92  O   UNL A   1      27.339  26.617  23.953  1.00  0.00    -0.225 OA
BRANCH  90  93
ATOM     93  O   UNL A   1      29.215  27.897  23.624  1.00  0.00    -0.445 OA
BRANCH  93  94
ATOM     94  C   UNL A   1      28.712  28.457  22.398  1.00  0.00     0.270 C 
BRANCH  94  95
ATOM     95  C   UNL A   1      28.689  29.964  22.470  1.00  0.00    -0.011 A 
ATOM     96  C   UNL A   1      29.142  30.623  23.621  1.00  0.00     0.007 A 
ATOM     97  C   UNL A   1      28.264  30.743  21.384  1.00  0.00     0.007 A 
ATOM     98  C   UNL A   1      29.126  32.014  23.707  1.00  0.00     0.000 A 
ATOM     99  C   UNL A   1      28.239  32.137  21.471  1.00  0.00     0.000 A 
ATOM    100  C   UNL A   1      28.666  32.771  22.636  1.00  0.00     0.000 A 
ENDBRANCH  94  95
ENDBRANCH  93  94
ENDBRANCH  90  93
ENDBRANCH  88  89
ENDBRANCH  85  88
ENDBRANCH  82  84
ENDBRANCH  79  82
ENDBRANCH   1  78
TORSDOF 20
ENDMDL
