MODEL 1
REMARK VINA RESULT:     -12.4      0.000      0.000
REMARK SMILES O=C(OCCOC(=O)[C@H]1CCCN(C(=O)c2cc(Br)ccc2Cl)C1)c1ccc(-c2c3nc(c(-c4c(F)c(F)c(F)c(F)c4F)c4ccc([nH]4)c(-c4c(F)c(F)c(F)c(F)c4F)c4nc(c(-c5c(F)c(F)c(F)c(F)c5F)c5ccc2[nH]5)C=C4)C=C3)cc1
REMARK SMILES IDX 4 1 3 2 2 3 1 4 25 5 26 6 87 7 27 8 86 9 28 10 29 11 30 12
REMARK SMILES IDX 80 13 31 14 85 15 79 16 81 17 32 18 84 19 78 20 77 21 33 23
REMARK SMILES IDX 65 24 45 25 64 26 46 27 49 28 63 29 82 30 47 31 48 32 62 34
REMARK SMILES IDX 83 35 50 36 34 37 35 38 43 39 36 40 37 41 41 42 44 43 38 44
REMARK SMILES IDX 39 45 42 46 40 47 66 48 67 49 75 50 68 51 69 52 73 53 76 54
REMARK SMILES IDX 70 55 71 56 74 57 72 58 51 59 52 60 60 61 53 62 54 63 58 64
REMARK SMILES IDX 61 65 55 66 56 67 59 68 57 69 5 70 6 71 7 72 8 73 9 74 10 75
REMARK SMILES IDX 24 76 11 77 13 78 12 79 14 80 15 81 16 82 17 83 22 84 18 85
REMARK SMILES IDX 21 86 23 87 19 88 20 89
REMARK H PARENT 81 22 49 33
REMARK Flexibility Score: inf
ROOT
ATOM      1  C   UNL A   1      32.101  33.127  26.731  1.00  0.00     0.275 C 
ENDROOT
BRANCH   1   2
ATOM      2  O   UNL A   1      32.326  33.796  27.986  1.00  0.00    -0.458 OA
BRANCH   2   3
ATOM      3  C   UNL A   1      33.434  34.404  28.471  1.00  0.00     0.338 C 
ATOM      4  O   UNL A   1      33.500  35.632  28.418  1.00  0.00    -0.246 OA
BRANCH   3   5
ATOM      5  C   UNL A   1      34.649  33.677  28.963  1.00  0.00     0.060 A 
ATOM      6  C   UNL A   1      35.975  33.934  28.596  1.00  0.00     0.016 A 
ATOM      7  C   UNL A   1      34.415  32.637  29.881  1.00  0.00     0.016 A 
ATOM      8  C   UNL A   1      37.044  33.262  29.208  1.00  0.00     0.010 A 
ATOM      9  C   UNL A   1      35.475  31.950  30.480  1.00  0.00     0.010 A 
ATOM     10  C   UNL A   1      36.803  32.282  30.169  1.00  0.00    -0.014 A 
BRANCH  10  11
ATOM     11  C   UNL A   1      37.912  31.501  30.762  1.00  0.00     0.031 A 
ATOM     12  C   UNL A   1      38.424  31.941  32.098  1.00  0.00     0.074 A 
ATOM     13  C   UNL A   1      38.469  30.452  30.127  1.00  0.00     0.049 A 
ATOM     14  N   UNL A   1      39.382  31.429  32.821  1.00  0.00    -0.248 NA
ATOM     15  C   UNL A   1      37.734  33.084  32.720  1.00  0.00     0.031 C 
ATOM     16  C   UNL A   1      37.997  29.855  28.881  1.00  0.00     0.029 A 
ATOM     17  N   UNL A   1      39.601  29.730  30.418  1.00  0.00    -0.354 N 
ATOM     18  C   UNL A   1      39.351  32.132  34.014  1.00  0.00     0.074 A 
ATOM     19  C   UNL A   1      38.370  33.183  33.876  1.00  0.00     0.031 C 
ATOM     20  C   UNL A   1      38.909  28.975  28.430  1.00  0.00     0.029 A 
ATOM     21  C   UNL A   1      39.990  28.886  29.402  1.00  0.00     0.049 A 
ATOM     22  H   UNL A   1      40.087  29.809  31.270  1.00  0.00     0.167 HD
ATOM     23  C   UNL A   1      40.036  31.871  35.150  1.00  0.00     0.037 A 
ATOM     24  C   UNL A   1      41.095  28.125  29.282  1.00  0.00     0.037 A 
ATOM     25  C   UNL A   1      41.052  30.862  35.248  1.00  0.00     0.049 A 
ATOM     26  C   UNL A   1      41.997  28.003  30.478  1.00  0.00     0.074 A 
ATOM     27  C   UNL A   1      41.827  30.514  36.337  1.00  0.00     0.029 A 
ATOM     28  N   UNL A   1      41.454  30.057  34.190  1.00  0.00    -0.354 N 
ATOM     29  N   UNL A   1      41.901  28.598  31.643  1.00  0.00    -0.248 NA
ATOM     30  C   UNL A   1      43.113  27.055  30.378  1.00  0.00     0.031 C 
ATOM     31  C   UNL A   1      42.741  29.540  35.920  1.00  0.00     0.029 A 
ATOM     32  C   UNL A   1      42.496  29.238  34.588  1.00  0.00     0.049 A 
ATOM     33  H   UNL A   1      41.057  30.066  33.289  1.00  0.00     0.167 HD
ATOM     34  C   UNL A   1      42.889  28.039  32.441  1.00  0.00     0.074 A 
ATOM     35  C   UNL A   1      43.589  27.075  31.615  1.00  0.00     0.031 C 
ATOM     36  C   UNL A   1      43.168  28.278  33.746  1.00  0.00     0.037 A 
BRANCH  23  37
ATOM     37  C   UNL A   1      39.680  32.699  36.345  1.00  0.00     0.064 A 
ATOM     38  C   UNL A   1      38.592  32.355  37.167  1.00  0.00     0.173 A 
ATOM     39  C   UNL A   1      40.384  33.872  36.644  1.00  0.00     0.173 A 
ATOM     40  F   UNL A   1      37.870  31.255  36.906  1.00  0.00    -0.203 F 
ATOM     41  C   UNL A   1      38.199  33.179  38.217  1.00  0.00     0.198 A 
ATOM     42  C   UNL A   1      40.004  34.679  37.714  1.00  0.00     0.198 A 
ATOM     43  F   UNL A   1      41.423  34.249  35.885  1.00  0.00    -0.203 F 
ATOM     44  F   UNL A   1      37.114  32.867  38.942  1.00  0.00    -0.200 F 
ATOM     45  C   UNL A   1      38.906  34.340  38.491  1.00  0.00     0.200 A 
ATOM     46  F   UNL A   1      40.688  35.801  37.978  1.00  0.00    -0.200 F 
ATOM     47  F   UNL A   1      38.517  35.141  39.492  1.00  0.00    -0.200 F 
ENDBRANCH  23  37
BRANCH  24  48
ATOM     48  C   UNL A   1      41.368  27.370  28.029  1.00  0.00     0.064 A 
ATOM     49  C   UNL A   1      40.896  26.063  27.848  1.00  0.00     0.173 A 
ATOM     50  C   UNL A   1      42.141  27.928  26.999  1.00  0.00     0.173 A 
ATOM     51  F   UNL A   1      40.165  25.480  28.810  1.00  0.00    -0.203 F 
ATOM     52  C   UNL A   1      41.210  25.332  26.704  1.00  0.00     0.198 A 
ATOM     53  C   UNL A   1      42.440  27.202  25.845  1.00  0.00     0.198 A 
ATOM     54  F   UNL A   1      42.613  29.178  27.114  1.00  0.00    -0.203 F 
ATOM     55  F   UNL A   1      40.781  24.068  26.581  1.00  0.00    -0.200 F 
ATOM     56  C   UNL A   1      41.982  25.901  25.703  1.00  0.00     0.200 A 
ATOM     57  F   UNL A   1      43.184  27.758  24.878  1.00  0.00    -0.200 F 
ATOM     58  F   UNL A   1      42.293  25.194  24.608  1.00  0.00    -0.200 F 
ENDBRANCH  24  48
BRANCH  36  59
ATOM     59  C   UNL A   1      44.242  27.447  34.379  1.00  0.00     0.064 A 
ATOM     60  C   UNL A   1      43.972  26.191  34.937  1.00  0.00     0.173 A 
ATOM     61  C   UNL A   1      45.573  27.895  34.371  1.00  0.00     0.173 A 
ATOM     62  F   UNL A   1      42.713  25.730  34.986  1.00  0.00    -0.203 F 
ATOM     63  C   UNL A   1      44.994  25.418  35.480  1.00  0.00     0.198 A 
ATOM     64  C   UNL A   1      46.596  27.103  34.881  1.00  0.00     0.198 A 
ATOM     65  F   UNL A   1      45.882  29.090  33.844  1.00  0.00    -0.203 F 
ATOM     66  F   UNL A   1      44.708  24.240  36.050  1.00  0.00    -0.200 F 
ATOM     67  C   UNL A   1      46.306  25.869  35.441  1.00  0.00     0.200 A 
ATOM     68  F   UNL A   1      47.864  27.533  34.827  1.00  0.00    -0.200 F 
ATOM     69  F   UNL A   1      47.290  25.115  35.948  1.00  0.00    -0.200 F 
ENDBRANCH  36  59
ENDBRANCH  10  11
ENDBRANCH   3   5
ENDBRANCH   2   3
ENDBRANCH   1   2
BRANCH   1  70
ATOM     70  C   UNL A   1      31.424  31.760  26.851  1.00  0.00     0.274 C 
BRANCH  70  71
ATOM     71  O   UNL A   1      32.358  30.731  27.208  1.00  0.00    -0.462 OA
BRANCH  71  72
ATOM     72  C   UNL A   1      32.016  29.442  26.913  1.00  0.00     0.310 C 
ATOM     73  O   UNL A   1      31.463  28.675  27.694  1.00  0.00    -0.252 OA
BRANCH  72  74
ATOM     74  C   UNL A   1      32.328  29.117  25.462  1.00  0.00     0.119 C 
ATOM     75  C   UNL A   1      33.787  28.689  25.278  1.00  0.00     0.019 C 
ATOM     76  C   UNL A   1      31.411  28.017  24.915  1.00  0.00     0.135 C 
ATOM     77  C   UNL A   1      34.068  28.399  23.809  1.00  0.00     0.022 C 
ATOM     78  N   UNL A   1      31.799  27.605  23.552  1.00  0.00    -0.338 N 
ATOM     79  C   UNL A   1      33.203  27.244  23.363  1.00  0.00     0.120 C 
BRANCH  78  80
ATOM     80  C   UNL A   1      30.857  27.620  22.528  1.00  0.00     0.255 C 
ATOM     81  O   UNL A   1      30.960  26.966  21.494  1.00  0.00    -0.269 OA
BRANCH  80  82
ATOM     82  C   UNL A   1      29.635  28.433  22.702  1.00  0.00     0.059 A 
ATOM     83  C   UNL A   1      29.684  29.771  22.286  1.00  0.00     0.031 A 
ATOM     84  C   UNL A   1      28.461  27.910  23.263  1.00  0.00     0.053 A 
ATOM     85  C   UNL A   1      28.545  30.565  22.398  1.00  0.00     0.018 A 
ATOM     86  C   UNL A   1      27.319  28.712  23.345  1.00  0.00     0.022 A 
ATOM     87  Cl  UNL A   1      28.349  26.298  23.874  1.00  0.00    -0.083 Cl
ATOM     88  Br  UNL A   1      28.600  32.374  21.852  1.00  0.00    -0.051 Br
ATOM     89  C   UNL A   1      27.359  30.039  22.912  1.00  0.00     0.017 A 
ENDBRANCH  80  82
ENDBRANCH  78  80
ENDBRANCH  72  74
ENDBRANCH  71  72
ENDBRANCH  70  71
ENDBRANCH   1  70
TORSDOF 13
ENDMDL
MODEL 2
REMARK VINA RESULT:     -12.1      6.108     11.129
REMARK SMILES O=C(OCCOC(=O)[C@H]1CCCN(C(=O)c2cc(Br)ccc2Cl)C1)c1ccc(-c2c3nc(c(-c4c(F)c(F)c(F)c(F)c4F)c4ccc([nH]4)c(-c4c(F)c(F)c(F)c(F)c4F)c4nc(c(-c5c(F)c(F)c(F)c(F)c5F)c5ccc2[nH]5)C=C4)C=C3)cc1
REMARK SMILES IDX 4 1 3 2 2 3 1 4 25 5 26 6 87 7 27 8 86 9 28 10 29 11 30 12
REMARK SMILES IDX 80 13 31 14 85 15 79 16 81 17 32 18 84 19 78 20 77 21 33 23
REMARK SMILES IDX 65 24 45 25 64 26 46 27 49 28 63 29 82 30 47 31 48 32 62 34
REMARK SMILES IDX 83 35 50 36 34 37 35 38 43 39 36 40 37 41 41 42 44 43 38 44
REMARK SMILES IDX 39 45 42 46 40 47 66 48 67 49 75 50 68 51 69 52 73 53 76 54
REMARK SMILES IDX 70 55 71 56 74 57 72 58 51 59 52 60 60 61 53 62 54 63 58 64
REMARK SMILES IDX 61 65 55 66 56 67 59 68 57 69 5 70 6 71 7 72 8 73 9 74 10 75
REMARK SMILES IDX 24 76 11 77 13 78 12 79 14 80 15 81 16 82 17 83 22 84 18 85
REMARK SMILES IDX 21 86 23 87 19 88 20 89
REMARK H PARENT 81 22 49 33
REMARK Flexibility Score: inf
ROOT
ATOM      1  C   UNL A   1      38.975  20.523  25.410  1.00  0.00     0.275 C 
ENDROOT
BRANCH   1   2
ATOM      2  O   UNL A   1      39.235  21.724  26.161  1.00  0.00    -0.458 OA
BRANCH   2   3
ATOM      3  C   UNL A   1      38.626  22.932  26.124  1.00  0.00     0.338 C 
ATOM      4  O   UNL A   1      37.583  23.044  25.482  1.00  0.00    -0.246 OA
BRANCH   3   5
ATOM      5  C   UNL A   1      39.199  24.183  26.717  1.00  0.00     0.060 A 
ATOM      6  C   UNL A   1      40.057  25.087  26.078  1.00  0.00     0.016 A 
ATOM      7  C   UNL A   1      38.830  24.462  28.046  1.00  0.00     0.016 A 
ATOM      8  C   UNL A   1      40.442  26.287  26.695  1.00  0.00     0.010 A 
ATOM      9  C   UNL A   1      39.226  25.647  28.673  1.00  0.00     0.010 A 
ATOM     10  C   UNL A   1      40.011  26.585  27.986  1.00  0.00    -0.014 A 
BRANCH  10  11
ATOM     11  C   UNL A   1      40.477  27.804  28.687  1.00  0.00     0.031 A 
ATOM     12  C   UNL A   1      41.849  27.770  29.283  1.00  0.00     0.074 A 
ATOM     13  C   UNL A   1      39.700  28.897  28.818  1.00  0.00     0.049 A 
ATOM     14  N   UNL A   1      42.482  28.701  29.944  1.00  0.00    -0.248 NA
ATOM     15  C   UNL A   1      42.628  26.539  29.067  1.00  0.00     0.031 C 
ATOM     16  C   UNL A   1      38.395  29.100  28.195  1.00  0.00     0.029 A 
ATOM     17  N   UNL A   1      39.873  30.031  29.572  1.00  0.00    -0.354 N 
ATOM     18  C   UNL A   1      43.757  28.200  30.146  1.00  0.00     0.074 A 
ATOM     19  C   UNL A   1      43.775  26.842  29.652  1.00  0.00     0.031 C 
ATOM     20  C   UNL A   1      37.817  30.199  28.711  1.00  0.00     0.029 A 
ATOM     21  C   UNL A   1      38.750  30.822  29.641  1.00  0.00     0.049 A 
ATOM     22  H   UNL A   1      40.720  30.256  30.022  1.00  0.00     0.167 HD
ATOM     23  C   UNL A   1      44.836  28.848  30.638  1.00  0.00     0.037 A 
ATOM     24  C   UNL A   1      38.510  31.929  30.370  1.00  0.00     0.037 A 
ATOM     25  C   UNL A   1      44.783  30.174  31.182  1.00  0.00     0.049 A 
ATOM     26  C   UNL A   1      39.664  32.543  31.114  1.00  0.00     0.074 A 
ATOM     27  C   UNL A   1      45.803  30.931  31.725  1.00  0.00     0.029 A 
ATOM     28  N   UNL A   1      43.622  30.931  31.279  1.00  0.00    -0.354 N 
ATOM     29  N   UNL A   1      40.899  32.111  31.215  1.00  0.00    -0.248 NA
ATOM     30  C   UNL A   1      39.420  33.828  31.781  1.00  0.00     0.031 C 
ATOM     31  C   UNL A   1      45.246  32.121  32.207  1.00  0.00     0.029 A 
ATOM     32  C   UNL A   1      43.890  32.132  31.910  1.00  0.00     0.049 A 
ATOM     33  H   UNL A   1      42.738  30.653  30.947  1.00  0.00     0.167 HD
ATOM     34  C   UNL A   1      41.599  33.105  31.883  1.00  0.00     0.074 A 
ATOM     35  C   UNL A   1      40.641  34.151  32.185  1.00  0.00     0.031 C 
ATOM     36  C   UNL A   1      42.918  33.161  32.188  1.00  0.00     0.037 A 
BRANCH  23  37
ATOM     37  C   UNL A   1      46.136  28.106  30.589  1.00  0.00     0.064 A 
ATOM     38  C   UNL A   1      47.072  28.351  29.568  1.00  0.00     0.173 A 
ATOM     39  C   UNL A   1      46.431  27.106  31.523  1.00  0.00     0.173 A 
ATOM     40  F   UNL A   1      46.823  29.281  28.633  1.00  0.00    -0.203 F 
ATOM     41  C   UNL A   1      48.233  27.592  29.463  1.00  0.00     0.198 A 
ATOM     42  C   UNL A   1      47.608  26.367  31.431  1.00  0.00     0.198 A 
ATOM     43  F   UNL A   1      45.567  26.828  32.510  1.00  0.00    -0.203 F 
ATOM     44  F   UNL A   1      49.075  27.795  28.439  1.00  0.00    -0.200 F 
ATOM     45  C   UNL A   1      48.501  26.602  30.395  1.00  0.00     0.200 A 
ATOM     46  F   UNL A   1      47.867  25.411  32.333  1.00  0.00    -0.200 F 
ATOM     47  F   UNL A   1      49.612  25.860  30.285  1.00  0.00    -0.200 F 
ENDBRANCH  23  37
BRANCH  24  48
ATOM     48  C   UNL A   1      37.165  32.565  30.373  1.00  0.00     0.064 A 
ATOM     49  C   UNL A   1      36.783  33.467  29.372  1.00  0.00     0.173 A 
ATOM     50  C   UNL A   1      36.244  32.310  31.402  1.00  0.00     0.173 A 
ATOM     51  F   UNL A   1      37.633  33.756  28.374  1.00  0.00    -0.203 F 
ATOM     52  C   UNL A   1      35.548  34.114  29.413  1.00  0.00     0.198 A 
ATOM     53  C   UNL A   1      35.001  32.944  31.433  1.00  0.00     0.198 A 
ATOM     54  F   UNL A   1      36.553  31.449  32.383  1.00  0.00    -0.203 F 
ATOM     55  F   UNL A   1      35.231  35.006  28.465  1.00  0.00    -0.200 F 
ATOM     56  C   UNL A   1      34.659  33.853  30.443  1.00  0.00     0.200 A 
ATOM     57  F   UNL A   1      34.142  32.685  32.429  1.00  0.00    -0.200 F 
ATOM     58  F   UNL A   1      33.477  34.483  30.488  1.00  0.00    -0.200 F 
ENDBRANCH  24  48
BRANCH  36  59
ATOM     59  C   UNL A   1      43.418  34.417  32.836  1.00  0.00     0.064 A 
ATOM     60  C   UNL A   1      43.557  34.527  34.225  1.00  0.00     0.173 A 
ATOM     61  C   UNL A   1      43.821  35.503  32.042  1.00  0.00     0.173 A 
ATOM     62  F   UNL A   1      43.167  33.523  35.025  1.00  0.00    -0.203 F 
ATOM     63  C   UNL A   1      44.065  35.688  34.800  1.00  0.00     0.198 A 
ATOM     64  C   UNL A   1      44.363  36.646  32.619  1.00  0.00     0.198 A 
ATOM     65  F   UNL A   1      43.711  35.444  30.706  1.00  0.00    -0.203 F 
ATOM     66  F   UNL A   1      44.147  35.791  36.134  1.00  0.00    -0.200 F 
ATOM     67  C   UNL A   1      44.478  36.741  33.997  1.00  0.00     0.200 A 
ATOM     68  F   UNL A   1      44.777  37.655  31.840  1.00  0.00    -0.200 F 
ATOM     69  F   UNL A   1      44.985  37.850  34.552  1.00  0.00    -0.200 F 
ENDBRANCH  36  59
ENDBRANCH  10  11
ENDBRANCH   3   5
ENDBRANCH   2   3
ENDBRANCH   1   2
BRANCH   1  70
ATOM     70  C   UNL A   1      39.817  19.316  25.826  1.00  0.00     0.274 C 
BRANCH  70  71
ATOM     71  O   UNL A   1      40.960  19.704  26.603  1.00  0.00    -0.462 OA
BRANCH  71  72
ATOM     72  C   UNL A   1      42.106  20.009  25.925  1.00  0.00     0.310 C 
ATOM     73  O   UNL A   1      42.675  19.250  25.148  1.00  0.00    -0.252 OA
BRANCH  72  74
ATOM     74  C   UNL A   1      42.528  21.443  26.193  1.00  0.00     0.119 C 
ATOM     75  C   UNL A   1      42.408  21.802  27.678  1.00  0.00     0.019 C 
ATOM     76  C   UNL A   1      43.965  21.711  25.729  1.00  0.00     0.135 C 
ATOM     77  C   UNL A   1      42.812  23.253  27.902  1.00  0.00     0.022 C 
ATOM     78  N   UNL A   1      44.423  23.061  26.110  1.00  0.00    -0.338 N 
ATOM     79  C   UNL A   1      44.262  23.423  27.517  1.00  0.00     0.120 C 
BRANCH  78  80
ATOM     80  C   UNL A   1      44.929  23.921  25.140  1.00  0.00     0.255 C 
ATOM     81  O   UNL A   1      45.276  23.561  24.019  1.00  0.00    -0.269 OA
BRANCH  80  82
ATOM     82  C   UNL A   1      45.015  25.364  25.449  1.00  0.00     0.059 A 
ATOM     83  C   UNL A   1      43.844  26.124  25.318  1.00  0.00     0.031 A 
ATOM     84  C   UNL A   1      46.211  25.975  25.855  1.00  0.00     0.053 A 
ATOM     85  C   UNL A   1      43.869  27.481  25.632  1.00  0.00     0.018 A 
ATOM     86  C   UNL A   1      46.213  27.331  26.191  1.00  0.00     0.022 A 
ATOM     87  Cl  UNL A   1      47.711  25.124  25.959  1.00  0.00    -0.083 Cl
ATOM     88  Br  UNL A   1      42.299  28.520  25.449  1.00  0.00    -0.051 Br
ATOM     89  C   UNL A   1      45.043  28.085  26.081  1.00  0.00     0.017 A 
ENDBRANCH  80  82
ENDBRANCH  78  80
ENDBRANCH  72  74
ENDBRANCH  71  72
ENDBRANCH  70  71
ENDBRANCH   1  70
TORSDOF 13
ENDMDL
MODEL 3
REMARK VINA RESULT:     -12.1      6.387      9.915
REMARK SMILES O=C(OCCOC(=O)[C@H]1CCCN(C(=O)c2cc(Br)ccc2Cl)C1)c1ccc(-c2c3nc(c(-c4c(F)c(F)c(F)c(F)c4F)c4ccc([nH]4)c(-c4c(F)c(F)c(F)c(F)c4F)c4nc(c(-c5c(F)c(F)c(F)c(F)c5F)c5ccc2[nH]5)C=C4)C=C3)cc1
REMARK SMILES IDX 4 1 3 2 2 3 1 4 25 5 26 6 87 7 27 8 86 9 28 10 29 11 30 12
REMARK SMILES IDX 80 13 31 14 85 15 79 16 81 17 32 18 84 19 78 20 77 21 33 23
REMARK SMILES IDX 65 24 45 25 64 26 46 27 49 28 63 29 82 30 47 31 48 32 62 34
REMARK SMILES IDX 83 35 50 36 34 37 35 38 43 39 36 40 37 41 41 42 44 43 38 44
REMARK SMILES IDX 39 45 42 46 40 47 66 48 67 49 75 50 68 51 69 52 73 53 76 54
REMARK SMILES IDX 70 55 71 56 74 57 72 58 51 59 52 60 60 61 53 62 54 63 58 64
REMARK SMILES IDX 61 65 55 66 56 67 59 68 57 69 5 70 6 71 7 72 8 73 9 74 10 75
REMARK SMILES IDX 24 76 11 77 13 78 12 79 14 80 15 81 16 82 17 83 22 84 18 85
REMARK SMILES IDX 21 86 23 87 19 88 20 89
REMARK H PARENT 81 22 49 33
REMARK Flexibility Score: inf
ROOT
ATOM      1  C   UNL A   1      38.989  19.710  25.148  1.00  0.00     0.275 C 
ENDROOT
BRANCH   1   2
ATOM      2  O   UNL A   1      40.082  19.017  25.780  1.00  0.00    -0.458 OA
BRANCH   2   3
ATOM      3  C   UNL A   1      41.384  19.363  25.910  1.00  0.00     0.338 C 
ATOM      4  O   UNL A   1      42.240  18.493  25.759  1.00  0.00    -0.246 OA
BRANCH   3   5
ATOM      5  C   UNL A   1      41.857  20.717  26.347  1.00  0.00     0.060 A 
ATOM      6  C   UNL A   1      41.981  21.166  27.667  1.00  0.00     0.016 A 
ATOM      7  C   UNL A   1      42.207  21.610  25.318  1.00  0.00     0.016 A 
ATOM      8  C   UNL A   1      42.543  22.417  27.962  1.00  0.00     0.010 A 
ATOM      9  C   UNL A   1      42.750  22.866  25.604  1.00  0.00     0.010 A 
ATOM     10  C   UNL A   1      42.952  23.265  26.934  1.00  0.00    -0.014 A 
BRANCH  10  11
ATOM     11  C   UNL A   1      43.466  24.624  27.221  1.00  0.00     0.031 A 
ATOM     12  C   UNL A   1      42.464  25.673  27.589  1.00  0.00     0.074 A 
ATOM     13  C   UNL A   1      44.775  24.929  27.130  1.00  0.00     0.049 A 
ATOM     14  N   UNL A   1      42.659  26.930  27.881  1.00  0.00    -0.248 NA
ATOM     15  C   UNL A   1      41.061  25.236  27.683  1.00  0.00     0.031 C 
ATOM     16  C   UNL A   1      45.861  23.983  26.890  1.00  0.00     0.029 A 
ATOM     17  N   UNL A   1      45.414  26.144  27.174  1.00  0.00    -0.354 N 
ATOM     18  C   UNL A   1      41.420  27.408  28.275  1.00  0.00     0.074 A 
ATOM     19  C   UNL A   1      40.459  26.349  28.068  1.00  0.00     0.031 C 
ATOM     20  C   UNL A   1      46.999  24.657  26.648  1.00  0.00     0.029 A 
ATOM     21  C   UNL A   1      46.737  26.082  26.800  1.00  0.00     0.049 A 
ATOM     22  H   UNL A   1      44.969  26.979  27.445  1.00  0.00     0.167 HD
ATOM     23  C   UNL A   1      41.128  28.606  28.828  1.00  0.00     0.037 A 
ATOM     24  C   UNL A   1      47.633  27.070  26.610  1.00  0.00     0.037 A 
ATOM     25  C   UNL A   1      42.084  29.667  28.967  1.00  0.00     0.049 A 
ATOM     26  C   UNL A   1      47.238  28.463  27.016  1.00  0.00     0.074 A 
ATOM     27  C   UNL A   1      41.907  30.931  29.495  1.00  0.00     0.029 A 
ATOM     28  N   UNL A   1      43.403  29.589  28.537  1.00  0.00    -0.354 N 
ATOM     29  N   UNL A   1      46.089  28.887  27.485  1.00  0.00    -0.248 NA
ATOM     30  C   UNL A   1      48.276  29.499  26.941  1.00  0.00     0.031 C 
ATOM     31  C   UNL A   1      43.103  31.638  29.327  1.00  0.00     0.029 A 
ATOM     32  C   UNL A   1      44.043  30.797  28.750  1.00  0.00     0.049 A 
ATOM     33  H   UNL A   1      43.821  28.792  28.139  1.00  0.00     0.167 HD
ATOM     34  C   UNL A   1      46.286  30.214  27.838  1.00  0.00     0.074 A 
ATOM     35  C   UNL A   1      47.660  30.530  27.503  1.00  0.00     0.031 C 
ATOM     36  C   UNL A   1      45.418  31.080  28.416  1.00  0.00     0.037 A 
BRANCH  23  37
ATOM     37  C   UNL A   1      39.724  28.791  29.312  1.00  0.00     0.064 A 
ATOM     38  C   UNL A   1      38.736  29.344  28.476  1.00  0.00     0.173 A 
ATOM     39  C   UNL A   1      39.367  28.472  30.628  1.00  0.00     0.173 A 
ATOM     40  F   UNL A   1      39.036  29.690  27.215  1.00  0.00    -0.203 F 
ATOM     41  C   UNL A   1      37.458  29.610  28.957  1.00  0.00     0.198 A 
ATOM     42  C   UNL A   1      38.079  28.714  31.096  1.00  0.00     0.198 A 
ATOM     43  F   UNL A   1      40.275  27.952  31.466  1.00  0.00    -0.203 F 
ATOM     44  F   UNL A   1      36.555  30.205  28.164  1.00  0.00    -0.200 F 
ATOM     45  C   UNL A   1      37.129  29.294  30.266  1.00  0.00     0.200 A 
ATOM     46  F   UNL A   1      37.761  28.408  32.362  1.00  0.00    -0.200 F 
ATOM     47  F   UNL A   1      35.903  29.564  30.734  1.00  0.00    -0.200 F 
ENDBRANCH  23  37
BRANCH  24  48
ATOM     48  C   UNL A   1      48.994  26.776  26.088  1.00  0.00     0.064 A 
ATOM     49  C   UNL A   1      50.032  26.378  26.941  1.00  0.00     0.173 A 
ATOM     50  C   UNL A   1      49.297  26.921  24.725  1.00  0.00     0.173 A 
ATOM     51  F   UNL A   1      49.798  26.239  28.255  1.00  0.00    -0.203 F 
ATOM     52  C   UNL A   1      51.324  26.169  26.462  1.00  0.00     0.198 A 
ATOM     53  C   UNL A   1      50.586  26.694  24.242  1.00  0.00     0.198 A 
ATOM     54  F   UNL A   1      48.341  27.292  23.860  1.00  0.00    -0.203 F 
ATOM     55  F   UNL A   1      52.306  25.834  27.311  1.00  0.00    -0.200 F 
ATOM     56  C   UNL A   1      51.601  26.327  25.112  1.00  0.00     0.200 A 
ATOM     57  F   UNL A   1      50.848  26.844  22.936  1.00  0.00    -0.200 F 
ATOM     58  F   UNL A   1      52.846  26.136  24.653  1.00  0.00    -0.200 F 
ENDBRANCH  24  48
BRANCH  36  59
ATOM     59  C   UNL A   1      45.943  32.437  28.775  1.00  0.00     0.064 A 
ATOM     60  C   UNL A   1      45.799  33.536  27.918  1.00  0.00     0.173 A 
ATOM     61  C   UNL A   1      46.544  32.648  30.026  1.00  0.00     0.173 A 
ATOM     62  F   UNL A   1      45.248  33.379  26.705  1.00  0.00    -0.203 F 
ATOM     63  C   UNL A   1      46.255  34.796  28.293  1.00  0.00     0.198 A 
ATOM     64  C   UNL A   1      46.965  33.916  30.411  1.00  0.00     0.198 A 
ATOM     65  F   UNL A   1      46.701  31.627  30.884  1.00  0.00    -0.203 F 
ATOM     66  F   UNL A   1      46.150  35.824  27.440  1.00  0.00    -0.200 F 
ATOM     67  C   UNL A   1      46.827  34.987  29.543  1.00  0.00     0.200 A 
ATOM     68  F   UNL A   1      47.501  34.102  31.626  1.00  0.00    -0.200 F 
ATOM     69  F   UNL A   1      47.248  36.206  29.908  1.00  0.00    -0.200 F 
ENDBRANCH  36  59
ENDBRANCH  10  11
ENDBRANCH   3   5
ENDBRANCH   2   3
ENDBRANCH   1   2
BRANCH   1  70
ATOM     70  C   UNL A   1      38.700  21.099  25.721  1.00  0.00     0.274 C 
BRANCH  70  71
ATOM     71  O   UNL A   1      37.311  21.443  25.613  1.00  0.00    -0.462 OA
BRANCH  71  72
ATOM     72  C   UNL A   1      36.972  22.753  25.799  1.00  0.00     0.310 C 
ATOM     73  O   UNL A   1      37.778  23.672  25.893  1.00  0.00    -0.252 OA
BRANCH  72  74
ATOM     74  C   UNL A   1      35.463  22.929  25.781  1.00  0.00     0.119 C 
ATOM     75  C   UNL A   1      35.063  24.353  25.384  1.00  0.00     0.019 C 
ATOM     76  C   UNL A   1      34.785  21.936  24.830  1.00  0.00     0.135 C 
ATOM     77  C   UNL A   1      33.547  24.498  25.405  1.00  0.00     0.022 C 
ATOM     78  N   UNL A   1      33.337  22.193  24.708  1.00  0.00    -0.338 N 
ATOM     79  C   UNL A   1      32.951  23.564  24.379  1.00  0.00     0.120 C 
BRANCH  78  80
ATOM     80  C   UNL A   1      32.427  21.167  24.949  1.00  0.00     0.255 C 
ATOM     81  O   UNL A   1      31.451  21.278  25.685  1.00  0.00    -0.269 OA
BRANCH  80  82
ATOM     82  C   UNL A   1      32.609  19.880  24.247  1.00  0.00     0.059 A 
ATOM     83  C   UNL A   1      33.104  18.801  24.994  1.00  0.00     0.031 A 
ATOM     84  C   UNL A   1      32.312  19.718  22.886  1.00  0.00     0.053 A 
ATOM     85  C   UNL A   1      33.260  17.559  24.383  1.00  0.00     0.018 A 
ATOM     86  C   UNL A   1      32.449  18.459  22.294  1.00  0.00     0.022 A 
ATOM     87  Cl  UNL A   1      31.778  21.018  21.881  1.00  0.00    -0.083 Cl
ATOM     88  Br  UNL A   1      33.936  16.099  25.376  1.00  0.00    -0.051 Br
ATOM     89  C   UNL A   1      32.921  17.379  23.042  1.00  0.00     0.017 A 
ENDBRANCH  80  82
ENDBRANCH  78  80
ENDBRANCH  72  74
ENDBRANCH  71  72
ENDBRANCH  70  71
ENDBRANCH   1  70
TORSDOF 13
ENDMDL
