MODEL 1
REMARK VINA RESULT:     -12.1      0.000      0.000
REMARK SMILES N#Cc1ccccc1S(=O)(=O)N1CCC(C(=O)OCCOC(=O)c2ccc(-c3c4nc(c(-c5c(F)c(F)c(F)c(F)c5F)c5ccc([nH]5)c(-c5c(F)c(F)c(F)c(F)c5F)c5nc(c(-c6c(F)c(F)c(F)c(F)c6F)c6ccc3[nH]6)C=C5)C=C4)cc2)CC1
REMARK SMILES IDX 19 1 18 2 16 3 17 4 15 5 12 6 13 7 88 8 14 9 87 10 9 11
REMARK SMILES IDX 10 12 11 13 8 14 3 15 4 16 5 17 7 18 6 19 2 20 1 21 20 22
REMARK SMILES IDX 21 23 22 24 23 25 24 26 25 27 86 28 26 29 85 30 27 31 28 32
REMARK SMILES IDX 29 33 79 34 30 35 84 36 78 37 80 38 31 39 83 40 77 41 76 42
REMARK SMILES IDX 32 44 64 45 44 46 63 47 45 48 48 49 62 50 81 51 46 52 47 53
REMARK SMILES IDX 61 55 82 56 49 57 33 58 34 59 42 60 35 61 36 62 40 63 43 64
REMARK SMILES IDX 37 65 38 66 41 67 39 68 65 69 66 70 74 71 67 72 68 73 72 74
REMARK SMILES IDX 75 75 69 76 70 77 73 78 71 79 50 80 51 81 59 82 52 83 53 84
REMARK SMILES IDX 57 85 60 86 54 87 55 88 58 89 56 90
REMARK H PARENT 80 43 48 54
REMARK Flexibility Score: inf
ROOT
ATOM      1  C   UNL A   1      31.402  29.153  24.920  1.00  0.00     0.274 C 
ENDROOT
BRANCH   1   2
ATOM      2  O   UNL A   1      30.291  29.454  24.055  1.00  0.00    -0.462 OA
BRANCH   2   3
ATOM      3  C   UNL A   1      30.083  28.586  23.035  1.00  0.00     0.309 C 
ATOM      4  O   UNL A   1      29.428  28.830  22.028  1.00  0.00    -0.252 OA
BRANCH   3   5
ATOM      5  C   UNL A   1      30.764  27.251  23.241  1.00  0.00     0.102 C 
ATOM      6  N   UNL A   1      31.781  24.580  23.115  1.00  0.00    -0.198 NA
ATOM      7  C   UNL A   1      30.691  24.875  24.076  1.00  0.00     0.103 C 
ATOM      8  C   UNL A   1      32.422  25.650  22.322  1.00  0.00     0.103 C 
ATOM      9  C   UNL A   1      29.881  26.120  23.741  1.00  0.00     0.032 C 
ATOM     10  C   UNL A   1      31.472  26.787  21.982  1.00  0.00     0.032 C 
BRANCH   6  11
ATOM     11  S   UNL A   1      32.579  23.099  23.260  1.00  0.00     0.244 S 
ATOM     12  O   UNL A   1      33.036  22.751  21.928  1.00  0.00    -0.207 OA
ATOM     13  O   UNL A   1      31.721  22.203  24.005  1.00  0.00    -0.207 OA
BRANCH  11  14
ATOM     14  C   UNL A   1      34.072  23.224  24.233  1.00  0.00     0.100 A 
ATOM     15  C   UNL A   1      34.191  23.376  25.614  1.00  0.00     0.072 A 
ATOM     16  C   UNL A   1      35.479  23.448  26.191  1.00  0.00     0.021 A 
ATOM     17  C   UNL A   1      36.631  23.361  25.415  1.00  0.00     0.001 A 
ATOM     18  C   UNL A   1      35.251  23.136  23.459  1.00  0.00     0.023 A 
ATOM     19  C   UNL A   1      36.517  23.201  24.043  1.00  0.00     0.001 A 
BRANCH  15  20
ATOM     20  C   UNL A   1      33.121  23.462  26.551  1.00  0.00     0.101 C 
ATOM     21  N   UNL A   1      32.201  23.444  27.253  1.00  0.00    -0.192 NA
ENDBRANCH  15  20
ENDBRANCH  11  14
ENDBRANCH   6  11
ENDBRANCH   3   5
ENDBRANCH   2   3
ENDBRANCH   1   2
BRANCH   1  22
ATOM     22  C   UNL A   1      31.708  30.333  25.846  1.00  0.00     0.275 C 
BRANCH  22  23
ATOM     23  O   UNL A   1      33.119  30.439  26.126  1.00  0.00    -0.458 OA
BRANCH  23  24
ATOM     24  C   UNL A   1      33.458  31.395  27.021  1.00  0.00     0.338 C 
ATOM     25  O   UNL A   1      32.795  32.356  27.372  1.00  0.00    -0.246 OA
BRANCH  24  26
ATOM     26  C   UNL A   1      34.767  31.084  27.614  1.00  0.00     0.060 A 
ATOM     27  C   UNL A   1      35.011  29.776  28.026  1.00  0.00     0.016 A 
ATOM     28  C   UNL A   1      35.689  32.092  27.887  1.00  0.00     0.016 A 
ATOM     29  C   UNL A   1      36.165  29.467  28.741  1.00  0.00     0.010 A 
ATOM     30  C   UNL A   1      36.866  31.776  28.577  1.00  0.00     0.010 A 
ATOM     31  C   UNL A   1      37.104  30.464  29.027  1.00  0.00    -0.014 A 
BRANCH  31  32
ATOM     32  C   UNL A   1      38.313  30.138  29.826  1.00  0.00     0.031 A 
ATOM     33  C   UNL A   1      39.361  29.218  29.265  1.00  0.00     0.074 A 
ATOM     34  C   UNL A   1      38.477  30.676  31.048  1.00  0.00     0.049 A 
ATOM     35  N   UNL A   1      40.425  28.721  29.844  1.00  0.00    -0.248 NA
ATOM     36  C   UNL A   1      39.185  28.795  27.868  1.00  0.00     0.031 C 
ATOM     37  C   UNL A   1      37.558  31.621  31.684  1.00  0.00     0.029 A 
ATOM     38  N   UNL A   1      39.470  30.497  31.980  1.00  0.00    -0.354 N 
ATOM     39  C   UNL A   1      41.028  27.906  28.896  1.00  0.00     0.074 A 
ATOM     40  C   UNL A   1      40.203  27.961  27.707  1.00  0.00     0.031 C 
ATOM     41  C   UNL A   1      38.031  31.942  32.898  1.00  0.00     0.029 A 
ATOM     42  C   UNL A   1      39.250  31.180  33.151  1.00  0.00     0.049 A 
ATOM     43  H   UNL A   1      40.263  29.936  31.822  1.00  0.00     0.167 HD
ATOM     44  C   UNL A   1      42.168  27.182  29.007  1.00  0.00     0.037 A 
ATOM     45  C   UNL A   1      39.934  31.165  34.311  1.00  0.00     0.037 A 
ATOM     46  C   UNL A   1      42.997  27.148  30.185  1.00  0.00     0.049 A 
ATOM     47  C   UNL A   1      41.161  30.302  34.430  1.00  0.00     0.074 A 
ATOM     48  C   UNL A   1      44.184  26.465  30.387  1.00  0.00     0.029 A 
ATOM     49  N   UNL A   1      42.723  27.828  31.364  1.00  0.00    -0.354 N 
ATOM     50  N   UNL A   1      41.723  29.533  33.531  1.00  0.00    -0.248 NA
ATOM     51  C   UNL A   1      41.843  30.300  35.732  1.00  0.00     0.031 C 
ATOM     52  C   UNL A   1      44.601  26.689  31.703  1.00  0.00     0.029 A 
ATOM     53  C   UNL A   1      43.705  27.558  32.305  1.00  0.00     0.049 A 
ATOM     54  H   UNL A   1      41.947  28.414  31.510  1.00  0.00     0.167 HD
ATOM     55  C   UNL A   1      42.835  28.975  34.146  1.00  0.00     0.074 A 
ATOM     56  C   UNL A   1      42.878  29.507  35.492  1.00  0.00     0.031 C 
ATOM     57  C   UNL A   1      43.738  28.098  33.641  1.00  0.00     0.037 A 
BRANCH  44  58
ATOM     58  C   UNL A   1      42.573  26.336  27.833  1.00  0.00     0.064 A 
ATOM     59  C   UNL A   1      43.481  26.793  26.866  1.00  0.00     0.173 A 
ATOM     60  C   UNL A   1      42.069  25.034  27.694  1.00  0.00     0.173 A 
ATOM     61  F   UNL A   1      43.985  28.034  26.947  1.00  0.00    -0.203 F 
ATOM     62  C   UNL A   1      43.847  25.989  25.789  1.00  0.00     0.198 A 
ATOM     63  C   UNL A   1      42.461  24.221  26.633  1.00  0.00     0.198 A 
ATOM     64  F   UNL A   1      41.205  24.542  28.595  1.00  0.00    -0.203 F 
ATOM     65  F   UNL A   1      44.679  26.464  24.852  1.00  0.00    -0.200 F 
ATOM     66  C   UNL A   1      43.342  24.702  25.677  1.00  0.00     0.200 A 
ATOM     67  F   UNL A   1      41.984  22.973  26.535  1.00  0.00    -0.200 F 
ATOM     68  F   UNL A   1      43.701  23.927  24.644  1.00  0.00    -0.200 F 
ENDBRANCH  44  58
BRANCH  45  69
ATOM     69  C   UNL A   1      39.457  31.977  35.460  1.00  0.00     0.064 A 
ATOM     70  C   UNL A   1      38.534  31.459  36.378  1.00  0.00     0.173 A 
ATOM     71  C   UNL A   1      39.912  33.290  35.662  1.00  0.00     0.173 A 
ATOM     72  F   UNL A   1      38.051  30.219  36.213  1.00  0.00    -0.203 F 
ATOM     73  C   UNL A   1      38.074  32.227  37.446  1.00  0.00     0.198 A 
ATOM     74  C   UNL A   1      39.474  34.044  36.747  1.00  0.00     0.198 A 
ATOM     75  F   UNL A   1      40.793  33.834  34.810  1.00  0.00    -0.203 F 
ATOM     76  F   UNL A   1      37.158  31.721  38.283  1.00  0.00    -0.200 F 
ATOM     77  C   UNL A   1      38.550  33.515  37.634  1.00  0.00     0.200 A 
ATOM     78  F   UNL A   1      39.946  35.285  36.932  1.00  0.00    -0.200 F 
ATOM     79  F   UNL A   1      38.111  34.250  38.666  1.00  0.00    -0.200 F 
ENDBRANCH  45  69
BRANCH  57  80
ATOM     80  C   UNL A   1      44.871  27.687  34.536  1.00  0.00     0.064 A 
ATOM     81  C   UNL A   1      46.070  28.414  34.589  1.00  0.00     0.173 A 
ATOM     82  C   UNL A   1      44.744  26.570  35.376  1.00  0.00     0.173 A 
ATOM     83  F   UNL A   1      46.249  29.479  33.794  1.00  0.00    -0.203 F 
ATOM     84  C   UNL A   1      47.109  28.021  35.429  1.00  0.00     0.198 A 
ATOM     85  C   UNL A   1      45.771  26.198  36.237  1.00  0.00     0.198 A 
ATOM     86  F   UNL A   1      43.615  25.844  35.368  1.00  0.00    -0.203 F 
ATOM     87  F   UNL A   1      48.264  28.700  35.426  1.00  0.00    -0.200 F 
ATOM     88  C   UNL A   1      46.956  26.919  36.258  1.00  0.00     0.200 A 
ATOM     89  F   UNL A   1      45.617  25.141  37.047  1.00  0.00    -0.200 F 
ATOM     90  F   UNL A   1      47.955  26.546  37.071  1.00  0.00    -0.200 F 
ENDBRANCH  57  80
ENDBRANCH  31  32
ENDBRANCH  24  26
ENDBRANCH  23  24
ENDBRANCH  22  23
ENDBRANCH   1  22
TORSDOF 14
ENDMDL
MODEL 2
REMARK VINA RESULT:     -12.0      0.204      1.614
REMARK SMILES N#Cc1ccccc1S(=O)(=O)N1CCC(C(=O)OCCOC(=O)c2ccc(-c3c4nc(c(-c5c(F)c(F)c(F)c(F)c5F)c5ccc([nH]5)c(-c5c(F)c(F)c(F)c(F)c5F)c5nc(c(-c6c(F)c(F)c(F)c(F)c6F)c6ccc3[nH]6)C=C5)C=C4)cc2)CC1
REMARK SMILES IDX 19 1 18 2 16 3 17 4 15 5 12 6 13 7 88 8 14 9 87 10 9 11
REMARK SMILES IDX 10 12 11 13 8 14 3 15 4 16 5 17 7 18 6 19 2 20 1 21 20 22
REMARK SMILES IDX 21 23 22 24 23 25 24 26 25 27 86 28 26 29 85 30 27 31 28 32
REMARK SMILES IDX 29 33 79 34 30 35 84 36 78 37 80 38 31 39 83 40 77 41 76 42
REMARK SMILES IDX 32 44 64 45 44 46 63 47 45 48 48 49 62 50 81 51 46 52 47 53
REMARK SMILES IDX 61 55 82 56 49 57 33 58 34 59 42 60 35 61 36 62 40 63 43 64
REMARK SMILES IDX 37 65 38 66 41 67 39 68 65 69 66 70 74 71 67 72 68 73 72 74
REMARK SMILES IDX 75 75 69 76 70 77 73 78 71 79 50 80 51 81 59 82 52 83 53 84
REMARK SMILES IDX 57 85 60 86 54 87 55 88 58 89 56 90
REMARK H PARENT 80 43 48 54
REMARK Flexibility Score: inf
ROOT
ATOM      1  C   UNL A   1      31.404  29.182  25.045  1.00  0.00     0.274 C 
ENDROOT
BRANCH   1   2
ATOM      2  O   UNL A   1      30.538  29.526  23.948  1.00  0.00    -0.462 OA
BRANCH   2   3
ATOM      3  C   UNL A   1      29.883  28.493  23.365  1.00  0.00     0.309 C 
ATOM      4  O   UNL A   1      28.802  28.580  22.792  1.00  0.00    -0.252 OA
BRANCH   3   5
ATOM      5  C   UNL A   1      30.629  27.181  23.465  1.00  0.00     0.102 C 
ATOM      6  N   UNL A   1      31.780  24.584  23.127  1.00  0.00    -0.198 NA
ATOM      7  C   UNL A   1      30.672  24.744  24.100  1.00  0.00     0.103 C 
ATOM      8  C   UNL A   1      32.369  25.746  22.429  1.00  0.00     0.103 C 
ATOM      9  C   UNL A   1      29.802  25.970  23.863  1.00  0.00     0.032 C 
ATOM     10  C   UNL A   1      31.364  26.859  22.177  1.00  0.00     0.032 C 
BRANCH   6  11
ATOM     11  S   UNL A   1      32.650  23.137  23.155  1.00  0.00     0.244 S 
ATOM     12  O   UNL A   1      33.187  22.959  21.819  1.00  0.00    -0.207 OA
ATOM     13  O   UNL A   1      31.809  22.124  23.755  1.00  0.00    -0.207 OA
BRANCH  11  14
ATOM     14  C   UNL A   1      34.087  23.230  24.212  1.00  0.00     0.100 A 
ATOM     15  C   UNL A   1      34.131  23.331  25.603  1.00  0.00     0.072 A 
ATOM     16  C   UNL A   1      35.385  23.385  26.251  1.00  0.00     0.021 A 
ATOM     17  C   UNL A   1      36.577  23.330  25.536  1.00  0.00     0.001 A 
ATOM     18  C   UNL A   1      35.308  23.173  23.501  1.00  0.00     0.023 A 
ATOM     19  C   UNL A   1      36.539  23.220  24.156  1.00  0.00     0.001 A 
BRANCH  15  20
ATOM     20  C   UNL A   1      33.010  23.379  26.482  1.00  0.00     0.101 C 
ATOM     21  N   UNL A   1      32.148  23.328  27.252  1.00  0.00    -0.192 NA
ENDBRANCH  15  20
ENDBRANCH  11  14
ENDBRANCH   6  11
ENDBRANCH   3   5
ENDBRANCH   2   3
ENDBRANCH   1   2
BRANCH   1  22
ATOM     22  C   UNL A   1      31.754  30.421  25.873  1.00  0.00     0.275 C 
BRANCH  22  23
ATOM     23  O   UNL A   1      33.153  30.453  26.222  1.00  0.00    -0.458 OA
BRANCH  23  24
ATOM     24  C   UNL A   1      33.504  31.411  27.109  1.00  0.00     0.338 C 
ATOM     25  O   UNL A   1      32.855  32.386  27.448  1.00  0.00    -0.246 OA
BRANCH  24  26
ATOM     26  C   UNL A   1      34.805  31.085  27.711  1.00  0.00     0.060 A 
ATOM     27  C   UNL A   1      35.036  29.772  28.113  1.00  0.00     0.016 A 
ATOM     28  C   UNL A   1      35.733  32.084  28.001  1.00  0.00     0.016 A 
ATOM     29  C   UNL A   1      36.181  29.447  28.835  1.00  0.00     0.010 A 
ATOM     30  C   UNL A   1      36.901  31.752  28.698  1.00  0.00     0.010 A 
ATOM     31  C   UNL A   1      37.125  30.434  29.138  1.00  0.00    -0.014 A 
BRANCH  31  32
ATOM     32  C   UNL A   1      38.325  30.092  29.944  1.00  0.00     0.031 A 
ATOM     33  C   UNL A   1      39.364  29.157  29.390  1.00  0.00     0.074 A 
ATOM     34  C   UNL A   1      38.488  30.628  31.168  1.00  0.00     0.049 A 
ATOM     35  N   UNL A   1      40.417  28.646  29.976  1.00  0.00    -0.248 NA
ATOM     36  C   UNL A   1      39.190  28.737  27.992  1.00  0.00     0.031 C 
ATOM     37  C   UNL A   1      37.579  31.585  31.798  1.00  0.00     0.029 A 
ATOM     38  N   UNL A   1      39.473  30.435  32.105  1.00  0.00    -0.354 N 
ATOM     39  C   UNL A   1      41.015  27.823  29.031  1.00  0.00     0.074 A 
ATOM     40  C   UNL A   1      40.198  27.890  27.837  1.00  0.00     0.031 C 
ATOM     41  C   UNL A   1      38.048  31.899  33.015  1.00  0.00     0.029 A 
ATOM     42  C   UNL A   1      39.255  31.121  33.275  1.00  0.00     0.049 A 
ATOM     43  H   UNL A   1      40.259  29.863  31.952  1.00  0.00     0.167 HD
ATOM     44  C   UNL A   1      42.144  27.084  29.149  1.00  0.00     0.037 A 
ATOM     45  C   UNL A   1      39.932  31.096  34.439  1.00  0.00     0.037 A 
ATOM     46  C   UNL A   1      42.965  27.038  30.332  1.00  0.00     0.049 A 
ATOM     47  C   UNL A   1      41.146  30.217  34.566  1.00  0.00     0.074 A 
ATOM     48  C   UNL A   1      44.141  26.339  30.541  1.00  0.00     0.029 A 
ATOM     49  N   UNL A   1      42.693  27.721  31.510  1.00  0.00    -0.354 N 
ATOM     50  N   UNL A   1      41.703  29.440  33.670  1.00  0.00    -0.248 NA
ATOM     51  C   UNL A   1      41.820  30.205  35.872  1.00  0.00     0.031 C 
ATOM     52  C   UNL A   1      44.553  26.558  31.860  1.00  0.00     0.029 A 
ATOM     53  C   UNL A   1      43.665  27.439  32.457  1.00  0.00     0.049 A 
ATOM     54  H   UNL A   1      41.924  28.319  31.651  1.00  0.00     0.167 HD
ATOM     55  C   UNL A   1      42.804  28.867  34.292  1.00  0.00     0.074 A 
ATOM     56  C   UNL A   1      42.846  29.399  35.638  1.00  0.00     0.031 C 
ATOM     57  C   UNL A   1      43.698  27.978  33.793  1.00  0.00     0.037 A 
BRANCH  44  58
ATOM     58  C   UNL A   1      42.544  26.232  27.977  1.00  0.00     0.064 A 
ATOM     59  C   UNL A   1      43.458  26.680  27.012  1.00  0.00     0.173 A 
ATOM     60  C   UNL A   1      42.031  24.934  27.840  1.00  0.00     0.173 A 
ATOM     61  F   UNL A   1      43.971  27.918  27.091  1.00  0.00    -0.203 F 
ATOM     62  C   UNL A   1      43.820  25.871  25.937  1.00  0.00     0.198 A 
ATOM     63  C   UNL A   1      42.418  24.116  26.781  1.00  0.00     0.198 A 
ATOM     64  F   UNL A   1      41.161  24.450  28.740  1.00  0.00    -0.203 F 
ATOM     65  F   UNL A   1      44.657  26.338  25.001  1.00  0.00    -0.200 F 
ATOM     66  C   UNL A   1      43.305  24.588  25.826  1.00  0.00     0.200 A 
ATOM     67  F   UNL A   1      41.932  22.871  26.685  1.00  0.00    -0.200 F 
ATOM     68  F   UNL A   1      43.660  23.808  24.795  1.00  0.00    -0.200 F 
ENDBRANCH  44  58
BRANCH  45  69
ATOM     69  C   UNL A   1      39.459  31.915  35.585  1.00  0.00     0.064 A 
ATOM     70  C   UNL A   1      39.933  33.218  35.787  1.00  0.00     0.173 A 
ATOM     71  C   UNL A   1      38.526  31.411  36.506  1.00  0.00     0.173 A 
ATOM     72  F   UNL A   1      40.845  33.735  34.950  1.00  0.00    -0.203 F 
ATOM     73  C   UNL A   1      39.503  33.981  36.872  1.00  0.00     0.198 A 
ATOM     74  C   UNL A   1      38.075  32.185  37.571  1.00  0.00     0.198 A 
ATOM     75  F   UNL A   1      38.044  30.168  36.360  1.00  0.00    -0.203 F 
ATOM     76  F   UNL A   1      40.006  35.207  37.064  1.00  0.00    -0.200 F 
ATOM     77  C   UNL A   1      38.569  33.466  37.757  1.00  0.00     0.200 A 
ATOM     78  F   UNL A   1      37.162  31.689  38.417  1.00  0.00    -0.200 F 
ATOM     79  F   UNL A   1      38.151  34.203  38.796  1.00  0.00    -0.200 F 
ENDBRANCH  45  69
BRANCH  57  80
ATOM     80  C   UNL A   1      44.820  27.552  34.695  1.00  0.00     0.064 A 
ATOM     81  C   UNL A   1      44.737  26.388  35.474  1.00  0.00     0.173 A 
ATOM     82  C   UNL A   1      46.005  28.300  34.757  1.00  0.00     0.173 A 
ATOM     83  F   UNL A   1      43.618  25.647  35.465  1.00  0.00    -0.203 F 
ATOM     84  C   UNL A   1      45.789  26.004  36.302  1.00  0.00     0.198 A 
ATOM     85  C   UNL A   1      47.067  27.896  35.560  1.00  0.00     0.198 A 
ATOM     86  F   UNL A   1      46.137  29.418  34.027  1.00  0.00    -0.203 F 
ATOM     87  F   UNL A   1      45.669  24.917  37.075  1.00  0.00    -0.200 F 
ATOM     88  C   UNL A   1      46.956  26.753  36.338  1.00  0.00     0.200 A 
ATOM     89  F   UNL A   1      48.198  28.615  35.584  1.00  0.00    -0.200 F 
ATOM     90  F   UNL A   1      47.971  26.379  37.130  1.00  0.00    -0.200 F 
ENDBRANCH  57  80
ENDBRANCH  31  32
ENDBRANCH  24  26
ENDBRANCH  23  24
ENDBRANCH  22  23
ENDBRANCH   1  22
TORSDOF 14
ENDMDL
MODEL 3
REMARK VINA RESULT:     -11.9      4.218      9.555
REMARK SMILES N#Cc1ccccc1S(=O)(=O)N1CCC(C(=O)OCCOC(=O)c2ccc(-c3c4nc(c(-c5c(F)c(F)c(F)c(F)c5F)c5ccc([nH]5)c(-c5c(F)c(F)c(F)c(F)c5F)c5nc(c(-c6c(F)c(F)c(F)c(F)c6F)c6ccc3[nH]6)C=C5)C=C4)cc2)CC1
REMARK SMILES IDX 19 1 18 2 16 3 17 4 15 5 12 6 13 7 88 8 14 9 87 10 9 11
REMARK SMILES IDX 10 12 11 13 8 14 3 15 4 16 5 17 7 18 6 19 2 20 1 21 20 22
REMARK SMILES IDX 21 23 22 24 23 25 24 26 25 27 86 28 26 29 85 30 27 31 28 32
REMARK SMILES IDX 29 33 79 34 30 35 84 36 78 37 80 38 31 39 83 40 77 41 76 42
REMARK SMILES IDX 32 44 64 45 44 46 63 47 45 48 48 49 62 50 81 51 46 52 47 53
REMARK SMILES IDX 61 55 82 56 49 57 33 58 34 59 42 60 35 61 36 62 40 63 43 64
REMARK SMILES IDX 37 65 38 66 41 67 39 68 65 69 66 70 74 71 67 72 68 73 72 74
REMARK SMILES IDX 75 75 69 76 70 77 73 78 71 79 50 80 51 81 59 82 52 83 53 84
REMARK SMILES IDX 57 85 60 86 54 87 55 88 58 89 56 90
REMARK H PARENT 80 43 48 54
REMARK Flexibility Score: inf
ROOT
ATOM      1  C   UNL A   1      35.153  20.949  25.374  1.00  0.00     0.274 C 
ENDROOT
BRANCH   1   2
ATOM      2  O   UNL A   1      34.317  19.992  24.699  1.00  0.00    -0.462 OA
BRANCH   2   3
ATOM      3  C   UNL A   1      32.981  20.177  24.829  1.00  0.00     0.309 C 
ATOM      4  O   UNL A   1      32.166  19.287  25.047  1.00  0.00    -0.252 OA
BRANCH   3   5
ATOM      5  C   UNL A   1      32.564  21.625  24.697  1.00  0.00     0.102 C 
ATOM      6  N   UNL A   1      31.221  24.139  24.447  1.00  0.00    -0.198 NA
ATOM      7  C   UNL A   1      31.890  23.574  23.249  1.00  0.00     0.103 C 
ATOM      8  C   UNL A   1      31.337  23.495  25.772  1.00  0.00     0.103 C 
ATOM      9  C   UNL A   1      32.122  22.071  23.313  1.00  0.00     0.032 C 
ATOM     10  C   UNL A   1      31.473  21.983  25.688  1.00  0.00     0.032 C 
BRANCH   6  11
ATOM     11  S   UNL A   1      30.702  25.744  24.375  1.00  0.00     0.244 S 
ATOM     12  O   UNL A   1      29.697  25.894  25.410  1.00  0.00    -0.207 OA
ATOM     13  O   UNL A   1      30.392  26.050  22.994  1.00  0.00    -0.207 OA
BRANCH  11  14
ATOM     14  C   UNL A   1      31.992  26.895  24.825  1.00  0.00     0.100 A 
ATOM     15  C   UNL A   1      33.108  27.276  24.079  1.00  0.00     0.072 A 
ATOM     16  C   UNL A   1      34.012  28.215  24.623  1.00  0.00     0.021 A 
ATOM     17  C   UNL A   1      33.811  28.778  25.880  1.00  0.00     0.001 A 
ATOM     18  C   UNL A   1      31.801  27.477  26.099  1.00  0.00     0.023 A 
ATOM     19  C   UNL A   1      32.698  28.409  26.620  1.00  0.00     0.001 A 
BRANCH  15  20
ATOM     20  C   UNL A   1      33.451  26.813  22.776  1.00  0.00     0.101 C 
ATOM     21  N   UNL A   1      33.626  26.386  21.715  1.00  0.00    -0.192 NA
ENDBRANCH  15  20
ENDBRANCH  11  14
ENDBRANCH   6  11
ENDBRANCH   3   5
ENDBRANCH   2   3
ENDBRANCH   1   2
BRANCH   1  22
ATOM     22  C   UNL A   1      36.628  20.724  25.031  1.00  0.00     0.275 C 
BRANCH  22  23
ATOM     23  O   UNL A   1      37.448  21.836  25.445  1.00  0.00    -0.458 OA
BRANCH  23  24
ATOM     24  C   UNL A   1      38.664  21.504  25.935  1.00  0.00     0.338 C 
ATOM     25  O   UNL A   1      39.219  20.420  25.877  1.00  0.00    -0.246 OA
BRANCH  24  26
ATOM     26  C   UNL A   1      39.312  22.689  26.515  1.00  0.00     0.060 A 
ATOM     27  C   UNL A   1      38.877  23.947  26.105  1.00  0.00     0.016 A 
ATOM     28  C   UNL A   1      40.423  22.565  27.347  1.00  0.00     0.016 A 
ATOM     29  C   UNL A   1      39.564  25.092  26.496  1.00  0.00     0.010 A 
ATOM     30  C   UNL A   1      41.096  23.719  27.768  1.00  0.00     0.010 A 
ATOM     31  C   UNL A   1      40.683  24.991  27.330  1.00  0.00    -0.014 A 
BRANCH  31  32
ATOM     32  C   UNL A   1      41.438  26.212  27.711  1.00  0.00     0.031 A 
ATOM     33  C   UNL A   1      40.772  27.288  28.522  1.00  0.00     0.074 A 
ATOM     34  C   UNL A   1      42.724  26.351  27.340  1.00  0.00     0.049 A 
ATOM     35  N   UNL A   1      41.218  28.473  28.857  1.00  0.00    -0.248 NA
ATOM     36  C   UNL A   1      39.419  26.994  29.018  1.00  0.00     0.031 C 
ATOM     37  C   UNL A   1      43.499  25.358  26.595  1.00  0.00     0.029 A 
ATOM     38  N   UNL A   1      43.604  27.387  27.531  1.00  0.00    -0.354 N 
ATOM     39  C   UNL A   1      40.195  29.075  29.574  1.00  0.00     0.074 A 
ATOM     40  C   UNL A   1      39.096  28.133  29.614  1.00  0.00     0.031 C 
ATOM     41  C   UNL A   1      44.739  25.831  26.394  1.00  0.00     0.029 A 
ATOM     42  C   UNL A   1      44.827  27.181  26.941  1.00  0.00     0.049 A 
ATOM     43  H   UNL A   1      43.381  28.198  28.042  1.00  0.00     0.167 HD
ATOM     44  C   UNL A   1      40.176  30.301  30.150  1.00  0.00     0.037 A 
ATOM     45  C   UNL A   1      45.888  28.003  26.822  1.00  0.00     0.037 A 
ATOM     46  C   UNL A   1      41.281  31.227  30.127  1.00  0.00     0.049 A 
ATOM     47  C   UNL A   1      45.818  29.384  27.414  1.00  0.00     0.074 A 
ATOM     48  C   UNL A   1      41.368  32.483  30.702  1.00  0.00     0.029 A 
ATOM     49  N   UNL A   1      42.492  30.995  29.490  1.00  0.00    -0.354 N 
ATOM     50  N   UNL A   1      44.847  29.948  28.089  1.00  0.00    -0.248 NA
ATOM     51  C   UNL A   1      46.993  30.246  27.220  1.00  0.00     0.031 C 
ATOM     52  C   UNL A   1      42.612  33.031  30.371  1.00  0.00     0.029 A 
ATOM     53  C   UNL A   1      43.323  32.095  29.637  1.00  0.00     0.049 A 
ATOM     54  H   UNL A   1      42.727  30.171  29.006  1.00  0.00     0.167 HD
ATOM     55  C   UNL A   1      45.298  31.218  28.420  1.00  0.00     0.074 A 
ATOM     56  C   UNL A   1      46.639  31.336  27.887  1.00  0.00     0.031 C 
ATOM     57  C   UNL A   1      44.658  32.199  29.104  1.00  0.00     0.037 A 
BRANCH  44  58
ATOM     58  C   UNL A   1      38.907  30.733  30.830  1.00  0.00     0.064 A 
ATOM     59  C   UNL A   1      38.731  30.616  32.217  1.00  0.00     0.173 A 
ATOM     60  C   UNL A   1      37.866  31.305  30.083  1.00  0.00     0.173 A 
ATOM     61  F   UNL A   1      39.692  30.067  32.975  1.00  0.00    -0.203 F 
ATOM     62  C   UNL A   1      37.548  31.028  32.826  1.00  0.00     0.198 A 
ATOM     63  C   UNL A   1      36.697  31.744  30.700  1.00  0.00     0.198 A 
ATOM     64  F   UNL A   1      37.984  31.449  28.755  1.00  0.00    -0.203 F 
ATOM     65  F   UNL A   1      37.384  30.863  34.146  1.00  0.00    -0.200 F 
ATOM     66  C   UNL A   1      36.536  31.597  32.069  1.00  0.00     0.200 A 
ATOM     67  F   UNL A   1      35.726  32.308  29.969  1.00  0.00    -0.200 F 
ATOM     68  F   UNL A   1      35.401  32.000  32.658  1.00  0.00    -0.200 F 
ENDBRANCH  44  58
BRANCH  45  69
ATOM     69  C   UNL A   1      47.097  27.546  26.090  1.00  0.00     0.064 A 
ATOM     70  C   UNL A   1      48.191  26.998  26.773  1.00  0.00     0.173 A 
ATOM     71  C   UNL A   1      47.187  27.652  24.693  1.00  0.00     0.173 A 
ATOM     72  F   UNL A   1      48.164  26.899  28.110  1.00  0.00    -0.203 F 
ATOM     73  C   UNL A   1      49.333  26.585  26.088  1.00  0.00     0.198 A 
ATOM     74  C   UNL A   1      48.315  27.211  24.008  1.00  0.00     0.198 A 
ATOM     75  F   UNL A   1      46.169  28.173  23.992  1.00  0.00    -0.203 F 
ATOM     76  F   UNL A   1      50.381  26.104  26.770  1.00  0.00    -0.200 F 
ATOM     77  C   UNL A   1      49.390  26.685  24.706  1.00  0.00     0.200 A 
ATOM     78  F   UNL A   1      48.362  27.298  22.672  1.00  0.00    -0.200 F 
ATOM     79  F   UNL A   1      50.487  26.281  24.049  1.00  0.00    -0.200 F 
ENDBRANCH  45  69
BRANCH  57  80
ATOM     80  C   UNL A   1      45.413  33.474  29.345  1.00  0.00     0.064 A 
ATOM     81  C   UNL A   1      45.331  34.558  28.459  1.00  0.00     0.173 A 
ATOM     82  C   UNL A   1      46.205  33.624  30.494  1.00  0.00     0.173 A 
ATOM     83  F   UNL A   1      44.602  34.460  27.337  1.00  0.00    -0.203 F 
ATOM     84  C   UNL A   1      46.034  35.736  28.702  1.00  0.00     0.198 A 
ATOM     85  C   UNL A   1      46.881  34.813  30.750  1.00  0.00     0.198 A 
ATOM     86  F   UNL A   1      46.313  32.618  31.376  1.00  0.00    -0.203 F 
ATOM     87  F   UNL A   1      45.981  36.740  27.817  1.00  0.00    -0.200 F 
ATOM     88  C   UNL A   1      46.802  35.865  29.850  1.00  0.00     0.200 A 
ATOM     89  F   UNL A   1      47.612  34.940  31.866  1.00  0.00    -0.200 F 
ATOM     90  F   UNL A   1      47.473  37.001  30.085  1.00  0.00    -0.200 F 
ENDBRANCH  57  80
ENDBRANCH  31  32
ENDBRANCH  24  26
ENDBRANCH  23  24
ENDBRANCH  22  23
ENDBRANCH   1  22
TORSDOF 14
ENDMDL
