MODEL 1
REMARK VINA RESULT:      -9.9      0.000      0.000
REMARK SMILES CC(C)(C)N(CC(=O)OCCOC(=O)c1ccc(-c2c3nc(c(-c4c(F)c(F)c(F)c(F)c4F)c4ccc([nH]4)c(-c4c(F)c(F)c(F)c(F)c4F)c4nc(c(-c5c(F)c(F)c(F)c(F)c5F)c5ccc2[nH]5)C=C4)C=C3)cc1)C(=O)N(CCO)C1CC1
REMARK SMILES IDX 7 1 8 2 6 3 5 4 2 5 1 6 3 7 4 8 78 9 79 10 80 11 81 12 82 13
REMARK SMILES IDX 83 14 84 16 85 17 86 18 9 19 10 20 11 21 12 22 13 23 14 24
REMARK SMILES IDX 15 25 16 26 77 27 17 28 76 29 18 30 19 31 20 32 70 33 21 34
REMARK SMILES IDX 75 35 69 36 71 37 22 38 74 39 68 40 67 41 23 43 55 44 35 45
REMARK SMILES IDX 54 46 36 47 39 48 53 49 72 50 37 51 38 52 52 54 73 55 40 56
REMARK SMILES IDX 24 57 25 58 33 59 26 60 27 61 31 62 34 63 28 64 29 65 32 66
REMARK SMILES IDX 30 67 56 68 57 69 65 70 58 71 59 72 63 73 66 74 60 75 61 76
REMARK SMILES IDX 64 77 62 78 41 79 42 80 50 81 43 82 44 83 48 84 51 85 45 86
REMARK SMILES IDX 46 87 49 88 47 89
REMARK H PARENT 83 15 71 42 39 53
REMARK Flexibility Score: inf
ROOT
ATOM      1  C   UNL A   1      35.897  23.308  23.781  1.00  0.00     0.325 C 
ATOM      2  O   UNL A   1      35.253  23.332  22.738  1.00  0.00    -0.250 OA
ENDROOT
BRANCH   1   3
ATOM      3  C   UNL A   1      35.431  24.049  25.043  1.00  0.00     0.244 C 
BRANCH   3   4
ATOM      4  N   UNL A   1      34.065  24.580  25.028  1.00  0.00    -0.309 N 
BRANCH   4   5
ATOM      5  C   UNL A   1      32.980  23.626  25.546  1.00  0.00     0.037 C 
ATOM      6  C   UNL A   1      33.512  22.383  26.323  1.00  0.00     0.034 C 
ATOM      7  C   UNL A   1      32.173  23.034  24.368  1.00  0.00     0.034 C 
ATOM      8  C   UNL A   1      32.048  24.346  26.555  1.00  0.00     0.034 C 
ENDBRANCH   4   5
BRANCH   4   9
ATOM      9  C   UNL A   1      33.683  25.904  24.790  1.00  0.00     0.321 C 
ATOM     10  O   UNL A   1      33.919  26.734  25.678  1.00  0.00    -0.248 OA
BRANCH   9  11
ATOM     11  N   UNL A   1      33.076  26.358  23.622  1.00  0.00    -0.319 N 
BRANCH  11  12
ATOM     12  C   UNL A   1      33.541  26.280  22.220  1.00  0.00     0.150 C 
BRANCH  12  13
ATOM     13  C   UNL A   1      32.596  25.586  21.225  1.00  0.00     0.177 C 
BRANCH  13  14
ATOM     14  O   UNL A   1      33.078  24.301  20.838  1.00  0.00    -0.395 OA
ATOM     15  H   UNL A   1      32.767  24.095  19.943  1.00  0.00     0.210 HD
ENDBRANCH  13  14
ENDBRANCH  12  13
ENDBRANCH  11  12
BRANCH  11  16
ATOM     16  C   UNL A   1      31.838  27.151  23.741  1.00  0.00     0.087 C 
ATOM     17  C   UNL A   1      30.506  26.444  23.922  1.00  0.00     0.027 C 
ATOM     18  C   UNL A   1      30.992  27.381  24.971  1.00  0.00     0.027 C 
ENDBRANCH  11  16
ENDBRANCH   9  11
ENDBRANCH   4   9
ENDBRANCH   3   4
ENDBRANCH   1   3
BRANCH   1  19
ATOM     19  O   UNL A   1      36.987  22.515  23.998  1.00  0.00    -0.461 OA
BRANCH  19  20
ATOM     20  C   UNL A   1      36.754  21.304  24.746  1.00  0.00     0.274 C 
BRANCH  20  21
ATOM     21  C   UNL A   1      38.077  20.574  25.022  1.00  0.00     0.275 C 
BRANCH  21  22
ATOM     22  O   UNL A   1      38.677  20.870  26.298  1.00  0.00    -0.458 OA
BRANCH  22  23
ATOM     23  C   UNL A   1      40.011  21.071  26.353  1.00  0.00     0.338 C 
ATOM     24  O   UNL A   1      40.887  20.267  26.119  1.00  0.00    -0.246 OA
BRANCH  23  25
ATOM     25  C   UNL A   1      40.237  22.408  26.949  1.00  0.00     0.060 A 
ATOM     26  C   UNL A   1      41.245  22.541  27.908  1.00  0.00     0.016 A 
ATOM     27  C   UNL A   1      39.464  23.515  26.582  1.00  0.00     0.016 A 
ATOM     28  C   UNL A   1      41.492  23.786  28.492  1.00  0.00     0.010 A 
ATOM     29  C   UNL A   1      39.754  24.775  27.118  1.00  0.00     0.010 A 
ATOM     30  C   UNL A   1      40.797  24.925  28.047  1.00  0.00    -0.014 A 
BRANCH  30  31
ATOM     31  C   UNL A   1      41.380  26.270  28.300  1.00  0.00     0.031 A 
ATOM     32  C   UNL A   1      40.638  27.385  28.967  1.00  0.00     0.074 A 
ATOM     33  C   UNL A   1      42.640  26.466  27.859  1.00  0.00     0.049 A 
ATOM     34  N   UNL A   1      41.041  28.610  29.201  1.00  0.00    -0.248 NA
ATOM     35  C   UNL A   1      39.275  27.101  29.436  1.00  0.00     0.031 C 
ATOM     36  C   UNL A   1      43.454  25.451  27.182  1.00  0.00     0.029 A 
ATOM     37  N   UNL A   1      43.459  27.564  27.908  1.00  0.00    -0.354 N 
ATOM     38  C   UNL A   1      39.990  29.247  29.845  1.00  0.00     0.074 A 
ATOM     39  C   UNL A   1      38.919  28.273  29.952  1.00  0.00     0.031 C 
ATOM     40  C   UNL A   1      44.658  25.963  26.903  1.00  0.00     0.029 A 
ATOM     41  C   UNL A   1      44.682  27.358  27.319  1.00  0.00     0.049 A 
ATOM     42  H   UNL A   1      43.196  28.417  28.324  1.00  0.00     0.167 HD
ATOM     43  C   UNL A   1      39.934  30.525  30.297  1.00  0.00     0.037 A 
ATOM     44  C   UNL A   1      45.707  28.200  27.102  1.00  0.00     0.037 A 
ATOM     45  C   UNL A   1      41.006  31.487  30.176  1.00  0.00     0.049 A 
ATOM     46  C   UNL A   1      45.595  29.616  27.573  1.00  0.00     0.074 A 
ATOM     47  C   UNL A   1      41.051  32.793  30.638  1.00  0.00     0.029 A 
ATOM     48  N   UNL A   1      42.216  31.255  29.537  1.00  0.00    -0.354 N 
ATOM     49  N   UNL A   1      44.602  30.196  28.198  1.00  0.00    -0.248 NA
ATOM     50  C   UNL A   1      46.740  30.493  27.304  1.00  0.00     0.031 C 
ATOM     51  C   UNL A   1      42.265  33.364  30.239  1.00  0.00     0.029 A 
ATOM     52  C   UNL A   1      43.000  32.401  29.569  1.00  0.00     0.049 A 
ATOM     53  H   UNL A   1      42.480  30.402  29.123  1.00  0.00     0.167 HD
ATOM     54  C   UNL A   1      45.001  31.507  28.406  1.00  0.00     0.074 A 
ATOM     55  C   UNL A   1      46.338  31.628  27.858  1.00  0.00     0.031 C 
ATOM     56  C   UNL A   1      44.319  32.517  28.999  1.00  0.00     0.037 A 
BRANCH  43  57
ATOM     57  C   UNL A   1      38.667  30.986  30.961  1.00  0.00     0.064 A 
ATOM     58  C   UNL A   1      38.495  30.910  32.350  1.00  0.00     0.173 A 
ATOM     59  C   UNL A   1      37.656  31.604  30.209  1.00  0.00     0.173 A 
ATOM     60  F   UNL A   1      39.432  30.329  33.115  1.00  0.00    -0.203 F 
ATOM     61  C   UNL A   1      37.355  31.428  32.962  1.00  0.00     0.198 A 
ATOM     62  C   UNL A   1      36.527  32.139  30.825  1.00  0.00     0.198 A 
ATOM     63  F   UNL A   1      37.776  31.714  28.877  1.00  0.00    -0.203 F 
ATOM     64  F   UNL A   1      37.204  31.330  34.290  1.00  0.00    -0.200 F 
ATOM     65  C   UNL A   1      36.376  32.050  32.200  1.00  0.00     0.200 A 
ATOM     66  F   UNL A   1      35.591  32.754  30.088  1.00  0.00    -0.200 F 
ATOM     67  F   UNL A   1      35.289  32.565  32.791  1.00  0.00    -0.200 F 
ENDBRANCH  43  57
BRANCH  44  68
ATOM     68  C   UNL A   1      46.911  27.704  26.393  1.00  0.00     0.064 A 
ATOM     69  C   UNL A   1      47.991  27.158  27.096  1.00  0.00     0.173 A 
ATOM     70  C   UNL A   1      46.973  27.708  24.991  1.00  0.00     0.173 A 
ATOM     71  F   UNL A   1      47.981  27.149  28.437  1.00  0.00    -0.203 F 
ATOM     72  C   UNL A   1      49.089  26.630  26.422  1.00  0.00     0.198 A 
ATOM     73  C   UNL A   1      48.058  27.153  24.318  1.00  0.00     0.198 A 
ATOM     74  F   UNL A   1      45.958  28.213  24.274  1.00  0.00    -0.203 F 
ATOM     75  F   UNL A   1      50.120  26.130  27.116  1.00  0.00    -0.200 F 
ATOM     76  C   UNL A   1      49.118  26.617  25.035  1.00  0.00     0.200 A 
ATOM     77  F   UNL A   1      48.071  27.125  22.979  1.00  0.00    -0.200 F 
ATOM     78  F   UNL A   1      50.164  26.088  24.388  1.00  0.00    -0.200 F 
ENDBRANCH  44  68
BRANCH  56  79
ATOM     79  C   UNL A   1      45.022  33.837  29.087  1.00  0.00     0.064 A 
ATOM     80  C   UNL A   1      45.843  34.157  30.177  1.00  0.00     0.173 A 
ATOM     81  C   UNL A   1      44.861  34.799  28.078  1.00  0.00     0.173 A 
ATOM     82  F   UNL A   1      46.009  33.278  31.178  1.00  0.00    -0.203 F 
ATOM     83  C   UNL A   1      46.456  35.404  30.271  1.00  0.00     0.198 A 
ATOM     84  C   UNL A   1      45.495  36.035  28.161  1.00  0.00     0.198 A 
ATOM     85  F   UNL A   1      44.085  34.541  27.015  1.00  0.00    -0.203 F 
ATOM     86  F   UNL A   1      47.191  35.709  31.349  1.00  0.00    -0.200 F 
ATOM     87  C   UNL A   1      46.284  36.340  29.262  1.00  0.00     0.200 A 
ATOM     88  F   UNL A   1      45.333  36.937  27.185  1.00  0.00    -0.200 F 
ATOM     89  F   UNL A   1      46.867  37.543  29.356  1.00  0.00    -0.200 F 
ENDBRANCH  56  79
ENDBRANCH  30  31
ENDBRANCH  23  25
ENDBRANCH  22  23
ENDBRANCH  21  22
ENDBRANCH  20  21
ENDBRANCH  19  20
ENDBRANCH   1  19
TORSDOF 19
ENDMDL
MODEL 2
REMARK VINA RESULT:      -9.9      4.375      9.995
REMARK SMILES CC(C)(C)N(CC(=O)OCCOC(=O)c1ccc(-c2c3nc(c(-c4c(F)c(F)c(F)c(F)c4F)c4ccc([nH]4)c(-c4c(F)c(F)c(F)c(F)c4F)c4nc(c(-c5c(F)c(F)c(F)c(F)c5F)c5ccc2[nH]5)C=C4)C=C3)cc1)C(=O)N(CCO)C1CC1
REMARK SMILES IDX 7 1 8 2 6 3 5 4 2 5 1 6 3 7 4 8 78 9 79 10 80 11 81 12 82 13
REMARK SMILES IDX 83 14 84 16 85 17 86 18 9 19 10 20 11 21 12 22 13 23 14 24
REMARK SMILES IDX 15 25 16 26 77 27 17 28 76 29 18 30 19 31 20 32 70 33 21 34
REMARK SMILES IDX 75 35 69 36 71 37 22 38 74 39 68 40 67 41 23 43 55 44 35 45
REMARK SMILES IDX 54 46 36 47 39 48 53 49 72 50 37 51 38 52 52 54 73 55 40 56
REMARK SMILES IDX 24 57 25 58 33 59 26 60 27 61 31 62 34 63 28 64 29 65 32 66
REMARK SMILES IDX 30 67 56 68 57 69 65 70 58 71 59 72 63 73 66 74 60 75 61 76
REMARK SMILES IDX 64 77 62 78 41 79 42 80 50 81 43 82 44 83 48 84 51 85 45 86
REMARK SMILES IDX 46 87 49 88 47 89
REMARK H PARENT 83 15 71 42 39 53
REMARK Flexibility Score: inf
ROOT
ATOM      1  C   UNL A   1      33.044  29.120  26.153  1.00  0.00     0.325 C 
ATOM      2  O   UNL A   1      34.016  28.478  26.538  1.00  0.00    -0.250 OA
ENDROOT
BRANCH   1   3
ATOM      3  C   UNL A   1      31.680  28.459  25.907  1.00  0.00     0.244 C 
BRANCH   3   4
ATOM      4  N   UNL A   1      31.567  27.599  24.727  1.00  0.00    -0.309 N 
BRANCH   4   5
ATOM      5  C   UNL A   1      31.302  28.326  23.402  1.00  0.00     0.037 C 
ATOM      6  C   UNL A   1      30.310  29.525  23.496  1.00  0.00     0.034 C 
ATOM      7  C   UNL A   1      30.658  27.365  22.376  1.00  0.00     0.034 C 
ATOM      8  C   UNL A   1      32.610  28.946  22.841  1.00  0.00     0.034 C 
ENDBRANCH   4   5
BRANCH   4   9
ATOM      9  C   UNL A   1      31.873  26.235  24.651  1.00  0.00     0.321 C 
ATOM     10  O   UNL A   1      30.964  25.433  24.901  1.00  0.00    -0.248 OA
BRANCH   9  11
ATOM     11  N   UNL A   1      33.117  25.720  24.299  1.00  0.00    -0.319 N 
BRANCH  11  12
ATOM     12  C   UNL A   1      33.643  25.338  22.971  1.00  0.00     0.150 C 
BRANCH  12  13
ATOM     13  C   UNL A   1      33.096  24.032  22.369  1.00  0.00     0.177 C 
BRANCH  13  14
ATOM     14  O   UNL A   1      32.060  23.469  23.169  1.00  0.00    -0.395 OA
ATOM     15  H   UNL A   1      32.353  23.422  24.093  1.00  0.00     0.210 HD
ENDBRANCH  13  14
ENDBRANCH  12  13
ENDBRANCH  11  12
BRANCH  11  16
ATOM     16  C   UNL A   1      34.056  25.362  25.379  1.00  0.00     0.087 C 
ATOM     17  C   UNL A   1      33.930  24.016  26.071  1.00  0.00     0.027 C 
ATOM     18  C   UNL A   1      35.182  24.356  25.340  1.00  0.00     0.027 C 
ENDBRANCH  11  16
ENDBRANCH   9  11
ENDBRANCH   4   9
ENDBRANCH   3   4
ENDBRANCH   1   3
BRANCH   1  19
ATOM     19  O   UNL A   1      33.006  30.480  26.054  1.00  0.00    -0.461 OA
BRANCH  19  20
ATOM     20  C   UNL A   1      31.756  31.109  26.404  1.00  0.00     0.274 C 
BRANCH  20  21
ATOM     21  C   UNL A   1      31.987  32.551  26.878  1.00  0.00     0.275 C 
BRANCH  21  22
ATOM     22  O   UNL A   1      32.821  32.677  28.047  1.00  0.00    -0.458 OA
BRANCH  22  23
ATOM     23  C   UNL A   1      33.872  33.524  28.001  1.00  0.00     0.338 C 
ATOM     24  O   UNL A   1      33.873  34.678  27.629  1.00  0.00    -0.246 OA
BRANCH  23  25
ATOM     25  C   UNL A   1      35.092  32.738  28.300  1.00  0.00     0.060 A 
ATOM     26  C   UNL A   1      36.297  33.427  28.463  1.00  0.00     0.016 A 
ATOM     27  C   UNL A   1      35.056  31.344  28.410  1.00  0.00     0.016 A 
ATOM     28  C   UNL A   1      37.469  32.722  28.749  1.00  0.00     0.010 A 
ATOM     29  C   UNL A   1      36.217  30.644  28.762  1.00  0.00     0.010 A 
ATOM     30  C   UNL A   1      37.422  31.334  28.973  1.00  0.00    -0.014 A 
BRANCH  30  31
ATOM     31  C   UNL A   1      38.525  30.689  29.734  1.00  0.00     0.031 A 
ATOM     32  C   UNL A   1      39.437  29.652  29.155  1.00  0.00     0.074 A 
ATOM     33  C   UNL A   1      38.659  31.063  31.023  1.00  0.00     0.049 A 
ATOM     34  N   UNL A   1      40.406  28.997  29.745  1.00  0.00    -0.248 NA
ATOM     35  C   UNL A   1      39.246  29.301  27.742  1.00  0.00     0.031 C 
ATOM     36  C   UNL A   1      37.816  32.058  31.694  1.00  0.00     0.029 A 
ATOM     37  N   UNL A   1      39.538  30.666  31.996  1.00  0.00    -0.354 N 
ATOM     38  C   UNL A   1      40.948  28.157  28.782  1.00  0.00     0.074 A 
ATOM     39  C   UNL A   1      40.184  28.375  27.567  1.00  0.00     0.031 C 
ATOM     40  C   UNL A   1      38.233  32.212  32.956  1.00  0.00     0.029 A 
ATOM     41  C   UNL A   1      39.326  31.283  33.205  1.00  0.00     0.049 A 
ATOM     42  H   UNL A   1      40.251  30.005  31.845  1.00  0.00     0.167 HD
ATOM     43  C   UNL A   1      41.982  27.289  28.911  1.00  0.00     0.037 A 
ATOM     44  C   UNL A   1      39.919  31.105  34.399  1.00  0.00     0.037 A 
ATOM     45  C   UNL A   1      42.728  27.076  30.131  1.00  0.00     0.049 A 
ATOM     46  C   UNL A   1      41.026  30.106  34.519  1.00  0.00     0.074 A 
ATOM     47  C   UNL A   1      43.816  26.243  30.344  1.00  0.00     0.029 A 
ATOM     48  N   UNL A   1      42.459  27.689  31.347  1.00  0.00    -0.354 N 
ATOM     49  N   UNL A   1      41.538  29.335  33.593  1.00  0.00    -0.248 NA
ATOM     50  C   UNL A   1      41.631  29.949  35.845  1.00  0.00     0.031 C 
ATOM     51  C   UNL A   1      44.173  26.316  31.696  1.00  0.00     0.029 A 
ATOM     52  C   UNL A   1      43.340  27.230  32.318  1.00  0.00     0.049 A 
ATOM     53  H   UNL A   1      41.748  28.351  31.498  1.00  0.00     0.167 HD
ATOM     54  C   UNL A   1      42.534  28.603  34.220  1.00  0.00     0.074 A 
ATOM     55  C   UNL A   1      42.565  29.040  35.602  1.00  0.00     0.031 C 
ATOM     56  C   UNL A   1      43.347  27.655  33.695  1.00  0.00     0.037 A 
BRANCH  43  57
ATOM     57  C   UNL A   1      42.379  26.477  27.711  1.00  0.00     0.064 A 
ATOM     58  C   UNL A   1      43.416  26.883  26.859  1.00  0.00     0.173 A 
ATOM     59  C   UNL A   1      41.783  25.229  27.469  1.00  0.00     0.173 A 
ATOM     60  F   UNL A   1      44.019  28.066  27.045  1.00  0.00    -0.203 F 
ATOM     61  C   UNL A   1      43.836  26.074  25.805  1.00  0.00     0.198 A 
ATOM     62  C   UNL A   1      42.220  24.413  26.428  1.00  0.00     0.198 A 
ATOM     63  F   UNL A   1      40.795  24.787  28.263  1.00  0.00    -0.203 F 
ATOM     64  F   UNL A   1      44.818  26.488  24.992  1.00  0.00    -0.200 F 
ATOM     65  C   UNL A   1      43.244  24.836  25.595  1.00  0.00     0.200 A 
ATOM     66  F   UNL A   1      41.657  23.211  26.238  1.00  0.00    -0.200 F 
ATOM     67  F   UNL A   1      43.663  24.051  24.593  1.00  0.00    -0.200 F 
ENDBRANCH  43  57
BRANCH  44  68
ATOM     68  C   UNL A   1      39.448  31.896  35.563  1.00  0.00     0.064 A 
ATOM     69  C   UNL A   1      39.894  33.205  35.775  1.00  0.00     0.173 A 
ATOM     70  C   UNL A   1      38.490  31.375  36.447  1.00  0.00     0.173 A 
ATOM     71  F   UNL A   1      40.821  33.737  34.965  1.00  0.00    -0.203 F 
ATOM     72  C   UNL A   1      39.397  33.968  36.829  1.00  0.00     0.198 A 
ATOM     73  C   UNL A   1      37.973  32.149  37.482  1.00  0.00     0.198 A 
ATOM     74  F   UNL A   1      38.027  30.128  36.277  1.00  0.00    -0.203 F 
ATOM     75  F   UNL A   1      39.853  35.212  37.025  1.00  0.00    -0.200 F 
ATOM     76  C   UNL A   1      38.429  33.444  37.674  1.00  0.00     0.200 A 
ATOM     77  F   UNL A   1      37.024  31.645  38.281  1.00  0.00    -0.200 F 
ATOM     78  F   UNL A   1      37.935  34.187  38.673  1.00  0.00    -0.200 F 
ENDBRANCH  44  68
BRANCH  56  79
ATOM     79  C   UNL A   1      44.343  27.037  34.629  1.00  0.00     0.064 A 
ATOM     80  C   UNL A   1      45.609  27.606  34.828  1.00  0.00     0.173 A 
ATOM     81  C   UNL A   1      44.035  25.856  35.319  1.00  0.00     0.173 A 
ATOM     82  F   UNL A   1      45.958  28.724  34.171  1.00  0.00    -0.203 F 
ATOM     83  C   UNL A   1      46.543  27.000  35.663  1.00  0.00     0.198 A 
ATOM     84  C   UNL A   1      44.962  25.265  36.174  1.00  0.00     0.198 A 
ATOM     85  F   UNL A   1      42.837  25.272  35.162  1.00  0.00    -0.203 F 
ATOM     86  F   UNL A   1      47.766  27.530  35.795  1.00  0.00    -0.200 F 
ATOM     87  C   UNL A   1      46.218  25.832  36.337  1.00  0.00     0.200 A 
ATOM     88  F   UNL A   1      44.646  24.140  36.828  1.00  0.00    -0.200 F 
ATOM     89  F   UNL A   1      47.121  25.243  37.134  1.00  0.00    -0.200 F 
ENDBRANCH  56  79
ENDBRANCH  30  31
ENDBRANCH  23  25
ENDBRANCH  22  23
ENDBRANCH  21  22
ENDBRANCH  20  21
ENDBRANCH  19  20
ENDBRANCH   1  19
TORSDOF 19
ENDMDL
MODEL 3
REMARK VINA RESULT:      -9.8      0.799      2.153
REMARK SMILES CC(C)(C)N(CC(=O)OCCOC(=O)c1ccc(-c2c3nc(c(-c4c(F)c(F)c(F)c(F)c4F)c4ccc([nH]4)c(-c4c(F)c(F)c(F)c(F)c4F)c4nc(c(-c5c(F)c(F)c(F)c(F)c5F)c5ccc2[nH]5)C=C4)C=C3)cc1)C(=O)N(CCO)C1CC1
REMARK SMILES IDX 7 1 8 2 6 3 5 4 2 5 1 6 3 7 4 8 78 9 79 10 80 11 81 12 82 13
REMARK SMILES IDX 83 14 84 16 85 17 86 18 9 19 10 20 11 21 12 22 13 23 14 24
REMARK SMILES IDX 15 25 16 26 77 27 17 28 76 29 18 30 19 31 20 32 70 33 21 34
REMARK SMILES IDX 75 35 69 36 71 37 22 38 74 39 68 40 67 41 23 43 55 44 35 45
REMARK SMILES IDX 54 46 36 47 39 48 53 49 72 50 37 51 38 52 52 54 73 55 40 56
REMARK SMILES IDX 24 57 25 58 33 59 26 60 27 61 31 62 34 63 28 64 29 65 32 66
REMARK SMILES IDX 30 67 56 68 57 69 65 70 58 71 59 72 63 73 66 74 60 75 61 76
REMARK SMILES IDX 64 77 62 78 41 79 42 80 50 81 43 82 44 83 48 84 51 85 45 86
REMARK SMILES IDX 46 87 49 88 47 89
REMARK H PARENT 83 15 71 42 39 53
REMARK Flexibility Score: inf
ROOT
ATOM      1  C   UNL A   1      35.619  22.745  23.739  1.00  0.00     0.325 C 
ATOM      2  O   UNL A   1      36.286  23.095  22.772  1.00  0.00    -0.250 OA
ENDROOT
BRANCH   1   3
ATOM      3  C   UNL A   1      34.087  22.665  23.684  1.00  0.00     0.244 C 
BRANCH   3   4
ATOM      4  N   UNL A   1      33.353  23.354  24.749  1.00  0.00    -0.309 N 
BRANCH   4   5
ATOM      5  C   UNL A   1      32.565  22.445  25.702  1.00  0.00     0.037 C 
ATOM      6  C   UNL A   1      31.018  22.639  25.668  1.00  0.00     0.034 C 
ATOM      7  C   UNL A   1      32.961  22.728  27.170  1.00  0.00     0.034 C 
ATOM      8  C   UNL A   1      32.779  20.951  25.344  1.00  0.00     0.034 C 
ENDBRANCH   4   5
BRANCH   4   9
ATOM      9  C   UNL A   1      33.459  24.704  25.103  1.00  0.00     0.321 C 
ATOM     10  O   UNL A   1      34.480  25.055  25.709  1.00  0.00    -0.248 OA
BRANCH   9  11
ATOM     11  N   UNL A   1      32.511  25.679  24.807  1.00  0.00    -0.319 N 
BRANCH  11  12
ATOM     12  C   UNL A   1      31.411  26.215  25.637  1.00  0.00     0.150 C 
BRANCH  12  13
ATOM     13  C   UNL A   1      31.719  27.494  26.434  1.00  0.00     0.177 C 
BRANCH  13  14
ATOM     14  O   UNL A   1      33.106  27.611  26.743  1.00  0.00    -0.395 OA
ATOM     15  H   UNL A   1      33.564  28.055  26.013  1.00  0.00     0.210 HD
ENDBRANCH  13  14
ENDBRANCH  12  13
ENDBRANCH  11  12
BRANCH  11  16
ATOM     16  C   UNL A   1      32.465  26.213  23.432  1.00  0.00     0.087 C 
ATOM     17  C   UNL A   1      33.340  27.394  23.054  1.00  0.00     0.027 C 
ATOM     18  C   UNL A   1      33.511  26.094  22.350  1.00  0.00     0.027 C 
ENDBRANCH  11  16
ENDBRANCH   9  11
ENDBRANCH   4   9
ENDBRANCH   3   4
ENDBRANCH   1   3
BRANCH   1  19
ATOM     19  O   UNL A   1      36.140  22.242  24.896  1.00  0.00    -0.461 OA
BRANCH  19  20
ATOM     20  C   UNL A   1      36.383  20.820  24.919  1.00  0.00     0.274 C 
BRANCH  20  21
ATOM     21  C   UNL A   1      37.887  20.528  25.033  1.00  0.00     0.275 C 
BRANCH  21  22
ATOM     22  O   UNL A   1      38.494  20.954  26.269  1.00  0.00    -0.458 OA
BRANCH  22  23
ATOM     23  C   UNL A   1      39.835  21.113  26.307  1.00  0.00     0.338 C 
ATOM     24  O   UNL A   1      40.682  20.280  26.067  1.00  0.00    -0.246 OA
BRANCH  23  25
ATOM     25  C   UNL A   1      40.110  22.444  26.896  1.00  0.00     0.060 A 
ATOM     26  C   UNL A   1      41.121  22.544  27.857  1.00  0.00     0.016 A 
ATOM     27  C   UNL A   1      39.381  23.577  26.520  1.00  0.00     0.016 A 
ATOM     28  C   UNL A   1      41.413  23.782  28.434  1.00  0.00     0.010 A 
ATOM     29  C   UNL A   1      39.718  24.828  27.049  1.00  0.00     0.010 A 
ATOM     30  C   UNL A   1      40.763  24.945  27.980  1.00  0.00    -0.014 A 
BRANCH  30  31
ATOM     31  C   UNL A   1      41.397  26.268  28.226  1.00  0.00     0.031 A 
ATOM     32  C   UNL A   1      40.713  27.398  28.929  1.00  0.00     0.074 A 
ATOM     33  C   UNL A   1      42.647  26.429  27.745  1.00  0.00     0.049 A 
ATOM     34  N   UNL A   1      41.162  28.607  29.160  1.00  0.00    -0.248 NA
ATOM     35  C   UNL A   1      39.357  27.152  29.440  1.00  0.00     0.031 C 
ATOM     36  C   UNL A   1      43.405  25.396  27.032  1.00  0.00     0.029 A 
ATOM     37  N   UNL A   1      43.501  27.500  27.778  1.00  0.00    -0.354 N 
ATOM     38  C   UNL A   1      40.154  29.270  29.846  1.00  0.00     0.074 A 
ATOM     39  C   UNL A   1      39.056  28.329  29.979  1.00  0.00     0.031 C 
ATOM     40  C   UNL A   1      44.615  25.873  26.717  1.00  0.00     0.029 A 
ATOM     41  C   UNL A   1      44.697  27.262  27.146  1.00  0.00     0.049 A 
ATOM     42  H   UNL A   1      43.279  28.356  28.210  1.00  0.00     0.167 HD
ATOM     43  C   UNL A   1      40.153  30.544  30.312  1.00  0.00     0.037 A 
ATOM     44  C   UNL A   1      45.740  28.074  26.903  1.00  0.00     0.037 A 
ATOM     45  C   UNL A   1      41.250  31.474  30.164  1.00  0.00     0.049 A 
ATOM     46  C   UNL A   1      45.689  29.488  27.391  1.00  0.00     0.074 A 
ATOM     47  C   UNL A   1      41.352  32.773  30.637  1.00  0.00     0.029 A 
ATOM     48  N   UNL A   1      42.431  31.210  29.483  1.00  0.00    -0.354 N 
ATOM     49  N   UNL A   1      44.736  30.092  28.055  1.00  0.00    -0.248 NA
ATOM     50  C   UNL A   1      46.851  30.332  27.093  1.00  0.00     0.031 C 
ATOM     51  C   UNL A   1      42.570  33.310  30.203  1.00  0.00     0.029 A 
ATOM     52  C   UNL A   1      43.251  32.331  29.499  1.00  0.00     0.049 A 
ATOM     53  H   UNL A   1      42.653  30.354  29.052  1.00  0.00     0.167 HD
ATOM     54  C   UNL A   1      45.183  31.387  28.262  1.00  0.00     0.074 A 
ATOM     55  C   UNL A   1      46.504  31.472  27.671  1.00  0.00     0.031 C 
ATOM     56  C   UNL A   1      44.553  32.411  28.887  1.00  0.00     0.037 A 
BRANCH  43  57
ATOM     57  C   UNL A   1      38.924  31.037  31.022  1.00  0.00     0.064 A 
ATOM     58  C   UNL A   1      37.820  31.539  30.318  1.00  0.00     0.173 A 
ATOM     59  C   UNL A   1      38.810  30.911  32.415  1.00  0.00     0.173 A 
ATOM     60  F   UNL A   1      37.876  31.679  28.985  1.00  0.00    -0.203 F 
ATOM     61  C   UNL A   1      36.650  31.903  30.983  1.00  0.00     0.198 A 
ATOM     62  C   UNL A   1      37.633  31.257  33.075  1.00  0.00     0.198 A 
ATOM     63  F   UNL A   1      39.833  30.425  33.136  1.00  0.00    -0.203 F 
ATOM     64  F   UNL A   1      35.613  32.396  30.292  1.00  0.00    -0.200 F 
ATOM     65  C   UNL A   1      36.554  31.754  32.359  1.00  0.00     0.200 A 
ATOM     66  F   UNL A   1      37.537  31.096  34.403  1.00  0.00    -0.200 F 
ATOM     67  F   UNL A   1      35.422  32.087  32.995  1.00  0.00    -0.200 F 
ENDBRANCH  43  57
BRANCH  44  68
ATOM     68  C   UNL A   1      46.904  27.549  26.149  1.00  0.00     0.064 A 
ATOM     69  C   UNL A   1      46.975  27.664  24.756  1.00  0.00     0.173 A 
ATOM     70  C   UNL A   1      47.999  26.981  26.818  1.00  0.00     0.173 A 
ATOM     71  F   UNL A   1      45.944  28.186  24.074  1.00  0.00    -0.203 F 
ATOM     72  C   UNL A   1      48.100  27.232  24.058  1.00  0.00     0.198 A 
ATOM     73  C   UNL A   1      49.135  26.576  26.123  1.00  0.00     0.198 A 
ATOM     74  F   UNL A   1      47.980  26.858  28.154  1.00  0.00    -0.203 F 
ATOM     75  F   UNL A   1      48.137  27.334  22.723  1.00  0.00    -0.200 F 
ATOM     76  C   UNL A   1      49.183  26.700  24.742  1.00  0.00     0.200 A 
ATOM     77  F   UNL A   1      50.186  26.082  26.790  1.00  0.00    -0.200 F 
ATOM     78  F   UNL A   1      50.274  26.306  24.072  1.00  0.00    -0.200 F 
ENDBRANCH  44  68
BRANCH  56  79
ATOM     79  C   UNL A   1      45.300  33.708  28.964  1.00  0.00     0.064 A 
ATOM     80  C   UNL A   1      46.162  33.994  30.033  1.00  0.00     0.173 A 
ATOM     81  C   UNL A   1      45.142  34.682  27.967  1.00  0.00     0.173 A 
ATOM     82  F   UNL A   1      46.328  33.102  31.023  1.00  0.00    -0.203 F 
ATOM     83  C   UNL A   1      46.816  35.219  30.118  1.00  0.00     0.198 A 
ATOM     84  C   UNL A   1      45.817  35.897  28.041  1.00  0.00     0.198 A 
ATOM     85  F   UNL A   1      44.329  34.457  26.924  1.00  0.00    -0.203 F 
ATOM     86  F   UNL A   1      47.591  35.493  31.177  1.00  0.00    -0.200 F 
ATOM     87  C   UNL A   1      46.646  36.169  29.121  1.00  0.00     0.200 A 
ATOM     88  F   UNL A   1      45.657  36.812  27.076  1.00  0.00    -0.200 F 
ATOM     89  F   UNL A   1      47.269  37.352  29.207  1.00  0.00    -0.200 F 
ENDBRANCH  56  79
ENDBRANCH  30  31
ENDBRANCH  23  25
ENDBRANCH  22  23
ENDBRANCH  21  22
ENDBRANCH  20  21
ENDBRANCH  19  20
ENDBRANCH   1  19
TORSDOF 19
ENDMDL
