MODEL 1
REMARK VINA RESULT:     -12.0      0.000      0.000
REMARK SMILES O=C(OCCOC(=O)c1ccncc1-c1ccc(F)cc1F)c1ccc(-c2c3nc(c(-c4c(F)c(F)c(F)c(F)c4F)c4ccc([nH]4)c(-c4c(F)c(F)c(F)c(F)c4F)c4nc(c(-c5c(F)c(F)c(F)c(F)c5F)c5ccc2[nH]5)C=C4)C=C3)cc1
REMARK SMILES IDX 4 1 3 2 2 3 1 4 23 5 24 6 85 7 25 8 84 9 26 10 27 11 28 12
REMARK SMILES IDX 78 13 29 14 83 15 77 16 79 17 30 18 82 19 76 20 75 21 31 23
REMARK SMILES IDX 63 24 43 25 62 26 44 27 47 28 61 29 80 30 45 31 46 32 60 34
REMARK SMILES IDX 81 35 48 36 32 37 33 38 41 39 34 40 35 41 39 42 42 43 36 44
REMARK SMILES IDX 37 45 40 46 38 47 64 48 65 49 73 50 66 51 67 52 71 53 74 54
REMARK SMILES IDX 68 55 69 56 72 57 70 58 49 59 50 60 58 61 51 62 52 63 56 64
REMARK SMILES IDX 59 65 53 66 54 67 57 68 55 69 5 70 6 71 7 72 8 73 9 74 10 75
REMARK SMILES IDX 14 76 11 77 13 78 12 79 15 80 16 81 21 82 17 83 20 84 22 85
REMARK SMILES IDX 18 86 19 87
REMARK H PARENT 79 22 47 33
REMARK Flexibility Score: inf
ROOT
ATOM      1  C   UNL A   1      32.019  30.125  26.657  1.00  0.00     0.275 C 
ENDROOT
BRANCH   1   2
ATOM      2  O   UNL A   1      33.402  30.454  26.546  1.00  0.00    -0.458 OA
BRANCH   2   3
ATOM      3  C   UNL A   1      33.823  31.412  27.408  1.00  0.00     0.338 C 
ATOM      4  O   UNL A   1      33.381  32.541  27.525  1.00  0.00    -0.246 OA
BRANCH   3   5
ATOM      5  C   UNL A   1      35.120  30.956  27.965  1.00  0.00     0.060 A 
ATOM      6  C   UNL A   1      36.215  31.827  28.036  1.00  0.00     0.016 A 
ATOM      7  C   UNL A   1      35.173  29.709  28.595  1.00  0.00     0.016 A 
ATOM      8  C   UNL A   1      37.343  31.466  28.751  1.00  0.00     0.010 A 
ATOM      9  C   UNL A   1      36.284  29.360  29.351  1.00  0.00     0.010 A 
ATOM     10  C   UNL A   1      37.375  30.235  29.414  1.00  0.00    -0.014 A 
BRANCH  10  11
ATOM     11  C   UNL A   1      38.627  29.827  30.062  1.00  0.00     0.031 A 
ATOM     12  C   UNL A   1      38.943  30.410  31.399  1.00  0.00     0.074 A 
ATOM     13  C   UNL A   1      39.405  28.897  29.486  1.00  0.00     0.049 A 
ATOM     14  N   UNL A   1      39.898  30.093  32.230  1.00  0.00    -0.248 NA
ATOM     15  C   UNL A   1      38.047  31.475  31.882  1.00  0.00     0.031 C 
ATOM     16  C   UNL A   1      39.138  28.256  28.199  1.00  0.00     0.029 A 
ATOM     17  N   UNL A   1      40.576  28.333  29.906  1.00  0.00    -0.354 N 
ATOM     18  C   UNL A   1      39.680  30.874  33.352  1.00  0.00     0.074 A 
ATOM     19  C   UNL A   1      38.569  31.751  33.065  1.00  0.00     0.031 C 
ATOM     20  C   UNL A   1      40.145  27.416  27.909  1.00  0.00     0.029 A 
ATOM     21  C   UNL A   1      41.107  27.443  29.008  1.00  0.00     0.049 A 
ATOM     22  H   UNL A   1      40.998  28.543  30.770  1.00  0.00     0.167 HD
ATOM     23  C   UNL A   1      40.323  30.819  34.539  1.00  0.00     0.037 A 
ATOM     24  C   UNL A   1      42.239  26.722  29.082  1.00  0.00     0.037 A 
ATOM     25  C   UNL A   1      41.455  29.970  34.779  1.00  0.00     0.049 A 
ATOM     26  C   UNL A   1      43.020  26.765  30.364  1.00  0.00     0.074 A 
ATOM     27  C   UNL A   1      42.218  29.841  35.922  1.00  0.00     0.029 A 
ATOM     28  N   UNL A   1      41.997  29.111  33.829  1.00  0.00    -0.354 N 
ATOM     29  N   UNL A   1      42.777  27.459  31.452  1.00  0.00    -0.248 NA
ATOM     30  C   UNL A   1      44.200  25.898  30.453  1.00  0.00     0.031 C 
ATOM     31  C   UNL A   1      43.246  28.929  35.652  1.00  0.00     0.029 A 
ATOM     32  C   UNL A   1      43.097  28.457  34.355  1.00  0.00     0.049 A 
ATOM     33  H   UNL A   1      41.650  28.987  32.916  1.00  0.00     0.167 HD
ATOM     34  C   UNL A   1      43.740  27.079  32.372  1.00  0.00     0.074 A 
ATOM     35  C   UNL A   1      44.583  26.103  31.707  1.00  0.00     0.031 C 
ATOM     36  C   UNL A   1      43.900  27.483  33.658  1.00  0.00     0.037 A 
BRANCH  23  37
ATOM     37  C   UNL A   1      39.792  31.697  35.630  1.00  0.00     0.064 A 
ATOM     38  C   UNL A   1      40.317  32.977  35.847  1.00  0.00     0.173 A 
ATOM     39  C   UNL A   1      38.712  31.284  36.431  1.00  0.00     0.173 A 
ATOM     40  F   UNL A   1      41.340  33.423  35.103  1.00  0.00    -0.203 F 
ATOM     41  C   UNL A   1      39.775  33.817  36.816  1.00  0.00     0.198 A 
ATOM     42  C   UNL A   1      38.156  32.137  37.380  1.00  0.00     0.198 A 
ATOM     43  F   UNL A   1      38.154  30.079  36.242  1.00  0.00    -0.203 F 
ATOM     44  F   UNL A   1      40.289  35.041  37.003  1.00  0.00    -0.200 F 
ATOM     45  C   UNL A   1      38.688  33.402  37.573  1.00  0.00     0.200 A 
ATOM     46  F   UNL A   1      37.084  31.746  38.084  1.00  0.00    -0.200 F 
ATOM     47  F   UNL A   1      38.144  34.227  38.478  1.00  0.00    -0.200 F 
ENDBRANCH  23  37
BRANCH  24  48
ATOM     48  C   UNL A   1      42.623  25.859  27.938  1.00  0.00     0.064 A 
ATOM     49  C   UNL A   1      43.518  26.319  26.959  1.00  0.00     0.173 A 
ATOM     50  C   UNL A   1      42.035  24.603  27.747  1.00  0.00     0.173 A 
ATOM     51  F   UNL A   1      44.093  27.523  27.089  1.00  0.00    -0.203 F 
ATOM     52  C   UNL A   1      43.795  25.560  25.824  1.00  0.00     0.198 A 
ATOM     53  C   UNL A   1      42.325  23.838  26.619  1.00  0.00     0.198 A 
ATOM     54  F   UNL A   1      41.174  24.123  28.658  1.00  0.00    -0.203 F 
ATOM     55  F   UNL A   1      44.625  26.036  24.887  1.00  0.00    -0.200 F 
ATOM     56  C   UNL A   1      43.198  24.320  25.655  1.00  0.00     0.200 A 
ATOM     57  F   UNL A   1      41.747  22.639  26.459  1.00  0.00    -0.200 F 
ATOM     58  F   UNL A   1      43.455  23.595  24.558  1.00  0.00    -0.200 F 
ENDBRANCH  24  48
BRANCH  36  59
ATOM     59  C   UNL A   1      44.998  26.835  34.442  1.00  0.00     0.064 A 
ATOM     60  C   UNL A   1      44.737  25.675  35.188  1.00  0.00     0.173 A 
ATOM     61  C   UNL A   1      46.276  27.401  34.520  1.00  0.00     0.173 A 
ATOM     62  F   UNL A   1      43.523  25.105  35.148  1.00  0.00    -0.203 F 
ATOM     63  C   UNL A   1      45.716  25.115  35.999  1.00  0.00     0.198 A 
ATOM     64  C   UNL A   1      47.262  26.822  35.313  1.00  0.00     0.198 A 
ATOM     65  F   UNL A   1      46.572  28.501  33.812  1.00  0.00    -0.203 F 
ATOM     66  F   UNL A   1      45.438  24.025  36.728  1.00  0.00    -0.200 F 
ATOM     67  C   UNL A   1      46.978  25.686  36.058  1.00  0.00     0.200 A 
ATOM     68  F   UNL A   1      48.487  27.361  35.355  1.00  0.00    -0.200 F 
ATOM     69  F   UNL A   1      47.925  25.140  36.834  1.00  0.00    -0.200 F 
ENDBRANCH  36  59
ENDBRANCH  10  11
ENDBRANCH   3   5
ENDBRANCH   2   3
ENDBRANCH   1   2
BRANCH   1  70
ATOM     70  C   UNL A   1      31.808  28.719  27.250  1.00  0.00     0.275 C 
BRANCH  70  71
ATOM     71  O   UNL A   1      32.663  27.702  26.681  1.00  0.00    -0.458 OA
BRANCH  71  72
ATOM     72  C   UNL A   1      32.082  26.542  26.284  1.00  0.00     0.338 C 
ATOM     73  O   UNL A   1      31.214  25.933  26.877  1.00  0.00    -0.246 OA
BRANCH  72  74
ATOM     74  C   UNL A   1      32.709  26.097  25.010  1.00  0.00     0.071 A 
ATOM     75  C   UNL A   1      33.838  25.269  25.082  1.00  0.00     0.036 A 
ATOM     76  C   UNL A   1      32.167  26.441  23.760  1.00  0.00     0.017 A 
ATOM     77  C   UNL A   1      34.403  24.826  23.899  1.00  0.00     0.112 A 
ATOM     78  C   UNL A   1      32.842  25.951  22.641  1.00  0.00     0.120 A 
ATOM     79  N   UNL A   1      33.944  25.167  22.681  1.00  0.00    -0.264 NA
BRANCH  76  80
ATOM     80  C   UNL A   1      30.958  27.244  23.576  1.00  0.00     0.020 A 
ATOM     81  C   UNL A   1      29.678  26.676  23.692  1.00  0.00     0.015 A 
ATOM     82  C   UNL A   1      31.046  28.618  23.316  1.00  0.00     0.134 A 
ATOM     83  C   UNL A   1      28.534  27.451  23.501  1.00  0.00     0.040 A 
ATOM     84  C   UNL A   1      29.912  29.401  23.131  1.00  0.00     0.079 A 
ATOM     85  F   UNL A   1      32.249  29.210  23.263  1.00  0.00    -0.206 F 
ATOM     86  C   UNL A   1      28.663  28.804  23.216  1.00  0.00     0.126 A 
ATOM     87  F   UNL A   1      27.562  29.544  23.036  1.00  0.00    -0.207 F 
ENDBRANCH  76  80
ENDBRANCH  72  74
ENDBRANCH  71  72
ENDBRANCH  70  71
ENDBRANCH   1  70
TORSDOF 12
ENDMDL
MODEL 2
REMARK VINA RESULT:     -12.0      0.376      1.671
REMARK SMILES O=C(OCCOC(=O)c1ccncc1-c1ccc(F)cc1F)c1ccc(-c2c3nc(c(-c4c(F)c(F)c(F)c(F)c4F)c4ccc([nH]4)c(-c4c(F)c(F)c(F)c(F)c4F)c4nc(c(-c5c(F)c(F)c(F)c(F)c5F)c5ccc2[nH]5)C=C4)C=C3)cc1
REMARK SMILES IDX 4 1 3 2 2 3 1 4 23 5 24 6 85 7 25 8 84 9 26 10 27 11 28 12
REMARK SMILES IDX 78 13 29 14 83 15 77 16 79 17 30 18 82 19 76 20 75 21 31 23
REMARK SMILES IDX 63 24 43 25 62 26 44 27 47 28 61 29 80 30 45 31 46 32 60 34
REMARK SMILES IDX 81 35 48 36 32 37 33 38 41 39 34 40 35 41 39 42 42 43 36 44
REMARK SMILES IDX 37 45 40 46 38 47 64 48 65 49 73 50 66 51 67 52 71 53 74 54
REMARK SMILES IDX 68 55 69 56 72 57 70 58 49 59 50 60 58 61 51 62 52 63 56 64
REMARK SMILES IDX 59 65 53 66 54 67 57 68 55 69 5 70 6 71 7 72 8 73 9 74 10 75
REMARK SMILES IDX 14 76 11 77 13 78 12 79 15 80 16 81 21 82 17 83 20 84 22 85
REMARK SMILES IDX 18 86 19 87
REMARK H PARENT 79 22 47 33
REMARK Flexibility Score: inf
ROOT
ATOM      1  C   UNL A   1      31.929  30.328  26.506  1.00  0.00     0.275 C 
ENDROOT
BRANCH   1   2
ATOM      2  O   UNL A   1      33.296  30.730  26.428  1.00  0.00    -0.458 OA
BRANCH   2   3
ATOM      3  C   UNL A   1      33.660  31.663  27.341  1.00  0.00     0.338 C 
ATOM      4  O   UNL A   1      33.177  32.770  27.492  1.00  0.00    -0.246 OA
BRANCH   3   5
ATOM      5  C   UNL A   1      34.956  31.226  27.915  1.00  0.00     0.060 A 
ATOM      6  C   UNL A   1      36.031  32.119  28.019  1.00  0.00     0.016 A 
ATOM      7  C   UNL A   1      35.024  29.972  28.529  1.00  0.00     0.016 A 
ATOM      8  C   UNL A   1      37.153  31.770  28.750  1.00  0.00     0.010 A 
ATOM      9  C   UNL A   1      36.128  29.635  29.301  1.00  0.00     0.010 A 
ATOM     10  C   UNL A   1      37.199  30.532  29.396  1.00  0.00    -0.014 A 
BRANCH  10  11
ATOM     11  C   UNL A   1      38.447  30.140  30.061  1.00  0.00     0.031 A 
ATOM     12  C   UNL A   1      38.736  30.726  31.403  1.00  0.00     0.074 A 
ATOM     13  C   UNL A   1      39.246  29.222  29.495  1.00  0.00     0.049 A 
ATOM     14  N   UNL A   1      39.683  30.421  32.247  1.00  0.00    -0.248 NA
ATOM     15  C   UNL A   1      37.818  31.778  31.874  1.00  0.00     0.031 C 
ATOM     16  C   UNL A   1      39.006  28.578  28.205  1.00  0.00     0.029 A 
ATOM     17  N   UNL A   1      40.419  28.673  29.932  1.00  0.00    -0.354 N 
ATOM     18  C   UNL A   1      39.439  31.199  33.367  1.00  0.00     0.074 A 
ATOM     19  C   UNL A   1      38.319  32.060  33.064  1.00  0.00     0.031 C 
ATOM     20  C   UNL A   1      40.029  27.753  27.929  1.00  0.00     0.029 A 
ATOM     21  C   UNL A   1      40.975  27.792  29.041  1.00  0.00     0.049 A 
ATOM     22  H   UNL A   1      40.826  28.889  30.802  1.00  0.00     0.167 HD
ATOM     23  C   UNL A   1      40.065  31.151  34.562  1.00  0.00     0.037 A 
ATOM     24  C   UNL A   1      42.115  27.086  29.130  1.00  0.00     0.037 A 
ATOM     25  C   UNL A   1      41.206  30.317  34.818  1.00  0.00     0.049 A 
ATOM     26  C   UNL A   1      42.878  27.139  30.423  1.00  0.00     0.074 A 
ATOM     27  C   UNL A   1      41.955  30.199  35.972  1.00  0.00     0.029 A 
ATOM     28  N   UNL A   1      41.773  29.467  33.875  1.00  0.00    -0.354 N 
ATOM     29  N   UNL A   1      42.609  27.829  31.508  1.00  0.00    -0.248 NA
ATOM     30  C   UNL A   1      44.068  26.288  30.528  1.00  0.00     0.031 C 
ATOM     31  C   UNL A   1      42.998  29.301  35.715  1.00  0.00     0.029 A 
ATOM     32  C   UNL A   1      42.874  28.829  34.416  1.00  0.00     0.049 A 
ATOM     33  H   UNL A   1      41.441  29.339  32.958  1.00  0.00     0.167 HD
ATOM     34  C   UNL A   1      43.564  27.461  32.442  1.00  0.00     0.074 A 
ATOM     35  C   UNL A   1      44.430  26.497  31.788  1.00  0.00     0.031 C 
ATOM     36  C   UNL A   1      43.701  27.866  33.730  1.00  0.00     0.037 A 
BRANCH  23  37
ATOM     37  C   UNL A   1      39.507  32.021  35.647  1.00  0.00     0.064 A 
ATOM     38  C   UNL A   1      38.540  31.535  36.536  1.00  0.00     0.173 A 
ATOM     39  C   UNL A   1      39.979  33.331  35.839  1.00  0.00     0.173 A 
ATOM     40  F   UNL A   1      38.064  30.289  36.403  1.00  0.00    -0.203 F 
ATOM     41  C   UNL A   1      38.074  32.324  37.584  1.00  0.00     0.198 A 
ATOM     42  C   UNL A   1      39.530  34.106  36.905  1.00  0.00     0.198 A 
ATOM     43  F   UNL A   1      40.927  33.832  35.032  1.00  0.00    -0.203 F 
ATOM     44  F   UNL A   1      37.152  31.837  38.428  1.00  0.00    -0.200 F 
ATOM     45  C   UNL A   1      38.577  33.603  37.775  1.00  0.00     0.200 A 
ATOM     46  F   UNL A   1      40.045  35.327  37.106  1.00  0.00    -0.200 F 
ATOM     47  F   UNL A   1      38.155  34.344  38.809  1.00  0.00    -0.200 F 
ENDBRANCH  23  37
BRANCH  24  48
ATOM     48  C   UNL A   1      42.527  26.230  27.991  1.00  0.00     0.064 A 
ATOM     49  C   UNL A   1      43.407  26.713  27.010  1.00  0.00     0.173 A 
ATOM     50  C   UNL A   1      41.981  24.955  27.808  1.00  0.00     0.173 A 
ATOM     51  F   UNL A   1      43.943  27.936  27.132  1.00  0.00    -0.203 F 
ATOM     52  C   UNL A   1      43.710  25.957  25.879  1.00  0.00     0.198 A 
ATOM     53  C   UNL A   1      42.296  24.193  26.683  1.00  0.00     0.198 A 
ATOM     54  F   UNL A   1      41.136  24.452  28.721  1.00  0.00    -0.203 F 
ATOM     55  F   UNL A   1      44.523  26.456  24.938  1.00  0.00    -0.200 F 
ATOM     56  C   UNL A   1      43.153  24.698  25.717  1.00  0.00     0.200 A 
ATOM     57  F   UNL A   1      41.758  22.975  26.531  1.00  0.00    -0.200 F 
ATOM     58  F   UNL A   1      43.434  23.975  24.624  1.00  0.00    -0.200 F 
ENDBRANCH  24  48
BRANCH  36  59
ATOM     59  C   UNL A   1      44.797  27.232  34.529  1.00  0.00     0.064 A 
ATOM     60  C   UNL A   1      46.083  27.794  34.525  1.00  0.00     0.173 A 
ATOM     61  C   UNL A   1      44.596  26.035  35.227  1.00  0.00     0.173 A 
ATOM     62  F   UNL A   1      46.319  28.936  33.862  1.00  0.00    -0.203 F 
ATOM     63  C   UNL A   1      47.135  27.167  35.181  1.00  0.00     0.198 A 
ATOM     64  C   UNL A   1      45.647  25.424  35.904  1.00  0.00     0.198 A 
ATOM     65  F   UNL A   1      43.379  25.472  35.268  1.00  0.00    -0.203 F 
ATOM     66  F   UNL A   1      48.362  27.702  35.139  1.00  0.00    -0.200 F 
ATOM     67  C   UNL A   1      46.916  25.985  35.872  1.00  0.00     0.200 A 
ATOM     68  F   UNL A   1      45.431  24.293  36.589  1.00  0.00    -0.200 F 
ATOM     69  F   UNL A   1      47.929  25.385  36.512  1.00  0.00    -0.200 F 
ENDBRANCH  36  59
ENDBRANCH  10  11
ENDBRANCH   3   5
ENDBRANCH   2   3
ENDBRANCH   1   2
BRANCH   1  70
ATOM     70  C   UNL A   1      31.778  28.924  27.123  1.00  0.00     0.275 C 
BRANCH  70  71
ATOM     71  O   UNL A   1      32.562  27.902  26.469  1.00  0.00    -0.458 OA
BRANCH  71  72
ATOM     72  C   UNL A   1      31.939  26.738  26.154  1.00  0.00     0.338 C 
ATOM     73  O   UNL A   1      31.087  26.176  26.814  1.00  0.00    -0.246 OA
BRANCH  72  74
ATOM     74  C   UNL A   1      32.497  26.220  24.875  1.00  0.00     0.071 A 
ATOM     75  C   UNL A   1      33.563  25.313  24.937  1.00  0.00     0.036 A 
ATOM     76  C   UNL A   1      31.948  26.577  23.631  1.00  0.00     0.017 A 
ATOM     77  C   UNL A   1      34.062  24.804  23.751  1.00  0.00     0.112 A 
ATOM     78  C   UNL A   1      32.554  26.015  22.507  1.00  0.00     0.120 A 
ATOM     79  N   UNL A   1      33.596  25.152  22.537  1.00  0.00    -0.264 NA
BRANCH  76  80
ATOM     80  C   UNL A   1      30.797  27.464  23.460  1.00  0.00     0.020 A 
ATOM     81  C   UNL A   1      29.482  26.971  23.503  1.00  0.00     0.015 A 
ATOM     82  C   UNL A   1      30.977  28.843  23.286  1.00  0.00     0.134 A 
ATOM     83  C   UNL A   1      28.394  27.827  23.324  1.00  0.00     0.040 A 
ATOM     84  C   UNL A   1      29.900  29.704  23.114  1.00  0.00     0.079 A 
ATOM     85  F   UNL A   1      32.215  29.360  23.305  1.00  0.00    -0.206 F 
ATOM     86  C   UNL A   1      28.615  29.183  23.126  1.00  0.00     0.126 A 
ATOM     87  F   UNL A   1      27.568  30.000  22.957  1.00  0.00    -0.207 F 
ENDBRANCH  76  80
ENDBRANCH  72  74
ENDBRANCH  71  72
ENDBRANCH  70  71
ENDBRANCH   1  70
TORSDOF 12
ENDMDL
MODEL 3
REMARK VINA RESULT:     -12.0      0.193      1.166
REMARK SMILES O=C(OCCOC(=O)c1ccncc1-c1ccc(F)cc1F)c1ccc(-c2c3nc(c(-c4c(F)c(F)c(F)c(F)c4F)c4ccc([nH]4)c(-c4c(F)c(F)c(F)c(F)c4F)c4nc(c(-c5c(F)c(F)c(F)c(F)c5F)c5ccc2[nH]5)C=C4)C=C3)cc1
REMARK SMILES IDX 4 1 3 2 2 3 1 4 23 5 24 6 85 7 25 8 84 9 26 10 27 11 28 12
REMARK SMILES IDX 78 13 29 14 83 15 77 16 79 17 30 18 82 19 76 20 75 21 31 23
REMARK SMILES IDX 63 24 43 25 62 26 44 27 47 28 61 29 80 30 45 31 46 32 60 34
REMARK SMILES IDX 81 35 48 36 32 37 33 38 41 39 34 40 35 41 39 42 42 43 36 44
REMARK SMILES IDX 37 45 40 46 38 47 64 48 65 49 73 50 66 51 67 52 71 53 74 54
REMARK SMILES IDX 68 55 69 56 72 57 70 58 49 59 50 60 58 61 51 62 52 63 56 64
REMARK SMILES IDX 59 65 53 66 54 67 57 68 55 69 5 70 6 71 7 72 8 73 9 74 10 75
REMARK SMILES IDX 14 76 11 77 13 78 12 79 15 80 16 81 21 82 17 83 20 84 22 85
REMARK SMILES IDX 18 86 19 87
REMARK H PARENT 79 22 47 33
REMARK Flexibility Score: inf
ROOT
ATOM      1  C   UNL A   1      32.058  30.311  26.480  1.00  0.00     0.275 C 
ENDROOT
BRANCH   1   2
ATOM      2  O   UNL A   1      33.446  30.638  26.474  1.00  0.00    -0.458 OA
BRANCH   2   3
ATOM      3  C   UNL A   1      33.817  31.530  27.424  1.00  0.00     0.338 C 
ATOM      4  O   UNL A   1      33.339  32.632  27.625  1.00  0.00    -0.246 OA
BRANCH   3   5
ATOM      5  C   UNL A   1      35.113  31.064  27.975  1.00  0.00     0.060 A 
ATOM      6  C   UNL A   1      36.214  31.928  28.045  1.00  0.00     0.016 A 
ATOM      7  C   UNL A   1      35.161  29.815  28.601  1.00  0.00     0.016 A 
ATOM      8  C   UNL A   1      37.343  31.557  28.754  1.00  0.00     0.010 A 
ATOM      9  C   UNL A   1      36.273  29.456  29.352  1.00  0.00     0.010 A 
ATOM     10  C   UNL A   1      37.370  30.324  29.413  1.00  0.00    -0.014 A 
BRANCH  10  11
ATOM     11  C   UNL A   1      38.621  29.905  30.055  1.00  0.00     0.031 A 
ATOM     12  C   UNL A   1      38.940  30.471  31.398  1.00  0.00     0.074 A 
ATOM     13  C   UNL A   1      39.398  28.982  29.466  1.00  0.00     0.049 A 
ATOM     14  N   UNL A   1      39.894  30.142  32.224  1.00  0.00    -0.248 NA
ATOM     15  C   UNL A   1      38.046  31.532  31.895  1.00  0.00     0.031 C 
ATOM     16  C   UNL A   1      39.128  28.357  28.172  1.00  0.00     0.029 A 
ATOM     17  N   UNL A   1      40.568  28.410  29.878  1.00  0.00    -0.354 N 
ATOM     18  C   UNL A   1      39.679  30.910  33.357  1.00  0.00     0.074 A 
ATOM     19  C   UNL A   1      38.569  31.792  33.081  1.00  0.00     0.031 C 
ATOM     20  C   UNL A   1      40.134  27.519  27.871  1.00  0.00     0.029 A 
ATOM     21  C   UNL A   1      41.097  27.531  28.969  1.00  0.00     0.049 A 
ATOM     22  H   UNL A   1      40.991  28.609  30.745  1.00  0.00     0.167 HD
ATOM     23  C   UNL A   1      40.323  30.839  34.542  1.00  0.00     0.037 A 
ATOM     24  C   UNL A   1      42.227  26.807  29.033  1.00  0.00     0.037 A 
ATOM     25  C   UNL A   1      41.454  29.985  34.770  1.00  0.00     0.049 A 
ATOM     26  C   UNL A   1      43.010  26.833  30.314  1.00  0.00     0.074 A 
ATOM     27  C   UNL A   1      42.218  29.841  35.911  1.00  0.00     0.029 A 
ATOM     28  N   UNL A   1      41.993  29.137  33.809  1.00  0.00    -0.354 N 
ATOM     29  N   UNL A   1      42.769  27.514  31.411  1.00  0.00    -0.248 NA
ATOM     30  C   UNL A   1      44.188  25.962  30.391  1.00  0.00     0.031 C 
ATOM     31  C   UNL A   1      43.244  28.931  35.628  1.00  0.00     0.029 A 
ATOM     32  C   UNL A   1      43.093  28.475  34.326  1.00  0.00     0.049 A 
ATOM     33  H   UNL A   1      41.646  29.025  32.896  1.00  0.00     0.167 HD
ATOM     34  C   UNL A   1      43.732  27.121  32.326  1.00  0.00     0.074 A 
ATOM     35  C   UNL A   1      44.573  26.151  31.648  1.00  0.00     0.031 C 
ATOM     36  C   UNL A   1      43.894  27.509  33.616  1.00  0.00     0.037 A 
BRANCH  23  37
ATOM     37  C   UNL A   1      39.794  31.704  35.644  1.00  0.00     0.064 A 
ATOM     38  C   UNL A   1      40.320  32.982  35.874  1.00  0.00     0.173 A 
ATOM     39  C   UNL A   1      38.717  31.282  36.443  1.00  0.00     0.173 A 
ATOM     40  F   UNL A   1      41.341  33.436  35.134  1.00  0.00    -0.203 F 
ATOM     41  C   UNL A   1      39.780  33.810  36.855  1.00  0.00     0.198 A 
ATOM     42  C   UNL A   1      38.162  32.124  37.403  1.00  0.00     0.198 A 
ATOM     43  F   UNL A   1      38.159  30.079  36.242  1.00  0.00    -0.203 F 
ATOM     44  F   UNL A   1      40.294  35.032  37.054  1.00  0.00    -0.200 F 
ATOM     45  C   UNL A   1      38.695  33.386  37.610  1.00  0.00     0.200 A 
ATOM     46  F   UNL A   1      37.093  31.724  38.105  1.00  0.00    -0.200 F 
ATOM     47  F   UNL A   1      38.153  34.201  38.525  1.00  0.00    -0.200 F 
ENDBRANCH  23  37
BRANCH  24  48
ATOM     48  C   UNL A   1      42.609  25.958  27.878  1.00  0.00     0.064 A 
ATOM     49  C   UNL A   1      42.160  24.632  27.781  1.00  0.00     0.173 A 
ATOM     50  C   UNL A   1      43.501  26.419  26.903  1.00  0.00     0.173 A 
ATOM     51  F   UNL A   1      41.318  24.139  28.701  1.00  0.00    -0.203 F 
ATOM     52  C   UNL A   1      42.605  23.794  26.760  1.00  0.00     0.198 A 
ATOM     53  C   UNL A   1      43.934  25.584  25.873  1.00  0.00     0.198 A 
ATOM     54  F   UNL A   1      43.956  27.680  26.955  1.00  0.00    -0.203 F 
ATOM     55  F   UNL A   1      42.190  22.521  26.711  1.00  0.00    -0.200 F 
ATOM     56  C   UNL A   1      43.492  24.271  25.808  1.00  0.00     0.200 A 
ATOM     57  F   UNL A   1      44.790  26.049  24.953  1.00  0.00    -0.200 F 
ATOM     58  F   UNL A   1      43.930  23.463  24.833  1.00  0.00    -0.200 F 
ENDBRANCH  24  48
BRANCH  36  59
ATOM     59  C   UNL A   1      44.991  26.848  34.391  1.00  0.00     0.064 A 
ATOM     60  C   UNL A   1      44.732  25.673  35.113  1.00  0.00     0.173 A 
ATOM     61  C   UNL A   1      46.267  27.418  34.485  1.00  0.00     0.173 A 
ATOM     62  F   UNL A   1      43.521  25.099  35.056  1.00  0.00    -0.203 F 
ATOM     63  C   UNL A   1      45.711  25.100  35.916  1.00  0.00     0.198 A 
ATOM     64  C   UNL A   1      47.252  26.827  35.270  1.00  0.00     0.198 A 
ATOM     65  F   UNL A   1      46.561  28.534  33.801  1.00  0.00    -0.203 F 
ATOM     66  F   UNL A   1      45.434  23.995  36.621  1.00  0.00    -0.200 F 
ATOM     67  C   UNL A   1      46.970  25.675  35.991  1.00  0.00     0.200 A 
ATOM     68  F   UNL A   1      48.475  27.370  35.328  1.00  0.00    -0.200 F 
ATOM     69  F   UNL A   1      47.916  25.117  36.760  1.00  0.00    -0.200 F 
ENDBRANCH  36  59
ENDBRANCH  10  11
ENDBRANCH   3   5
ENDBRANCH   2   3
ENDBRANCH   1   2
BRANCH   1  70
ATOM     70  C   UNL A   1      31.804  28.894  27.029  1.00  0.00     0.275 C 
BRANCH  70  71
ATOM     71  O   UNL A   1      32.614  27.867  26.416  1.00  0.00    -0.458 OA
BRANCH  71  72
ATOM     72  C   UNL A   1      32.007  26.698  26.091  1.00  0.00     0.338 C 
ATOM     73  O   UNL A   1      31.171  26.114  26.752  1.00  0.00    -0.246 OA
BRANCH  72  74
ATOM     74  C   UNL A   1      32.560  26.206  24.800  1.00  0.00     0.071 A 
ATOM     75  C   UNL A   1      33.636  25.308  24.840  1.00  0.00     0.036 A 
ATOM     76  C   UNL A   1      31.998  26.576  23.566  1.00  0.00     0.017 A 
ATOM     77  C   UNL A   1      34.131  24.823  23.643  1.00  0.00     0.112 A 
ATOM     78  C   UNL A   1      32.602  26.037  22.429  1.00  0.00     0.120 A 
ATOM     79  N   UNL A   1      33.653  25.185  22.438  1.00  0.00    -0.264 NA
BRANCH  76  80
ATOM     80  C   UNL A   1      30.836  27.453  23.418  1.00  0.00     0.020 A 
ATOM     81  C   UNL A   1      29.527  26.952  23.500  1.00  0.00     0.015 A 
ATOM     82  C   UNL A   1      31.002  28.832  23.226  1.00  0.00     0.134 A 
ATOM     83  C   UNL A   1      28.429  27.799  23.342  1.00  0.00     0.040 A 
ATOM     84  C   UNL A   1      29.915  29.684  23.074  1.00  0.00     0.079 A 
ATOM     85  F   UNL A   1      32.237  29.358  23.207  1.00  0.00    -0.206 F 
ATOM     86  C   UNL A   1      28.635  29.154  23.125  1.00  0.00     0.126 A 
ATOM     87  F   UNL A   1      27.578  29.963  22.977  1.00  0.00    -0.207 F 
ENDBRANCH  76  80
ENDBRANCH  72  74
ENDBRANCH  71  72
ENDBRANCH  70  71
ENDBRANCH   1  70
TORSDOF 12
ENDMDL
