MODEL 1
REMARK VINA RESULT:     -11.3      0.000      0.000
REMARK SMILES O=C(OCCOC(=O)c1nc2c(F)cccc2s1)c1ccc(-c2c3nc(c(-c4c(F)c(F)c(F)c(F)c4F)c4ccc([nH]4)c(-c4c(F)c(F)c(F)c(F)c4F)c4nc(c(-c5c(F)c(F)c(F)c(F)c5F)c5ccc2[nH]5)C=C4)C=C3)cc1
REMARK SMILES IDX 4 1 3 2 2 3 1 4 19 5 20 6 81 7 21 8 80 9 22 10 23 11 24 12
REMARK SMILES IDX 74 13 25 14 79 15 73 16 75 17 26 18 78 19 72 20 71 21 27 23
REMARK SMILES IDX 59 24 39 25 58 26 40 27 43 28 57 29 76 30 41 31 42 32 56 34
REMARK SMILES IDX 77 35 44 36 28 37 29 38 37 39 30 40 31 41 35 42 38 43 32 44
REMARK SMILES IDX 33 45 36 46 34 47 60 48 61 49 69 50 62 51 63 52 67 53 70 54
REMARK SMILES IDX 64 55 65 56 68 57 66 58 45 59 46 60 54 61 47 62 48 63 52 64
REMARK SMILES IDX 55 65 49 66 50 67 53 68 51 69 5 70 6 71 7 72 8 73 9 74 10 75
REMARK SMILES IDX 18 76 11 77 17 78 12 79 16 80 13 81 14 82 15 83
REMARK H PARENT 75 22 43 33
REMARK Flexibility Score: inf
ROOT
ATOM      1  C   UNL A   1      41.188  20.376  27.607  1.00  0.00     0.275 C 
ENDROOT
BRANCH   1   2
ATOM      2  O   UNL A   1      41.314  21.803  27.781  1.00  0.00    -0.458 OA
BRANCH   2   3
ATOM      3  C   UNL A   1      40.480  22.677  27.175  1.00  0.00     0.338 C 
ATOM      4  O   UNL A   1      39.416  22.328  26.685  1.00  0.00    -0.246 OA
BRANCH   3   5
ATOM      5  C   UNL A   1      40.789  24.113  27.417  1.00  0.00     0.060 A 
ATOM      6  C   UNL A   1      41.519  24.572  28.518  1.00  0.00     0.016 A 
ATOM      7  C   UNL A   1      40.240  25.041  26.518  1.00  0.00     0.016 A 
ATOM      8  C   UNL A   1      41.584  25.927  28.792  1.00  0.00     0.010 A 
ATOM      9  C   UNL A   1      40.302  26.400  26.788  1.00  0.00     0.010 A 
ATOM     10  C   UNL A   1      40.910  26.825  27.963  1.00  0.00    -0.014 A 
BRANCH  10  11
ATOM     11  C   UNL A   1      40.824  28.206  28.404  1.00  0.00     0.031 A 
ATOM     12  C   UNL A   1      41.910  29.108  27.941  1.00  0.00     0.074 A 
ATOM     13  C   UNL A   1      39.812  28.627  29.184  1.00  0.00     0.049 A 
ATOM     14  N   UNL A   1      42.814  29.702  28.651  1.00  0.00    -0.248 NA
ATOM     15  C   UNL A   1      42.060  29.306  26.495  1.00  0.00     0.031 C 
ATOM     16  C   UNL A   1      38.566  27.942  29.538  1.00  0.00     0.029 A 
ATOM     17  N   UNL A   1      39.684  29.831  29.802  1.00  0.00    -0.354 N 
ATOM     18  C   UNL A   1      43.579  30.457  27.763  1.00  0.00     0.074 A 
ATOM     19  C   UNL A   1      43.132  30.098  26.439  1.00  0.00     0.031 C 
ATOM     20  C   UNL A   1      37.727  28.817  30.140  1.00  0.00     0.029 A 
ATOM     21  C   UNL A   1      38.432  30.070  30.345  1.00  0.00     0.049 A 
ATOM     22  H   UNL A   1      40.421  30.480  29.859  1.00  0.00     0.167 HD
ATOM     23  C   UNL A   1      44.429  31.434  28.190  1.00  0.00     0.037 A 
ATOM     24  C   UNL A   1      38.009  31.240  30.880  1.00  0.00     0.037 A 
ATOM     25  C   UNL A   1      44.737  31.289  29.588  1.00  0.00     0.049 A 
ATOM     26  C   UNL A   1      39.221  32.005  31.274  1.00  0.00     0.074 A 
ATOM     27  C   UNL A   1      45.435  30.357  30.332  1.00  0.00     0.029 A 
ATOM     28  N   UNL A   1      44.012  32.016  30.498  1.00  0.00    -0.354 N 
ATOM     29  N   UNL A   1      40.024  31.635  32.235  1.00  0.00    -0.248 NA
ATOM     30  C   UNL A   1      39.796  32.912  30.293  1.00  0.00     0.031 C 
ATOM     31  C   UNL A   1      44.710  30.246  31.555  1.00  0.00     0.029 A 
ATOM     32  C   UNL A   1      43.651  31.153  31.503  1.00  0.00     0.049 A 
ATOM     33  H   UNL A   1      43.792  32.973  30.440  1.00  0.00     0.167 HD
ATOM     34  C   UNL A   1      41.298  31.919  31.764  1.00  0.00     0.074 A 
ATOM     35  C   UNL A   1      41.091  32.767  30.592  1.00  0.00     0.031 C 
ATOM     36  C   UNL A   1      42.386  31.217  32.196  1.00  0.00     0.037 A 
BRANCH  23  37
ATOM     37  C   UNL A   1      44.782  32.678  27.417  1.00  0.00     0.064 A 
ATOM     38  C   UNL A   1      45.998  32.740  26.704  1.00  0.00     0.173 A 
ATOM     39  C   UNL A   1      44.110  33.908  27.581  1.00  0.00     0.173 A 
ATOM     40  F   UNL A   1      46.728  31.635  26.498  1.00  0.00    -0.203 F 
ATOM     41  C   UNL A   1      46.530  33.952  26.256  1.00  0.00     0.198 A 
ATOM     42  C   UNL A   1      44.621  35.108  27.089  1.00  0.00     0.198 A 
ATOM     43  F   UNL A   1      42.992  34.009  28.310  1.00  0.00    -0.203 F 
ATOM     44  F   UNL A   1      47.742  33.976  25.682  1.00  0.00    -0.200 F 
ATOM     45  C   UNL A   1      45.845  35.136  26.454  1.00  0.00     0.200 A 
ATOM     46  F   UNL A   1      43.947  36.247  27.303  1.00  0.00    -0.200 F 
ATOM     47  F   UNL A   1      46.379  36.305  26.076  1.00  0.00    -0.200 F 
ENDBRANCH  23  37
BRANCH  24  48
ATOM     48  C   UNL A   1      36.692  31.887  30.670  1.00  0.00     0.064 A 
ATOM     49  C   UNL A   1      35.836  32.161  31.749  1.00  0.00     0.173 A 
ATOM     50  C   UNL A   1      36.376  32.510  29.446  1.00  0.00     0.173 A 
ATOM     51  F   UNL A   1      36.094  31.646  32.960  1.00  0.00    -0.203 F 
ATOM     52  C   UNL A   1      34.746  33.029  31.618  1.00  0.00     0.198 A 
ATOM     53  C   UNL A   1      35.288  33.372  29.315  1.00  0.00     0.198 A 
ATOM     54  F   UNL A   1      37.175  32.374  28.378  1.00  0.00    -0.203 F 
ATOM     55  F   UNL A   1      33.988  33.318  32.684  1.00  0.00    -0.200 F 
ATOM     56  C   UNL A   1      34.481  33.643  30.404  1.00  0.00     0.200 A 
ATOM     57  F   UNL A   1      35.066  33.991  28.147  1.00  0.00    -0.200 F 
ATOM     58  F   UNL A   1      33.478  34.526  30.295  1.00  0.00    -0.200 F 
ENDBRANCH  24  48
BRANCH  36  59
ATOM     59  C   UNL A   1      42.179  30.251  33.332  1.00  0.00     0.064 A 
ATOM     60  C   UNL A   1      41.825  28.903  33.148  1.00  0.00     0.173 A 
ATOM     61  C   UNL A   1      42.489  30.658  34.635  1.00  0.00     0.173 A 
ATOM     62  F   UNL A   1      41.625  28.405  31.923  1.00  0.00    -0.203 F 
ATOM     63  C   UNL A   1      41.734  28.019  34.223  1.00  0.00     0.198 A 
ATOM     64  C   UNL A   1      42.434  29.765  35.704  1.00  0.00     0.198 A 
ATOM     65  F   UNL A   1      42.900  31.914  34.867  1.00  0.00    -0.203 F 
ATOM     66  F   UNL A   1      41.385  26.740  34.016  1.00  0.00    -0.200 F 
ATOM     67  C   UNL A   1      42.045  28.450  35.500  1.00  0.00     0.200 A 
ATOM     68  F   UNL A   1      42.789  30.172  36.930  1.00  0.00    -0.200 F 
ATOM     69  F   UNL A   1      42.001  27.593  36.530  1.00  0.00    -0.200 F 
ENDBRANCH  36  59
ENDBRANCH  10  11
ENDBRANCH   3   5
ENDBRANCH   2   3
ENDBRANCH   1   2
BRANCH   1  70
ATOM     70  C   UNL A   1      42.257  19.672  26.774  1.00  0.00     0.275 C 
BRANCH  70  71
ATOM     71  O   UNL A   1      42.582  20.421  25.591  1.00  0.00    -0.457 OA
BRANCH  71  72
ATOM     72  C   UNL A   1      43.899  20.761  25.430  1.00  0.00     0.367 C 
ATOM     73  O   UNL A   1      44.783  19.987  25.065  1.00  0.00    -0.243 OA
BRANCH  72  74
ATOM     74  C   UNL A   1      44.083  22.150  25.773  1.00  0.00     0.203 A 
ATOM     75  N   UNL A   1      44.664  22.569  26.878  1.00  0.00    -0.226 NA
ATOM     76  S   UNL A   1      43.514  23.361  24.711  1.00  0.00    -0.107 S 
ATOM     77  C   UNL A   1      44.683  23.958  26.901  1.00  0.00     0.118 A 
ATOM     78  C   UNL A   1      44.082  24.572  25.797  1.00  0.00     0.058 A 
ATOM     79  C   UNL A   1      45.235  24.791  27.897  1.00  0.00     0.150 A 
ATOM     80  C   UNL A   1      44.002  25.970  25.671  1.00  0.00     0.021 A 
ATOM     81  F   UNL A   1      45.850  24.264  28.967  1.00  0.00    -0.205 F 
ATOM     82  C   UNL A   1      45.169  26.182  27.784  1.00  0.00     0.041 A 
ATOM     83  C   UNL A   1      44.555  26.764  26.681  1.00  0.00     0.005 A 
ENDBRANCH  72  74
ENDBRANCH  71  72
ENDBRANCH  70  71
ENDBRANCH   1  70
TORSDOF 11
ENDMDL
MODEL 2
REMARK VINA RESULT:     -11.2      4.322     11.044
REMARK SMILES O=C(OCCOC(=O)c1nc2c(F)cccc2s1)c1ccc(-c2c3nc(c(-c4c(F)c(F)c(F)c(F)c4F)c4ccc([nH]4)c(-c4c(F)c(F)c(F)c(F)c4F)c4nc(c(-c5c(F)c(F)c(F)c(F)c5F)c5ccc2[nH]5)C=C4)C=C3)cc1
REMARK SMILES IDX 4 1 3 2 2 3 1 4 19 5 20 6 81 7 21 8 80 9 22 10 23 11 24 12
REMARK SMILES IDX 74 13 25 14 79 15 73 16 75 17 26 18 78 19 72 20 71 21 27 23
REMARK SMILES IDX 59 24 39 25 58 26 40 27 43 28 57 29 76 30 41 31 42 32 56 34
REMARK SMILES IDX 77 35 44 36 28 37 29 38 37 39 30 40 31 41 35 42 38 43 32 44
REMARK SMILES IDX 33 45 36 46 34 47 60 48 61 49 69 50 62 51 63 52 67 53 70 54
REMARK SMILES IDX 64 55 65 56 68 57 66 58 45 59 46 60 54 61 47 62 48 63 52 64
REMARK SMILES IDX 55 65 49 66 50 67 53 68 51 69 5 70 6 71 7 72 8 73 9 74 10 75
REMARK SMILES IDX 18 76 11 77 17 78 12 79 16 80 13 81 14 82 15 83
REMARK H PARENT 75 22 43 33
REMARK Flexibility Score: inf
ROOT
ATOM      1  C   UNL A   1      34.032  34.203  27.957  1.00  0.00     0.275 C 
ENDROOT
BRANCH   1   2
ATOM      2  O   UNL A   1      35.182  33.460  28.412  1.00  0.00    -0.458 OA
BRANCH   2   3
ATOM      3  C   UNL A   1      35.149  32.120  28.584  1.00  0.00     0.338 C 
ATOM      4  O   UNL A   1      34.103  31.487  28.568  1.00  0.00    -0.246 OA
BRANCH   3   5
ATOM      5  C   UNL A   1      36.469  31.439  28.481  1.00  0.00     0.060 A 
ATOM      6  C   UNL A   1      36.684  30.282  27.726  1.00  0.00     0.016 A 
ATOM      7  C   UNL A   1      37.516  31.963  29.255  1.00  0.00     0.016 A 
ATOM      8  C   UNL A   1      37.875  29.586  27.847  1.00  0.00     0.010 A 
ATOM      9  C   UNL A   1      38.711  31.269  29.380  1.00  0.00     0.010 A 
ATOM     10  C   UNL A   1      38.850  30.048  28.732  1.00  0.00    -0.014 A 
BRANCH  10  11
ATOM     11  C   UNL A   1      39.985  29.179  28.987  1.00  0.00     0.031 A 
ATOM     12  C   UNL A   1      40.291  28.906  30.415  1.00  0.00     0.074 A 
ATOM     13  C   UNL A   1      40.706  28.658  27.977  1.00  0.00     0.049 A 
ATOM     14  N   UNL A   1      41.338  29.257  31.091  1.00  0.00    -0.248 NA
ATOM     15  C   UNL A   1      39.262  28.231  31.214  1.00  0.00     0.031 C 
ATOM     16  C   UNL A   1      40.413  28.641  26.541  1.00  0.00     0.029 A 
ATOM     17  N   UNL A   1      41.876  27.971  28.058  1.00  0.00    -0.354 N 
ATOM     18  C   UNL A   1      41.169  28.740  32.375  1.00  0.00     0.074 A 
ATOM     19  C   UNL A   1      39.830  28.203  32.421  1.00  0.00     0.031 C 
ATOM     20  C   UNL A   1      41.276  27.806  25.916  1.00  0.00     0.029 A 
ATOM     21  C   UNL A   1      42.265  27.356  26.880  1.00  0.00     0.049 A 
ATOM     22  H   UNL A   1      42.403  27.917  28.887  1.00  0.00     0.167 HD
ATOM     23  C   UNL A   1      42.199  28.663  33.264  1.00  0.00     0.037 A 
ATOM     24  C   UNL A   1      43.306  26.499  26.738  1.00  0.00     0.037 A 
ATOM     25  C   UNL A   1      43.287  29.524  32.886  1.00  0.00     0.049 A 
ATOM     26  C   UNL A   1      44.241  26.757  27.864  1.00  0.00     0.074 A 
ATOM     27  C   UNL A   1      43.454  30.893  32.812  1.00  0.00     0.029 A 
ATOM     28  N   UNL A   1      44.330  28.989  32.173  1.00  0.00    -0.354 N 
ATOM     29  N   UNL A   1      44.921  27.863  27.996  1.00  0.00    -0.248 NA
ATOM     30  C   UNL A   1      44.057  25.987  29.085  1.00  0.00     0.031 C 
ATOM     31  C   UNL A   1      44.269  31.103  31.660  1.00  0.00     0.029 A 
ATOM     32  C   UNL A   1      44.591  29.850  31.136  1.00  0.00     0.049 A 
ATOM     33  H   UNL A   1      44.801  28.147  32.368  1.00  0.00     0.167 HD
ATOM     34  C   UNL A   1      44.893  28.139  29.355  1.00  0.00     0.074 A 
ATOM     35  C   UNL A   1      44.405  26.913  29.983  1.00  0.00     0.031 C 
ATOM     36  C   UNL A   1      44.999  29.418  29.820  1.00  0.00     0.037 A 
BRANCH  23  37
ATOM     37  C   UNL A   1      42.343  27.616  34.338  1.00  0.00     0.064 A 
ATOM     38  C   UNL A   1      42.932  26.371  34.030  1.00  0.00     0.173 A 
ATOM     39  C   UNL A   1      41.670  27.680  35.577  1.00  0.00     0.173 A 
ATOM     40  F   UNL A   1      43.587  26.190  32.874  1.00  0.00    -0.203 F 
ATOM     41  C   UNL A   1      42.794  25.261  34.868  1.00  0.00     0.198 A 
ATOM     42  C   UNL A   1      41.577  26.583  36.432  1.00  0.00     0.198 A 
ATOM     43  F   UNL A   1      40.992  28.770  35.956  1.00  0.00    -0.203 F 
ATOM     44  F   UNL A   1      43.275  24.070  34.483  1.00  0.00    -0.200 F 
ATOM     45  C   UNL A   1      42.110  25.366  36.065  1.00  0.00     0.200 A 
ATOM     46  F   UNL A   1      40.898  26.701  37.583  1.00  0.00    -0.200 F 
ATOM     47  F   UNL A   1      41.928  24.290  36.843  1.00  0.00    -0.200 F 
ENDBRANCH  23  37
BRANCH  24  48
ATOM     48  C   UNL A   1      43.312  25.232  25.970  1.00  0.00     0.064 A 
ATOM     49  C   UNL A   1      44.381  24.903  25.120  1.00  0.00     0.173 A 
ATOM     50  C   UNL A   1      42.414  24.191  26.277  1.00  0.00     0.173 A 
ATOM     51  F   UNL A   1      45.307  25.824  24.816  1.00  0.00    -0.203 F 
ATOM     52  C   UNL A   1      44.555  23.603  24.631  1.00  0.00     0.198 A 
ATOM     53  C   UNL A   1      42.586  22.897  25.787  1.00  0.00     0.198 A 
ATOM     54  F   UNL A   1      41.407  24.384  27.142  1.00  0.00    -0.203 F 
ATOM     55  F   UNL A   1      45.621  23.310  23.874  1.00  0.00    -0.200 F 
ATOM     56  C   UNL A   1      43.664  22.599  24.975  1.00  0.00     0.200 A 
ATOM     57  F   UNL A   1      41.740  21.926  26.161  1.00  0.00    -0.200 F 
ATOM     58  F   UNL A   1      43.867  21.340  24.562  1.00  0.00    -0.200 F 
ENDBRANCH  24  48
BRANCH  36  59
ATOM     59  C   UNL A   1      45.329  30.493  28.820  1.00  0.00     0.064 A 
ATOM     60  C   UNL A   1      44.356  31.184  28.074  1.00  0.00     0.173 A 
ATOM     61  C   UNL A   1      46.650  30.943  28.715  1.00  0.00     0.173 A 
ATOM     62  F   UNL A   1      43.057  30.893  28.204  1.00  0.00    -0.203 F 
ATOM     63  C   UNL A   1      44.697  32.236  27.226  1.00  0.00     0.198 A 
ATOM     64  C   UNL A   1      46.986  32.019  27.895  1.00  0.00     0.198 A 
ATOM     65  F   UNL A   1      47.615  30.371  29.453  1.00  0.00    -0.203 F 
ATOM     66  F   UNL A   1      43.747  32.869  26.521  1.00  0.00    -0.200 F 
ATOM     67  C   UNL A   1      46.012  32.657  27.142  1.00  0.00     0.200 A 
ATOM     68  F   UNL A   1      48.251  32.459  27.860  1.00  0.00    -0.200 F 
ATOM     69  F   UNL A   1      46.339  33.697  26.362  1.00  0.00    -0.200 F 
ENDBRANCH  36  59
ENDBRANCH  10  11
ENDBRANCH   3   5
ENDBRANCH   2   3
ENDBRANCH   1   2
BRANCH   1  70
ATOM     70  C   UNL A   1      33.616  35.425  28.773  1.00  0.00     0.275 C 
BRANCH  70  71
ATOM     71  O   UNL A   1      32.644  35.083  29.775  1.00  0.00    -0.457 OA
BRANCH  71  72
ATOM     72  C   UNL A   1      32.776  35.709  30.986  1.00  0.00     0.367 C 
ATOM     73  O   UNL A   1      32.154  36.714  31.326  1.00  0.00    -0.243 OA
BRANCH  72  74
ATOM     74  C   UNL A   1      33.763  35.018  31.780  1.00  0.00     0.203 A 
ATOM     75  N   UNL A   1      34.138  33.773  31.573  1.00  0.00    -0.226 NA
ATOM     76  S   UNL A   1      34.508  35.827  33.088  1.00  0.00    -0.107 S 
ATOM     77  C   UNL A   1      35.102  33.413  32.507  1.00  0.00     0.118 A 
ATOM     78  C   UNL A   1      35.426  34.410  33.433  1.00  0.00     0.058 A 
ATOM     79  C   UNL A   1      35.773  32.175  32.612  1.00  0.00     0.150 A 
ATOM     80  C   UNL A   1      36.370  34.205  34.453  1.00  0.00     0.021 A 
ATOM     81  F   UNL A   1      35.528  31.188  31.737  1.00  0.00    -0.205 F 
ATOM     82  C   UNL A   1      36.719  31.958  33.616  1.00  0.00     0.041 A 
ATOM     83  C   UNL A   1      37.011  32.964  34.530  1.00  0.00     0.005 A 
ENDBRANCH  72  74
ENDBRANCH  71  72
ENDBRANCH  70  71
ENDBRANCH   1  70
TORSDOF 11
ENDMDL
MODEL 3
REMARK VINA RESULT:     -11.1      1.460      2.103
REMARK SMILES O=C(OCCOC(=O)c1nc2c(F)cccc2s1)c1ccc(-c2c3nc(c(-c4c(F)c(F)c(F)c(F)c4F)c4ccc([nH]4)c(-c4c(F)c(F)c(F)c(F)c4F)c4nc(c(-c5c(F)c(F)c(F)c(F)c5F)c5ccc2[nH]5)C=C4)C=C3)cc1
REMARK SMILES IDX 4 1 3 2 2 3 1 4 19 5 20 6 81 7 21 8 80 9 22 10 23 11 24 12
REMARK SMILES IDX 74 13 25 14 79 15 73 16 75 17 26 18 78 19 72 20 71 21 27 23
REMARK SMILES IDX 59 24 39 25 58 26 40 27 43 28 57 29 76 30 41 31 42 32 56 34
REMARK SMILES IDX 77 35 44 36 28 37 29 38 37 39 30 40 31 41 35 42 38 43 32 44
REMARK SMILES IDX 33 45 36 46 34 47 60 48 61 49 69 50 62 51 63 52 67 53 70 54
REMARK SMILES IDX 64 55 65 56 68 57 66 58 45 59 46 60 54 61 47 62 48 63 52 64
REMARK SMILES IDX 55 65 49 66 50 67 53 68 51 69 5 70 6 71 7 72 8 73 9 74 10 75
REMARK SMILES IDX 18 76 11 77 17 78 12 79 16 80 13 81 14 82 15 83
REMARK H PARENT 75 22 43 33
REMARK Flexibility Score: inf
ROOT
ATOM      1  C   UNL A   1      41.719  20.093  27.554  1.00  0.00     0.275 C 
ENDROOT
BRANCH   1   2
ATOM      2  O   UNL A   1      40.544  20.929  27.612  1.00  0.00    -0.458 OA
BRANCH   2   3
ATOM      3  C   UNL A   1      40.396  22.016  26.823  1.00  0.00     0.338 C 
ATOM      4  O   UNL A   1      40.037  21.929  25.657  1.00  0.00    -0.246 OA
BRANCH   3   5
ATOM      5  C   UNL A   1      40.392  23.320  27.540  1.00  0.00     0.060 A 
ATOM      6  C   UNL A   1      39.326  24.224  27.494  1.00  0.00     0.016 A 
ATOM      7  C   UNL A   1      41.564  23.669  28.229  1.00  0.00     0.016 A 
ATOM      8  C   UNL A   1      39.477  25.501  28.006  1.00  0.00     0.010 A 
ATOM      9  C   UNL A   1      41.720  24.948  28.744  1.00  0.00     0.010 A 
ATOM     10  C   UNL A   1      40.702  25.875  28.560  1.00  0.00    -0.014 A 
BRANCH  10  11
ATOM     11  C   UNL A   1      40.886  27.278  28.887  1.00  0.00     0.031 A 
ATOM     12  C   UNL A   1      42.115  27.918  28.351  1.00  0.00     0.074 A 
ATOM     13  C   UNL A   1      39.984  27.945  29.631  1.00  0.00     0.049 A 
ATOM     14  N   UNL A   1      43.127  28.385  29.011  1.00  0.00    -0.248 NA
ATOM     15  C   UNL A   1      42.276  27.967  26.894  1.00  0.00     0.031 C 
ATOM     16  C   UNL A   1      38.637  27.539  30.040  1.00  0.00     0.029 A 
ATOM     17  N   UNL A   1      40.096  29.197  30.149  1.00  0.00    -0.354 N 
ATOM     18  C   UNL A   1      44.006  28.906  28.063  1.00  0.00     0.074 A 
ATOM     19  C   UNL A   1      43.478  28.534  26.773  1.00  0.00     0.031 C 
ATOM     20  C   UNL A   1      37.988  28.603  30.570  1.00  0.00     0.029 A 
ATOM     21  C   UNL A   1      38.921  29.711  30.672  1.00  0.00     0.049 A 
ATOM     22  H   UNL A   1      40.944  29.696  30.153  1.00  0.00     0.167 HD
ATOM     23  C   UNL A   1      45.033  29.735  28.409  1.00  0.00     0.037 A 
ATOM     24  C   UNL A   1      38.736  30.980  31.110  1.00  0.00     0.037 A 
ATOM     25  C   UNL A   1      45.330  29.647  29.813  1.00  0.00     0.049 A 
ATOM     26  C   UNL A   1      40.077  31.529  31.439  1.00  0.00     0.074 A 
ATOM     27  C   UNL A   1      45.850  28.663  30.631  1.00  0.00     0.029 A 
ATOM     28  N   UNL A   1      44.770  30.569  30.662  1.00  0.00    -0.354 N 
ATOM     29  N   UNL A   1      40.810  31.092  32.426  1.00  0.00    -0.248 NA
ATOM     30  C   UNL A   1      40.797  32.230  30.386  1.00  0.00     0.031 C 
ATOM     31  C   UNL A   1      45.138  28.789  31.859  1.00  0.00     0.029 A 
ATOM     32  C   UNL A   1      44.268  29.874  31.734  1.00  0.00     0.049 A 
ATOM     33  H   UNL A   1      44.734  31.543  30.526  1.00  0.00     0.167 HD
ATOM     34  C   UNL A   1      42.107  31.090  31.933  1.00  0.00     0.074 A 
ATOM     35  C   UNL A   1      42.045  31.866  30.695  1.00  0.00     0.031 C 
ATOM     36  C   UNL A   1      43.049  30.232  32.420  1.00  0.00     0.037 A 
BRANCH  23  37
ATOM     37  C   UNL A   1      45.602  30.824  27.537  1.00  0.00     0.064 A 
ATOM     38  C   UNL A   1      46.989  30.866  27.282  1.00  0.00     0.173 A 
ATOM     39  C   UNL A   1      44.882  31.984  27.177  1.00  0.00     0.173 A 
ATOM     40  F   UNL A   1      47.774  29.825  27.594  1.00  0.00    -0.203 F 
ATOM     41  C   UNL A   1      47.612  32.010  26.774  1.00  0.00     0.198 A 
ATOM     42  C   UNL A   1      45.501  33.104  26.626  1.00  0.00     0.198 A 
ATOM     43  F   UNL A   1      43.577  32.115  27.443  1.00  0.00    -0.203 F 
ATOM     44  F   UNL A   1      48.947  32.043  26.653  1.00  0.00    -0.200 F 
ATOM     45  C   UNL A   1      46.870  33.130  26.453  1.00  0.00     0.200 A 
ATOM     46  F   UNL A   1      44.766  34.186  26.333  1.00  0.00    -0.200 F 
ATOM     47  F   UNL A   1      47.471  34.246  26.020  1.00  0.00    -0.200 F 
ENDBRANCH  23  37
BRANCH  24  48
ATOM     48  C   UNL A   1      37.561  31.845  30.847  1.00  0.00     0.064 A 
ATOM     49  C   UNL A   1      37.278  32.314  29.554  1.00  0.00     0.173 A 
ATOM     50  C   UNL A   1      36.535  31.987  31.803  1.00  0.00     0.173 A 
ATOM     51  F   UNL A   1      38.183  32.173  28.575  1.00  0.00    -0.203 F 
ATOM     52  C   UNL A   1      36.033  32.865  29.231  1.00  0.00     0.198 A 
ATOM     53  C   UNL A   1      35.296  32.540  31.481  1.00  0.00     0.198 A 
ATOM     54  F   UNL A   1      36.679  31.500  33.044  1.00  0.00    -0.203 F 
ATOM     55  F   UNL A   1      35.776  33.244  27.971  1.00  0.00    -0.200 F 
ATOM     56  C   UNL A   1      35.040  32.966  30.192  1.00  0.00     0.200 A 
ATOM     57  F   UNL A   1      34.330  32.594  32.409  1.00  0.00    -0.200 F 
ATOM     58  F   UNL A   1      33.826  33.432  29.866  1.00  0.00    -0.200 F 
ENDBRANCH  24  48
BRANCH  36  59
ATOM     59  C   UNL A   1      42.682  29.417  33.631  1.00  0.00     0.064 A 
ATOM     60  C   UNL A   1      42.046  28.164  33.559  1.00  0.00     0.173 A 
ATOM     61  C   UNL A   1      43.114  29.841  34.893  1.00  0.00     0.173 A 
ATOM     62  F   UNL A   1      41.706  27.633  32.380  1.00  0.00    -0.203 F 
ATOM     63  C   UNL A   1      41.808  27.400  34.701  1.00  0.00     0.198 A 
ATOM     64  C   UNL A   1      42.907  29.061  36.030  1.00  0.00     0.198 A 
ATOM     65  F   UNL A   1      43.788  30.996  35.020  1.00  0.00    -0.203 F 
ATOM     66  F   UNL A   1      41.191  26.213  34.600  1.00  0.00    -0.200 F 
ATOM     67  C   UNL A   1      42.244  27.847  35.935  1.00  0.00     0.200 A 
ATOM     68  F   UNL A   1      43.381  29.470  37.214  1.00  0.00    -0.200 F 
ATOM     69  F   UNL A   1      42.055  27.096  37.029  1.00  0.00    -0.200 F 
ENDBRANCH  36  59
ENDBRANCH  10  11
ENDBRANCH   3   5
ENDBRANCH   2   3
ENDBRANCH   1   2
BRANCH   1  70
ATOM     70  C   UNL A   1      41.741  18.982  26.507  1.00  0.00     0.275 C 
BRANCH  70  71
ATOM     71  O   UNL A   1      42.277  19.446  25.258  1.00  0.00    -0.457 OA
BRANCH  71  72
ATOM     72  C   UNL A   1      43.641  19.418  25.135  1.00  0.00     0.367 C 
ATOM     73  O   UNL A   1      44.318  18.393  25.066  1.00  0.00    -0.243 OA
BRANCH  72  74
ATOM     74  C   UNL A   1      44.149  20.769  25.120  1.00  0.00     0.203 A 
ATOM     75  N   UNL A   1      43.390  21.844  25.111  1.00  0.00    -0.226 NA
ATOM     76  S   UNL A   1      45.838  21.032  25.101  1.00  0.00    -0.107 S 
ATOM     77  C   UNL A   1      44.189  22.981  25.100  1.00  0.00     0.118 A 
ATOM     78  C   UNL A   1      45.565  22.734  25.079  1.00  0.00     0.058 A 
ATOM     79  C   UNL A   1      43.763  24.328  25.110  1.00  0.00     0.150 A 
ATOM     80  C   UNL A   1      46.511  23.772  25.052  1.00  0.00     0.021 A 
ATOM     81  F   UNL A   1      42.458  24.632  25.158  1.00  0.00    -0.205 F 
ATOM     82  C   UNL A   1      44.691  25.371  25.089  1.00  0.00     0.041 A 
ATOM     83  C   UNL A   1      46.053  25.094  25.056  1.00  0.00     0.005 A 
ENDBRANCH  72  74
ENDBRANCH  71  72
ENDBRANCH  70  71
ENDBRANCH   1  70
TORSDOF 11
ENDMDL
