MODEL 1
REMARK VINA RESULT:     -12.4      0.000      0.000
REMARK SMILES Cc1nn(CC(=O)OCCOC(=O)c2ccc(-c3c4nc(c(-c5c(F)c(F)c(F)c(F)c5F)c5ccc([nH]5)c(-c5c(F)c(F)c(F)c(F)c5F)c5nc(c(-c6c(F)c(F)c(F)c(F)c6F)c6ccc3[nH]6)C=C5)C=C4)cc2)c(C)c1NC(=O)C(=O)Nc1ccc(F)cc1
REMARK SMILES IDX 9 1 8 2 6 3 7 4 5 5 4 6 1 7 2 8 3 9 79 10 77 11 78 12 80 13
REMARK SMILES IDX 81 14 82 16 83 17 84 18 85 19 86 21 87 22 92 23 88 24 91 25
REMARK SMILES IDX 89 26 90 27 10 28 11 29 12 30 13 31 14 32 15 33 76 34 16 35
REMARK SMILES IDX 75 36 17 37 18 38 19 39 69 40 20 41 74 42 68 43 70 44 21 45
REMARK SMILES IDX 73 46 67 47 66 48 22 50 54 51 34 52 53 53 35 54 38 55 52 56
REMARK SMILES IDX 71 57 36 58 37 59 51 61 72 62 39 63 23 64 24 65 32 66 25 67
REMARK SMILES IDX 26 68 30 69 33 70 27 71 28 72 31 73 29 74 55 75 56 76 64 77
REMARK SMILES IDX 57 78 58 79 62 80 65 81 59 82 60 83 63 84 61 85 40 86 41 87
REMARK SMILES IDX 49 88 42 89 43 90 47 91 50 92 44 93 45 94 48 95 46 96
REMARK H PARENT 80 15 85 20 70 49 38 60
REMARK Flexibility Score: inf
ROOT
ATOM      1  C   UNL A   1      37.028  21.196  25.345  1.00  0.00     0.274 C 
ENDROOT
BRANCH   1   2
ATOM      2  O   UNL A   1      36.356  22.412  24.961  1.00  0.00    -0.461 OA
BRANCH   2   3
ATOM      3  C   UNL A   1      35.042  22.314  24.624  1.00  0.00     0.327 C 
ATOM      4  O   UNL A   1      34.160  21.983  25.413  1.00  0.00    -0.250 OA
BRANCH   3   5
ATOM      5  C   UNL A   1      34.727  22.648  23.193  1.00  0.00     0.267 C 
BRANCH   5   6
ATOM      6  N   UNL A   1      33.820  23.766  22.979  1.00  0.00    -0.256 N 
ATOM      7  C   UNL A   1      33.442  27.263  22.604  1.00  0.00     0.071 C 
ATOM      8  C   UNL A   1      33.271  25.805  22.829  1.00  0.00     0.083 A 
ATOM      9  N   UNL A   1      34.338  25.003  22.857  1.00  0.00    -0.175 NA
ATOM     10  C   UNL A   1      32.076  25.088  23.122  1.00  0.00     0.086 A 
ATOM     11  C   UNL A   1      32.446  23.756  23.088  1.00  0.00     0.060 A 
ATOM     12  C   UNL A   1      31.680  22.482  23.116  1.00  0.00     0.069 C 
BRANCH  10  13
ATOM     13  N   UNL A   1      30.849  25.679  23.353  1.00  0.00    -0.315 N 
ATOM     14  C   UNL A   1      30.113  25.738  24.518  1.00  0.00     0.314 C 
ATOM     15  H   UNL A   1      30.441  26.123  22.574  1.00  0.00     0.170 HD
ATOM     16  O   UNL A   1      29.099  26.428  24.565  1.00  0.00    -0.263 OA
BRANCH  14  17
ATOM     17  C   UNL A   1      30.656  25.083  25.787  1.00  0.00     0.314 C 
ATOM     18  O   UNL A   1      30.487  23.876  25.962  1.00  0.00    -0.263 OA
ATOM     19  N   UNL A   1      31.390  25.780  26.727  1.00  0.00    -0.318 N 
ATOM     20  H   UNL A   1      31.395  25.384  27.628  1.00  0.00     0.170 HD
BRANCH  19  21
ATOM     21  C   UNL A   1      32.128  26.965  26.597  1.00  0.00     0.041 A 
ATOM     22  C   UNL A   1      31.471  28.121  27.045  1.00  0.00     0.029 A 
ATOM     23  C   UNL A   1      33.447  27.056  26.158  1.00  0.00     0.029 A 
ATOM     24  C   UNL A   1      32.167  29.318  27.193  1.00  0.00     0.041 A 
ATOM     25  C   UNL A   1      34.143  28.263  26.290  1.00  0.00     0.041 A 
ATOM     26  C   UNL A   1      33.505  29.372  26.836  1.00  0.00     0.123 A 
ATOM     27  F   UNL A   1      34.193  30.506  27.028  1.00  0.00    -0.207 F 
ENDBRANCH  19  21
ENDBRANCH  14  17
ENDBRANCH  10  13
ENDBRANCH   5   6
ENDBRANCH   3   5
ENDBRANCH   2   3
ENDBRANCH   1   2
BRANCH   1  28
ATOM     28  C   UNL A   1      38.532  21.413  25.498  1.00  0.00     0.275 C 
BRANCH  28  29
ATOM     29  O   UNL A   1      38.796  22.512  26.371  1.00  0.00    -0.458 OA
BRANCH  29  30
ATOM     30  C   UNL A   1      39.976  22.401  27.015  1.00  0.00     0.338 C 
ATOM     31  O   UNL A   1      40.388  21.416  27.618  1.00  0.00    -0.246 OA
BRANCH  30  32
ATOM     32  C   UNL A   1      40.698  23.668  27.008  1.00  0.00     0.060 A 
ATOM     33  C   UNL A   1      41.817  23.775  27.843  1.00  0.00     0.016 A 
ATOM     34  C   UNL A   1      40.056  24.786  26.466  1.00  0.00     0.016 A 
ATOM     35  C   UNL A   1      42.166  25.019  28.317  1.00  0.00     0.010 A 
ATOM     36  C   UNL A   1      40.390  26.024  26.959  1.00  0.00     0.010 A 
ATOM     37  C   UNL A   1      41.374  26.106  27.949  1.00  0.00    -0.014 A 
BRANCH  37  38
ATOM     38  C   UNL A   1      41.514  27.337  28.699  1.00  0.00     0.031 A 
ATOM     39  C   UNL A   1      42.692  28.165  28.358  1.00  0.00     0.074 A 
ATOM     40  C   UNL A   1      40.510  27.742  29.502  1.00  0.00     0.049 A 
ATOM     41  N   UNL A   1      43.573  28.679  29.152  1.00  0.00    -0.248 NA
ATOM     42  C   UNL A   1      42.957  28.396  26.928  1.00  0.00     0.031 C 
ATOM     43  C   UNL A   1      39.181  27.131  29.650  1.00  0.00     0.029 A 
ATOM     44  N   UNL A   1      40.409  28.875  30.246  1.00  0.00    -0.354 N 
ATOM     45  C   UNL A   1      44.410  29.435  28.339  1.00  0.00     0.074 A 
ATOM     46  C   UNL A   1      44.072  29.122  26.975  1.00  0.00     0.031 C 
ATOM     47  C   UNL A   1      38.349  28.022  30.229  1.00  0.00     0.029 A 
ATOM     48  C   UNL A   1      39.108  29.208  30.586  1.00  0.00     0.049 A 
ATOM     49  H   UNL A   1      41.190  29.410  30.518  1.00  0.00     0.167 HD
ATOM     50  C   UNL A   1      45.163  30.452  28.832  1.00  0.00     0.037 A 
ATOM     51  C   UNL A   1      38.678  30.418  31.018  1.00  0.00     0.037 A 
ATOM     52  C   UNL A   1      45.389  30.329  30.244  1.00  0.00     0.049 A 
ATOM     53  C   UNL A   1      39.866  31.185  31.472  1.00  0.00     0.074 A 
ATOM     54  C   UNL A   1      45.977  29.371  31.047  1.00  0.00     0.029 A 
ATOM     55  N   UNL A   1      44.683  31.139  31.098  1.00  0.00    -0.354 N 
ATOM     56  N   UNL A   1      40.571  30.894  32.529  1.00  0.00    -0.248 NA
ATOM     57  C   UNL A   1      40.531  32.040  30.498  1.00  0.00     0.031 C 
ATOM     58  C   UNL A   1      45.209  29.366  32.247  1.00  0.00     0.029 A 
ATOM     59  C   UNL A   1      44.220  30.339  32.112  1.00  0.00     0.049 A 
ATOM     60  H   UNL A   1      44.537  32.107  31.001  1.00  0.00     0.167 HD
ATOM     61  C   UNL A   1      41.882  31.175  32.170  1.00  0.00     0.074 A 
ATOM     62  C   UNL A   1      41.784  31.971  30.953  1.00  0.00     0.031 C 
ATOM     63  C   UNL A   1      42.927  30.498  32.732  1.00  0.00     0.037 A 
BRANCH  50  64
ATOM     64  C   UNL A   1      45.391  31.726  28.072  1.00  0.00     0.064 A 
ATOM     65  C   UNL A   1      44.295  32.514  27.683  1.00  0.00     0.173 A 
ATOM     66  C   UNL A   1      46.628  32.049  27.470  1.00  0.00     0.173 A 
ATOM     67  F   UNL A   1      43.068  32.257  28.162  1.00  0.00    -0.203 F 
ATOM     68  C   UNL A   1      44.423  33.527  26.729  1.00  0.00     0.198 A 
ATOM     69  C   UNL A   1      46.765  33.097  26.566  1.00  0.00     0.198 A 
ATOM     70  F   UNL A   1      47.722  31.296  27.651  1.00  0.00    -0.203 F 
ATOM     71  F   UNL A   1      43.334  34.179  26.301  1.00  0.00    -0.200 F 
ATOM     72  C   UNL A   1      45.658  33.818  26.173  1.00  0.00     0.200 A 
ATOM     73  F   UNL A   1      47.964  33.347  26.021  1.00  0.00    -0.200 F 
ATOM     74  F   UNL A   1      45.772  34.753  25.221  1.00  0.00    -0.200 F 
ENDBRANCH  50  64
BRANCH  51  75
ATOM     75  C   UNL A   1      37.370  31.058  30.739  1.00  0.00     0.064 A 
ATOM     76  C   UNL A   1      36.476  31.362  31.776  1.00  0.00     0.173 A 
ATOM     77  C   UNL A   1      37.073  31.612  29.476  1.00  0.00     0.173 A 
ATOM     78  F   UNL A   1      36.713  30.919  33.019  1.00  0.00    -0.203 F 
ATOM     79  C   UNL A   1      35.356  32.174  31.565  1.00  0.00     0.198 A 
ATOM     80  C   UNL A   1      35.950  32.409  29.263  1.00  0.00     0.198 A 
ATOM     81  F   UNL A   1      37.916  31.468  28.443  1.00  0.00    -0.203 F 
ATOM     82  F   UNL A   1      34.555  32.489  32.592  1.00  0.00    -0.200 F 
ATOM     83  C   UNL A   1      35.098  32.700  30.309  1.00  0.00     0.200 A 
ATOM     84  F   UNL A   1      35.733  32.940  28.051  1.00  0.00    -0.200 F 
ATOM     85  F   UNL A   1      34.055  33.519  30.117  1.00  0.00    -0.200 F 
ENDBRANCH  51  75
BRANCH  63  86
ATOM     86  C   UNL A   1      42.634  29.632  33.923  1.00  0.00     0.064 A 
ATOM     87  C   UNL A   1      42.102  28.335  33.826  1.00  0.00     0.173 A 
ATOM     88  C   UNL A   1      43.036  30.071  35.191  1.00  0.00     0.173 A 
ATOM     89  F   UNL A   1      41.799  27.803  32.637  1.00  0.00    -0.203 F 
ATOM     90  C   UNL A   1      41.928  27.537  34.954  1.00  0.00     0.198 A 
ATOM     91  C   UNL A   1      42.897  29.257  36.313  1.00  0.00     0.198 A 
ATOM     92  F   UNL A   1      43.612  31.275  35.336  1.00  0.00    -0.203 F 
ATOM     93  F   UNL A   1      41.402  26.309  34.836  1.00  0.00    -0.200 F 
ATOM     94  C   UNL A   1      42.331  27.996  36.197  1.00  0.00     0.200 A 
ATOM     95  F   UNL A   1      43.336  29.684  37.504  1.00  0.00    -0.200 F 
ATOM     96  F   UNL A   1      42.202  27.215  37.277  1.00  0.00    -0.200 F 
ENDBRANCH  63  86
ENDBRANCH  37  38
ENDBRANCH  30  32
ENDBRANCH  29  30
ENDBRANCH  28  29
ENDBRANCH   1  28
TORSDOF 15
ENDMDL
MODEL 2
REMARK VINA RESULT:     -12.3      1.214      2.216
REMARK SMILES Cc1nn(CC(=O)OCCOC(=O)c2ccc(-c3c4nc(c(-c5c(F)c(F)c(F)c(F)c5F)c5ccc([nH]5)c(-c5c(F)c(F)c(F)c(F)c5F)c5nc(c(-c6c(F)c(F)c(F)c(F)c6F)c6ccc3[nH]6)C=C5)C=C4)cc2)c(C)c1NC(=O)C(=O)Nc1ccc(F)cc1
REMARK SMILES IDX 9 1 8 2 6 3 7 4 5 5 4 6 1 7 2 8 3 9 79 10 77 11 78 12 80 13
REMARK SMILES IDX 81 14 82 16 83 17 84 18 85 19 86 21 87 22 92 23 88 24 91 25
REMARK SMILES IDX 89 26 90 27 10 28 11 29 12 30 13 31 14 32 15 33 76 34 16 35
REMARK SMILES IDX 75 36 17 37 18 38 19 39 69 40 20 41 74 42 68 43 70 44 21 45
REMARK SMILES IDX 73 46 67 47 66 48 22 50 54 51 34 52 53 53 35 54 38 55 52 56
REMARK SMILES IDX 71 57 36 58 37 59 51 61 72 62 39 63 23 64 24 65 32 66 25 67
REMARK SMILES IDX 26 68 30 69 33 70 27 71 28 72 31 73 29 74 55 75 56 76 64 77
REMARK SMILES IDX 57 78 58 79 62 80 65 81 59 82 60 83 63 84 61 85 40 86 41 87
REMARK SMILES IDX 49 88 42 89 43 90 47 91 50 92 44 93 45 94 48 95 46 96
REMARK H PARENT 80 15 85 20 70 49 38 60
REMARK Flexibility Score: inf
ROOT
ATOM      1  C   UNL A   1      36.048  22.518  25.637  1.00  0.00     0.274 C 
ENDROOT
BRANCH   1   2
ATOM      2  O   UNL A   1      35.363  22.009  24.476  1.00  0.00    -0.461 OA
BRANCH   2   3
ATOM      3  C   UNL A   1      34.592  20.901  24.648  1.00  0.00     0.327 C 
ATOM      4  O   UNL A   1      35.035  19.812  25.005  1.00  0.00    -0.250 OA
BRANCH   3   5
ATOM      5  C   UNL A   1      33.127  21.099  24.374  1.00  0.00     0.267 C 
BRANCH   5   6
ATOM      6  N   UNL A   1      32.654  22.475  24.372  1.00  0.00    -0.256 N 
ATOM      7  C   UNL A   1      31.196  25.124  26.208  1.00  0.00     0.071 C 
ATOM      8  C   UNL A   1      31.709  24.192  25.171  1.00  0.00     0.083 A 
ATOM      9  N   UNL A   1      32.201  23.004  25.525  1.00  0.00    -0.175 NA
ATOM     10  C   UNL A   1      31.680  24.341  23.755  1.00  0.00     0.086 A 
ATOM     11  C   UNL A   1      32.413  23.271  23.273  1.00  0.00     0.060 A 
ATOM     12  C   UNL A   1      32.936  22.916  21.928  1.00  0.00     0.069 C 
BRANCH  10  13
ATOM     13  N   UNL A   1      31.050  25.377  23.092  1.00  0.00    -0.315 N 
ATOM     14  C   UNL A   1      31.600  26.480  22.474  1.00  0.00     0.314 C 
ATOM     15  H   UNL A   1      30.068  25.319  23.056  1.00  0.00     0.170 HD
ATOM     16  O   UNL A   1      30.885  27.230  21.816  1.00  0.00    -0.263 OA
BRANCH  14  17
ATOM     17  C   UNL A   1      33.117  26.666  22.470  1.00  0.00     0.314 C 
ATOM     18  O   UNL A   1      33.754  26.395  21.452  1.00  0.00    -0.263 OA
ATOM     19  N   UNL A   1      33.804  27.189  23.548  1.00  0.00    -0.318 N 
ATOM     20  H   UNL A   1      34.759  26.956  23.585  1.00  0.00     0.170 HD
BRANCH  19  21
ATOM     21  C   UNL A   1      33.351  27.999  24.599  1.00  0.00     0.041 A 
ATOM     22  C   UNL A   1      33.862  27.666  25.862  1.00  0.00     0.029 A 
ATOM     23  C   UNL A   1      32.536  29.121  24.466  1.00  0.00     0.029 A 
ATOM     24  C   UNL A   1      33.685  28.524  26.945  1.00  0.00     0.041 A 
ATOM     25  C   UNL A   1      32.343  29.975  25.558  1.00  0.00     0.041 A 
ATOM     26  C   UNL A   1      32.946  29.684  26.777  1.00  0.00     0.123 A 
ATOM     27  F   UNL A   1      32.819  30.539  27.801  1.00  0.00    -0.207 F 
ENDBRANCH  19  21
ENDBRANCH  14  17
ENDBRANCH  10  13
ENDBRANCH   5   6
ENDBRANCH   3   5
ENDBRANCH   2   3
ENDBRANCH   1   2
BRANCH   1  28
ATOM     28  C   UNL A   1      37.564  22.453  25.464  1.00  0.00     0.275 C 
BRANCH  28  29
ATOM     29  O   UNL A   1      38.217  23.297  26.413  1.00  0.00    -0.458 OA
BRANCH  29  30
ATOM     30  C   UNL A   1      39.469  22.891  26.705  1.00  0.00     0.338 C 
ATOM     31  O   UNL A   1      39.831  21.740  26.924  1.00  0.00    -0.246 OA
BRANCH  30  32
ATOM     32  C   UNL A   1      40.369  24.030  26.843  1.00  0.00     0.060 A 
ATOM     33  C   UNL A   1      41.242  24.030  27.940  1.00  0.00     0.016 A 
ATOM     34  C   UNL A   1      40.081  25.187  26.114  1.00  0.00     0.016 A 
ATOM     35  C   UNL A   1      41.662  25.239  28.445  1.00  0.00     0.010 A 
ATOM     36  C   UNL A   1      40.481  26.394  26.633  1.00  0.00     0.010 A 
ATOM     37  C   UNL A   1      41.181  26.401  27.843  1.00  0.00    -0.014 A 
BRANCH  37  38
ATOM     38  C   UNL A   1      41.329  27.652  28.560  1.00  0.00     0.031 A 
ATOM     39  C   UNL A   1      42.470  28.497  28.145  1.00  0.00     0.074 A 
ATOM     40  C   UNL A   1      40.356  28.052  29.402  1.00  0.00     0.049 A 
ATOM     41  N   UNL A   1      43.376  29.047  28.884  1.00  0.00    -0.248 NA
ATOM     42  C   UNL A   1      42.660  28.703  26.699  1.00  0.00     0.031 C 
ATOM     43  C   UNL A   1      39.050  27.416  29.627  1.00  0.00     0.029 A 
ATOM     44  N   UNL A   1      40.266  29.199  30.126  1.00  0.00    -0.354 N 
ATOM     45  C   UNL A   1      44.156  29.804  28.015  1.00  0.00     0.074 A 
ATOM     46  C   UNL A   1      43.759  29.453  26.677  1.00  0.00     0.031 C 
ATOM     47  C   UNL A   1      38.226  28.302  30.228  1.00  0.00     0.029 A 
ATOM     48  C   UNL A   1      38.975  29.511  30.523  1.00  0.00     0.049 A 
ATOM     49  H   UNL A   1      41.046  29.756  30.349  1.00  0.00     0.167 HD
ATOM     50  C   UNL A   1      44.909  30.847  28.450  1.00  0.00     0.037 A 
ATOM     51  C   UNL A   1      38.539  30.721  30.950  1.00  0.00     0.037 A 
ATOM     52  C   UNL A   1      45.205  30.760  29.852  1.00  0.00     0.049 A 
ATOM     53  C   UNL A   1      39.730  31.523  31.329  1.00  0.00     0.074 A 
ATOM     54  C   UNL A   1      45.853  29.833  30.644  1.00  0.00     0.029 A 
ATOM     55  N   UNL A   1      44.523  31.572  30.722  1.00  0.00    -0.354 N 
ATOM     56  N   UNL A   1      40.491  31.270  32.357  1.00  0.00    -0.248 NA
ATOM     57  C   UNL A   1      40.327  32.371  30.306  1.00  0.00     0.031 C 
ATOM     58  C   UNL A   1      45.144  29.837  31.881  1.00  0.00     0.029 A 
ATOM     59  C   UNL A   1      44.128  30.786  31.774  1.00  0.00     0.049 A 
ATOM     60  H   UNL A   1      44.351  32.536  30.612  1.00  0.00     0.167 HD
ATOM     61  C   UNL A   1      41.777  31.572  31.929  1.00  0.00     0.074 A 
ATOM     62  C   UNL A   1      41.603  32.339  30.701  1.00  0.00     0.031 C 
ATOM     63  C   UNL A   1      42.863  30.930  32.452  1.00  0.00     0.037 A 
BRANCH  50  64
ATOM     64  C   UNL A   1      45.070  32.109  27.653  1.00  0.00     0.064 A 
ATOM     65  C   UNL A   1      46.276  32.361  26.979  1.00  0.00     0.173 A 
ATOM     66  C   UNL A   1      44.183  33.204  27.764  1.00  0.00     0.173 A 
ATOM     67  F   UNL A   1      47.205  31.399  26.861  1.00  0.00    -0.203 F 
ATOM     68  C   UNL A   1      46.588  33.631  26.487  1.00  0.00     0.198 A 
ATOM     69  C   UNL A   1      44.470  34.451  27.220  1.00  0.00     0.198 A 
ATOM     70  F   UNL A   1      43.062  33.136  28.494  1.00  0.00    -0.203 F 
ATOM     71  F   UNL A   1      47.795  33.859  25.952  1.00  0.00    -0.200 F 
ATOM     72  C   UNL A   1      45.684  34.674  26.607  1.00  0.00     0.200 A 
ATOM     73  F   UNL A   1      43.593  35.454  27.369  1.00  0.00    -0.200 F 
ATOM     74  F   UNL A   1      46.004  35.903  26.182  1.00  0.00    -0.200 F 
ENDBRANCH  50  64
BRANCH  51  75
ATOM     75  C   UNL A   1      37.205  31.326  30.722  1.00  0.00     0.064 A 
ATOM     76  C   UNL A   1      36.350  31.620  31.794  1.00  0.00     0.173 A 
ATOM     77  C   UNL A   1      36.840  31.858  29.468  1.00  0.00     0.173 A 
ATOM     78  F   UNL A   1      36.651  31.198  33.030  1.00  0.00    -0.203 F 
ATOM     79  C   UNL A   1      35.203  32.404  31.624  1.00  0.00     0.198 A 
ATOM     80  C   UNL A   1      35.689  32.626  29.295  1.00  0.00     0.198 A 
ATOM     81  F   UNL A   1      37.640  31.723  28.400  1.00  0.00    -0.203 F 
ATOM     82  F   UNL A   1      34.440  32.711  32.681  1.00  0.00    -0.200 F 
ATOM     83  C   UNL A   1      34.877  32.908  30.375  1.00  0.00     0.200 A 
ATOM     84  F   UNL A   1      35.407  33.137  28.088  1.00  0.00    -0.200 F 
ATOM     85  F   UNL A   1      33.807  33.700  30.220  1.00  0.00    -0.200 F 
ENDBRANCH  51  75
BRANCH  63  86
ATOM     86  C   UNL A   1      42.648  30.084  33.675  1.00  0.00     0.064 A 
ATOM     87  C   UNL A   1      42.700  30.589  34.985  1.00  0.00     0.173 A 
ATOM     88  C   UNL A   1      42.235  28.756  33.511  1.00  0.00     0.173 A 
ATOM     89  F   UNL A   1      42.977  31.877  35.216  1.00  0.00    -0.203 F 
ATOM     90  C   UNL A   1      42.409  29.784  36.084  1.00  0.00     0.198 A 
ATOM     91  C   UNL A   1      41.907  27.963  34.608  1.00  0.00     0.198 A 
ATOM     92  F   UNL A   1      42.102  28.239  32.280  1.00  0.00    -0.203 F 
ATOM     93  F   UNL A   1      42.483  30.286  37.325  1.00  0.00    -0.200 F 
ATOM     94  C   UNL A   1      42.006  28.473  35.895  1.00  0.00     0.200 A 
ATOM     95  F   UNL A   1      41.467  26.712  34.418  1.00  0.00    -0.200 F 
ATOM     96  F   UNL A   1      41.686  27.709  36.947  1.00  0.00    -0.200 F 
ENDBRANCH  63  86
ENDBRANCH  37  38
ENDBRANCH  30  32
ENDBRANCH  29  30
ENDBRANCH  28  29
ENDBRANCH   1  28
TORSDOF 15
ENDMDL
MODEL 3
REMARK VINA RESULT:     -12.2      2.999      7.457
REMARK SMILES Cc1nn(CC(=O)OCCOC(=O)c2ccc(-c3c4nc(c(-c5c(F)c(F)c(F)c(F)c5F)c5ccc([nH]5)c(-c5c(F)c(F)c(F)c(F)c5F)c5nc(c(-c6c(F)c(F)c(F)c(F)c6F)c6ccc3[nH]6)C=C5)C=C4)cc2)c(C)c1NC(=O)C(=O)Nc1ccc(F)cc1
REMARK SMILES IDX 9 1 8 2 6 3 7 4 5 5 4 6 1 7 2 8 3 9 79 10 77 11 78 12 80 13
REMARK SMILES IDX 81 14 82 16 83 17 84 18 85 19 86 21 87 22 92 23 88 24 91 25
REMARK SMILES IDX 89 26 90 27 10 28 11 29 12 30 13 31 14 32 15 33 76 34 16 35
REMARK SMILES IDX 75 36 17 37 18 38 19 39 69 40 20 41 74 42 68 43 70 44 21 45
REMARK SMILES IDX 73 46 67 47 66 48 22 50 54 51 34 52 53 53 35 54 38 55 52 56
REMARK SMILES IDX 71 57 36 58 37 59 51 61 72 62 39 63 23 64 24 65 32 66 25 67
REMARK SMILES IDX 26 68 30 69 33 70 27 71 28 72 31 73 29 74 55 75 56 76 64 77
REMARK SMILES IDX 57 78 58 79 62 80 65 81 59 82 60 83 63 84 61 85 40 86 41 87
REMARK SMILES IDX 49 88 42 89 43 90 47 91 50 92 44 93 45 94 48 95 46 96
REMARK H PARENT 80 15 85 20 70 49 38 60
REMARK Flexibility Score: inf
ROOT
ATOM      1  C   UNL A   1      36.475  20.987  24.955  1.00  0.00     0.274 C 
ENDROOT
BRANCH   1   2
ATOM      2  O   UNL A   1      35.293  20.164  24.993  1.00  0.00    -0.461 OA
BRANCH   2   3
ATOM      3  C   UNL A   1      34.114  20.785  25.269  1.00  0.00     0.327 C 
ATOM      4  O   UNL A   1      33.447  20.561  26.276  1.00  0.00    -0.250 OA
BRANCH   3   5
ATOM      5  C   UNL A   1      33.671  21.791  24.244  1.00  0.00     0.267 C 
BRANCH   5   6
ATOM      6  N   UNL A   1      33.370  23.125  24.742  1.00  0.00    -0.256 N 
ATOM      7  C   UNL A   1      30.902  25.392  25.873  1.00  0.00     0.071 C 
ATOM      8  C   UNL A   1      32.120  24.720  25.353  1.00  0.00     0.083 A 
ATOM      9  N   UNL A   1      32.102  23.411  25.094  1.00  0.00    -0.175 NA
ATOM     10  C   UNL A   1      33.365  25.305  24.982  1.00  0.00     0.086 A 
ATOM     11  C   UNL A   1      34.192  24.230  24.711  1.00  0.00     0.060 A 
ATOM     12  C   UNL A   1      35.651  24.104  24.456  1.00  0.00     0.069 C 
BRANCH  10  13
ATOM     13  N   UNL A   1      33.609  26.664  24.952  1.00  0.00    -0.315 N 
ATOM     14  C   UNL A   1      33.550  27.539  23.888  1.00  0.00     0.314 C 
ATOM     15  H   UNL A   1      33.862  27.066  25.815  1.00  0.00     0.170 HD
ATOM     16  O   UNL A   1      33.671  28.745  24.082  1.00  0.00    -0.263 OA
BRANCH  14  17
ATOM     17  C   UNL A   1      33.164  27.018  22.504  1.00  0.00     0.314 C 
ATOM     18  O   UNL A   1      33.896  26.203  21.942  1.00  0.00    -0.263 OA
ATOM     19  N   UNL A   1      31.988  27.378  21.876  1.00  0.00    -0.318 N 
ATOM     20  H   UNL A   1      31.992  27.278  20.897  1.00  0.00     0.170 HD
BRANCH  19  21
ATOM     21  C   UNL A   1      30.790  27.865  22.417  1.00  0.00     0.041 A 
ATOM     22  C   UNL A   1      30.505  29.204  22.108  1.00  0.00     0.029 A 
ATOM     23  C   UNL A   1      29.858  27.115  23.131  1.00  0.00     0.029 A 
ATOM     24  C   UNL A   1      29.248  29.739  22.378  1.00  0.00     0.041 A 
ATOM     25  C   UNL A   1      28.601  27.659  23.419  1.00  0.00     0.041 A 
ATOM     26  C   UNL A   1      28.298  28.953  23.011  1.00  0.00     0.123 A 
ATOM     27  F   UNL A   1      27.070  29.446  23.223  1.00  0.00    -0.207 F 
ENDBRANCH  19  21
ENDBRANCH  14  17
ENDBRANCH  10  13
ENDBRANCH   5   6
ENDBRANCH   3   5
ENDBRANCH   2   3
ENDBRANCH   1   2
BRANCH   1  28
ATOM     28  C   UNL A   1      37.746  20.139  24.945  1.00  0.00     0.275 C 
BRANCH  28  29
ATOM     29  O   UNL A   1      38.800  20.802  25.644  1.00  0.00    -0.458 OA
BRANCH  29  30
ATOM     30  C   UNL A   1      39.905  20.040  25.775  1.00  0.00     0.338 C 
ATOM     31  O   UNL A   1      40.011  18.852  25.490  1.00  0.00    -0.246 OA
BRANCH  30  32
ATOM     32  C   UNL A   1      40.979  20.784  26.421  1.00  0.00     0.060 A 
ATOM     33  C   UNL A   1      41.018  20.773  27.822  1.00  0.00     0.016 A 
ATOM     34  C   UNL A   1      41.674  21.728  25.659  1.00  0.00     0.016 A 
ATOM     35  C   UNL A   1      41.581  21.847  28.472  1.00  0.00     0.010 A 
ATOM     36  C   UNL A   1      42.215  22.811  26.309  1.00  0.00     0.010 A 
ATOM     37  C   UNL A   1      42.071  22.897  27.697  1.00  0.00    -0.014 A 
BRANCH  37  38
ATOM     38  C   UNL A   1      42.343  24.160  28.353  1.00  0.00     0.031 A 
ATOM     39  C   UNL A   1      41.344  25.228  28.126  1.00  0.00     0.074 A 
ATOM     40  C   UNL A   1      43.348  24.239  29.248  1.00  0.00     0.049 A 
ATOM     41  N   UNL A   1      41.541  26.449  27.753  1.00  0.00    -0.248 NA
ATOM     42  C   UNL A   1      39.926  24.861  28.276  1.00  0.00     0.031 C 
ATOM     43  C   UNL A   1      44.182  23.142  29.756  1.00  0.00     0.029 A 
ATOM     44  N   UNL A   1      43.738  25.296  30.008  1.00  0.00    -0.354 N 
ATOM     45  C   UNL A   1      40.288  27.052  27.780  1.00  0.00     0.074 A 
ATOM     46  C   UNL A   1      39.318  26.006  27.975  1.00  0.00     0.031 C 
ATOM     47  C   UNL A   1      44.793  23.542  30.892  1.00  0.00     0.029 A 
ATOM     48  C   UNL A   1      44.480  24.940  31.123  1.00  0.00     0.049 A 
ATOM     49  H   UNL A   1      43.515  26.229  29.786  1.00  0.00     0.167 HD
ATOM     50  C   UNL A   1      40.141  28.398  27.881  1.00  0.00     0.037 A 
ATOM     51  C   UNL A   1      44.713  25.715  32.210  1.00  0.00     0.037 A 
ATOM     52  C   UNL A   1      41.314  29.110  27.459  1.00  0.00     0.049 A 
ATOM     53  C   UNL A   1      44.420  27.122  31.835  1.00  0.00     0.074 A 
ATOM     54  C   UNL A   1      42.028  29.176  26.278  1.00  0.00     0.029 A 
ATOM     55  N   UNL A   1      42.134  29.656  28.414  1.00  0.00    -0.354 N 
ATOM     56  N   UNL A   1      45.132  27.825  30.999  1.00  0.00    -0.248 NA
ATOM     57  C   UNL A   1      43.071  27.618  32.073  1.00  0.00     0.031 C 
ATOM     58  C   UNL A   1      43.392  29.301  26.672  1.00  0.00     0.029 A 
ATOM     59  C   UNL A   1      43.421  29.331  28.066  1.00  0.00     0.049 A 
ATOM     60  H   UNL A   1      41.853  30.180  29.198  1.00  0.00     0.167 HD
ATOM     61  C   UNL A   1      44.208  28.591  30.302  1.00  0.00     0.074 A 
ATOM     62  C   UNL A   1      42.974  28.499  31.074  1.00  0.00     0.031 C 
ATOM     63  C   UNL A   1      44.449  28.994  29.020  1.00  0.00     0.037 A 
BRANCH  50  64
ATOM     64  C   UNL A   1      39.047  29.029  28.693  1.00  0.00     0.064 A 
ATOM     65  C   UNL A   1      38.911  28.707  30.054  1.00  0.00     0.173 A 
ATOM     66  C   UNL A   1      37.959  29.718  28.110  1.00  0.00     0.173 A 
ATOM     67  F   UNL A   1      39.869  28.014  30.688  1.00  0.00    -0.203 F 
ATOM     68  C   UNL A   1      37.751  29.019  30.767  1.00  0.00     0.198 A 
ATOM     69  C   UNL A   1      36.831  30.079  28.838  1.00  0.00     0.198 A 
ATOM     70  F   UNL A   1      37.902  29.966  26.794  1.00  0.00    -0.203 F 
ATOM     71  F   UNL A   1      37.614  28.595  32.031  1.00  0.00    -0.200 F 
ATOM     72  C   UNL A   1      36.713  29.705  30.159  1.00  0.00     0.200 A 
ATOM     73  F   UNL A   1      35.827  30.722  28.224  1.00  0.00    -0.200 F 
ATOM     74  F   UNL A   1      35.581  29.958  30.828  1.00  0.00    -0.200 F 
ENDBRANCH  50  64
BRANCH  51  75
ATOM     75  C   UNL A   1      44.835  25.271  33.620  1.00  0.00     0.064 A 
ATOM     76  C   UNL A   1      43.700  25.078  34.420  1.00  0.00     0.173 A 
ATOM     77  C   UNL A   1      46.054  24.789  34.138  1.00  0.00     0.173 A 
ATOM     78  F   UNL A   1      42.492  25.459  33.978  1.00  0.00    -0.203 F 
ATOM     79  C   UNL A   1      43.777  24.435  35.660  1.00  0.00     0.198 A 
ATOM     80  C   UNL A   1      46.134  24.162  35.381  1.00  0.00     0.198 A 
ATOM     81  F   UNL A   1      47.181  24.831  33.411  1.00  0.00    -0.203 F 
ATOM     82  F   UNL A   1      42.663  24.217  36.371  1.00  0.00    -0.200 F 
ATOM     83  C   UNL A   1      44.994  23.974  36.137  1.00  0.00     0.200 A 
ATOM     84  F   UNL A   1      47.313  23.690  35.812  1.00  0.00    -0.200 F 
ATOM     85  F   UNL A   1      45.062  23.314  37.301  1.00  0.00    -0.200 F 
ENDBRANCH  51  75
BRANCH  63  86
ATOM     86  C   UNL A   1      45.839  28.805  28.483  1.00  0.00     0.064 A 
ATOM     87  C   UNL A   1      46.873  29.739  28.663  1.00  0.00     0.173 A 
ATOM     88  C   UNL A   1      46.172  27.580  27.892  1.00  0.00     0.173 A 
ATOM     89  F   UNL A   1      46.658  30.885  29.319  1.00  0.00    -0.203 F 
ATOM     90  C   UNL A   1      48.168  29.481  28.221  1.00  0.00     0.198 A 
ATOM     91  C   UNL A   1      47.476  27.307  27.485  1.00  0.00     0.198 A 
ATOM     92  F   UNL A   1      45.241  26.623  27.753  1.00  0.00    -0.203 F 
ATOM     93  F   UNL A   1      49.133  30.397  28.390  1.00  0.00    -0.200 F 
ATOM     94  C   UNL A   1      48.471  28.262  27.637  1.00  0.00     0.200 A 
ATOM     95  F   UNL A   1      47.776  26.108  26.968  1.00  0.00    -0.200 F 
ATOM     96  F   UNL A   1      49.724  27.995  27.248  1.00  0.00    -0.200 F 
ENDBRANCH  63  86
ENDBRANCH  37  38
ENDBRANCH  30  32
ENDBRANCH  29  30
ENDBRANCH  28  29
ENDBRANCH   1  28
TORSDOF 15
ENDMDL
