MODEL 1
REMARK VINA RESULT:     -11.7      0.000      0.000
REMARK SMILES Cc1oc2cc3c(cc2c1C)[C@H](C)[C@@H](CC(=O)N[C@H](CC1=c2ccccc2=NC1)C(=O)OCCOC(=O)c1ccc(-c2c4nc(c(-c5c(F)c(F)c(F)c(F)c5F)c5ccc([nH]5)c(-c5c(F)c(F)c(F)c(F)c5F)c5nc(c(-c6c(F)c(F)c(F)c(F)c6F)c6ccc2[nH]6)C=C5)C=C4)cc1)C(=O)O3
REMARK SMILES IDX 33 1 32 2 30 3 31 4 19 5 18 6 16 7 17 8 15 10 14 11 1 12
REMARK SMILES IDX 2 13 3 14 10 15 4 16 9 17 11 18 5 19 8 20 6 21 7 22 103 23
REMARK SMILES IDX 12 24 101 25 13 26 102 27 20 28 21 29 22 30 29 31 23 32
REMARK SMILES IDX 27 33 28 34 24 35 26 36 25 37 34 38 35 39 36 40 37 41 38 42
REMARK SMILES IDX 39 43 100 44 40 45 99 46 41 47 42 48 43 49 93 50 44 51 98 52
REMARK SMILES IDX 92 53 94 54 45 55 97 56 91 57 90 58 46 60 78 61 58 62 77 63
REMARK SMILES IDX 59 64 62 65 76 66 95 67 60 68 61 69 75 71 96 72 63 73 47 74
REMARK SMILES IDX 48 75 56 76 49 77 50 78 54 79 57 80 51 81 52 82 55 83 53 84
REMARK SMILES IDX 79 85 80 86 88 87 81 88 82 89 86 90 89 91 83 92 84 93 87 94
REMARK SMILES IDX 85 95 64 96 65 97 73 98 66 99 67 100 71 101 74 102 68 103
REMARK SMILES IDX 69 104 72 105 70 106
REMARK H PARENT 18 9 94 59 62 70
REMARK Flexibility Score: inf
ROOT
ATOM      1  C   UNL A   1      48.600  32.251  28.213  1.00  0.00     0.274 C 
ENDROOT
BRANCH   1   2
ATOM      2  O   UNL A   1      48.068  31.322  29.173  1.00  0.00    -0.461 OA
BRANCH   2   3
ATOM      3  C   UNL A   1      46.792  30.907  29.154  1.00  0.00     0.329 C 
ATOM      4  O   UNL A   1      45.843  31.667  29.337  1.00  0.00    -0.250 OA
BRANCH   3   5
ATOM      5  C   UNL A   1      46.655  29.394  28.685  1.00  0.00     0.196 C 
BRANCH   5   6
ATOM      6  N   UNL A   1      46.039  29.539  27.335  1.00  0.00    -0.342 N 
ATOM      7  C   UNL A   1      46.600  29.129  26.151  1.00  0.00     0.221 C 
ATOM      8  O   UNL A   1      46.372  29.763  25.120  1.00  0.00    -0.275 OA
ATOM      9  H   UNL A   1      45.153  29.965  27.290  1.00  0.00     0.164 HD
BRANCH   7  10
ATOM     10  C   UNL A   1      47.398  27.842  26.106  1.00  0.00     0.116 C 
BRANCH  10  11
ATOM     11  C   UNL A   1      46.882  26.762  25.153  1.00  0.00     0.116 C 
ATOM     12  C   UNL A   1      42.617  18.416  25.795  1.00  0.00     0.088 C 
ATOM     13  C   UNL A   1      43.161  19.791  25.799  1.00  0.00     0.105 A 
ATOM     14  O   UNL A   1      44.733  20.172  24.796  1.00  0.00    -0.461 OA
ATOM     15  C   UNL A   1      42.676  21.353  26.538  1.00  0.00    -0.002 A 
ATOM     16  C   UNL A   1      45.216  21.997  24.926  1.00  0.00     0.138 A 
ATOM     17  C   UNL A   1      43.937  22.776  25.934  1.00  0.00     0.024 A 
ATOM     18  C   UNL A   1      41.472  21.305  27.436  1.00  0.00     0.049 C 
ATOM     19  C   UNL A   1      46.287  22.676  24.416  1.00  0.00     0.095 A 
ATOM     20  C   UNL A   1      44.106  24.183  26.062  1.00  0.00     0.020 A 
ATOM     21  C   UNL A   1      46.214  24.050  24.635  1.00  0.00     0.138 A 
ATOM     22  C   UNL A   1      45.207  24.790  25.383  1.00  0.00    -0.001 A 
ATOM     23  O   UNL A   1      47.307  24.740  24.099  1.00  0.00    -0.426 OA
ATOM     24  C   UNL A   1      45.448  26.307  25.559  1.00  0.00     0.035 C 
ATOM     25  C   UNL A   1      47.653  25.481  25.189  1.00  0.00     0.315 C 
ATOM     26  C   UNL A   1      44.418  27.133  24.805  1.00  0.00     0.014 C 
ATOM     27  O   UNL A   1      48.200  25.012  26.171  1.00  0.00    -0.251 OA
ENDBRANCH  10  11
ENDBRANCH   7  10
ENDBRANCH   5   6
BRANCH   5  28
ATOM     28  C   UNL A   1      45.910  28.316  29.564  1.00  0.00     0.070 C 
BRANCH  28  29
ATOM     29  C   UNL A   1      45.497  26.920  28.976  1.00  0.00    -0.037 C 
ATOM     30  C   UNL A   1      45.680  25.725  29.594  1.00  0.00     0.001 A 
ATOM     31  C   UNL A   1      44.079  26.877  28.524  1.00  0.00     0.174 C 
ATOM     32  C   UNL A   1      45.558  24.399  28.911  1.00  0.00     0.010 A 
ATOM     33  C   UNL A   1      44.389  25.825  30.358  1.00  0.00     0.065 A 
ATOM     34  N   UNL A   1      43.424  26.501  29.800  1.00  0.00    -0.280 NA
ATOM     35  C   UNL A   1      44.831  23.416  29.497  1.00  0.00     0.001 A 
ATOM     36  C   UNL A   1      44.242  24.806  31.406  1.00  0.00     0.028 A 
ATOM     37  C   UNL A   1      44.348  23.578  30.869  1.00  0.00     0.002 A 
ENDBRANCH  28  29
ENDBRANCH   5  28
ENDBRANCH   3   5
ENDBRANCH   2   3
ENDBRANCH   1   2
BRANCH   1  38
ATOM     38  C   UNL A   1      48.454  33.669  28.807  1.00  0.00     0.275 C 
BRANCH  38  39
ATOM     39  O   UNL A   1      48.378  34.685  27.781  1.00  0.00    -0.458 OA
BRANCH  39  40
ATOM     40  C   UNL A   1      47.503  34.444  26.760  1.00  0.00     0.338 C 
ATOM     41  O   UNL A   1      47.760  34.152  25.605  1.00  0.00    -0.246 OA
BRANCH  40  42
ATOM     42  C   UNL A   1      46.145  34.805  27.218  1.00  0.00     0.060 A 
ATOM     43  C   UNL A   1      45.970  35.511  28.384  1.00  0.00     0.016 A 
ATOM     44  C   UNL A   1      45.015  34.484  26.504  1.00  0.00     0.016 A 
ATOM     45  C   UNL A   1      44.712  35.450  29.019  1.00  0.00     0.010 A 
ATOM     46  C   UNL A   1      43.730  34.639  27.065  1.00  0.00     0.010 A 
ATOM     47  C   UNL A   1      43.508  34.595  28.558  1.00  0.00    -0.014 A 
BRANCH  47  48
ATOM     48  C   UNL A   1      42.134  33.399  29.809  1.00  0.00     0.031 A 
ATOM     49  C   UNL A   1      40.365  33.610  30.147  1.00  0.00     0.074 A 
ATOM     50  C   UNL A   1      42.171  32.084  30.409  1.00  0.00     0.049 A 
ATOM     51  N   UNL A   1      39.393  32.747  29.881  1.00  0.00    -0.248 NA
ATOM     52  C   UNL A   1      39.747  34.878  30.651  1.00  0.00     0.031 C 
ATOM     53  C   UNL A   1      41.865  30.934  29.480  1.00  0.00     0.029 A 
ATOM     54  N   UNL A   1      43.187  31.478  31.224  1.00  0.00    -0.354 N 
ATOM     55  C   UNL A   1      38.159  33.384  30.112  1.00  0.00     0.074 A 
ATOM     56  C   UNL A   1      38.437  34.678  30.629  1.00  0.00     0.031 C 
ATOM     57  C   UNL A   1      42.644  29.876  29.747  1.00  0.00     0.029 A 
ATOM     58  C   UNL A   1      43.227  30.075  31.057  1.00  0.00     0.049 A 
ATOM     59  H   UNL A   1      43.784  31.979  31.825  1.00  0.00     0.167 HD
ATOM     60  C   UNL A   1      36.902  32.945  29.827  1.00  0.00     0.037 A 
ATOM     61  C   UNL A   1      42.924  29.233  32.099  1.00  0.00     0.037 A 
ATOM     62  C   UNL A   1      36.803  31.657  29.244  1.00  0.00     0.049 A 
ATOM     63  C   UNL A   1      41.423  28.993  31.941  1.00  0.00     0.074 A 
ATOM     64  C   UNL A   1      36.382  31.091  28.067  1.00  0.00     0.029 A 
ATOM     65  N   UNL A   1      37.239  30.609  30.005  1.00  0.00    -0.354 N 
ATOM     66  N   UNL A   1      40.815  28.273  31.022  1.00  0.00    -0.248 NA
ATOM     67  C   UNL A   1      40.558  29.979  32.586  1.00  0.00     0.031 C 
ATOM     68  C   UNL A   1      37.071  29.840  27.999  1.00  0.00     0.029 A 
ATOM     69  C   UNL A   1      37.797  29.676  29.182  1.00  0.00     0.049 A 
ATOM     70  H   UNL A   1      37.162  30.540  30.983  1.00  0.00     0.167 HD
ATOM     71  C   UNL A   1      39.606  28.942  30.760  1.00  0.00     0.074 A 
ATOM     72  C   UNL A   1      39.485  29.934  31.809  1.00  0.00     0.031 C 
ATOM     73  C   UNL A   1      38.884  28.813  29.602  1.00  0.00     0.037 A 
BRANCH  60  74
ATOM     74  C   UNL A   1      35.696  33.711  30.249  1.00  0.00     0.064 A 
ATOM     75  C   UNL A   1      34.937  34.352  29.261  1.00  0.00     0.173 A 
ATOM     76  C   UNL A   1      35.242  33.796  31.573  1.00  0.00     0.173 A 
ATOM     77  F   UNL A   1      35.304  34.258  27.973  1.00  0.00    -0.203 F 
ATOM     78  C   UNL A   1      33.780  35.061  29.579  1.00  0.00     0.198 A 
ATOM     79  C   UNL A   1      34.080  34.505  31.890  1.00  0.00     0.198 A 
ATOM     80  F   UNL A   1      35.887  33.160  32.558  1.00  0.00    -0.203 F 
ATOM     81  F   UNL A   1      33.068  35.647  28.607  1.00  0.00    -0.200 F 
ATOM     82  C   UNL A   1      33.353  35.140  30.894  1.00  0.00     0.200 A 
ATOM     83  F   UNL A   1      33.650  34.552  33.160  1.00  0.00    -0.200 F 
ATOM     84  F   UNL A   1      32.231  35.807  31.198  1.00  0.00    -0.200 F 
ENDBRANCH  60  74
BRANCH  61  85
ATOM     85  C   UNL A   1      43.635  29.553  33.382  1.00  0.00     0.064 A 
ATOM     86  C   UNL A   1      44.683  28.701  33.796  1.00  0.00     0.173 A 
ATOM     87  C   UNL A   1      43.418  30.683  34.179  1.00  0.00     0.173 A 
ATOM     88  F   UNL A   1      44.890  27.529  33.172  1.00  0.00    -0.203 F 
ATOM     89  C   UNL A   1      45.559  29.049  34.825  1.00  0.00     0.198 A 
ATOM     90  C   UNL A   1      44.317  31.053  35.184  1.00  0.00     0.198 A 
ATOM     91  F   UNL A   1      42.347  31.466  34.005  1.00  0.00    -0.203 F 
ATOM     92  F   UNL A   1      46.577  28.237  35.142  1.00  0.00    -0.200 F 
ATOM     93  C   UNL A   1      45.402  30.250  35.488  1.00  0.00     0.200 A 
ATOM     94  F   UNL A   1      44.143  32.211  35.836  1.00  0.00    -0.200 F 
ATOM     95  F   UNL A   1      46.288  30.633  36.417  1.00  0.00    -0.200 F 
ENDBRANCH  61  85
BRANCH  73  96
ATOM     96  C   UNL A   1      39.311  27.762  28.632  1.00  0.00     0.064 A 
ATOM     97  C   UNL A   1      40.011  28.153  27.489  1.00  0.00     0.173 A 
ATOM     98  C   UNL A   1      39.231  26.387  28.925  1.00  0.00     0.173 A 
ATOM     99  F   UNL A   1      40.155  29.455  27.201  1.00  0.00    -0.203 F 
ATOM    100  C   UNL A   1      40.641  27.211  26.684  1.00  0.00     0.198 A 
ATOM    101  C   UNL A   1      39.876  25.448  28.123  1.00  0.00     0.198 A 
ATOM    102  F   UNL A   1      38.599  25.954  30.028  1.00  0.00    -0.203 F 
ATOM    103  F   UNL A   1      41.349  27.615  25.620  1.00  0.00    -0.200 F 
ATOM    104  C   UNL A   1      40.587  25.863  27.008  1.00  0.00     0.200 A 
ATOM    105  F   UNL A   1      39.856  24.148  28.455  1.00  0.00    -0.200 F 
ATOM    106  F   UNL A   1      41.251  24.968  26.262  1.00  0.00    -0.200 F 
ENDBRANCH  73  96
ENDBRANCH  47  48
ENDBRANCH  40  42
ENDBRANCH  39  40
ENDBRANCH  38  39
ENDBRANCH   1  38
TORSDOF 16
ENDMDL
MODEL 2
REMARK VINA RESULT:     -11.6      2.982      8.360
REMARK SMILES Cc1oc2cc3c(cc2c1C)[C@H](C)[C@@H](CC(=O)N[C@H](CC1=c2ccccc2=NC1)C(=O)OCCOC(=O)c1ccc(-c2c4nc(c(-c5c(F)c(F)c(F)c(F)c5F)c5ccc([nH]5)c(-c5c(F)c(F)c(F)c(F)c5F)c5nc(c(-c6c(F)c(F)c(F)c(F)c6F)c6ccc2[nH]6)C=C5)C=C4)cc1)C(=O)O3
REMARK SMILES IDX 33 1 32 2 30 3 31 4 19 5 18 6 16 7 17 8 15 10 14 11 1 12
REMARK SMILES IDX 2 13 3 14 10 15 4 16 9 17 11 18 5 19 8 20 6 21 7 22 103 23
REMARK SMILES IDX 12 24 101 25 13 26 102 27 20 28 21 29 22 30 29 31 23 32
REMARK SMILES IDX 27 33 28 34 24 35 26 36 25 37 34 38 35 39 36 40 37 41 38 42
REMARK SMILES IDX 39 43 100 44 40 45 99 46 41 47 42 48 43 49 93 50 44 51 98 52
REMARK SMILES IDX 92 53 94 54 45 55 97 56 91 57 90 58 46 60 78 61 58 62 77 63
REMARK SMILES IDX 59 64 62 65 76 66 95 67 60 68 61 69 75 71 96 72 63 73 47 74
REMARK SMILES IDX 48 75 56 76 49 77 50 78 54 79 57 80 51 81 52 82 55 83 53 84
REMARK SMILES IDX 79 85 80 86 88 87 81 88 82 89 86 90 89 91 83 92 84 93 87 94
REMARK SMILES IDX 85 95 64 96 65 97 73 98 66 99 67 100 71 101 74 102 68 103
REMARK SMILES IDX 69 104 72 105 70 106
REMARK H PARENT 18 9 94 59 62 70
REMARK Flexibility Score: inf
ROOT
ATOM      1  C   UNL A   1      46.740  31.924  27.879  1.00  0.00     0.274 C 
ENDROOT
BRANCH   1   2
ATOM      2  O   UNL A   1      45.404  31.418  28.044  1.00  0.00    -0.461 OA
BRANCH   2   3
ATOM      3  C   UNL A   1      45.144  30.198  28.540  1.00  0.00     0.329 C 
ATOM      4  O   UNL A   1      45.498  29.850  29.665  1.00  0.00    -0.250 OA
BRANCH   3   5
ATOM      5  C   UNL A   1      44.182  29.353  27.598  1.00  0.00     0.196 C 
BRANCH   5   6
ATOM      6  N   UNL A   1      44.791  29.571  26.254  1.00  0.00    -0.342 N 
ATOM      7  C   UNL A   1      45.983  29.047  25.820  1.00  0.00     0.221 C 
ATOM      8  O   UNL A   1      46.676  29.688  25.029  1.00  0.00    -0.275 OA
ATOM      9  H   UNL A   1      44.293  30.140  25.623  1.00  0.00     0.164 HD
BRANCH   7  10
ATOM     10  C   UNL A   1      46.377  27.642  26.231  1.00  0.00     0.116 C 
BRANCH  10  11
ATOM     11  C   UNL A   1      45.942  26.518  25.289  1.00  0.00     0.116 C 
ATOM     12  C   UNL A   1      42.516  17.801  26.024  1.00  0.00     0.088 C 
ATOM     13  C   UNL A   1      42.925  19.222  26.016  1.00  0.00     0.105 A 
ATOM     14  O   UNL A   1      44.426  19.753  24.972  1.00  0.00    -0.461 OA
ATOM     15  C   UNL A   1      42.313  20.731  26.772  1.00  0.00    -0.002 A 
ATOM     16  C   UNL A   1      44.735  21.615  25.094  1.00  0.00     0.138 A 
ATOM     17  C   UNL A   1      43.415  22.268  26.139  1.00  0.00     0.024 A 
ATOM     18  C   UNL A   1      41.144  20.567  27.702  1.00  0.00     0.049 C 
ATOM     19  C   UNL A   1      45.722  22.394  24.558  1.00  0.00     0.095 A 
ATOM     20  C   UNL A   1      43.451  23.684  26.266  1.00  0.00     0.020 A 
ATOM     21  C   UNL A   1      45.523  23.754  24.782  1.00  0.00     0.138 A 
ATOM     22  C   UNL A   1      44.471  24.394  25.558  1.00  0.00    -0.001 A 
ATOM     23  O   UNL A   1      46.530  24.547  24.218  1.00  0.00    -0.426 OA
ATOM     24  C   UNL A   1      44.569  25.928  25.733  1.00  0.00     0.035 C 
ATOM     25  C   UNL A   1      46.832  25.317  25.300  1.00  0.00     0.315 C 
ATOM     26  C   UNL A   1      43.444  26.651  25.008  1.00  0.00     0.014 C 
ATOM     27  O   UNL A   1      47.448  24.903  26.266  1.00  0.00    -0.251 OA
ENDBRANCH  10  11
ENDBRANCH   7  10
ENDBRANCH   5   6
BRANCH   5  28
ATOM     28  C   UNL A   1      42.621  29.580  27.585  1.00  0.00     0.070 C 
BRANCH  28  29
ATOM     29  C   UNL A   1      41.616  28.382  27.721  1.00  0.00    -0.037 C 
ATOM     30  C   UNL A   1      41.028  27.980  28.878  1.00  0.00     0.001 A 
ATOM     31  C   UNL A   1      40.487  28.459  26.753  1.00  0.00     0.174 C 
ATOM     32  C   UNL A   1      40.317  26.675  29.049  1.00  0.00     0.010 A 
ATOM     33  C   UNL A   1      39.897  28.961  28.744  1.00  0.00     0.065 A 
ATOM     34  N   UNL A   1      39.548  29.298  27.534  1.00  0.00    -0.280 NA
ATOM     35  C   UNL A   1      39.094  26.659  29.637  1.00  0.00     0.001 A 
ATOM     36  C   UNL A   1      39.066  29.072  29.950  1.00  0.00     0.028 A 
ATOM     37  C   UNL A   1      38.573  27.865  30.280  1.00  0.00     0.002 A 
ENDBRANCH  28  29
ENDBRANCH   5  28
ENDBRANCH   3   5
ENDBRANCH   2   3
ENDBRANCH   1   2
BRANCH   1  38
ATOM     38  C   UNL A   1      46.722  32.901  26.684  1.00  0.00     0.275 C 
BRANCH  38  39
ATOM     39  O   UNL A   1      45.390  33.387  26.397  1.00  0.00    -0.458 OA
BRANCH  39  40
ATOM     40  C   UNL A   1      45.219  34.741  26.453  1.00  0.00     0.338 C 
ATOM     41  O   UNL A   1      45.818  35.599  25.828  1.00  0.00    -0.246 OA
BRANCH  40  42
ATOM     42  C   UNL A   1      44.311  35.048  27.577  1.00  0.00     0.060 A 
ATOM     43  C   UNL A   1      44.798  35.135  28.859  1.00  0.00     0.016 A 
ATOM     44  C   UNL A   1      42.968  35.281  27.399  1.00  0.00     0.016 A 
ATOM     45  C   UNL A   1      43.892  34.977  29.930  1.00  0.00     0.010 A 
ATOM     46  C   UNL A   1      42.088  35.350  28.500  1.00  0.00     0.010 A 
ATOM     47  C   UNL A   1      42.389  34.639  29.798  1.00  0.00    -0.014 A 
BRANCH  47  48
ATOM     48  C   UNL A   1      41.204  33.224  31.013  1.00  0.00     0.031 A 
ATOM     49  C   UNL A   1      41.686  31.674  31.819  1.00  0.00     0.074 A 
ATOM     50  C   UNL A   1      39.926  33.270  31.690  1.00  0.00     0.049 A 
ATOM     51  N   UNL A   1      41.627  31.396  33.115  1.00  0.00    -0.248 NA
ATOM     52  C   UNL A   1      42.361  30.533  31.121  1.00  0.00     0.031 C 
ATOM     53  C   UNL A   1      39.921  33.972  33.025  1.00  0.00     0.029 A 
ATOM     54  N   UNL A   1      38.641  33.675  31.193  1.00  0.00    -0.354 N 
ATOM     55  C   UNL A   1      42.284  30.170  33.336  1.00  0.00     0.074 A 
ATOM     56  C   UNL A   1      42.676  29.662  32.069  1.00  0.00     0.031 C 
ATOM     57  C   UNL A   1      38.797  34.685  33.193  1.00  0.00     0.029 A 
ATOM     58  C   UNL A   1      37.834  34.228  32.214  1.00  0.00     0.049 A 
ATOM     59  H   UNL A   1      38.357  33.581  30.255  1.00  0.00     0.167 HD
ATOM     60  C   UNL A   1      42.607  29.572  34.516  1.00  0.00     0.037 A 
ATOM     61  C   UNL A   1      36.671  33.612  32.604  1.00  0.00     0.037 A 
ATOM     62  C   UNL A   1      42.206  30.249  35.695  1.00  0.00     0.049 A 
ATOM     63  C   UNL A   1      37.114  32.698  33.746  1.00  0.00     0.074 A 
ATOM     64  C   UNL A   1      42.788  30.850  36.783  1.00  0.00     0.029 A 
ATOM     65  N   UNL A   1      40.861  30.403  35.881  1.00  0.00    -0.354 N 
ATOM     66  N   UNL A   1      37.479  33.048  34.961  1.00  0.00    -0.248 NA
ATOM     67  C   UNL A   1      37.591  31.376  33.344  1.00  0.00     0.031 C 
ATOM     68  C   UNL A   1      41.799  31.764  37.265  1.00  0.00     0.029 A 
ATOM     69  C   UNL A   1      40.641  31.599  36.499  1.00  0.00     0.049 A 
ATOM     70  H   UNL A   1      40.168  29.758  35.616  1.00  0.00     0.167 HD
ATOM     71  C   UNL A   1      38.488  32.139  35.326  1.00  0.00     0.074 A 
ATOM     72  C   UNL A   1      38.448  31.101  34.317  1.00  0.00     0.031 C 
ATOM     73  C   UNL A   1      39.437  32.379  36.286  1.00  0.00     0.037 A 
BRANCH  60  74
ATOM     74  C   UNL A   1      43.206  28.209  34.559  1.00  0.00     0.064 A 
ATOM     75  C   UNL A   1      44.602  28.099  34.622  1.00  0.00     0.173 A 
ATOM     76  C   UNL A   1      42.461  27.022  34.586  1.00  0.00     0.173 A 
ATOM     77  F   UNL A   1      45.357  29.209  34.648  1.00  0.00    -0.203 F 
ATOM     78  C   UNL A   1      45.230  26.858  34.695  1.00  0.00     0.198 A 
ATOM     79  C   UNL A   1      43.092  25.778  34.662  1.00  0.00     0.198 A 
ATOM     80  F   UNL A   1      41.122  27.057  34.587  1.00  0.00    -0.203 F 
ATOM     81  F   UNL A   1      46.566  26.790  34.772  1.00  0.00    -0.200 F 
ATOM     82  C   UNL A   1      44.476  25.697  34.712  1.00  0.00     0.200 A 
ATOM     83  F   UNL A   1      42.358  24.656  34.712  1.00  0.00    -0.200 F 
ATOM     84  F   UNL A   1      45.079  24.503  34.799  1.00  0.00    -0.200 F 
ENDBRANCH  60  74
BRANCH  61  85
ATOM     85  C   UNL A   1      35.762  33.228  31.471  1.00  0.00     0.064 A 
ATOM     86  C   UNL A   1      34.759  34.143  31.079  1.00  0.00     0.173 A 
ATOM     87  C   UNL A   1      35.869  32.070  30.691  1.00  0.00     0.173 A 
ATOM     88  F   UNL A   1      34.496  35.222  31.834  1.00  0.00    -0.203 F 
ATOM     89  C   UNL A   1      34.041  33.991  29.893  1.00  0.00     0.198 A 
ATOM     90  C   UNL A   1      35.178  31.936  29.483  1.00  0.00     0.198 A 
ATOM     91  F   UNL A   1      36.647  31.046  31.063  1.00  0.00    -0.203 F 
ATOM     92  F   UNL A   1      33.143  34.918  29.530  1.00  0.00    -0.200 F 
ATOM     93  C   UNL A   1      34.286  32.909  29.071  1.00  0.00     0.200 A 
ATOM     94  F   UNL A   1      35.407  30.870  28.703  1.00  0.00    -0.200 F 
ATOM     95  F   UNL A   1      33.664  32.800  27.889  1.00  0.00    -0.200 F 
ENDBRANCH  61  85
BRANCH  73  96
ATOM     96  C   UNL A   1      39.285  33.607  37.120  1.00  0.00     0.064 A 
ATOM     97  C   UNL A   1      38.565  33.517  38.314  1.00  0.00     0.173 A 
ATOM     98  C   UNL A   1      40.012  34.786  36.870  1.00  0.00     0.173 A 
ATOM     99  F   UNL A   1      37.900  32.392  38.616  1.00  0.00    -0.203 F 
ATOM    100  C   UNL A   1      38.596  34.551  39.243  1.00  0.00     0.198 A 
ATOM    101  C   UNL A   1      40.052  35.813  37.811  1.00  0.00     0.198 A 
ATOM    102  F   UNL A   1      40.748  34.916  35.755  1.00  0.00    -0.203 F 
ATOM    103  F   UNL A   1      37.938  34.419  40.403  1.00  0.00    -0.200 F 
ATOM    104  C   UNL A   1      39.350  35.689  39.000  1.00  0.00     0.200 A 
ATOM    105  F   UNL A   1      40.810  36.898  37.594  1.00  0.00    -0.200 F 
ATOM    106  F   UNL A   1      39.427  36.653  39.929  1.00  0.00    -0.200 F 
ENDBRANCH  73  96
ENDBRANCH  47  48
ENDBRANCH  40  42
ENDBRANCH  39  40
ENDBRANCH  38  39
ENDBRANCH   1  38
TORSDOF 16
ENDMDL
MODEL 3
REMARK VINA RESULT:     -11.5      0.843      1.780
REMARK SMILES Cc1oc2cc3c(cc2c1C)[C@H](C)[C@@H](CC(=O)N[C@H](CC1=c2ccccc2=NC1)C(=O)OCCOC(=O)c1ccc(-c2c4nc(c(-c5c(F)c(F)c(F)c(F)c5F)c5ccc([nH]5)c(-c5c(F)c(F)c(F)c(F)c5F)c5nc(c(-c6c(F)c(F)c(F)c(F)c6F)c6ccc2[nH]6)C=C5)C=C4)cc1)C(=O)O3
REMARK SMILES IDX 33 1 32 2 30 3 31 4 19 5 18 6 16 7 17 8 15 10 14 11 1 12
REMARK SMILES IDX 2 13 3 14 10 15 4 16 9 17 11 18 5 19 8 20 6 21 7 22 103 23
REMARK SMILES IDX 12 24 101 25 13 26 102 27 20 28 21 29 22 30 29 31 23 32
REMARK SMILES IDX 27 33 28 34 24 35 26 36 25 37 34 38 35 39 36 40 37 41 38 42
REMARK SMILES IDX 39 43 100 44 40 45 99 46 41 47 42 48 43 49 93 50 44 51 98 52
REMARK SMILES IDX 92 53 94 54 45 55 97 56 91 57 90 58 46 60 78 61 58 62 77 63
REMARK SMILES IDX 59 64 62 65 76 66 95 67 60 68 61 69 75 71 96 72 63 73 47 74
REMARK SMILES IDX 48 75 56 76 49 77 50 78 54 79 57 80 51 81 52 82 55 83 53 84
REMARK SMILES IDX 79 85 80 86 88 87 81 88 82 89 86 90 89 91 83 92 84 93 87 94
REMARK SMILES IDX 85 95 64 96 65 97 73 98 66 99 67 100 71 101 74 102 68 103
REMARK SMILES IDX 69 104 72 105 70 106
REMARK H PARENT 18 9 94 59 62 70
REMARK Flexibility Score: inf
ROOT
ATOM      1  C   UNL A   1      49.171  31.771  28.837  1.00  0.00     0.274 C 
ENDROOT
BRANCH   1   2
ATOM      2  O   UNL A   1      48.394  31.098  29.843  1.00  0.00    -0.461 OA
BRANCH   2   3
ATOM      3  C   UNL A   1      47.194  30.553  29.591  1.00  0.00     0.329 C 
ATOM      4  O   UNL A   1      46.138  31.143  29.809  1.00  0.00    -0.250 OA
BRANCH   3   5
ATOM      5  C   UNL A   1      47.309  29.168  28.819  1.00  0.00     0.196 C 
BRANCH   5   6
ATOM      6  N   UNL A   1      46.476  29.415  27.607  1.00  0.00    -0.342 N 
ATOM      7  C   UNL A   1      46.826  29.103  26.317  1.00  0.00     0.221 C 
ATOM      8  O   UNL A   1      46.434  29.814  25.392  1.00  0.00    -0.275 OA
ATOM      9  H   UNL A   1      45.599  29.840  27.745  1.00  0.00     0.164 HD
BRANCH   7  10
ATOM     10  C   UNL A   1      47.593  27.826  26.039  1.00  0.00     0.116 C 
BRANCH  10  11
ATOM     11  C   UNL A   1      46.914  26.821  25.105  1.00  0.00     0.116 C 
ATOM     12  C   UNL A   1      42.160  18.757  25.888  1.00  0.00     0.088 C 
ATOM     13  C   UNL A   1      42.796  20.091  25.883  1.00  0.00     0.105 A 
ATOM     14  O   UNL A   1      44.287  20.408  24.743  1.00  0.00    -0.461 OA
ATOM     15  C   UNL A   1      42.494  21.652  26.718  1.00  0.00    -0.002 A 
ATOM     16  C   UNL A   1      44.906  22.190  24.886  1.00  0.00     0.138 A 
ATOM     17  C   UNL A   1      43.787  23.011  26.041  1.00  0.00     0.024 A 
ATOM     18  C   UNL A   1      41.382  21.647  27.728  1.00  0.00     0.049 C 
ATOM     19  C   UNL A   1      45.968  22.816  24.296  1.00  0.00     0.095 A 
ATOM     20  C   UNL A   1      44.065  24.397  26.198  1.00  0.00     0.020 A 
ATOM     21  C   UNL A   1      46.012  24.182  24.566  1.00  0.00     0.138 A 
ATOM     22  C   UNL A   1      45.136  24.957  25.434  1.00  0.00    -0.001 A 
ATOM     23  O   UNL A   1      47.094  24.819  23.948  1.00  0.00    -0.426 OA
ATOM     24  C   UNL A   1      45.497  26.447  25.636  1.00  0.00     0.035 C 
ATOM     25  C   UNL A   1      47.593  25.492  25.022  1.00  0.00     0.315 C 
ATOM     26  C   UNL A   1      44.459  27.368  25.015  1.00  0.00     0.014 C 
ATOM     27  O   UNL A   1      48.199  24.949  25.930  1.00  0.00    -0.251 OA
ENDBRANCH  10  11
ENDBRANCH   7  10
ENDBRANCH   5   6
BRANCH   5  28
ATOM     28  C   UNL A   1      46.951  27.797  29.514  1.00  0.00     0.070 C 
BRANCH  28  29
ATOM     29  C   UNL A   1      45.466  27.403  29.837  1.00  0.00    -0.037 C 
ATOM     30  C   UNL A   1      44.761  26.425  29.211  1.00  0.00     0.001 A 
ATOM     31  C   UNL A   1      45.237  27.140  31.284  1.00  0.00     0.174 C 
ATOM     32  C   UNL A   1      43.279  26.258  29.318  1.00  0.00     0.010 A 
ATOM     33  C   UNL A   1      45.283  25.348  30.122  1.00  0.00     0.065 A 
ATOM     34  N   UNL A   1      45.599  25.704  31.336  1.00  0.00    -0.280 NA
ATOM     35  C   UNL A   1      42.766  25.029  29.573  1.00  0.00     0.001 A 
ATOM     36  C   UNL A   1      44.963  23.987  29.672  1.00  0.00     0.028 A 
ATOM     37  C   UNL A   1      43.632  23.850  29.536  1.00  0.00     0.002 A 
ENDBRANCH  28  29
ENDBRANCH   5  28
ENDBRANCH   3   5
ENDBRANCH   2   3
ENDBRANCH   1   2
BRANCH   1  38
ATOM     38  C   UNL A   1      48.664  33.228  28.756  1.00  0.00     0.275 C 
BRANCH  38  39
ATOM     39  O   UNL A   1      47.961  33.493  27.520  1.00  0.00    -0.458 OA
BRANCH  39  40
ATOM     40  C   UNL A   1      47.716  34.806  27.237  1.00  0.00     0.338 C 
ATOM     41  O   UNL A   1      48.517  35.669  26.922  1.00  0.00    -0.246 OA
BRANCH  40  42
ATOM     42  C   UNL A   1      46.310  35.100  27.583  1.00  0.00     0.060 A 
ATOM     43  C   UNL A   1      46.010  35.840  28.702  1.00  0.00     0.016 A 
ATOM     44  C   UNL A   1      45.255  34.680  26.809  1.00  0.00     0.016 A 
ATOM     45  C   UNL A   1      44.715  35.726  29.250  1.00  0.00     0.010 A 
ATOM     46  C   UNL A   1      43.926  34.777  27.271  1.00  0.00     0.010 A 
ATOM     47  C   UNL A   1      43.601  34.780  28.747  1.00  0.00    -0.014 A 
BRANCH  47  48
ATOM     48  C   UNL A   1      42.213  33.552  29.952  1.00  0.00     0.031 A 
ATOM     49  C   UNL A   1      40.419  33.683  30.178  1.00  0.00     0.074 A 
ATOM     50  C   UNL A   1      42.279  32.258  30.595  1.00  0.00     0.049 A 
ATOM     51  N   UNL A   1      39.508  32.764  29.883  1.00  0.00    -0.248 NA
ATOM     52  C   UNL A   1      39.710  34.931  30.605  1.00  0.00     0.031 C 
ATOM     53  C   UNL A   1      42.086  31.068  29.686  1.00  0.00     0.029 A 
ATOM     54  N   UNL A   1      43.272  31.729  31.487  1.00  0.00    -0.354 N 
ATOM     55  C   UNL A   1      38.233  33.344  30.021  1.00  0.00     0.074 A 
ATOM     56  C   UNL A   1      38.416  34.665  30.512  1.00  0.00     0.031 C 
ATOM     57  C   UNL A   1      42.898  30.059  30.032  1.00  0.00     0.029 A 
ATOM     58  C   UNL A   1      43.391  30.325  31.367  1.00  0.00     0.049 A 
ATOM     59  H   UNL A   1      43.806  32.276  32.105  1.00  0.00     0.167 HD
ATOM     60  C   UNL A   1      37.018  32.833  29.676  1.00  0.00     0.037 A 
ATOM     61  C   UNL A   1      43.067  29.499  32.415  1.00  0.00     0.037 A 
ATOM     62  C   UNL A   1      37.018  31.526  29.130  1.00  0.00     0.049 A 
ATOM     63  C   UNL A   1      41.592  29.178  32.177  1.00  0.00     0.074 A 
ATOM     64  C   UNL A   1      36.697  30.906  27.948  1.00  0.00     0.029 A 
ATOM     65  N   UNL A   1      37.458  30.524  29.948  1.00  0.00    -0.354 N 
ATOM     66  N   UNL A   1      41.076  28.402  31.247  1.00  0.00    -0.248 NA
ATOM     67  C   UNL A   1      40.642  30.137  32.739  1.00  0.00     0.031 C 
ATOM     68  C   UNL A   1      37.449  29.690  27.961  1.00  0.00     0.029 A 
ATOM     69  C   UNL A   1      38.110  29.597  29.189  1.00  0.00     0.049 A 
ATOM     70  H   UNL A   1      37.326  30.479  30.922  1.00  0.00     0.167 HD
ATOM     71  C   UNL A   1      39.854  29.002  30.894  1.00  0.00     0.074 A 
ATOM     72  C   UNL A   1      39.622  30.016  31.901  1.00  0.00     0.031 C 
ATOM     73  C   UNL A   1      39.211  28.803  29.700  1.00  0.00     0.037 A 
BRANCH  60  74
ATOM     74  C   UNL A   1      35.754  33.549  30.003  1.00  0.00     0.064 A 
ATOM     75  C   UNL A   1      35.350  33.605  31.344  1.00  0.00     0.173 A 
ATOM     76  C   UNL A   1      34.958  34.214  29.059  1.00  0.00     0.173 A 
ATOM     77  F   UNL A   1      36.105  33.025  32.292  1.00  0.00    -0.203 F 
ATOM     78  C   UNL A   1      34.195  34.282  31.728  1.00  0.00     0.198 A 
ATOM     79  C   UNL A   1      33.801  34.895  29.445  1.00  0.00     0.198 A 
ATOM     80  F   UNL A   1      35.316  34.249  27.769  1.00  0.00    -0.203 F 
ATOM     81  F   UNL A   1      33.848  34.331  33.021  1.00  0.00    -0.200 F 
ATOM     82  C   UNL A   1      33.418  34.925  30.778  1.00  0.00     0.200 A 
ATOM     83  F   UNL A   1      33.070  35.546  28.528  1.00  0.00    -0.200 F 
ATOM     84  F   UNL A   1      32.317  35.592  31.148  1.00  0.00    -0.200 F 
ENDBRANCH  60  74
BRANCH  61  85
ATOM     85  C   UNL A   1      43.683  29.891  33.727  1.00  0.00     0.064 A 
ATOM     86  C   UNL A   1      45.050  30.248  33.744  1.00  0.00     0.173 A 
ATOM     87  C   UNL A   1      43.003  30.027  34.943  1.00  0.00     0.173 A 
ATOM     88  F   UNL A   1      45.818  30.037  32.662  1.00  0.00    -0.203 F 
ATOM     89  C   UNL A   1      45.642  30.862  34.848  1.00  0.00     0.198 A 
ATOM     90  C   UNL A   1      43.583  30.678  36.037  1.00  0.00     0.198 A 
ATOM     91  F   UNL A   1      41.762  29.552  35.107  1.00  0.00    -0.203 F 
ATOM     92  F   UNL A   1      46.926  31.240  34.796  1.00  0.00    -0.200 F 
ATOM     93  C   UNL A   1      44.892  31.119  35.979  1.00  0.00     0.200 A 
ATOM     94  F   UNL A   1      42.853  30.902  37.138  1.00  0.00    -0.200 F 
ATOM     95  F   UNL A   1      45.428  31.785  37.011  1.00  0.00    -0.200 F 
ENDBRANCH  61  85
BRANCH  73  96
ATOM     96  C   UNL A   1      39.746  27.747  28.791  1.00  0.00     0.064 A 
ATOM     97  C   UNL A   1      39.337  26.426  28.988  1.00  0.00     0.173 A 
ATOM     98  C   UNL A   1      40.464  28.053  27.619  1.00  0.00     0.173 A 
ATOM     99  F   UNL A   1      38.606  26.102  30.064  1.00  0.00    -0.203 F 
ATOM    100  C   UNL A   1      39.603  25.449  28.035  1.00  0.00     0.198 A 
ATOM    101  C   UNL A   1      40.716  27.073  26.661  1.00  0.00     0.198 A 
ATOM    102  F   UNL A   1      40.855  29.310  27.361  1.00  0.00    -0.203 F 
ATOM    103  F   UNL A   1      39.157  24.200  28.224  1.00  0.00    -0.200 F 
ATOM    104  C   UNL A   1      40.277  25.774  26.867  1.00  0.00     0.200 A 
ATOM    105  F   UNL A   1      41.336  27.393  25.515  1.00  0.00    -0.200 F 
ATOM    106  F   UNL A   1      40.473  24.841  25.925  1.00  0.00    -0.200 F 
ENDBRANCH  73  96
ENDBRANCH  47  48
ENDBRANCH  40  42
ENDBRANCH  39  40
ENDBRANCH  38  39
ENDBRANCH   1  38
TORSDOF 16
ENDMDL
