MODEL 1
REMARK VINA RESULT:     -12.3      0.000      0.000
REMARK SMILES COc1ccc(-n2nc(C(=O)OCCOC(=O)c3ccc(-c4c5nc(c(-c6c(F)c(F)c(F)c(F)c6F)c6ccc([nH]6)c(-c6c(F)c(F)c(F)c(F)c6F)c6nc(c(-c7c(F)c(F)c(F)c(F)c7F)c7ccc4[nH]7)C=C6)C=C5)cc3)c(=O)cc2C)cc1
REMARK SMILES IDX 13 1 12 2 10 3 11 4 9 5 7 6 8 7 84 8 83 9 85 10 81 11 82 12
REMARK SMILES IDX 6 13 3 14 4 15 87 16 5 17 86 18 2 19 1 20 14 21 15 22 16 23
REMARK SMILES IDX 17 24 18 25 19 26 80 27 20 28 79 29 21 30 22 31 23 32 73 33
REMARK SMILES IDX 24 34 78 35 72 36 74 37 25 38 77 39 71 40 70 41 26 43 58 44
REMARK SMILES IDX 38 45 57 46 39 47 42 48 56 49 75 50 40 51 41 52 55 54 76 55
REMARK SMILES IDX 43 56 27 57 28 58 36 59 29 60 30 61 34 62 37 63 31 64 32 65
REMARK SMILES IDX 35 66 33 67 59 68 60 69 68 70 61 71 62 72 66 73 69 74 63 75
REMARK SMILES IDX 64 76 67 77 65 78 44 79 45 80 53 81 46 82 47 83 51 84 54 85
REMARK SMILES IDX 48 86 49 87 52 88 50 89
REMARK H PARENT 74 42 42 53
REMARK Flexibility Score: inf
ROOT
ATOM      1  C   UNL A   1      31.411  28.964  24.988  1.00  0.00     0.275 C 
ENDROOT
BRANCH   1   2
ATOM      2  O   UNL A   1      32.267  27.881  25.398  1.00  0.00    -0.457 OA
BRANCH   2   3
ATOM      3  C   UNL A   1      31.673  26.851  26.032  1.00  0.00     0.363 C 
ATOM      4  O   UNL A   1      31.111  26.874  27.109  1.00  0.00    -0.244 OA
BRANCH   3   5
ATOM      5  C   UNL A   1      31.695  25.599  25.171  1.00  0.00     0.216 A 
ATOM      6  N   UNL A   1      32.879  23.777  24.415  1.00  0.00    -0.237 N 
ATOM      7  N   UNL A   1      32.794  24.897  25.194  1.00  0.00    -0.156 NA
ATOM      8  C   UNL A   1      31.853  23.335  23.579  1.00  0.00     0.044 A 
ATOM      9  C   UNL A   1      30.680  23.983  23.503  1.00  0.00     0.078 A 
ATOM     10  C   UNL A   1      32.047  22.094  22.742  1.00  0.00     0.067 C 
ATOM     11  C   UNL A   1      30.536  25.208  24.301  1.00  0.00     0.215 A 
ATOM     12  O   UNL A   1      29.536  25.908  24.228  1.00  0.00    -0.287 OA
BRANCH   6  13
ATOM     13  C   UNL A   1      34.128  23.108  24.540  1.00  0.00     0.065 A 
ATOM     14  C   UNL A   1      36.608  21.786  24.787  1.00  0.00     0.119 A 
ATOM     15  C   UNL A   1      35.535  21.441  25.612  1.00  0.00     0.048 A 
ATOM     16  C   UNL A   1      36.440  22.788  23.832  1.00  0.00     0.048 A 
ATOM     17  C   UNL A   1      34.309  22.103  25.499  1.00  0.00     0.032 A 
ATOM     18  C   UNL A   1      35.207  23.444  23.710  1.00  0.00     0.032 A 
BRANCH  14  19
ATOM     19  O   UNL A   1      37.748  21.057  24.988  1.00  0.00    -0.497 OA
ATOM     20  C   UNL A   1      38.775  21.678  25.752  1.00  0.00     0.278 C 
ENDBRANCH  14  19
ENDBRANCH   6  13
ENDBRANCH   3   5
ENDBRANCH   2   3
ENDBRANCH   1   2
BRANCH   1  21
ATOM     21  C   UNL A   1      31.771  30.244  25.746  1.00  0.00     0.275 C 
BRANCH  21  22
ATOM     22  O   UNL A   1      33.125  30.193  26.235  1.00  0.00    -0.458 OA
BRANCH  22  23
ATOM     23  C   UNL A   1      33.468  31.202  27.063  1.00  0.00     0.338 C 
ATOM     24  O   UNL A   1      32.781  32.152  27.412  1.00  0.00    -0.246 OA
BRANCH  23  25
ATOM     25  C   UNL A   1      34.794  30.942  27.628  1.00  0.00     0.060 A 
ATOM     26  C   UNL A   1      35.109  29.627  27.961  1.00  0.00     0.016 A 
ATOM     27  C   UNL A   1      35.670  31.979  27.938  1.00  0.00     0.016 A 
ATOM     28  C   UNL A   1      36.266  29.341  28.671  1.00  0.00     0.010 A 
ATOM     29  C   UNL A   1      36.863  31.684  28.606  1.00  0.00     0.010 A 
ATOM     30  C   UNL A   1      37.156  30.365  29.002  1.00  0.00    -0.014 A 
BRANCH  30  31
ATOM     31  C   UNL A   1      38.371  30.058  29.797  1.00  0.00     0.031 A 
ATOM     32  C   UNL A   1      39.426  29.152  29.228  1.00  0.00     0.074 A 
ATOM     33  C   UNL A   1      38.535  30.603  31.017  1.00  0.00     0.049 A 
ATOM     34  N   UNL A   1      40.456  28.605  29.819  1.00  0.00    -0.248 NA
ATOM     35  C   UNL A   1      39.296  28.807  27.804  1.00  0.00     0.031 C 
ATOM     36  C   UNL A   1      37.623  31.558  31.646  1.00  0.00     0.029 A 
ATOM     37  N   UNL A   1      39.527  30.425  31.949  1.00  0.00    -0.354 N 
ATOM     38  C   UNL A   1      41.071  27.817  28.854  1.00  0.00     0.074 A 
ATOM     39  C   UNL A   1      40.295  27.951  27.641  1.00  0.00     0.031 C 
ATOM     40  C   UNL A   1      38.099  31.889  32.855  1.00  0.00     0.029 A 
ATOM     41  C   UNL A   1      39.302  31.109  33.119  1.00  0.00     0.049 A 
ATOM     42  H   UNL A   1      40.320  29.864  31.795  1.00  0.00     0.167 HD
ATOM     43  C   UNL A   1      42.181  27.051  28.981  1.00  0.00     0.037 A 
ATOM     44  C   UNL A   1      39.963  31.070  34.292  1.00  0.00     0.037 A 
ATOM     45  C   UNL A   1      42.966  26.960  30.185  1.00  0.00     0.049 A 
ATOM     46  C   UNL A   1      41.152  30.161  34.427  1.00  0.00     0.074 A 
ATOM     47  C   UNL A   1      44.110  26.219  30.417  1.00  0.00     0.029 A 
ATOM     48  N   UNL A   1      42.688  27.646  31.359  1.00  0.00    -0.354 N 
ATOM     49  N   UNL A   1      41.702  29.379  33.530  1.00  0.00    -0.248 NA
ATOM     50  C   UNL A   1      41.806  30.117  35.742  1.00  0.00     0.031 C 
ATOM     51  C   UNL A   1      44.501  26.422  31.745  1.00  0.00     0.029 A 
ATOM     52  C   UNL A   1      43.630  27.331  32.325  1.00  0.00     0.049 A 
ATOM     53  H   UNL A   1      41.934  28.266  31.487  1.00  0.00     0.167 HD
ATOM     54  C   UNL A   1      42.775  28.768  34.160  1.00  0.00     0.074 A 
ATOM     55  C   UNL A   1      42.808  29.278  35.516  1.00  0.00     0.031 C 
ATOM     56  C   UNL A   1      43.654  27.864  33.663  1.00  0.00     0.037 A 
BRANCH  43  57
ATOM     57  C   UNL A   1      42.591  26.216  27.802  1.00  0.00     0.064 A 
ATOM     58  C   UNL A   1      43.583  26.633  26.904  1.00  0.00     0.173 A 
ATOM     59  C   UNL A   1      42.002  24.959  27.592  1.00  0.00     0.173 A 
ATOM     60  F   UNL A   1      44.168  27.830  27.050  1.00  0.00    -0.203 F 
ATOM     61  C   UNL A   1      43.954  25.832  25.825  1.00  0.00     0.198 A 
ATOM     62  C   UNL A   1      42.396  24.150  26.530  1.00  0.00     0.198 A 
ATOM     63  F   UNL A   1      41.052  24.508  28.425  1.00  0.00    -0.203 F 
ATOM     64  F   UNL A   1      44.873  26.270  24.953  1.00  0.00    -0.200 F 
ATOM     65  C   UNL A   1      43.367  24.589  25.643  1.00  0.00     0.200 A 
ATOM     66  F   UNL A   1      41.836  22.943  26.364  1.00  0.00    -0.200 F 
ATOM     67  F   UNL A   1      43.730  23.818  24.609  1.00  0.00    -0.200 F 
ENDBRANCH  43  57
BRANCH  44  68
ATOM     68  C   UNL A   1      39.481  31.883  35.437  1.00  0.00     0.064 A 
ATOM     69  C   UNL A   1      38.591  31.349  36.378  1.00  0.00     0.173 A 
ATOM     70  C   UNL A   1      39.907  33.208  35.620  1.00  0.00     0.173 A 
ATOM     71  F   UNL A   1      38.137  30.096  36.234  1.00  0.00    -0.203 F 
ATOM     72  C   UNL A   1      38.136  32.113  37.451  1.00  0.00     0.198 A 
ATOM     73  C   UNL A   1      39.477  33.960  36.711  1.00  0.00     0.198 A 
ATOM     74  F   UNL A   1      40.758  33.768  34.747  1.00  0.00    -0.203 F 
ATOM     75  F   UNL A   1      37.252  31.592  38.314  1.00  0.00    -0.200 F 
ATOM     76  C   UNL A   1      38.586  33.414  37.621  1.00  0.00     0.200 A 
ATOM     77  F   UNL A   1      39.925  35.211  36.879  1.00  0.00    -0.200 F 
ATOM     78  F   UNL A   1      38.154  34.144  38.659  1.00  0.00    -0.200 F 
ENDBRANCH  44  68
BRANCH  56  79
ATOM     79  C   UNL A   1      44.755  27.405  34.571  1.00  0.00     0.064 A 
ATOM     80  C   UNL A   1      45.962  28.111  34.681  1.00  0.00     0.173 A 
ATOM     81  C   UNL A   1      44.574  26.275  35.383  1.00  0.00     0.173 A 
ATOM     82  F   UNL A   1      46.186  29.187  33.911  1.00  0.00    -0.203 F 
ATOM     83  C   UNL A   1      46.956  27.691  35.560  1.00  0.00     0.198 A 
ATOM     84  C   UNL A   1      45.559  25.875  36.280  1.00  0.00     0.198 A 
ATOM     85  F   UNL A   1      43.436  25.570  35.318  1.00  0.00    -0.203 F 
ATOM     86  F   UNL A   1      48.117  28.357  35.622  1.00  0.00    -0.200 F 
ATOM     87  C   UNL A   1      46.751  26.579  36.365  1.00  0.00     0.200 A 
ATOM     88  F   UNL A   1      45.355  24.809  37.066  1.00  0.00    -0.200 F 
ATOM     89  F   UNL A   1      47.705  26.185  37.219  1.00  0.00    -0.200 F 
ENDBRANCH  56  79
ENDBRANCH  30  31
ENDBRANCH  23  25
ENDBRANCH  22  23
ENDBRANCH  21  22
ENDBRANCH   1  21
TORSDOF 13
ENDMDL
MODEL 2
REMARK VINA RESULT:     -12.2      0.078      1.692
REMARK SMILES COc1ccc(-n2nc(C(=O)OCCOC(=O)c3ccc(-c4c5nc(c(-c6c(F)c(F)c(F)c(F)c6F)c6ccc([nH]6)c(-c6c(F)c(F)c(F)c(F)c6F)c6nc(c(-c7c(F)c(F)c(F)c(F)c7F)c7ccc4[nH]7)C=C6)C=C5)cc3)c(=O)cc2C)cc1
REMARK SMILES IDX 13 1 12 2 10 3 11 4 9 5 7 6 8 7 84 8 83 9 85 10 81 11 82 12
REMARK SMILES IDX 6 13 3 14 4 15 87 16 5 17 86 18 2 19 1 20 14 21 15 22 16 23
REMARK SMILES IDX 17 24 18 25 19 26 80 27 20 28 79 29 21 30 22 31 23 32 73 33
REMARK SMILES IDX 24 34 78 35 72 36 74 37 25 38 77 39 71 40 70 41 26 43 58 44
REMARK SMILES IDX 38 45 57 46 39 47 42 48 56 49 75 50 40 51 41 52 55 54 76 55
REMARK SMILES IDX 43 56 27 57 28 58 36 59 29 60 30 61 34 62 37 63 31 64 32 65
REMARK SMILES IDX 35 66 33 67 59 68 60 69 68 70 61 71 62 72 66 73 69 74 63 75
REMARK SMILES IDX 64 76 67 77 65 78 44 79 45 80 53 81 46 82 47 83 51 84 54 85
REMARK SMILES IDX 48 86 49 87 52 88 50 89
REMARK H PARENT 74 42 42 53
REMARK Flexibility Score: inf
ROOT
ATOM      1  C   UNL A   1      31.459  29.042  24.902  1.00  0.00     0.275 C 
ENDROOT
BRANCH   1   2
ATOM      2  O   UNL A   1      32.291  27.924  25.266  1.00  0.00    -0.457 OA
BRANCH   2   3
ATOM      3  C   UNL A   1      31.689  26.916  25.927  1.00  0.00     0.363 C 
ATOM      4  O   UNL A   1      31.132  26.971  27.006  1.00  0.00    -0.244 OA
BRANCH   3   5
ATOM      5  C   UNL A   1      31.693  25.644  25.096  1.00  0.00     0.216 A 
ATOM      6  N   UNL A   1      32.854  23.793  24.377  1.00  0.00    -0.237 N 
ATOM      7  N   UNL A   1      32.785  24.931  25.130  1.00  0.00    -0.156 NA
ATOM      8  C   UNL A   1      31.819  23.341  23.558  1.00  0.00     0.044 A 
ATOM      9  C   UNL A   1      30.652  23.999  23.472  1.00  0.00     0.078 A 
ATOM     10  C   UNL A   1      31.995  22.078  22.750  1.00  0.00     0.067 C 
ATOM     11  C   UNL A   1      30.525  25.245  24.242  1.00  0.00     0.215 A 
ATOM     12  O   UNL A   1      29.533  25.953  24.158  1.00  0.00    -0.287 OA
BRANCH   6  13
ATOM     13  C   UNL A   1      34.097  23.113  24.511  1.00  0.00     0.065 A 
ATOM     14  C   UNL A   1      36.558  21.760  24.777  1.00  0.00     0.119 A 
ATOM     15  C   UNL A   1      36.357  22.667  23.735  1.00  0.00     0.048 A 
ATOM     16  C   UNL A   1      35.530  21.534  25.693  1.00  0.00     0.048 A 
ATOM     17  C   UNL A   1      35.134  23.330  23.594  1.00  0.00     0.032 A 
ATOM     18  C   UNL A   1      34.308  22.207  25.559  1.00  0.00     0.032 A 
BRANCH  14  19
ATOM     19  O   UNL A   1      37.799  21.188  24.812  1.00  0.00    -0.497 OA
ATOM     20  C   UNL A   1      38.723  21.725  25.751  1.00  0.00     0.278 C 
ENDBRANCH  14  19
ENDBRANCH   6  13
ENDBRANCH   3   5
ENDBRANCH   2   3
ENDBRANCH   1   2
BRANCH   1  21
ATOM     21  C   UNL A   1      31.777  30.253  25.783  1.00  0.00     0.275 C 
BRANCH  21  22
ATOM     22  O   UNL A   1      33.067  30.112  26.410  1.00  0.00    -0.458 OA
BRANCH  22  23
ATOM     23  C   UNL A   1      33.482  31.194  27.103  1.00  0.00     0.338 C 
ATOM     24  O   UNL A   1      32.854  32.214  27.347  1.00  0.00    -0.246 OA
BRANCH  23  25
ATOM     25  C   UNL A   1      34.809  30.933  27.668  1.00  0.00     0.060 A 
ATOM     26  C   UNL A   1      35.123  29.618  28.000  1.00  0.00     0.016 A 
ATOM     27  C   UNL A   1      35.685  31.970  27.978  1.00  0.00     0.016 A 
ATOM     28  C   UNL A   1      36.280  29.330  28.709  1.00  0.00     0.010 A 
ATOM     29  C   UNL A   1      36.878  31.674  28.646  1.00  0.00     0.010 A 
ATOM     30  C   UNL A   1      37.171  30.355  29.041  1.00  0.00    -0.014 A 
BRANCH  30  31
ATOM     31  C   UNL A   1      38.385  30.046  29.836  1.00  0.00     0.031 A 
ATOM     32  C   UNL A   1      39.436  29.135  29.270  1.00  0.00     0.074 A 
ATOM     33  C   UNL A   1      38.552  30.596  31.054  1.00  0.00     0.049 A 
ATOM     34  N   UNL A   1      40.466  28.586  29.863  1.00  0.00    -0.248 NA
ATOM     35  C   UNL A   1      39.304  28.784  27.848  1.00  0.00     0.031 C 
ATOM     36  C   UNL A   1      37.644  31.557  31.680  1.00  0.00     0.029 A 
ATOM     37  N   UNL A   1      39.544  30.418  31.986  1.00  0.00    -0.354 N 
ATOM     38  C   UNL A   1      41.076  27.793  28.900  1.00  0.00     0.074 A 
ATOM     39  C   UNL A   1      40.300  27.924  27.687  1.00  0.00     0.031 C 
ATOM     40  C   UNL A   1      38.123  31.891  32.887  1.00  0.00     0.029 A 
ATOM     41  C   UNL A   1      39.323  31.108  33.153  1.00  0.00     0.049 A 
ATOM     42  H   UNL A   1      40.336  29.854  31.833  1.00  0.00     0.167 HD
ATOM     43  C   UNL A   1      42.184  27.023  29.028  1.00  0.00     0.037 A 
ATOM     44  C   UNL A   1      39.985  31.072  34.325  1.00  0.00     0.037 A 
ATOM     45  C   UNL A   1      42.970  26.935  30.232  1.00  0.00     0.049 A 
ATOM     46  C   UNL A   1      41.171  30.159  34.462  1.00  0.00     0.074 A 
ATOM     47  C   UNL A   1      44.112  26.191  30.466  1.00  0.00     0.029 A 
ATOM     48  N   UNL A   1      42.696  27.627  31.403  1.00  0.00    -0.354 N 
ATOM     49  N   UNL A   1      41.717  29.371  33.568  1.00  0.00    -0.248 NA
ATOM     50  C   UNL A   1      41.826  30.118  35.778  1.00  0.00     0.031 C 
ATOM     51  C   UNL A   1      44.505  26.399  31.792  1.00  0.00     0.029 A 
ATOM     52  C   UNL A   1      43.638  27.312  32.370  1.00  0.00     0.049 A 
ATOM     53  H   UNL A   1      41.944  28.250  31.530  1.00  0.00     0.167 HD
ATOM     54  C   UNL A   1      42.789  28.759  34.200  1.00  0.00     0.074 A 
ATOM     55  C   UNL A   1      42.825  29.275  35.554  1.00  0.00     0.031 C 
ATOM     56  C   UNL A   1      43.665  27.851  33.706  1.00  0.00     0.037 A 
BRANCH  43  57
ATOM     57  C   UNL A   1      42.590  26.183  27.852  1.00  0.00     0.064 A 
ATOM     58  C   UNL A   1      41.996  24.943  27.583  1.00  0.00     0.173 A 
ATOM     59  C   UNL A   1      43.568  26.649  26.959  1.00  0.00     0.173 A 
ATOM     60  F   UNL A   1      41.066  24.444  28.411  1.00  0.00    -0.203 F 
ATOM     61  C   UNL A   1      42.381  24.189  26.476  1.00  0.00     0.198 A 
ATOM     62  C   UNL A   1      43.930  25.907  25.839  1.00  0.00     0.198 A 
ATOM     63  F   UNL A   1      44.165  27.833  27.166  1.00  0.00    -0.203 F 
ATOM     64  F   UNL A   1      41.832  22.985  26.262  1.00  0.00    -0.200 F 
ATOM     65  C   UNL A   1      43.342  24.674  25.601  1.00  0.00     0.200 A 
ATOM     66  F   UNL A   1      44.850  26.385  24.988  1.00  0.00    -0.200 F 
ATOM     67  F   UNL A   1      43.707  23.952  24.533  1.00  0.00    -0.200 F 
ENDBRANCH  43  57
BRANCH  44  68
ATOM     68  C   UNL A   1      39.507  31.891  35.468  1.00  0.00     0.064 A 
ATOM     69  C   UNL A   1      39.948  33.209  35.645  1.00  0.00     0.173 A 
ATOM     70  C   UNL A   1      38.595  31.377  36.402  1.00  0.00     0.173 A 
ATOM     71  F   UNL A   1      40.838  33.738  34.793  1.00  0.00    -0.203 F 
ATOM     72  C   UNL A   1      39.503  33.977  36.719  1.00  0.00     0.198 A 
ATOM     73  C   UNL A   1      38.126  32.156  37.457  1.00  0.00     0.198 A 
ATOM     74  F   UNL A   1      38.143  30.120  36.279  1.00  0.00    -0.203 F 
ATOM     75  F   UNL A   1      39.972  35.222  36.889  1.00  0.00    -0.200 F 
ATOM     76  C   UNL A   1      38.586  33.453  37.619  1.00  0.00     0.200 A 
ATOM     77  F   UNL A   1      37.230  31.651  38.315  1.00  0.00    -0.200 F 
ATOM     78  F   UNL A   1      38.153  34.197  38.646  1.00  0.00    -0.200 F 
ENDBRANCH  44  68
BRANCH  56  79
ATOM     79  C   UNL A   1      44.765  27.392  34.615  1.00  0.00     0.064 A 
ATOM     80  C   UNL A   1      45.974  28.095  34.721  1.00  0.00     0.173 A 
ATOM     81  C   UNL A   1      44.582  26.265  35.431  1.00  0.00     0.173 A 
ATOM     82  F   UNL A   1      46.200  29.168  33.948  1.00  0.00    -0.203 F 
ATOM     83  C   UNL A   1      46.967  27.675  35.601  1.00  0.00     0.198 A 
ATOM     84  C   UNL A   1      45.567  25.865  36.328  1.00  0.00     0.198 A 
ATOM     85  F   UNL A   1      43.442  25.563  35.368  1.00  0.00    -0.203 F 
ATOM     86  F   UNL A   1      48.130  28.338  35.661  1.00  0.00    -0.200 F 
ATOM     87  C   UNL A   1      46.760  26.567  36.409  1.00  0.00     0.200 A 
ATOM     88  F   UNL A   1      45.360  24.802  37.118  1.00  0.00    -0.200 F 
ATOM     89  F   UNL A   1      47.713  26.173  37.264  1.00  0.00    -0.200 F 
ENDBRANCH  56  79
ENDBRANCH  30  31
ENDBRANCH  23  25
ENDBRANCH  22  23
ENDBRANCH  21  22
ENDBRANCH   1  21
TORSDOF 13
ENDMDL
MODEL 3
REMARK VINA RESULT:     -12.2      0.972      2.321
REMARK SMILES COc1ccc(-n2nc(C(=O)OCCOC(=O)c3ccc(-c4c5nc(c(-c6c(F)c(F)c(F)c(F)c6F)c6ccc([nH]6)c(-c6c(F)c(F)c(F)c(F)c6F)c6nc(c(-c7c(F)c(F)c(F)c(F)c7F)c7ccc4[nH]7)C=C6)C=C5)cc3)c(=O)cc2C)cc1
REMARK SMILES IDX 13 1 12 2 10 3 11 4 9 5 7 6 8 7 84 8 83 9 85 10 81 11 82 12
REMARK SMILES IDX 6 13 3 14 4 15 87 16 5 17 86 18 2 19 1 20 14 21 15 22 16 23
REMARK SMILES IDX 17 24 18 25 19 26 80 27 20 28 79 29 21 30 22 31 23 32 73 33
REMARK SMILES IDX 24 34 78 35 72 36 74 37 25 38 77 39 71 40 70 41 26 43 58 44
REMARK SMILES IDX 38 45 57 46 39 47 42 48 56 49 75 50 40 51 41 52 55 54 76 55
REMARK SMILES IDX 43 56 27 57 28 58 36 59 29 60 30 61 34 62 37 63 31 64 32 65
REMARK SMILES IDX 35 66 33 67 59 68 60 69 68 70 61 71 62 72 66 73 69 74 63 75
REMARK SMILES IDX 64 76 67 77 65 78 44 79 45 80 53 81 46 82 47 83 51 84 54 85
REMARK SMILES IDX 48 86 49 87 52 88 50 89
REMARK H PARENT 74 42 42 53
REMARK Flexibility Score: inf
ROOT
ATOM      1  C   UNL A   1      33.223  29.196  24.779  1.00  0.00     0.275 C 
ENDROOT
BRANCH   1   2
ATOM      2  O   UNL A   1      32.830  29.165  23.394  1.00  0.00    -0.457 OA
BRANCH   2   3
ATOM      3  C   UNL A   1      33.422  28.236  22.620  1.00  0.00     0.363 C 
ATOM      4  O   UNL A   1      34.329  28.406  21.828  1.00  0.00    -0.244 OA
BRANCH   3   5
ATOM      5  C   UNL A   1      32.875  26.851  22.919  1.00  0.00     0.216 A 
ATOM      6  N   UNL A   1      33.281  24.723  23.695  1.00  0.00    -0.237 N 
ATOM      7  N   UNL A   1      33.713  25.993  23.435  1.00  0.00    -0.156 NA
ATOM      8  C   UNL A   1      31.985  24.276  23.435  1.00  0.00     0.044 A 
ATOM      9  C   UNL A   1      31.051  25.090  22.920  1.00  0.00     0.078 A 
ATOM     10  C   UNL A   1      31.606  22.847  23.742  1.00  0.00     0.067 C 
ATOM     11  C   UNL A   1      31.461  26.464  22.597  1.00  0.00     0.215 A 
ATOM     12  O   UNL A   1      30.701  27.248  22.048  1.00  0.00    -0.287 OA
BRANCH   6  13
ATOM     13  C   UNL A   1      34.294  23.897  24.259  1.00  0.00     0.065 A 
ATOM     14  C   UNL A   1      36.296  22.257  25.379  1.00  0.00     0.119 A 
ATOM     15  C   UNL A   1      36.206  22.420  23.995  1.00  0.00     0.048 A 
ATOM     16  C   UNL A   1      35.390  22.920  26.205  1.00  0.00     0.048 A 
ATOM     17  C   UNL A   1      35.206  23.223  23.437  1.00  0.00     0.032 A 
ATOM     18  C   UNL A   1      34.395  23.735  25.647  1.00  0.00     0.032 A 
BRANCH  14  19
ATOM     19  O   UNL A   1      37.323  21.457  25.799  1.00  0.00    -0.497 OA
ATOM     20  C   UNL A   1      38.631  22.011  25.730  1.00  0.00     0.278 C 
ENDBRANCH  14  19
ENDBRANCH   6  13
ENDBRANCH   3   5
ENDBRANCH   2   3
ENDBRANCH   1   2
BRANCH   1  21
ATOM     21  C   UNL A   1      32.176  29.936  25.614  1.00  0.00     0.275 C 
BRANCH  21  22
ATOM     22  O   UNL A   1      32.625  30.107  26.973  1.00  0.00    -0.458 OA
BRANCH  22  23
ATOM     23  C   UNL A   1      33.240  31.282  27.223  1.00  0.00     0.338 C 
ATOM     24  O   UNL A   1      32.769  32.408  27.140  1.00  0.00    -0.246 OA
BRANCH  23  25
ATOM     25  C   UNL A   1      34.580  31.029  27.760  1.00  0.00     0.060 A 
ATOM     26  C   UNL A   1      34.869  29.737  28.191  1.00  0.00     0.016 A 
ATOM     27  C   UNL A   1      35.495  32.061  27.951  1.00  0.00     0.016 A 
ATOM     28  C   UNL A   1      36.044  29.475  28.881  1.00  0.00     0.010 A 
ATOM     29  C   UNL A   1      36.704  31.785  28.598  1.00  0.00     0.010 A 
ATOM     30  C   UNL A   1      36.975  30.495  29.093  1.00  0.00    -0.014 A 
BRANCH  30  31
ATOM     31  C   UNL A   1      38.210  30.217  29.866  1.00  0.00     0.031 A 
ATOM     32  C   UNL A   1      39.279  29.342  29.278  1.00  0.00     0.074 A 
ATOM     33  C   UNL A   1      38.379  30.762  31.086  1.00  0.00     0.049 A 
ATOM     34  N   UNL A   1      40.334  28.820  29.850  1.00  0.00    -0.248 NA
ATOM     35  C   UNL A   1      39.136  28.999  27.854  1.00  0.00     0.031 C 
ATOM     36  C   UNL A   1      37.452  31.690  31.734  1.00  0.00     0.029 A 
ATOM     37  N   UNL A   1      39.390  30.607  32.002  1.00  0.00    -0.354 N 
ATOM     38  C   UNL A   1      40.953  28.053  28.872  1.00  0.00     0.074 A 
ATOM     39  C   UNL A   1      40.155  28.171  27.671  1.00  0.00     0.031 C 
ATOM     40  C   UNL A   1      37.939  32.029  32.937  1.00  0.00     0.029 A 
ATOM     41  C   UNL A   1      39.166  31.280  33.178  1.00  0.00     0.049 A 
ATOM     42  H   UNL A   1      40.196  30.067  31.833  1.00  0.00     0.167 HD
ATOM     43  C   UNL A   1      42.085  27.316  28.977  1.00  0.00     0.037 A 
ATOM     44  C   UNL A   1      39.846  31.254  34.340  1.00  0.00     0.037 A 
ATOM     45  C   UNL A   1      42.891  27.241  30.168  1.00  0.00     0.049 A 
ATOM     46  C   UNL A   1      41.062  30.377  34.452  1.00  0.00     0.074 A 
ATOM     47  C   UNL A   1      44.059  26.530  30.379  1.00  0.00     0.029 A 
ATOM     48  N   UNL A   1      42.614  27.915  31.349  1.00  0.00    -0.354 N 
ATOM     49  N   UNL A   1      41.617  29.613  33.543  1.00  0.00    -0.248 NA
ATOM     50  C   UNL A   1      41.737  30.345  35.757  1.00  0.00     0.031 C 
ATOM     51  C   UNL A   1      44.465  26.739  31.701  1.00  0.00     0.029 A 
ATOM     52  C   UNL A   1      43.580  27.622  32.299  1.00  0.00     0.049 A 
ATOM     53  H   UNL A   1      41.846  28.515  31.492  1.00  0.00     0.167 HD
ATOM     54  C   UNL A   1      42.716  29.028  34.154  1.00  0.00     0.074 A 
ATOM     55  C   UNL A   1      42.758  29.534  35.511  1.00  0.00     0.031 C 
ATOM     56  C   UNL A   1      43.611  28.150  33.639  1.00  0.00     0.037 A 
BRANCH  43  57
ATOM     57  C   UNL A   1      42.498  26.497  27.788  1.00  0.00     0.064 A 
ATOM     58  C   UNL A   1      41.955  25.231  27.530  1.00  0.00     0.173 A 
ATOM     59  C   UNL A   1      43.429  27.010  26.871  1.00  0.00     0.173 A 
ATOM     60  F   UNL A   1      41.072  24.688  28.381  1.00  0.00    -0.203 F 
ATOM     61  C   UNL A   1      42.345  24.498  26.411  1.00  0.00     0.198 A 
ATOM     62  C   UNL A   1      43.795  26.288  25.739  1.00  0.00     0.198 A 
ATOM     63  F   UNL A   1      43.976  28.220  27.065  1.00  0.00    -0.203 F 
ATOM     64  F   UNL A   1      41.847  23.270  26.209  1.00  0.00    -0.200 F 
ATOM     65  C   UNL A   1      43.259  25.029  25.513  1.00  0.00     0.200 A 
ATOM     66  F   UNL A   1      44.669  26.809  24.865  1.00  0.00    -0.200 F 
ATOM     67  F   UNL A   1      43.629  24.326  24.434  1.00  0.00    -0.200 F 
ENDBRANCH  43  57
BRANCH  44  68
ATOM     68  C   UNL A   1      39.362  32.050  35.496  1.00  0.00     0.064 A 
ATOM     69  C   UNL A   1      39.772  33.377  35.682  1.00  0.00     0.173 A 
ATOM     70  C   UNL A   1      38.474  31.503  36.436  1.00  0.00     0.173 A 
ATOM     71  F   UNL A   1      40.637  33.937  34.825  1.00  0.00    -0.203 F 
ATOM     72  C   UNL A   1      39.320  34.123  36.769  1.00  0.00     0.198 A 
ATOM     73  C   UNL A   1      37.998  32.260  37.505  1.00  0.00     0.198 A 
ATOM     74  F   UNL A   1      38.053  30.236  36.306  1.00  0.00    -0.203 F 
ATOM     75  F   UNL A   1      39.759  35.377  36.946  1.00  0.00    -0.200 F 
ATOM     76  C   UNL A   1      38.428  33.567  37.674  1.00  0.00     0.200 A 
ATOM     77  F   UNL A   1      37.126  31.723  38.367  1.00  0.00    -0.200 F 
ATOM     78  F   UNL A   1      37.987  34.289  38.714  1.00  0.00    -0.200 F 
ENDBRANCH  44  68
BRANCH  56  79
ATOM     79  C   UNL A   1      44.738  27.717  34.527  1.00  0.00     0.064 A 
ATOM     80  C   UNL A   1      44.653  26.560  35.315  1.00  0.00     0.173 A 
ATOM     81  C   UNL A   1      45.940  28.442  34.546  1.00  0.00     0.173 A 
ATOM     82  F   UNL A   1      43.518  25.846  35.342  1.00  0.00    -0.203 F 
ATOM     83  C   UNL A   1      45.726  26.153  36.102  1.00  0.00     0.198 A 
ATOM     84  C   UNL A   1      47.019  28.016  35.314  1.00  0.00     0.198 A 
ATOM     85  F   UNL A   1      46.071  29.552  33.806  1.00  0.00    -0.203 F 
ATOM     86  F   UNL A   1      45.611  25.066  36.877  1.00  0.00    -0.200 F 
ATOM     87  C   UNL A   1      46.910  26.876  36.095  1.00  0.00     0.200 A 
ATOM     88  F   UNL A   1      48.167  28.708  35.295  1.00  0.00    -0.200 F 
ATOM     89  F   UNL A   1      47.945  26.475  36.845  1.00  0.00    -0.200 F 
ENDBRANCH  56  79
ENDBRANCH  30  31
ENDBRANCH  23  25
ENDBRANCH  22  23
ENDBRANCH  21  22
ENDBRANCH   1  21
TORSDOF 13
ENDMDL
