MODEL 1
REMARK VINA RESULT:     -12.2      0.000      0.000
REMARK SMILES C[C@@H]1[C@@H](C(=O)OCCOC(=O)c2ccc(-c3c4nc(c(-c5c(F)c(F)c(F)c(F)c5F)c5ccc([nH]5)c(-c5c(F)c(F)c(F)c(F)c5F)c5nc(c(-c6c(F)c(F)c(F)c(F)c6F)c6ccc3[nH]6)C=C5)C=C4)cc2)CC[N@@H+]1C[C@H]1Cc2ccccc2O1
REMARK SMILES IDX 7 1 6 2 4 3 5 4 3 5 1 6 2 7 77 8 75 9 76 10 78 12 79 13
REMARK SMILES IDX 80 14 87 15 81 16 86 17 82 18 85 19 83 20 84 21 8 22 9 23
REMARK SMILES IDX 10 24 11 25 12 26 13 27 74 28 14 29 73 30 15 31 16 32 17 33
REMARK SMILES IDX 67 34 18 35 72 36 66 37 68 38 19 39 71 40 65 41 64 42 20 44
REMARK SMILES IDX 52 45 32 46 51 47 33 48 36 49 50 50 69 51 34 52 35 53 49 55
REMARK SMILES IDX 70 56 37 57 21 58 22 59 30 60 23 61 24 62 28 63 31 64 25 65
REMARK SMILES IDX 26 66 29 67 27 68 53 69 54 70 62 71 55 72 56 73 60 74 63 75
REMARK SMILES IDX 57 76 58 77 61 78 59 79 38 80 39 81 47 82 40 83 41 84 45 85
REMARK SMILES IDX 48 86 42 87 43 88 46 89 44 90
REMARK H PARENT 77 11 68 43 36 54
REMARK Flexibility Score: inf
ROOT
ATOM      1  C   UNL A   1      31.638  29.295  24.138  1.00  0.00     0.274 C 
ENDROOT
BRANCH   1   2
ATOM      2  O   UNL A   1      30.959  28.033  24.006  1.00  0.00    -0.462 OA
BRANCH   2   3
ATOM      3  C   UNL A   1      30.637  27.643  22.746  1.00  0.00     0.315 C 
ATOM      4  O   UNL A   1      29.926  28.270  21.970  1.00  0.00    -0.252 OA
BRANCH   3   5
ATOM      5  C   UNL A   1      31.302  26.337  22.362  1.00  0.00     0.162 C 
ATOM      6  C   UNL A   1      30.602  24.169  23.414  1.00  0.00     0.076 C 
ATOM      7  C   UNL A   1      31.477  25.416  23.575  1.00  0.00     0.195 C 
ATOM      8  N   UNL A   1      32.929  25.242  23.719  1.00  0.00    -0.329 N 
ATOM      9  C   UNL A   1      32.691  26.497  21.756  1.00  0.00     0.083 C 
ATOM     10  C   UNL A   1      33.623  26.239  22.920  1.00  0.00     0.263 C 
ATOM     11  H   UNL A   1      33.093  25.419  24.709  1.00  0.00     0.348 HD
BRANCH   8  12
ATOM     12  C   UNL A   1      33.537  23.922  23.839  1.00  0.00     0.308 C 
BRANCH  12  13
ATOM     13  C   UNL A   1      35.054  23.802  24.072  1.00  0.00     0.232 C 
ATOM     14  C   UNL A   1      35.580  24.433  25.369  1.00  0.00     0.090 C 
ATOM     15  O   UNL A   1      35.419  22.387  24.109  1.00  0.00    -0.484 OA
ATOM     16  C   UNL A   1      36.767  23.567  25.557  1.00  0.00    -0.002 A 
ATOM     17  C   UNL A   1      36.581  22.395  24.839  1.00  0.00     0.123 A 
ATOM     18  C   UNL A   1      37.902  23.766  26.319  1.00  0.00     0.007 A 
ATOM     19  C   UNL A   1      37.498  21.368  24.866  1.00  0.00     0.047 A 
ATOM     20  C   UNL A   1      38.863  22.751  26.334  1.00  0.00     0.001 A 
ATOM     21  C   UNL A   1      38.659  21.558  25.620  1.00  0.00     0.004 A 
ENDBRANCH  12  13
ENDBRANCH   8  12
ENDBRANCH   3   5
ENDBRANCH   2   3
ENDBRANCH   1   2
BRANCH   1  22
ATOM     22  C   UNL A   1      31.843  29.587  25.623  1.00  0.00     0.275 C 
BRANCH  22  23
ATOM     23  O   UNL A   1      33.147  30.170  25.815  1.00  0.00    -0.458 OA
BRANCH  23  24
ATOM     24  C   UNL A   1      33.275  31.023  26.853  1.00  0.00     0.338 C 
ATOM     25  O   UNL A   1      32.489  31.877  27.228  1.00  0.00    -0.246 OA
BRANCH  24  26
ATOM     26  C   UNL A   1      34.564  30.773  27.515  1.00  0.00     0.060 A 
ATOM     27  C   UNL A   1      34.904  29.480  27.911  1.00  0.00     0.016 A 
ATOM     28  C   UNL A   1      35.404  31.846  27.811  1.00  0.00     0.016 A 
ATOM     29  C   UNL A   1      36.075  29.253  28.633  1.00  0.00     0.010 A 
ATOM     30  C   UNL A   1      36.604  31.611  28.488  1.00  0.00     0.010 A 
ATOM     31  C   UNL A   1      36.942  30.315  28.920  1.00  0.00    -0.014 A 
BRANCH  31  32
ATOM     32  C   UNL A   1      38.185  30.095  29.701  1.00  0.00     0.031 A 
ATOM     33  C   UNL A   1      39.275  29.225  29.140  1.00  0.00     0.074 A 
ATOM     34  C   UNL A   1      38.333  30.655  30.917  1.00  0.00     0.049 A 
ATOM     35  N   UNL A   1      40.344  28.750  29.728  1.00  0.00    -0.248 NA
ATOM     36  C   UNL A   1      39.138  28.833  27.730  1.00  0.00     0.031 C 
ATOM     37  C   UNL A   1      37.377  31.561  31.553  1.00  0.00     0.029 A 
ATOM     38  N   UNL A   1      39.343  30.534  31.839  1.00  0.00    -0.354 N 
ATOM     39  C   UNL A   1      40.986  27.973  28.773  1.00  0.00     0.074 A 
ATOM     40  C   UNL A   1      40.185  28.034  27.569  1.00  0.00     0.031 C 
ATOM     41  C   UNL A   1      37.848  31.919  32.758  1.00  0.00     0.029 A 
ATOM     42  C   UNL A   1      39.103  31.217  33.007  1.00  0.00     0.049 A 
ATOM     43  H   UNL A   1      40.159  30.008  31.679  1.00  0.00     0.167 HD
ATOM     44  C   UNL A   1      42.140  27.273  28.893  1.00  0.00     0.037 A 
ATOM     45  C   UNL A   1      39.795  31.238  34.161  1.00  0.00     0.037 A 
ATOM     46  C   UNL A   1      42.949  27.239  30.083  1.00  0.00     0.049 A 
ATOM     47  C   UNL A   1      41.042  30.407  34.288  1.00  0.00     0.074 A 
ATOM     48  C   UNL A   1      44.132  26.556  30.306  1.00  0.00     0.029 A 
ATOM     49  N   UNL A   1      42.660  27.929  31.251  1.00  0.00    -0.354 N 
ATOM     50  N   UNL A   1      41.619  29.638  33.397  1.00  0.00    -0.248 NA
ATOM     51  C   UNL A   1      41.727  30.436  35.589  1.00  0.00     0.031 C 
ATOM     52  C   UNL A   1      44.544  26.809  31.618  1.00  0.00     0.029 A 
ATOM     53  C   UNL A   1      43.638  27.681  32.200  1.00  0.00     0.049 A 
ATOM     54  H   UNL A   1      41.876  28.509  31.386  1.00  0.00     0.167 HD
ATOM     55  C   UNL A   1      42.740  29.107  34.020  1.00  0.00     0.074 A 
ATOM     56  C   UNL A   1      42.772  29.653  35.361  1.00  0.00     0.031 C 
ATOM     57  C   UNL A   1      43.658  28.242  33.527  1.00  0.00     0.037 A 
BRANCH  44  58
ATOM     58  C   UNL A   1      42.584  26.464  27.712  1.00  0.00     0.064 A 
ATOM     59  C   UNL A   1      43.508  26.960  26.782  1.00  0.00     0.173 A 
ATOM     60  C   UNL A   1      42.103  25.158  27.528  1.00  0.00     0.173 A 
ATOM     61  F   UNL A   1      43.985  28.207  26.904  1.00  0.00    -0.203 F 
ATOM     62  C   UNL A   1      43.921  26.186  25.700  1.00  0.00     0.198 A 
ATOM     63  C   UNL A   1      42.537  24.377  26.459  1.00  0.00     0.198 A 
ATOM     64  F   UNL A   1      41.220  24.634  28.392  1.00  0.00    -0.203 F 
ATOM     65  F   UNL A   1      44.775  26.695  24.801  1.00  0.00    -0.200 F 
ATOM     66  C   UNL A   1      43.440  24.895  25.543  1.00  0.00     0.200 A 
ATOM     67  F   UNL A   1      42.078  23.126  26.315  1.00  0.00    -0.200 F 
ATOM     68  F   UNL A   1      43.843  24.150  24.505  1.00  0.00    -0.200 F 
ENDBRANCH  44  58
BRANCH  45  69
ATOM     69  C   UNL A   1      39.306  32.052  35.305  1.00  0.00     0.064 A 
ATOM     70  C   UNL A   1      39.650  33.404  35.424  1.00  0.00     0.173 A 
ATOM     71  C   UNL A   1      38.496  31.493  36.304  1.00  0.00     0.173 A 
ATOM     72  F   UNL A   1      40.447  33.976  34.508  1.00  0.00    -0.203 F 
ATOM     73  C   UNL A   1      39.213  34.166  36.506  1.00  0.00     0.198 A 
ATOM     74  C   UNL A   1      38.036  32.261  37.371  1.00  0.00     0.198 A 
ATOM     75  F   UNL A   1      38.142  30.200  36.238  1.00  0.00    -0.203 F 
ATOM     76  F   UNL A   1      39.591  35.446  36.619  1.00  0.00    -0.200 F 
ATOM     77  C   UNL A   1      38.400  33.595  37.475  1.00  0.00     0.200 A 
ATOM     78  F   UNL A   1      37.243  31.709  38.299  1.00  0.00    -0.200 F 
ATOM     79  F   UNL A   1      37.977  34.329  38.513  1.00  0.00    -0.200 F 
ENDBRANCH  45  69
BRANCH  57  80
ATOM     80  C   UNL A   1      44.794  27.863  34.428  1.00  0.00     0.064 A 
ATOM     81  C   UNL A   1      45.971  28.623  34.484  1.00  0.00     0.173 A 
ATOM     82  C   UNL A   1      44.688  26.746  35.271  1.00  0.00     0.173 A 
ATOM     83  F   UNL A   1      46.123  29.690  33.685  1.00  0.00    -0.203 F 
ATOM     84  C   UNL A   1      47.011  28.266  35.337  1.00  0.00     0.198 A 
ATOM     85  C   UNL A   1      45.721  26.406  36.140  1.00  0.00     0.198 A 
ATOM     86  F   UNL A   1      43.580  25.990  35.256  1.00  0.00    -0.203 F 
ATOM     87  F   UNL A   1      48.144  28.982  35.345  1.00  0.00    -0.200 F 
ATOM     88  C   UNL A   1      46.884  27.163  36.168  1.00  0.00     0.200 A 
ATOM     89  F   UNL A   1      45.594  25.345  36.948  1.00  0.00    -0.200 F 
ATOM     90  F   UNL A   1      47.885  26.823  36.991  1.00  0.00    -0.200 F 
ENDBRANCH  57  80
ENDBRANCH  31  32
ENDBRANCH  24  26
ENDBRANCH  23  24
ENDBRANCH  22  23
ENDBRANCH   1  22
TORSDOF 13
ENDMDL
MODEL 2
REMARK VINA RESULT:     -12.2      1.622      2.478
REMARK SMILES C[C@@H]1[C@@H](C(=O)OCCOC(=O)c2ccc(-c3c4nc(c(-c5c(F)c(F)c(F)c(F)c5F)c5ccc([nH]5)c(-c5c(F)c(F)c(F)c(F)c5F)c5nc(c(-c6c(F)c(F)c(F)c(F)c6F)c6ccc3[nH]6)C=C5)C=C4)cc2)CC[N@@H+]1C[C@H]1Cc2ccccc2O1
REMARK SMILES IDX 7 1 6 2 4 3 5 4 3 5 1 6 2 7 77 8 75 9 76 10 78 12 79 13
REMARK SMILES IDX 80 14 87 15 81 16 86 17 82 18 85 19 83 20 84 21 8 22 9 23
REMARK SMILES IDX 10 24 11 25 12 26 13 27 74 28 14 29 73 30 15 31 16 32 17 33
REMARK SMILES IDX 67 34 18 35 72 36 66 37 68 38 19 39 71 40 65 41 64 42 20 44
REMARK SMILES IDX 52 45 32 46 51 47 33 48 36 49 50 50 69 51 34 52 35 53 49 55
REMARK SMILES IDX 70 56 37 57 21 58 22 59 30 60 23 61 24 62 28 63 31 64 25 65
REMARK SMILES IDX 26 66 29 67 27 68 53 69 54 70 62 71 55 72 56 73 60 74 63 75
REMARK SMILES IDX 57 76 58 77 61 78 59 79 38 80 39 81 47 82 40 83 41 84 45 85
REMARK SMILES IDX 48 86 42 87 43 88 46 89 44 90
REMARK H PARENT 77 11 68 43 36 54
REMARK Flexibility Score: inf
ROOT
ATOM      1  C   UNL A   1      31.833  28.736  24.144  1.00  0.00     0.274 C 
ENDROOT
BRANCH   1   2
ATOM      2  O   UNL A   1      33.155  28.169  24.104  1.00  0.00    -0.462 OA
BRANCH   2   3
ATOM      3  C   UNL A   1      33.242  26.843  23.830  1.00  0.00     0.315 C 
ATOM      4  O   UNL A   1      33.102  26.337  22.724  1.00  0.00    -0.252 OA
BRANCH   3   5
ATOM      5  C   UNL A   1      33.589  26.026  25.059  1.00  0.00     0.162 C 
ATOM      6  C   UNL A   1      35.420  24.312  25.000  1.00  0.00     0.076 C 
ATOM      7  C   UNL A   1      33.943  24.580  24.694  1.00  0.00     0.195 C 
ATOM      8  N   UNL A   1      32.926  23.755  25.359  1.00  0.00    -0.329 N 
ATOM      9  C   UNL A   1      32.467  25.934  26.085  1.00  0.00     0.083 C 
ATOM     10  C   UNL A   1      31.822  24.595  25.795  1.00  0.00     0.263 C 
ATOM     11  H   UNL A   1      32.610  23.126  24.622  1.00  0.00     0.348 HD
BRANCH   8  12
ATOM     12  C   UNL A   1      33.286  22.617  26.196  1.00  0.00     0.308 C 
BRANCH  12  13
ATOM     13  C   UNL A   1      32.952  21.190  25.723  1.00  0.00     0.232 C 
ATOM     14  C   UNL A   1      32.201  21.089  24.389  1.00  0.00     0.090 C 
ATOM     15  O   UNL A   1      34.196  20.438  25.568  1.00  0.00    -0.484 OA
ATOM     16  C   UNL A   1      32.678  19.748  23.980  1.00  0.00    -0.002 A 
ATOM     17  C   UNL A   1      33.848  19.463  24.667  1.00  0.00     0.123 A 
ATOM     18  C   UNL A   1      32.155  18.861  23.060  1.00  0.00     0.007 A 
ATOM     19  C   UNL A   1      34.557  18.303  24.452  1.00  0.00     0.047 A 
ATOM     20  C   UNL A   1      32.840  17.660  22.849  1.00  0.00     0.001 A 
ATOM     21  C   UNL A   1      34.036  17.386  23.535  1.00  0.00     0.004 A 
ENDBRANCH  12  13
ENDBRANCH   8  12
ENDBRANCH   3   5
ENDBRANCH   2   3
ENDBRANCH   1   2
BRANCH   1  22
ATOM     22  C   UNL A   1      31.743  29.684  25.338  1.00  0.00     0.275 C 
BRANCH  22  23
ATOM     23  O   UNL A   1      33.073  30.079  25.730  1.00  0.00    -0.458 OA
BRANCH  23  24
ATOM     24  C   UNL A   1      33.165  30.893  26.802  1.00  0.00     0.338 C 
ATOM     25  O   UNL A   1      32.353  31.714  27.196  1.00  0.00    -0.246 OA
BRANCH  24  26
ATOM     26  C   UNL A   1      34.448  30.648  27.476  1.00  0.00     0.060 A 
ATOM     27  C   UNL A   1      34.801  29.351  27.849  1.00  0.00     0.016 A 
ATOM     28  C   UNL A   1      35.269  31.726  27.805  1.00  0.00     0.016 A 
ATOM     29  C   UNL A   1      35.965  29.124  28.581  1.00  0.00     0.010 A 
ATOM     30  C   UNL A   1      36.463  31.492  28.492  1.00  0.00     0.010 A 
ATOM     31  C   UNL A   1      36.814  30.192  28.901  1.00  0.00    -0.014 A 
BRANCH  31  32
ATOM     32  C   UNL A   1      38.050  29.972  29.694  1.00  0.00     0.031 A 
ATOM     33  C   UNL A   1      39.142  29.097  29.147  1.00  0.00     0.074 A 
ATOM     34  C   UNL A   1      38.189  30.538  30.909  1.00  0.00     0.049 A 
ATOM     35  N   UNL A   1      40.205  28.622  29.745  1.00  0.00    -0.248 NA
ATOM     36  C   UNL A   1      39.016  28.699  27.737  1.00  0.00     0.031 C 
ATOM     37  C   UNL A   1      37.230  31.450  31.533  1.00  0.00     0.029 A 
ATOM     38  N   UNL A   1      39.190  30.418  31.840  1.00  0.00    -0.354 N 
ATOM     39  C   UNL A   1      40.853  27.840  28.800  1.00  0.00     0.074 A 
ATOM     40  C   UNL A   1      40.062  27.897  27.589  1.00  0.00     0.031 C 
ATOM     41  C   UNL A   1      37.691  31.812  32.740  1.00  0.00     0.029 A 
ATOM     42  C   UNL A   1      38.942  31.107  33.002  1.00  0.00     0.049 A 
ATOM     43  H   UNL A   1      40.007  29.890  31.689  1.00  0.00     0.167 HD
ATOM     44  C   UNL A   1      42.004  27.137  28.933  1.00  0.00     0.037 A 
ATOM     45  C   UNL A   1      39.625  31.133  34.163  1.00  0.00     0.037 A 
ATOM     46  C   UNL A   1      42.803  27.106  30.130  1.00  0.00     0.049 A 
ATOM     47  C   UNL A   1      40.869  30.299  34.304  1.00  0.00     0.074 A 
ATOM     48  C   UNL A   1      43.983  26.422  30.366  1.00  0.00     0.029 A 
ATOM     49  N   UNL A   1      42.506  27.803  31.292  1.00  0.00    -0.354 N 
ATOM     50  N   UNL A   1      41.451  29.524  33.422  1.00  0.00    -0.248 NA
ATOM     51  C   UNL A   1      41.543  30.332  35.611  1.00  0.00     0.031 C 
ATOM     52  C   UNL A   1      44.384  26.680  31.680  1.00  0.00     0.029 A 
ATOM     53  C   UNL A   1      43.476  27.556  32.251  1.00  0.00     0.049 A 
ATOM     54  H   UNL A   1      41.722  28.385  31.418  1.00  0.00     0.167 HD
ATOM     55  C   UNL A   1      42.565  28.993  34.056  1.00  0.00     0.074 A 
ATOM     56  C   UNL A   1      42.588  29.545  35.395  1.00  0.00     0.031 C 
ATOM     57  C   UNL A   1      43.485  28.123  33.575  1.00  0.00     0.037 A 
BRANCH  44  58
ATOM     58  C   UNL A   1      42.456  26.321  27.759  1.00  0.00     0.064 A 
ATOM     59  C   UNL A   1      43.413  26.798  26.853  1.00  0.00     0.173 A 
ATOM     60  C   UNL A   1      41.949  25.027  27.560  1.00  0.00     0.173 A 
ATOM     61  F   UNL A   1      43.915  28.034  26.990  1.00  0.00    -0.203 F 
ATOM     62  C   UNL A   1      43.832  26.019  25.778  1.00  0.00     0.198 A 
ATOM     63  C   UNL A   1      42.390  24.240  26.499  1.00  0.00     0.198 A 
ATOM     64  F   UNL A   1      41.035  24.522  28.402  1.00  0.00    -0.203 F 
ATOM     65  F   UNL A   1      44.718  26.510  24.900  1.00  0.00    -0.200 F 
ATOM     66  C   UNL A   1      43.325  24.739  25.605  1.00  0.00     0.200 A 
ATOM     67  F   UNL A   1      41.905  23.001  26.340  1.00  0.00    -0.200 F 
ATOM     68  F   UNL A   1      43.734  23.988  24.573  1.00  0.00    -0.200 F 
ENDBRANCH  44  58
BRANCH  45  69
ATOM     69  C   UNL A   1      39.129  31.953  35.298  1.00  0.00     0.064 A 
ATOM     70  C   UNL A   1      39.416  33.321  35.376  1.00  0.00     0.173 A 
ATOM     71  C   UNL A   1      38.368  31.385  36.330  1.00  0.00     0.173 A 
ATOM     72  F   UNL A   1      40.165  33.903  34.427  1.00  0.00    -0.203 F 
ATOM     73  C   UNL A   1      38.972  34.090  36.450  1.00  0.00     0.198 A 
ATOM     74  C   UNL A   1      37.900  32.159  37.389  1.00  0.00     0.198 A 
ATOM     75  F   UNL A   1      38.069  30.077  36.304  1.00  0.00    -0.203 F 
ATOM     76  F   UNL A   1      39.297  35.388  36.523  1.00  0.00    -0.200 F 
ATOM     77  C   UNL A   1      38.208  33.509  37.453  1.00  0.00     0.200 A 
ATOM     78  F   UNL A   1      37.154  31.596  38.350  1.00  0.00    -0.200 F 
ATOM     79  F   UNL A   1      37.778  34.250  38.484  1.00  0.00    -0.200 F 
ENDBRANCH  45  69
BRANCH  57  80
ATOM     80  C   UNL A   1      44.612  27.746  34.488  1.00  0.00     0.064 A 
ATOM     81  C   UNL A   1      44.529  26.630  35.333  1.00  0.00     0.173 A 
ATOM     82  C   UNL A   1      45.802  28.489  34.491  1.00  0.00     0.173 A 
ATOM     83  F   UNL A   1      43.405  25.899  35.376  1.00  0.00    -0.203 F 
ATOM     84  C   UNL A   1      45.590  26.284  36.165  1.00  0.00     0.198 A 
ATOM     85  C   UNL A   1      46.870  28.126  35.307  1.00  0.00     0.198 A 
ATOM     86  F   UNL A   1      45.931  29.562  33.697  1.00  0.00    -0.203 F 
ATOM     87  F   UNL A   1      45.474  25.238  36.995  1.00  0.00    -0.200 F 
ATOM     88  C   UNL A   1      46.760  27.028  36.148  1.00  0.00     0.200 A 
ATOM     89  F   UNL A   1      48.003  28.840  35.283  1.00  0.00    -0.200 F 
ATOM     90  F   UNL A   1      47.782  26.691  36.947  1.00  0.00    -0.200 F 
ENDBRANCH  57  80
ENDBRANCH  31  32
ENDBRANCH  24  26
ENDBRANCH  23  24
ENDBRANCH  22  23
ENDBRANCH   1  22
TORSDOF 13
ENDMDL
MODEL 3
REMARK VINA RESULT:     -12.2      1.673      2.530
REMARK SMILES C[C@@H]1[C@@H](C(=O)OCCOC(=O)c2ccc(-c3c4nc(c(-c5c(F)c(F)c(F)c(F)c5F)c5ccc([nH]5)c(-c5c(F)c(F)c(F)c(F)c5F)c5nc(c(-c6c(F)c(F)c(F)c(F)c6F)c6ccc3[nH]6)C=C5)C=C4)cc2)CC[N@@H+]1C[C@H]1Cc2ccccc2O1
REMARK SMILES IDX 7 1 6 2 4 3 5 4 3 5 1 6 2 7 77 8 75 9 76 10 78 12 79 13
REMARK SMILES IDX 80 14 87 15 81 16 86 17 82 18 85 19 83 20 84 21 8 22 9 23
REMARK SMILES IDX 10 24 11 25 12 26 13 27 74 28 14 29 73 30 15 31 16 32 17 33
REMARK SMILES IDX 67 34 18 35 72 36 66 37 68 38 19 39 71 40 65 41 64 42 20 44
REMARK SMILES IDX 52 45 32 46 51 47 33 48 36 49 50 50 69 51 34 52 35 53 49 55
REMARK SMILES IDX 70 56 37 57 21 58 22 59 30 60 23 61 24 62 28 63 31 64 25 65
REMARK SMILES IDX 26 66 29 67 27 68 53 69 54 70 62 71 55 72 56 73 60 74 63 75
REMARK SMILES IDX 57 76 58 77 61 78 59 79 38 80 39 81 47 82 40 83 41 84 45 85
REMARK SMILES IDX 48 86 42 87 43 88 46 89 44 90
REMARK H PARENT 77 11 68 43 36 54
REMARK Flexibility Score: inf
ROOT
ATOM      1  C   UNL A   1      31.952  28.744  24.432  1.00  0.00     0.274 C 
ENDROOT
BRANCH   1   2
ATOM      2  O   UNL A   1      33.262  28.151  24.495  1.00  0.00    -0.462 OA
BRANCH   2   3
ATOM      3  C   UNL A   1      33.354  26.839  24.161  1.00  0.00     0.315 C 
ATOM      4  O   UNL A   1      33.292  26.391  23.023  1.00  0.00    -0.252 OA
BRANCH   3   5
ATOM      5  C   UNL A   1      33.598  25.956  25.369  1.00  0.00     0.162 C 
ATOM      6  C   UNL A   1      35.423  24.234  25.367  1.00  0.00     0.076 C 
ATOM      7  C   UNL A   1      33.976  24.529  24.959  1.00  0.00     0.195 C 
ATOM      8  N   UNL A   1      32.906  23.678  25.496  1.00  0.00    -0.329 N 
ATOM      9  C   UNL A   1      32.397  25.820  26.296  1.00  0.00     0.083 C 
ATOM     10  C   UNL A   1      31.774  24.503  25.885  1.00  0.00     0.263 C 
ATOM     11  H   UNL A   1      32.648  23.091  24.704  1.00  0.00     0.348 HD
BRANCH   8  12
ATOM     12  C   UNL A   1      33.194  22.496  26.298  1.00  0.00     0.308 C 
BRANCH  12  13
ATOM     13  C   UNL A   1      32.845  21.100  25.748  1.00  0.00     0.232 C 
ATOM     14  C   UNL A   1      32.192  21.077  24.359  1.00  0.00     0.090 C 
ATOM     15  O   UNL A   1      34.069  20.307  25.655  1.00  0.00    -0.484 OA
ATOM     16  C   UNL A   1      32.650  19.734  23.935  1.00  0.00    -0.002 A 
ATOM     17  C   UNL A   1      33.755  19.380  24.694  1.00  0.00     0.123 A 
ATOM     18  C   UNL A   1      32.165  18.900  22.945  1.00  0.00     0.007 A 
ATOM     19  C   UNL A   1      34.436  18.201  24.487  1.00  0.00     0.047 A 
ATOM     20  C   UNL A   1      32.820  17.683  22.740  1.00  0.00     0.001 A 
ATOM     21  C   UNL A   1      33.952  17.339  23.500  1.00  0.00     0.004 A 
ENDBRANCH  12  13
ENDBRANCH   8  12
ENDBRANCH   3   5
ENDBRANCH   2   3
ENDBRANCH   1   2
BRANCH   1  22
ATOM     22  C   UNL A   1      31.819  29.759  25.565  1.00  0.00     0.275 C 
BRANCH  22  23
ATOM     23  O   UNL A   1      33.088  30.414  25.764  1.00  0.00    -0.458 OA
BRANCH  23  24
ATOM     24  C   UNL A   1      33.194  31.196  26.859  1.00  0.00     0.338 C 
ATOM     25  O   UNL A   1      32.402  32.027  27.270  1.00  0.00    -0.246 OA
BRANCH  24  26
ATOM     26  C   UNL A   1      34.465  30.897  27.534  1.00  0.00     0.060 A 
ATOM     27  C   UNL A   1      34.739  29.596  27.957  1.00  0.00     0.016 A 
ATOM     28  C   UNL A   1      35.355  31.933  27.815  1.00  0.00     0.016 A 
ATOM     29  C   UNL A   1      35.893  29.326  28.691  1.00  0.00     0.010 A 
ATOM     30  C   UNL A   1      36.537  31.653  28.504  1.00  0.00     0.010 A 
ATOM     31  C   UNL A   1      36.810  30.350  28.963  1.00  0.00    -0.014 A 
BRANCH  31  32
ATOM     32  C   UNL A   1      38.036  30.085  29.757  1.00  0.00     0.031 A 
ATOM     33  C   UNL A   1      39.105  29.187  29.201  1.00  0.00     0.074 A 
ATOM     34  C   UNL A   1      38.187  30.630  30.979  1.00  0.00     0.049 A 
ATOM     35  N   UNL A   1      40.152  28.674  29.796  1.00  0.00    -0.248 NA
ATOM     36  C   UNL A   1      38.973  28.812  27.786  1.00  0.00     0.031 C 
ATOM     37  C   UNL A   1      37.252  31.560  31.613  1.00  0.00     0.029 A 
ATOM     38  N   UNL A   1      39.181  30.469  31.912  1.00  0.00    -0.354 N 
ATOM     39  C   UNL A   1      40.781  27.887  28.842  1.00  0.00     0.074 A 
ATOM     40  C   UNL A   1      39.997  27.983  27.629  1.00  0.00     0.031 C 
ATOM     41  C   UNL A   1      37.719  31.892  32.826  1.00  0.00     0.029 A 
ATOM     42  C   UNL A   1      38.948  31.149  33.083  1.00  0.00     0.049 A 
ATOM     43  H   UNL A   1      39.983  29.921  31.757  1.00  0.00     0.167 HD
ATOM     44  C   UNL A   1      41.912  27.150  28.969  1.00  0.00     0.037 A 
ATOM     45  C   UNL A   1      39.627  31.139  34.246  1.00  0.00     0.037 A 
ATOM     46  C   UNL A   1      42.705  27.080  30.168  1.00  0.00     0.049 A 
ATOM     47  C   UNL A   1      40.847  30.269  34.380  1.00  0.00     0.074 A 
ATOM     48  C   UNL A   1      43.864  26.359  30.398  1.00  0.00     0.029 A 
ATOM     49  N   UNL A   1      42.423  27.769  31.339  1.00  0.00    -0.354 N 
ATOM     50  N   UNL A   1      41.410  29.490  33.488  1.00  0.00    -0.248 NA
ATOM     51  C   UNL A   1      41.517  30.265  35.689  1.00  0.00     0.031 C 
ATOM     52  C   UNL A   1      44.268  26.588  31.718  1.00  0.00     0.029 A 
ATOM     53  C   UNL A   1      43.382  27.482  32.297  1.00  0.00     0.049 A 
ATOM     54  H   UNL A   1      41.656  28.372  31.470  1.00  0.00     0.167 HD
ATOM     55  C   UNL A   1      42.506  28.920  34.119  1.00  0.00     0.074 A 
ATOM     56  C   UNL A   1      42.540  29.452  35.466  1.00  0.00     0.031 C 
ATOM     57  C   UNL A   1      43.403  28.031  33.629  1.00  0.00     0.037 A 
BRANCH  44  58
ATOM     58  C   UNL A   1      42.345  26.338  27.786  1.00  0.00     0.064 A 
ATOM     59  C   UNL A   1      43.303  26.809  26.878  1.00  0.00     0.173 A 
ATOM     60  C   UNL A   1      41.818  25.053  27.579  1.00  0.00     0.173 A 
ATOM     61  F   UNL A   1      43.824  28.036  27.023  1.00  0.00    -0.203 F 
ATOM     62  C   UNL A   1      43.705  26.032  25.794  1.00  0.00     0.198 A 
ATOM     63  C   UNL A   1      42.240  24.269  26.508  1.00  0.00     0.198 A 
ATOM     64  F   UNL A   1      40.901  24.554  28.422  1.00  0.00    -0.203 F 
ATOM     65  F   UNL A   1      44.593  26.518  24.915  1.00  0.00    -0.200 F 
ATOM     66  C   UNL A   1      43.177  24.762  25.613  1.00  0.00     0.200 A 
ATOM     67  F   UNL A   1      41.736  23.038  26.341  1.00  0.00    -0.200 F 
ATOM     68  F   UNL A   1      43.570  24.014  24.573  1.00  0.00    -0.200 F 
ENDBRANCH  44  58
BRANCH  45  69
ATOM     69  C   UNL A   1      39.150  31.958  35.391  1.00  0.00     0.064 A 
ATOM     70  C   UNL A   1      38.340  31.398  36.387  1.00  0.00     0.173 A 
ATOM     71  C   UNL A   1      39.485  33.315  35.507  1.00  0.00     0.173 A 
ATOM     72  F   UNL A   1      37.970  30.111  36.304  1.00  0.00    -0.203 F 
ATOM     73  C   UNL A   1      37.872  32.167  37.450  1.00  0.00     0.198 A 
ATOM     74  C   UNL A   1      39.039  34.076  36.584  1.00  0.00     0.198 A 
ATOM     75  F   UNL A   1      40.254  33.900  34.576  1.00  0.00    -0.203 F 
ATOM     76  F   UNL A   1      37.064  31.618  38.367  1.00  0.00    -0.200 F 
ATOM     77  C   UNL A   1      38.228  33.504  37.552  1.00  0.00     0.200 A 
ATOM     78  F   UNL A   1      39.394  35.365  36.684  1.00  0.00    -0.200 F 
ATOM     79  F   UNL A   1      37.780  34.242  38.577  1.00  0.00    -0.200 F 
ENDBRANCH  45  69
BRANCH  57  80
ATOM     80  C   UNL A   1      44.516  27.609  34.540  1.00  0.00     0.064 A 
ATOM     81  C   UNL A   1      45.713  28.334  34.619  1.00  0.00     0.173 A 
ATOM     82  C   UNL A   1      44.368  26.487  35.369  1.00  0.00     0.173 A 
ATOM     83  F   UNL A   1      45.907  29.405  33.835  1.00  0.00    -0.203 F 
ATOM     84  C   UNL A   1      46.732  27.938  35.481  1.00  0.00     0.198 A 
ATOM     85  C   UNL A   1      45.379  26.107  36.246  1.00  0.00     0.198 A 
ATOM     86  F   UNL A   1      43.239  25.763  35.331  1.00  0.00    -0.203 F 
ATOM     87  F   UNL A   1      47.885  28.621  35.512  1.00  0.00    -0.200 F 
ATOM     88  C   UNL A   1      46.563  26.829  36.297  1.00  0.00     0.200 A 
ATOM     89  F   UNL A   1      45.211  25.041  37.040  1.00  0.00    -0.200 F 
ATOM     90  F   UNL A   1      47.543  26.452  37.129  1.00  0.00    -0.200 F 
ENDBRANCH  57  80
ENDBRANCH  31  32
ENDBRANCH  24  26
ENDBRANCH  23  24
ENDBRANCH  22  23
ENDBRANCH   1  22
TORSDOF 13
ENDMDL
