MODEL 1
REMARK VINA RESULT:     -11.0      0.000      0.000
REMARK SMILES COc1cc(F)ccc1NCC(C)(C)C(=O)OCCOC(=O)c1ccc(-c2c3nc(c(-c4c(F)c(F)c(F)c(F)c4F)c4ccc([nH]4)c(-c4c(F)c(F)c(F)c(F)c4F)c4nc(c(-c5c(F)c(F)c(F)c(F)c5F)c5ccc2[nH]5)C=C4)C=C3)cc1
REMARK SMILES IDX 18 1 17 2 15 3 16 4 12 5 13 6 14 7 11 8 10 9 9 11 3 12 4 13
REMARK SMILES IDX 5 14 8 15 6 16 7 17 2 18 1 19 19 20 20 21 21 22 22 23 23 24
REMARK SMILES IDX 24 25 85 26 25 27 84 28 26 29 27 30 28 31 78 32 29 33 83 34
REMARK SMILES IDX 77 35 79 36 30 37 82 38 76 39 75 40 31 42 63 43 43 44 62 45
REMARK SMILES IDX 44 46 47 47 61 48 80 49 45 50 46 51 60 53 81 54 48 55 32 56
REMARK SMILES IDX 33 57 41 58 34 59 35 60 39 61 42 62 36 63 37 64 40 65 38 66
REMARK SMILES IDX 64 67 65 68 73 69 66 70 67 71 71 72 74 73 68 74 69 75 72 76
REMARK SMILES IDX 70 77 49 78 50 79 58 80 51 81 52 82 56 83 59 84 53 85 54 86
REMARK SMILES IDX 57 87 55 88
REMARK H PARENT 10 10 79 41 47 52
REMARK Flexibility Score: inf
ROOT
ATOM      1  C   UNL A   1      38.310  19.797  25.037  1.00  0.00     0.274 C 
ENDROOT
BRANCH   1   2
ATOM      2  O   UNL A   1      37.676  21.055  25.324  1.00  0.00    -0.462 OA
BRANCH   2   3
ATOM      3  C   UNL A   1      36.336  21.109  25.093  1.00  0.00     0.313 C 
ATOM      4  O   UNL A   1      35.616  20.120  25.034  1.00  0.00    -0.252 OA
BRANCH   3   5
ATOM      5  C   UNL A   1      35.855  22.552  24.911  1.00  0.00     0.080 C 
ATOM      6  C   UNL A   1      36.082  22.957  23.447  1.00  0.00     0.025 C 
ATOM      7  C   UNL A   1      36.679  23.519  25.792  1.00  0.00     0.025 C 
BRANCH   5   8
ATOM      8  C   UNL A   1      34.371  22.695  25.299  1.00  0.00     0.131 C 
BRANCH   8   9
ATOM      9  N   UNL A   1      34.076  23.777  26.219  1.00  0.00    -0.381 N 
ATOM     10  H   UNL A   1      34.479  23.719  27.115  1.00  0.00     0.160 HD
BRANCH   9  11
ATOM     11  C   UNL A   1      33.284  24.886  25.962  1.00  0.00     0.077 A 
ATOM     12  C   UNL A   1      31.953  24.912  26.436  1.00  0.00     0.144 A 
ATOM     13  C   UNL A   1      31.093  25.975  26.143  1.00  0.00     0.087 A 
ATOM     14  C   UNL A   1      31.546  27.010  25.337  1.00  0.00     0.127 A 
ATOM     15  C   UNL A   1      33.708  25.966  25.182  1.00  0.00     0.032 A 
ATOM     16  F   UNL A   1      30.714  28.004  25.004  1.00  0.00    -0.207 F 
ATOM     17  C   UNL A   1      32.848  27.021  24.862  1.00  0.00     0.041 A 
BRANCH  12  18
ATOM     18  O   UNL A   1      31.551  23.879  27.253  1.00  0.00    -0.494 OA
ATOM     19  C   UNL A   1      30.431  23.171  26.730  1.00  0.00     0.278 C 
ENDBRANCH  12  18
ENDBRANCH   9  11
ENDBRANCH   8   9
ENDBRANCH   5   8
ENDBRANCH   3   5
ENDBRANCH   2   3
ENDBRANCH   1   2
BRANCH   1  20
ATOM     20  C   UNL A   1      39.489  19.605  25.991  1.00  0.00     0.275 C 
BRANCH  20  21
ATOM     21  O   UNL A   1      40.708  19.414  25.243  1.00  0.00    -0.458 OA
BRANCH  21  22
ATOM     22  C   UNL A   1      41.827  19.191  25.982  1.00  0.00     0.338 C 
ATOM     23  O   UNL A   1      42.394  18.127  26.164  1.00  0.00    -0.246 OA
BRANCH  22  24
ATOM     24  C   UNL A   1      42.389  20.498  26.392  1.00  0.00     0.060 A 
ATOM     25  C   UNL A   1      42.859  21.364  25.395  1.00  0.00     0.016 A 
ATOM     26  C   UNL A   1      42.364  20.918  27.724  1.00  0.00     0.016 A 
ATOM     27  C   UNL A   1      43.215  22.680  25.711  1.00  0.00     0.010 A 
ATOM     28  C   UNL A   1      42.755  22.220  28.045  1.00  0.00     0.010 A 
ATOM     29  C   UNL A   1      43.159  23.118  27.039  1.00  0.00    -0.014 A 
BRANCH  29  30
ATOM     30  C   UNL A   1      43.624  24.469  27.435  1.00  0.00     0.031 A 
ATOM     31  C   UNL A   1      42.610  25.498  27.812  1.00  0.00     0.074 A 
ATOM     32  C   UNL A   1      44.925  24.813  27.400  1.00  0.00     0.049 A 
ATOM     33  N   UNL A   1      42.781  26.773  28.045  1.00  0.00    -0.248 NA
ATOM     34  C   UNL A   1      41.229  25.024  27.981  1.00  0.00     0.031 C 
ATOM     35  C   UNL A   1      46.030  23.894  27.184  1.00  0.00     0.029 A 
ATOM     36  N   UNL A   1      45.530  26.044  27.496  1.00  0.00    -0.354 N 
ATOM     37  C   UNL A   1      41.543  27.242  28.445  1.00  0.00     0.074 A 
ATOM     38  C   UNL A   1      40.615  26.134  28.362  1.00  0.00     0.031 C 
ATOM     39  C   UNL A   1      47.166  24.597  27.038  1.00  0.00     0.029 A 
ATOM     40  C   UNL A   1      46.861  26.018  27.155  1.00  0.00     0.049 A 
ATOM     41  H   UNL A   1      45.057  26.861  27.779  1.00  0.00     0.167 HD
ATOM     42  C   UNL A   1      41.221  28.481  28.877  1.00  0.00     0.037 A 
ATOM     43  C   UNL A   1      47.726  27.024  26.921  1.00  0.00     0.037 A 
ATOM     44  C   UNL A   1      42.129  29.594  28.913  1.00  0.00     0.049 A 
ATOM     45  C   UNL A   1      47.283  28.443  27.146  1.00  0.00     0.074 A 
ATOM     46  C   UNL A   1      41.890  30.885  29.348  1.00  0.00     0.029 A 
ATOM     47  N   UNL A   1      43.441  29.556  28.466  1.00  0.00    -0.354 N 
ATOM     48  N   UNL A   1      46.127  28.880  27.578  1.00  0.00    -0.248 NA
ATOM     49  C   UNL A   1      48.264  29.506  26.880  1.00  0.00     0.031 C 
ATOM     50  C   UNL A   1      43.038  31.645  29.107  1.00  0.00     0.029 A 
ATOM     51  C   UNL A   1      44.009  30.816  28.568  1.00  0.00     0.049 A 
ATOM     52  H   UNL A   1      43.901  28.754  28.128  1.00  0.00     0.167 HD
ATOM     53  C   UNL A   1      46.258  30.256  27.696  1.00  0.00     0.074 A 
ATOM     54  C   UNL A   1      47.599  30.589  27.263  1.00  0.00     0.031 C 
ATOM     55  C   UNL A   1      45.348  31.150  28.151  1.00  0.00     0.037 A 
BRANCH  42  56
ATOM     56  C   UNL A   1      39.817  28.687  29.339  1.00  0.00     0.064 A 
ATOM     57  C   UNL A   1      38.836  29.151  28.454  1.00  0.00     0.173 A 
ATOM     58  C   UNL A   1      39.448  28.432  30.668  1.00  0.00     0.173 A 
ATOM     59  F   UNL A   1      39.145  29.401  27.172  1.00  0.00    -0.203 F 
ATOM     60  C   UNL A   1      37.530  29.356  28.885  1.00  0.00     0.198 A 
ATOM     61  C   UNL A   1      38.137  28.619  31.090  1.00  0.00     0.198 A 
ATOM     62  F   UNL A   1      40.353  27.968  31.543  1.00  0.00    -0.203 F 
ATOM     63  F   UNL A   1      36.606  29.809  28.026  1.00  0.00    -0.200 F 
ATOM     64  C   UNL A   1      37.180  29.085  30.201  1.00  0.00     0.200 A 
ATOM     65  F   UNL A   1      37.795  28.332  32.354  1.00  0.00    -0.200 F 
ATOM     66  F   UNL A   1      35.916  29.265  30.609  1.00  0.00    -0.200 F 
ENDBRANCH  42  56
BRANCH  43  67
ATOM     67  C   UNL A   1      49.091  26.728  26.417  1.00  0.00     0.064 A 
ATOM     68  C   UNL A   1      49.395  26.839  25.052  1.00  0.00     0.173 A 
ATOM     69  C   UNL A   1      50.123  26.356  27.288  1.00  0.00     0.173 A 
ATOM     70  F   UNL A   1      48.443  27.204  24.180  1.00  0.00    -0.203 F 
ATOM     71  C   UNL A   1      50.679  26.584  24.576  1.00  0.00     0.198 A 
ATOM     72  C   UNL A   1      51.412  26.118  26.814  1.00  0.00     0.198 A 
ATOM     73  F   UNL A   1      49.886  26.260  28.604  1.00  0.00    -0.203 F 
ATOM     74  F   UNL A   1      50.943  26.691  23.267  1.00  0.00    -0.200 F 
ATOM     75  C   UNL A   1      51.688  26.230  25.458  1.00  0.00     0.200 A 
ATOM     76  F   UNL A   1      52.390  25.797  27.671  1.00  0.00    -0.200 F 
ATOM     77  F   UNL A   1      52.929  26.003  25.005  1.00  0.00    -0.200 F 
ENDBRANCH  43  67
BRANCH  55  78
ATOM     78  C   UNL A   1      45.764  32.586  28.265  1.00  0.00     0.064 A 
ATOM     79  C   UNL A   1      46.298  33.072  29.468  1.00  0.00     0.173 A 
ATOM     80  C   UNL A   1      45.532  33.502  27.230  1.00  0.00     0.173 A 
ATOM     81  F   UNL A   1      46.536  32.233  30.488  1.00  0.00    -0.203 F 
ATOM     82  C   UNL A   1      46.550  34.428  29.646  1.00  0.00     0.198 A 
ATOM     83  C   UNL A   1      45.810  34.856  27.402  1.00  0.00     0.198 A 
ATOM     84  F   UNL A   1      45.042  33.083  26.054  1.00  0.00    -0.203 F 
ATOM     85  F   UNL A   1      47.011  34.875  30.822  1.00  0.00    -0.200 F 
ATOM     86  C   UNL A   1      46.304  35.320  28.613  1.00  0.00     0.200 A 
ATOM     87  F   UNL A   1      45.594  35.715  26.396  1.00  0.00    -0.200 F 
ATOM     88  F   UNL A   1      46.540  36.628  28.786  1.00  0.00    -0.200 F 
ENDBRANCH  55  78
ENDBRANCH  29  30
ENDBRANCH  22  24
ENDBRANCH  21  22
ENDBRANCH  20  21
ENDBRANCH   1  20
TORSDOF 15
ENDMDL
MODEL 2
REMARK VINA RESULT:     -11.0      0.168      1.720
REMARK SMILES COc1cc(F)ccc1NCC(C)(C)C(=O)OCCOC(=O)c1ccc(-c2c3nc(c(-c4c(F)c(F)c(F)c(F)c4F)c4ccc([nH]4)c(-c4c(F)c(F)c(F)c(F)c4F)c4nc(c(-c5c(F)c(F)c(F)c(F)c5F)c5ccc2[nH]5)C=C4)C=C3)cc1
REMARK SMILES IDX 18 1 17 2 15 3 16 4 12 5 13 6 14 7 11 8 10 9 9 11 3 12 4 13
REMARK SMILES IDX 5 14 8 15 6 16 7 17 2 18 1 19 19 20 20 21 21 22 22 23 23 24
REMARK SMILES IDX 24 25 85 26 25 27 84 28 26 29 27 30 28 31 78 32 29 33 83 34
REMARK SMILES IDX 77 35 79 36 30 37 82 38 76 39 75 40 31 42 63 43 43 44 62 45
REMARK SMILES IDX 44 46 47 47 61 48 80 49 45 50 46 51 60 53 81 54 48 55 32 56
REMARK SMILES IDX 33 57 41 58 34 59 35 60 39 61 42 62 36 63 37 64 40 65 38 66
REMARK SMILES IDX 64 67 65 68 73 69 66 70 67 71 71 72 74 73 68 74 69 75 72 76
REMARK SMILES IDX 70 77 49 78 50 79 58 80 51 81 52 82 56 83 59 84 53 85 54 86
REMARK SMILES IDX 57 87 55 88
REMARK H PARENT 10 10 79 41 47 52
REMARK Flexibility Score: inf
ROOT
ATOM      1  C   UNL A   1      38.373  20.037  25.020  1.00  0.00     0.274 C 
ENDROOT
BRANCH   1   2
ATOM      2  O   UNL A   1      37.652  21.218  25.411  1.00  0.00    -0.462 OA
BRANCH   2   3
ATOM      3  C   UNL A   1      36.318  21.214  25.142  1.00  0.00     0.313 C 
ATOM      4  O   UNL A   1      35.670  20.195  24.938  1.00  0.00    -0.252 OA
BRANCH   3   5
ATOM      5  C   UNL A   1      35.745  22.634  25.120  1.00  0.00     0.080 C 
ATOM      6  C   UNL A   1      35.750  23.136  23.669  1.00  0.00     0.025 C 
ATOM      7  C   UNL A   1      36.631  23.595  25.945  1.00  0.00     0.025 C 
BRANCH   5   8
ATOM      8  C   UNL A   1      34.323  22.667  25.710  1.00  0.00     0.131 C 
BRANCH   8   9
ATOM      9  N   UNL A   1      34.001  23.855  26.478  1.00  0.00    -0.381 N 
ATOM     10  H   UNL A   1      34.382  23.914  27.384  1.00  0.00     0.160 HD
BRANCH   9  11
ATOM     11  C   UNL A   1      33.210  24.916  26.064  1.00  0.00     0.077 A 
ATOM     12  C   UNL A   1      31.838  24.932  26.403  1.00  0.00     0.144 A 
ATOM     13  C   UNL A   1      30.985  25.943  25.950  1.00  0.00     0.087 A 
ATOM     14  C   UNL A   1      31.488  26.931  25.117  1.00  0.00     0.127 A 
ATOM     15  C   UNL A   1      33.681  25.951  25.251  1.00  0.00     0.032 A 
ATOM     16  F   UNL A   1      30.668  27.872  24.632  1.00  0.00    -0.207 F 
ATOM     17  C   UNL A   1      32.830  26.951  24.771  1.00  0.00     0.041 A 
BRANCH  12  18
ATOM     18  O   UNL A   1      31.383  23.947  27.251  1.00  0.00    -0.494 OA
ATOM     19  C   UNL A   1      30.391  23.120  26.649  1.00  0.00     0.278 C 
ENDBRANCH  12  18
ENDBRANCH   9  11
ENDBRANCH   8   9
ENDBRANCH   5   8
ENDBRANCH   3   5
ENDBRANCH   2   3
ENDBRANCH   1   2
BRANCH   1  20
ATOM     20  C   UNL A   1      39.484  19.773  26.038  1.00  0.00     0.275 C 
BRANCH  20  21
ATOM     21  O   UNL A   1      40.643  19.224  25.378  1.00  0.00    -0.458 OA
BRANCH  21  22
ATOM     22  C   UNL A   1      41.788  19.207  26.110  1.00  0.00     0.338 C 
ATOM     23  O   UNL A   1      42.511  18.250  26.331  1.00  0.00    -0.246 OA
BRANCH  22  24
ATOM     24  C   UNL A   1      42.148  20.602  26.451  1.00  0.00     0.060 A 
ATOM     25  C   UNL A   1      42.135  20.983  27.800  1.00  0.00     0.016 A 
ATOM     26  C   UNL A   1      42.593  21.499  25.478  1.00  0.00     0.016 A 
ATOM     27  C   UNL A   1      42.653  22.223  28.189  1.00  0.00     0.010 A 
ATOM     28  C   UNL A   1      43.076  22.752  25.864  1.00  0.00     0.010 A 
ATOM     29  C   UNL A   1      43.133  23.114  27.223  1.00  0.00    -0.014 A 
BRANCH  29  30
ATOM     30  C   UNL A   1      43.595  24.477  27.579  1.00  0.00     0.031 A 
ATOM     31  C   UNL A   1      42.580  25.512  27.932  1.00  0.00     0.074 A 
ATOM     32  C   UNL A   1      44.895  24.823  27.529  1.00  0.00     0.049 A 
ATOM     33  N   UNL A   1      42.748  26.794  28.129  1.00  0.00    -0.248 NA
ATOM     34  C   UNL A   1      41.201  25.039  28.120  1.00  0.00     0.031 C 
ATOM     35  C   UNL A   1      46.003  23.902  27.334  1.00  0.00     0.029 A 
ATOM     36  N   UNL A   1      45.497  26.059  27.589  1.00  0.00    -0.354 N 
ATOM     37  C   UNL A   1      41.510  27.270  28.521  1.00  0.00     0.074 A 
ATOM     38  C   UNL A   1      40.585  26.157  28.472  1.00  0.00     0.031 C 
ATOM     39  C   UNL A   1      47.135  24.604  27.164  1.00  0.00     0.029 A 
ATOM     40  C   UNL A   1      46.827  26.027  27.242  1.00  0.00     0.049 A 
ATOM     41  H   UNL A   1      45.023  26.881  27.851  1.00  0.00     0.167 HD
ATOM     42  C   UNL A   1      41.186  28.519  28.920  1.00  0.00     0.037 A 
ATOM     43  C   UNL A   1      47.687  27.029  26.977  1.00  0.00     0.037 A 
ATOM     44  C   UNL A   1      42.090  29.636  28.921  1.00  0.00     0.049 A 
ATOM     45  C   UNL A   1      47.241  28.452  27.165  1.00  0.00     0.074 A 
ATOM     46  C   UNL A   1      41.849  30.937  29.321  1.00  0.00     0.029 A 
ATOM     47  N   UNL A   1      43.401  29.590  28.470  1.00  0.00    -0.354 N 
ATOM     48  N   UNL A   1      46.086  28.898  27.589  1.00  0.00    -0.248 NA
ATOM     49  C   UNL A   1      48.218  29.510  26.866  1.00  0.00     0.031 C 
ATOM     50  C   UNL A   1      42.994  31.694  29.054  1.00  0.00     0.029 A 
ATOM     51  C   UNL A   1      43.965  30.854  28.534  1.00  0.00     0.049 A 
ATOM     52  H   UNL A   1      43.862  28.780  28.152  1.00  0.00     0.167 HD
ATOM     53  C   UNL A   1      46.213  30.277  27.669  1.00  0.00     0.074 A 
ATOM     54  C   UNL A   1      47.551  30.601  27.222  1.00  0.00     0.031 C 
ATOM     55  C   UNL A   1      45.302  31.180  28.103  1.00  0.00     0.037 A 
BRANCH  42  56
ATOM     56  C   UNL A   1      39.783  28.734  29.382  1.00  0.00     0.064 A 
ATOM     57  C   UNL A   1      39.428  28.501  30.716  1.00  0.00     0.173 A 
ATOM     58  C   UNL A   1      38.786  29.162  28.492  1.00  0.00     0.173 A 
ATOM     59  F   UNL A   1      40.353  28.098  31.601  1.00  0.00    -0.203 F 
ATOM     60  C   UNL A   1      38.120  28.689  31.146  1.00  0.00     0.198 A 
ATOM     61  C   UNL A   1      37.483  29.368  28.931  1.00  0.00     0.198 A 
ATOM     62  F   UNL A   1      39.089  29.416  27.210  1.00  0.00    -0.203 F 
ATOM     63  F   UNL A   1      37.796  28.453  32.425  1.00  0.00    -0.200 F 
ATOM     64  C   UNL A   1      37.149  29.126  30.255  1.00  0.00     0.200 A 
ATOM     65  F   UNL A   1      36.554  29.816  28.076  1.00  0.00    -0.200 F 
ATOM     66  F   UNL A   1      35.893  29.325  30.676  1.00  0.00    -0.200 F 
ENDBRANCH  42  56
BRANCH  43  67
ATOM     67  C   UNL A   1      49.051  26.723  26.477  1.00  0.00     0.064 A 
ATOM     68  C   UNL A   1      50.061  26.295  27.353  1.00  0.00     0.173 A 
ATOM     69  C   UNL A   1      49.367  26.825  25.116  1.00  0.00     0.173 A 
ATOM     70  F   UNL A   1      49.804  26.171  28.663  1.00  0.00    -0.203 F 
ATOM     71  C   UNL A   1      51.336  25.986  26.886  1.00  0.00     0.198 A 
ATOM     72  C   UNL A   1      50.639  26.499  24.648  1.00  0.00     0.198 A 
ATOM     73  F   UNL A   1      48.429  27.207  24.238  1.00  0.00    -0.203 F 
ATOM     74  F   UNL A   1      52.285  25.585  27.743  1.00  0.00    -0.200 F 
ATOM     75  C   UNL A   1      51.623  26.081  25.533  1.00  0.00     0.200 A 
ATOM     76  F   UNL A   1      50.906  26.571  23.337  1.00  0.00    -0.200 F 
ATOM     77  F   UNL A   1      52.843  25.765  25.080  1.00  0.00    -0.200 F 
ENDBRANCH  43  67
BRANCH  55  78
ATOM     78  C   UNL A   1      45.714  32.620  28.175  1.00  0.00     0.064 A 
ATOM     79  C   UNL A   1      46.267  33.136  29.357  1.00  0.00     0.173 A 
ATOM     80  C   UNL A   1      45.459  33.510  27.124  1.00  0.00     0.173 A 
ATOM     81  F   UNL A   1      46.528  32.322  30.392  1.00  0.00    -0.203 F 
ATOM     82  C   UNL A   1      46.516  34.497  29.498  1.00  0.00     0.198 A 
ATOM     83  C   UNL A   1      45.734  34.869  27.258  1.00  0.00     0.198 A 
ATOM     84  F   UNL A   1      44.950  33.062  25.966  1.00  0.00    -0.203 F 
ATOM     85  F   UNL A   1      46.997  34.973  30.655  1.00  0.00    -0.200 F 
ATOM     86  C   UNL A   1      46.248  35.363  28.449  1.00  0.00     0.200 A 
ATOM     87  F   UNL A   1      45.496  35.703  26.237  1.00  0.00    -0.200 F 
ATOM     88  F   UNL A   1      46.482  36.676  28.587  1.00  0.00    -0.200 F 
ENDBRANCH  55  78
ENDBRANCH  29  30
ENDBRANCH  22  24
ENDBRANCH  21  22
ENDBRANCH  20  21
ENDBRANCH   1  20
TORSDOF 15
ENDMDL
MODEL 3
REMARK VINA RESULT:     -10.9      5.933     11.355
REMARK SMILES COc1cc(F)ccc1NCC(C)(C)C(=O)OCCOC(=O)c1ccc(-c2c3nc(c(-c4c(F)c(F)c(F)c(F)c4F)c4ccc([nH]4)c(-c4c(F)c(F)c(F)c(F)c4F)c4nc(c(-c5c(F)c(F)c(F)c(F)c5F)c5ccc2[nH]5)C=C4)C=C3)cc1
REMARK SMILES IDX 18 1 17 2 15 3 16 4 12 5 13 6 14 7 11 8 10 9 9 11 3 12 4 13
REMARK SMILES IDX 5 14 8 15 6 16 7 17 2 18 1 19 19 20 20 21 21 22 22 23 23 24
REMARK SMILES IDX 24 25 85 26 25 27 84 28 26 29 27 30 28 31 78 32 29 33 83 34
REMARK SMILES IDX 77 35 79 36 30 37 82 38 76 39 75 40 31 42 63 43 43 44 62 45
REMARK SMILES IDX 44 46 47 47 61 48 80 49 45 50 46 51 60 53 81 54 48 55 32 56
REMARK SMILES IDX 33 57 41 58 34 59 35 60 39 61 42 62 36 63 37 64 40 65 38 66
REMARK SMILES IDX 64 67 65 68 73 69 66 70 67 71 71 72 74 73 68 74 69 75 72 76
REMARK SMILES IDX 70 77 49 78 50 79 58 80 51 81 52 82 56 83 59 84 53 85 54 86
REMARK SMILES IDX 57 87 55 88
REMARK H PARENT 10 10 79 41 47 52
REMARK Flexibility Score: inf
ROOT
ATOM      1  C   UNL A   1      31.547  32.282  26.662  1.00  0.00     0.274 C 
ENDROOT
BRANCH   1   2
ATOM      2  O   UNL A   1      31.797  30.909  27.007  1.00  0.00    -0.462 OA
BRANCH   2   3
ATOM      3  C   UNL A   1      31.725  30.018  25.981  1.00  0.00     0.313 C 
ATOM      4  O   UNL A   1      31.063  30.201  24.968  1.00  0.00    -0.252 OA
BRANCH   3   5
ATOM      5  C   UNL A   1      32.565  28.769  26.262  1.00  0.00     0.080 C 
ATOM      6  C   UNL A   1      31.783  27.866  27.227  1.00  0.00     0.025 C 
ATOM      7  C   UNL A   1      33.893  29.147  26.958  1.00  0.00     0.025 C 
BRANCH   5   8
ATOM      8  C   UNL A   1      32.902  28.022  24.958  1.00  0.00     0.131 C 
BRANCH   8   9
ATOM      9  N   UNL A   1      32.652  26.593  24.983  1.00  0.00    -0.381 N 
ATOM     10  H   UNL A   1      31.765  26.305  25.297  1.00  0.00     0.160 HD
BRANCH   9  11
ATOM     11  C   UNL A   1      33.536  25.593  24.607  1.00  0.00     0.077 A 
ATOM     12  C   UNL A   1      33.357  24.941  23.366  1.00  0.00     0.144 A 
ATOM     13  C   UNL A   1      34.180  23.880  22.973  1.00  0.00     0.087 A 
ATOM     14  C   UNL A   1      35.167  23.432  23.838  1.00  0.00     0.127 A 
ATOM     15  C   UNL A   1      34.566  25.131  25.432  1.00  0.00     0.032 A 
ATOM     16  F   UNL A   1      35.922  22.381  23.496  1.00  0.00    -0.207 F 
ATOM     17  C   UNL A   1      35.375  24.054  25.059  1.00  0.00     0.041 A 
BRANCH  12  18
ATOM     18  O   UNL A   1      32.383  25.431  22.527  1.00  0.00    -0.494 OA
ATOM     19  C   UNL A   1      32.821  25.525  21.174  1.00  0.00     0.278 C 
ENDBRANCH  12  18
ENDBRANCH   9  11
ENDBRANCH   8   9
ENDBRANCH   5   8
ENDBRANCH   3   5
ENDBRANCH   2   3
ENDBRANCH   1   2
BRANCH   1  20
ATOM     20  C   UNL A   1      32.657  33.153  27.252  1.00  0.00     0.275 C 
BRANCH  20  21
ATOM     21  O   UNL A   1      32.165  33.875  28.400  1.00  0.00    -0.458 OA
BRANCH  21  22
ATOM     22  C   UNL A   1      32.898  34.955  28.779  1.00  0.00     0.338 C 
ATOM     23  O   UNL A   1      32.559  36.126  28.752  1.00  0.00    -0.246 OA
BRANCH  22  24
ATOM     24  C   UNL A   1      34.138  34.477  29.432  1.00  0.00     0.060 A 
ATOM     25  C   UNL A   1      34.032  33.822  30.666  1.00  0.00     0.016 A 
ATOM     26  C   UNL A   1      35.380  34.574  28.800  1.00  0.00     0.016 A 
ATOM     27  C   UNL A   1      35.144  33.183  31.226  1.00  0.00     0.010 A 
ATOM     28  C   UNL A   1      36.498  33.967  29.377  1.00  0.00     0.010 A 
ATOM     29  C   UNL A   1      36.383  33.246  30.580  1.00  0.00    -0.014 A 
BRANCH  29  30
ATOM     30  C   UNL A   1      37.609  32.672  31.186  1.00  0.00     0.031 A 
ATOM     31  C   UNL A   1      38.192  31.433  30.593  1.00  0.00     0.074 A 
ATOM     32  C   UNL A   1      38.169  33.197  32.292  1.00  0.00     0.049 A 
ATOM     33  N   UNL A   1      39.163  30.683  31.047  1.00  0.00    -0.248 NA
ATOM     34  C   UNL A   1      37.634  30.998  29.305  1.00  0.00     0.031 C 
ATOM     35  C   UNL A   1      37.798  34.464  32.900  1.00  0.00     0.029 A 
ATOM     36  N   UNL A   1      39.140  32.698  33.129  1.00  0.00    -0.354 N 
ATOM     37  C   UNL A   1      39.372  29.723  30.074  1.00  0.00     0.074 A 
ATOM     38  C   UNL A   1      38.387  29.942  29.035  1.00  0.00     0.031 C 
ATOM     39  C   UNL A   1      38.435  34.591  34.076  1.00  0.00     0.029 A 
ATOM     40  C   UNL A   1      39.262  33.411  34.297  1.00  0.00     0.049 A 
ATOM     41  H   UNL A   1      39.690  31.910  32.913  1.00  0.00     0.167 HD
ATOM     42  C   UNL A   1      40.325  28.767  30.037  1.00  0.00     0.037 A 
ATOM     43  C   UNL A   1      39.929  33.125  35.433  1.00  0.00     0.037 A 
ATOM     44  C   UNL A   1      41.272  28.518  31.089  1.00  0.00     0.049 A 
ATOM     45  C   UNL A   1      40.795  31.898  35.489  1.00  0.00     0.074 A 
ATOM     46  C   UNL A   1      42.282  27.575  31.131  1.00  0.00     0.029 A 
ATOM     47  N   UNL A   1      41.301  29.194  32.300  1.00  0.00    -0.354 N 
ATOM     48  N   UNL A   1      41.033  31.021  34.547  1.00  0.00    -0.248 NA
ATOM     49  C   UNL A   1      41.506  31.632  36.749  1.00  0.00     0.031 C 
ATOM     50  C   UNL A   1      42.884  27.637  32.391  1.00  0.00     0.029 A 
ATOM     51  C   UNL A   1      42.282  28.653  33.116  1.00  0.00     0.049 A 
ATOM     52  H   UNL A   1      40.715  29.946  32.543  1.00  0.00     0.167 HD
ATOM     53  C   UNL A   1      41.964  30.137  35.073  1.00  0.00     0.074 A 
ATOM     54  C   UNL A   1      42.229  30.566  36.430  1.00  0.00     0.031 C 
ATOM     55  C   UNL A   1      42.559  29.084  34.464  1.00  0.00     0.037 A 
BRANCH  42  56
ATOM     56  C   UNL A   1      40.378  27.918  28.811  1.00  0.00     0.064 A 
ATOM     57  C   UNL A   1      41.145  28.308  27.706  1.00  0.00     0.173 A 
ATOM     58  C   UNL A   1      39.655  26.718  28.731  1.00  0.00     0.173 A 
ATOM     59  F   UNL A   1      41.856  29.445  27.744  1.00  0.00    -0.203 F 
ATOM     60  C   UNL A   1      41.185  27.525  26.558  1.00  0.00     0.198 A 
ATOM     61  C   UNL A   1      39.715  25.928  27.589  1.00  0.00     0.198 A 
ATOM     62  F   UNL A   1      38.925  26.299  29.775  1.00  0.00    -0.203 F 
ATOM     63  F   UNL A   1      41.917  27.918  25.507  1.00  0.00    -0.200 F 
ATOM     64  C   UNL A   1      40.475  26.333  26.502  1.00  0.00     0.200 A 
ATOM     65  F   UNL A   1      39.050  24.765  27.546  1.00  0.00    -0.200 F 
ATOM     66  F   UNL A   1      40.531  25.571  25.401  1.00  0.00    -0.200 F 
ENDBRANCH  42  56
BRANCH  43  67
ATOM     67  C   UNL A   1      39.781  34.003  36.621  1.00  0.00     0.064 A 
ATOM     68  C   UNL A   1      38.888  33.675  37.652  1.00  0.00     0.173 A 
ATOM     69  C   UNL A   1      40.544  35.168  36.765  1.00  0.00     0.173 A 
ATOM     70  F   UNL A   1      38.143  32.562  37.566  1.00  0.00    -0.203 F 
ATOM     71  C   UNL A   1      38.760  34.482  38.780  1.00  0.00     0.198 A 
ATOM     72  C   UNL A   1      40.428  35.967  37.901  1.00  0.00     0.198 A 
ATOM     73  F   UNL A   1      41.428  35.511  35.816  1.00  0.00    -0.203 F 
ATOM     74  F   UNL A   1      37.896  34.150  39.748  1.00  0.00    -0.200 F 
ATOM     75  C   UNL A   1      39.535  35.624  38.907  1.00  0.00     0.200 A 
ATOM     76  F   UNL A   1      41.194  37.058  38.031  1.00  0.00    -0.200 F 
ATOM     77  F   UNL A   1      39.429  36.392  40.000  1.00  0.00    -0.200 F 
ENDBRANCH  43  67
BRANCH  55  78
ATOM     78  C   UNL A   1      43.606  28.327  35.225  1.00  0.00     0.064 A 
ATOM     79  C   UNL A   1      43.237  27.267  36.067  1.00  0.00     0.173 A 
ATOM     80  C   UNL A   1      44.951  28.718  35.210  1.00  0.00     0.173 A 
ATOM     81  F   UNL A   1      41.960  26.857  36.116  1.00  0.00    -0.203 F 
ATOM     82  C   UNL A   1      44.169  26.649  36.894  1.00  0.00     0.198 A 
ATOM     83  C   UNL A   1      45.888  28.081  36.020  1.00  0.00     0.198 A 
ATOM     84  F   UNL A   1      45.357  29.713  34.406  1.00  0.00    -0.203 F 
ATOM     85  F   UNL A   1      43.782  25.674  37.727  1.00  0.00    -0.200 F 
ATOM     86  C   UNL A   1      45.494  27.058  36.872  1.00  0.00     0.200 A 
ATOM     87  F   UNL A   1      47.173  28.461  35.983  1.00  0.00    -0.200 F 
ATOM     88  F   UNL A   1      46.391  26.468  37.674  1.00  0.00    -0.200 F 
ENDBRANCH  55  78
ENDBRANCH  29  30
ENDBRANCH  22  24
ENDBRANCH  21  22
ENDBRANCH  20  21
ENDBRANCH   1  20
TORSDOF 15
ENDMDL
