MODEL 1
REMARK VINA RESULT:     -11.1      0.000      0.000
REMARK SMILES CCOc1ccc(Cl)cc1NS(=O)(=O)c1cc(C(=O)OCCOC(=O)c2ccc(-c3c4nc(c(-c5c(F)c(F)c(F)c(F)c5F)c5ccc([nH]5)c(-c5c(F)c(F)c(F)c(F)c5F)c5nc(c(-c6c(F)c(F)c(F)c(F)c6F)c6ccc3[nH]6)C=C5)C=C4)cc2)cs1
REMARK SMILES IDX 20 1 18 2 19 3 17 4 15 5 16 6 90 7 89 8 12 9 13 10 14 11
REMARK SMILES IDX 11 12 10 14 4 15 5 16 6 17 9 18 7 19 8 20 3 21 2 22 1 23
REMARK SMILES IDX 21 24 22 25 23 26 24 27 25 28 26 29 27 30 88 31 28 32 87 33
REMARK SMILES IDX 29 34 30 35 31 36 81 37 32 38 86 39 80 40 82 41 33 42 85 43
REMARK SMILES IDX 79 44 78 45 34 47 66 48 46 49 65 50 47 51 50 52 64 53 83 54
REMARK SMILES IDX 48 55 49 56 63 58 84 59 51 60 35 61 36 62 44 63 37 64 38 65
REMARK SMILES IDX 42 66 45 67 39 68 40 69 43 70 41 71 67 72 68 73 76 74 69 75
REMARK SMILES IDX 70 76 74 77 77 78 71 79 72 80 75 81 73 82 52 83 53 84 61 85
REMARK SMILES IDX 54 86 55 87 59 88 62 89 56 90 57 91 60 92 58 93
REMARK H PARENT 11 13 82 46 50 57
REMARK Flexibility Score: inf
ROOT
ATOM      1  O   UNL A   1      41.550  20.272  26.183  1.00  0.00    -0.458 OA
ENDROOT
BRANCH   1   2
ATOM      2  C   UNL A   1      41.434  21.421  26.912  1.00  0.00     0.339 C 
ATOM      3  O   UNL A   1      42.306  21.873  27.631  1.00  0.00    -0.246 OA
BRANCH   2   4
ATOM      4  C   UNL A   1      40.159  22.113  26.694  1.00  0.00     0.072 A 
ATOM      5  C   UNL A   1      38.019  22.621  25.854  1.00  0.00     0.141 A 
ATOM      6  C   UNL A   1      38.997  21.647  25.990  1.00  0.00     0.050 A 
ATOM      7  S   UNL A   1      38.436  24.040  26.710  1.00  0.00    -0.130 S 
ATOM      8  C   UNL A   1      39.949  23.399  27.163  1.00  0.00     0.082 A 
BRANCH   5   9
ATOM      9  S   UNL A   1      36.472  22.656  24.968  1.00  0.00     0.271 S 
ATOM     10  O   UNL A   1      36.694  22.060  23.669  1.00  0.00    -0.200 OA
ATOM     11  O   UNL A   1      36.020  24.024  25.103  1.00  0.00    -0.200 OA
BRANCH   9  12
ATOM     12  N   UNL A   1      35.337  21.704  25.795  1.00  0.00    -0.275 N 
ATOM     13  H   UNL A   1      35.247  21.773  26.773  1.00  0.00     0.180 HD
BRANCH  12  14
ATOM     14  C   UNL A   1      34.506  20.790  25.048  1.00  0.00     0.092 A 
ATOM     15  C   UNL A   1      33.251  21.240  24.600  1.00  0.00     0.143 A 
ATOM     16  C   UNL A   1      32.374  20.372  23.944  1.00  0.00     0.050 A 
ATOM     17  C   UNL A   1      32.721  19.034  23.773  1.00  0.00     0.024 A 
ATOM     18  C   UNL A   1      34.838  19.444  24.881  1.00  0.00     0.051 A 
ATOM     19  C   UNL A   1      33.954  18.581  24.228  1.00  0.00     0.043 A 
ATOM     20  Cl  UNL A   1      34.391  16.938  23.959  1.00  0.00    -0.084 Cl
BRANCH  15  21
ATOM     21  O   UNL A   1      32.941  22.574  24.684  1.00  0.00    -0.492 OA
BRANCH  21  22
ATOM     22  C   UNL A   1      32.457  23.128  23.453  1.00  0.00     0.226 C 
ATOM     23  C   UNL A   1      33.571  23.422  22.460  1.00  0.00     0.049 C 
ENDBRANCH  21  22
ENDBRANCH  15  21
ENDBRANCH  12  14
ENDBRANCH   9  12
ENDBRANCH   5   9
ENDBRANCH   2   4
ENDBRANCH   1   2
BRANCH   1  24
ATOM     24  C   UNL A   1      42.364  19.238  26.773  1.00  0.00     0.275 C 
BRANCH  24  25
ATOM     25  C   UNL A   1      43.212  18.496  25.732  1.00  0.00     0.275 C 
BRANCH  25  26
ATOM     26  O   UNL A   1      43.439  19.278  24.542  1.00  0.00    -0.458 OA
BRANCH  26  27
ATOM     27  C   UNL A   1      44.736  19.595  24.311  1.00  0.00     0.338 C 
ATOM     28  O   UNL A   1      45.571  18.889  23.772  1.00  0.00    -0.246 OA
BRANCH  27  29
ATOM     29  C   UNL A   1      44.984  21.006  24.661  1.00  0.00     0.060 A 
ATOM     30  C   UNL A   1      45.539  21.267  25.915  1.00  0.00     0.016 A 
ATOM     31  C   UNL A   1      44.611  22.061  23.825  1.00  0.00     0.016 A 
ATOM     32  C   UNL A   1      45.723  22.578  26.344  1.00  0.00     0.010 A 
ATOM     33  C   UNL A   1      44.803  23.383  24.256  1.00  0.00     0.010 A 
ATOM     34  C   UNL A   1      45.355  23.651  25.522  1.00  0.00    -0.014 A 
BRANCH  34  35
ATOM     35  C   UNL A   1      45.524  25.043  26.019  1.00  0.00     0.031 A 
ATOM     36  C   UNL A   1      46.855  25.730  25.916  1.00  0.00     0.074 A 
ATOM     37  C   UNL A   1      44.467  25.710  26.521  1.00  0.00     0.049 A 
ATOM     38  N   UNL A   1      47.211  26.918  26.339  1.00  0.00    -0.248 NA
ATOM     39  C   UNL A   1      47.930  24.983  25.247  1.00  0.00     0.031 C 
ATOM     40  C   UNL A   1      43.110  25.175  26.633  1.00  0.00     0.029 A 
ATOM     41  N   UNL A   1      44.366  26.986  27.019  1.00  0.00    -0.354 N 
ATOM     42  C   UNL A   1      48.553  27.053  26.012  1.00  0.00     0.074 A 
ATOM     43  C   UNL A   1      48.953  25.819  25.364  1.00  0.00     0.031 C 
ATOM     44  C   UNL A   1      42.309  26.120  27.151  1.00  0.00     0.029 A 
ATOM     45  C   UNL A   1      43.104  27.308  27.454  1.00  0.00     0.049 A 
ATOM     46  H   UNL A   1      45.126  27.610  27.061  1.00  0.00     0.167 HD
ATOM     47  C   UNL A   1      49.375  28.108  26.227  1.00  0.00     0.037 A 
ATOM     48  C   UNL A   1      42.643  28.424  28.051  1.00  0.00     0.037 A 
ATOM     49  C   UNL A   1      48.971  29.347  26.842  1.00  0.00     0.049 A 
ATOM     50  C   UNL A   1      43.586  29.566  28.317  1.00  0.00     0.074 A 
ATOM     51  C   UNL A   1      49.732  30.478  27.089  1.00  0.00     0.029 A 
ATOM     52  N   UNL A   1      47.692  29.621  27.303  1.00  0.00    -0.354 N 
ATOM     53  N   UNL A   1      44.858  29.675  28.021  1.00  0.00    -0.248 NA
ATOM     54  C   UNL A   1      43.030  30.738  29.010  1.00  0.00     0.031 C 
ATOM     55  C   UNL A   1      48.924  31.421  27.734  1.00  0.00     0.029 A 
ATOM     56  C   UNL A   1      47.647  30.895  27.849  1.00  0.00     0.049 A 
ATOM     57  H   UNL A   1      46.927  29.003  27.251  1.00  0.00     0.167 HD
ATOM     58  C   UNL A   1      45.249  30.927  28.474  1.00  0.00     0.074 A 
ATOM     59  C   UNL A   1      44.077  31.551  29.050  1.00  0.00     0.031 C 
ATOM     60  C   UNL A   1      46.473  31.507  28.417  1.00  0.00     0.037 A 
BRANCH  47  61
ATOM     61  C   UNL A   1      50.812  27.962  25.821  1.00  0.00     0.064 A 
ATOM     62  C   UNL A   1      51.817  27.662  26.751  1.00  0.00     0.173 A 
ATOM     63  C   UNL A   1      51.180  28.088  24.473  1.00  0.00     0.173 A 
ATOM     64  F   UNL A   1      51.519  27.543  28.054  1.00  0.00    -0.203 F 
ATOM     65  C   UNL A   1      53.143  27.516  26.349  1.00  0.00     0.198 A 
ATOM     66  C   UNL A   1      52.501  27.915  24.071  1.00  0.00     0.198 A 
ATOM     67  F   UNL A   1      50.255  28.367  23.542  1.00  0.00    -0.203 F 
ATOM     68  F   UNL A   1      54.095  27.271  27.260  1.00  0.00    -0.200 F 
ATOM     69  C   UNL A   1      53.483  27.637  25.009  1.00  0.00     0.200 A 
ATOM     70  F   UNL A   1      52.825  28.021  22.774  1.00  0.00    -0.200 F 
ATOM     71  F   UNL A   1      54.758  27.491  24.624  1.00  0.00    -0.200 F 
ENDBRANCH  47  61
BRANCH  48  72
ATOM     72  C   UNL A   1      41.217  28.508  28.458  1.00  0.00     0.064 A 
ATOM     73  C   UNL A   1      40.240  28.995  27.580  1.00  0.00     0.173 A 
ATOM     74  C   UNL A   1      40.803  28.103  29.736  1.00  0.00     0.173 A 
ATOM     75  F   UNL A   1      40.592  29.422  26.358  1.00  0.00    -0.203 F 
ATOM     76  C   UNL A   1      38.904  29.084  27.967  1.00  0.00     0.198 A 
ATOM     77  C   UNL A   1      39.464  28.166  30.112  1.00  0.00     0.198 A 
ATOM     78  F   UNL A   1      41.700  27.634  30.616  1.00  0.00    -0.203 F 
ATOM     79  F   UNL A   1      37.997  29.592  27.123  1.00  0.00    -0.200 F 
ATOM     80  C   UNL A   1      38.517  28.662  29.231  1.00  0.00     0.200 A 
ATOM     81  F   UNL A   1      39.092  27.748  31.330  1.00  0.00    -0.200 F 
ATOM     82  F   UNL A   1      37.231  28.742  29.600  1.00  0.00    -0.200 F 
ENDBRANCH  48  72
BRANCH  60  83
ATOM     83  C   UNL A   1      46.603  32.896  28.969  1.00  0.00     0.064 A 
ATOM     84  C   UNL A   1      46.364  34.028  28.175  1.00  0.00     0.173 A 
ATOM     85  C   UNL A   1      46.934  33.097  30.317  1.00  0.00     0.173 A 
ATOM     86  F   UNL A   1      46.060  33.888  26.875  1.00  0.00    -0.203 F 
ATOM     87  C   UNL A   1      46.472  35.310  28.707  1.00  0.00     0.198 A 
ATOM     88  C   UNL A   1      47.017  34.380  30.852  1.00  0.00     0.198 A 
ATOM     89  F   UNL A   1      47.167  32.048  31.120  1.00  0.00    -0.203 F 
ATOM     90  F   UNL A   1      46.280  36.378  27.919  1.00  0.00    -0.200 F 
ATOM     91  C   UNL A   1      46.792  35.486  30.044  1.00  0.00     0.200 A 
ATOM     92  F   UNL A   1      47.315  34.547  32.147  1.00  0.00    -0.200 F 
ATOM     93  F   UNL A   1      46.890  36.720  30.555  1.00  0.00    -0.200 F 
ENDBRANCH  60  83
ENDBRANCH  34  35
ENDBRANCH  27  29
ENDBRANCH  26  27
ENDBRANCH  25  26
ENDBRANCH  24  25
ENDBRANCH   1  24
TORSDOF 16
ENDMDL
MODEL 2
REMARK VINA RESULT:     -10.9      5.315      7.683
REMARK SMILES CCOc1ccc(Cl)cc1NS(=O)(=O)c1cc(C(=O)OCCOC(=O)c2ccc(-c3c4nc(c(-c5c(F)c(F)c(F)c(F)c5F)c5ccc([nH]5)c(-c5c(F)c(F)c(F)c(F)c5F)c5nc(c(-c6c(F)c(F)c(F)c(F)c6F)c6ccc3[nH]6)C=C5)C=C4)cc2)cs1
REMARK SMILES IDX 20 1 18 2 19 3 17 4 15 5 16 6 90 7 89 8 12 9 13 10 14 11
REMARK SMILES IDX 11 12 10 14 4 15 5 16 6 17 9 18 7 19 8 20 3 21 2 22 1 23
REMARK SMILES IDX 21 24 22 25 23 26 24 27 25 28 26 29 27 30 88 31 28 32 87 33
REMARK SMILES IDX 29 34 30 35 31 36 81 37 32 38 86 39 80 40 82 41 33 42 85 43
REMARK SMILES IDX 79 44 78 45 34 47 66 48 46 49 65 50 47 51 50 52 64 53 83 54
REMARK SMILES IDX 48 55 49 56 63 58 84 59 51 60 35 61 36 62 44 63 37 64 38 65
REMARK SMILES IDX 42 66 45 67 39 68 40 69 43 70 41 71 67 72 68 73 76 74 69 75
REMARK SMILES IDX 70 76 74 77 77 78 71 79 72 80 75 81 73 82 52 83 53 84 61 85
REMARK SMILES IDX 54 86 55 87 59 88 62 89 56 90 57 91 60 92 58 93
REMARK H PARENT 11 13 82 46 50 57
REMARK Flexibility Score: inf
ROOT
ATOM      1  O   UNL A   1      41.573  21.046  25.567  1.00  0.00    -0.458 OA
ENDROOT
BRANCH   1   2
ATOM      2  C   UNL A   1      40.623  21.033  26.549  1.00  0.00     0.339 C 
ATOM      3  O   UNL A   1      40.754  20.484  27.628  1.00  0.00    -0.246 OA
BRANCH   2   4
ATOM      4  C   UNL A   1      39.430  21.814  26.204  1.00  0.00     0.072 A 
ATOM      5  C   UNL A   1      37.428  22.470  25.154  1.00  0.00     0.141 A 
ATOM      6  C   UNL A   1      38.314  21.428  25.387  1.00  0.00     0.050 A 
ATOM      7  S   UNL A   1      37.860  23.861  26.045  1.00  0.00    -0.130 S 
ATOM      8  C   UNL A   1      39.270  23.116  26.648  1.00  0.00     0.082 A 
BRANCH   5   9
ATOM      9  S   UNL A   1      35.985  22.609  24.116  1.00  0.00     0.271 S 
ATOM     10  O   UNL A   1      35.215  21.393  24.264  1.00  0.00    -0.200 OA
ATOM     11  O   UNL A   1      36.513  23.015  22.831  1.00  0.00    -0.200 OA
BRANCH   9  12
ATOM     12  N   UNL A   1      35.032  23.903  24.662  1.00  0.00    -0.275 N 
ATOM     13  H   UNL A   1      35.450  24.677  25.105  1.00  0.00     0.180 HD
BRANCH  12  14
ATOM     14  C   UNL A   1      33.602  23.856  24.468  1.00  0.00     0.092 A 
ATOM     15  C   UNL A   1      33.051  24.542  23.371  1.00  0.00     0.143 A 
ATOM     16  C   UNL A   1      31.668  24.596  23.185  1.00  0.00     0.050 A 
ATOM     17  C   UNL A   1      30.819  24.008  24.118  1.00  0.00     0.024 A 
ATOM     18  C   UNL A   1      32.741  23.279  25.403  1.00  0.00     0.051 A 
ATOM     19  C   UNL A   1      31.358  23.341  25.213  1.00  0.00     0.043 A 
ATOM     20  Cl  UNL A   1      30.296  22.571  26.328  1.00  0.00    -0.084 Cl
BRANCH  15  21
ATOM     21  O   UNL A   1      33.882  25.045  22.401  1.00  0.00    -0.492 OA
BRANCH  21  22
ATOM     22  C   UNL A   1      33.471  26.325  21.903  1.00  0.00     0.226 C 
ATOM     23  C   UNL A   1      33.698  27.448  22.904  1.00  0.00     0.049 C 
ENDBRANCH  21  22
ENDBRANCH  15  21
ENDBRANCH  12  14
ENDBRANCH   9  12
ENDBRANCH   5   9
ENDBRANCH   2   4
ENDBRANCH   1   2
BRANCH   1  24
ATOM     24  C   UNL A   1      42.931  21.230  26.015  1.00  0.00     0.275 C 
BRANCH  24  25
ATOM     25  C   UNL A   1      43.780  22.010  25.003  1.00  0.00     0.275 C 
BRANCH  25  26
ATOM     26  O   UNL A   1      43.265  23.332  24.749  1.00  0.00    -0.458 OA
BRANCH  26  27
ATOM     27  C   UNL A   1      44.086  24.342  25.121  1.00  0.00     0.338 C 
ATOM     28  O   UNL A   1      45.127  24.670  24.577  1.00  0.00    -0.246 OA
BRANCH  27  29
ATOM     29  C   UNL A   1      43.470  25.125  26.208  1.00  0.00     0.060 A 
ATOM     30  C   UNL A   1      43.849  26.464  26.327  1.00  0.00     0.016 A 
ATOM     31  C   UNL A   1      42.606  24.554  27.145  1.00  0.00     0.016 A 
ATOM     32  C   UNL A   1      43.372  27.239  27.380  1.00  0.00     0.010 A 
ATOM     33  C   UNL A   1      42.120  25.338  28.202  1.00  0.00     0.010 A 
ATOM     34  C   UNL A   1      42.505  26.686  28.332  1.00  0.00    -0.014 A 
BRANCH  34  35
ATOM     35  C   UNL A   1      42.040  27.522  29.470  1.00  0.00     0.031 A 
ATOM     36  C   UNL A   1      42.794  27.525  30.769  1.00  0.00     0.074 A 
ATOM     37  C   UNL A   1      40.965  28.321  29.321  1.00  0.00     0.049 A 
ATOM     38  N   UNL A   1      42.515  28.147  31.888  1.00  0.00    -0.248 NA
ATOM     39  C   UNL A   1      44.025  26.724  30.816  1.00  0.00     0.031 C 
ATOM     40  C   UNL A   1      40.173  28.447  28.099  1.00  0.00     0.029 A 
ATOM     41  N   UNL A   1      40.361  29.184  30.202  1.00  0.00    -0.354 N 
ATOM     42  C   UNL A   1      43.519  27.794  32.779  1.00  0.00     0.074 A 
ATOM     43  C   UNL A   1      44.409  26.893  32.074  1.00  0.00     0.031 C 
ATOM     44  C   UNL A   1      39.197  29.347  28.300  1.00  0.00     0.029 A 
ATOM     45  C   UNL A   1      39.263  29.823  29.679  1.00  0.00     0.049 A 
ATOM     46  H   UNL A   1      40.683  29.330  31.121  1.00  0.00     0.167 HD
ATOM     47  C   UNL A   1      43.686  28.188  34.065  1.00  0.00     0.037 A 
ATOM     48  C   UNL A   1      38.394  30.678  30.252  1.00  0.00     0.037 A 
ATOM     49  C   UNL A   1      42.821  29.109  34.757  1.00  0.00     0.049 A 
ATOM     50  C   UNL A   1      38.578  31.067  31.694  1.00  0.00     0.074 A 
ATOM     51  C   UNL A   1      42.920  29.577  36.057  1.00  0.00     0.029 A 
ATOM     52  N   UNL A   1      41.698  29.707  34.205  1.00  0.00    -0.354 N 
ATOM     53  N   UNL A   1      39.520  30.712  32.534  1.00  0.00    -0.248 NA
ATOM     54  C   UNL A   1      37.571  31.970  32.272  1.00  0.00     0.031 C 
ATOM     55  C   UNL A   1      41.838  30.427  36.304  1.00  0.00     0.029 A 
ATOM     56  C   UNL A   1      41.087  30.524  35.143  1.00  0.00     0.049 A 
ATOM     57  H   UNL A   1      41.382  29.572  33.283  1.00  0.00     0.167 HD
ATOM     58  C   UNL A   1      39.231  31.357  33.728  1.00  0.00     0.074 A 
ATOM     59  C   UNL A   1      38.035  32.141  33.502  1.00  0.00     0.031 C 
ATOM     60  C   UNL A   1      39.898  31.303  34.906  1.00  0.00     0.037 A 
BRANCH  47  61
ATOM     61  C   UNL A   1      44.838  27.600  34.826  1.00  0.00     0.064 A 
ATOM     62  C   UNL A   1      44.722  26.395  35.531  1.00  0.00     0.173 A 
ATOM     63  C   UNL A   1      46.089  28.237  34.815  1.00  0.00     0.173 A 
ATOM     64  F   UNL A   1      43.545  25.753  35.582  1.00  0.00    -0.203 F 
ATOM     65  C   UNL A   1      45.810  25.860  36.218  1.00  0.00     0.198 A 
ATOM     66  C   UNL A   1      47.180  27.687  35.481  1.00  0.00     0.198 A 
ATOM     67  F   UNL A   1      46.256  29.390  34.148  1.00  0.00    -0.203 F 
ATOM     68  F   UNL A   1      45.665  24.728  36.921  1.00  0.00    -0.200 F 
ATOM     69  C   UNL A   1      47.039  26.503  36.188  1.00  0.00     0.200 A 
ATOM     70  F   UNL A   1      48.370  28.303  35.439  1.00  0.00    -0.200 F 
ATOM     71  F   UNL A   1      48.084  25.984  36.845  1.00  0.00    -0.200 F 
ENDBRANCH  47  61
BRANCH  48  72
ATOM     72  C   UNL A   1      37.254  31.211  29.463  1.00  0.00     0.064 A 
ATOM     73  C   UNL A   1      37.238  32.540  29.020  1.00  0.00     0.173 A 
ATOM     74  C   UNL A   1      36.156  30.400  29.138  1.00  0.00     0.173 A 
ATOM     75  F   UNL A   1      38.252  33.361  29.331  1.00  0.00    -0.203 F 
ATOM     76  C   UNL A   1      36.163  33.041  28.289  1.00  0.00     0.198 A 
ATOM     77  C   UNL A   1      35.095  30.894  28.384  1.00  0.00     0.198 A 
ATOM     78  F   UNL A   1      36.121  29.122  29.544  1.00  0.00    -0.203 F 
ATOM     79  F   UNL A   1      36.153  34.327  27.912  1.00  0.00    -0.200 F 
ATOM     80  C   UNL A   1      35.096  32.216  27.966  1.00  0.00     0.200 A 
ATOM     81  F   UNL A   1      34.072  30.090  28.065  1.00  0.00    -0.200 F 
ATOM     82  F   UNL A   1      34.064  32.697  27.257  1.00  0.00    -0.200 F 
ENDBRANCH  48  72
BRANCH  60  83
ATOM     83  C   UNL A   1      39.366  32.133  36.037  1.00  0.00     0.064 A 
ATOM     84  C   UNL A   1      39.818  33.442  36.264  1.00  0.00     0.173 A 
ATOM     85  C   UNL A   1      38.366  31.627  36.881  1.00  0.00     0.173 A 
ATOM     86  F   UNL A   1      40.784  33.965  35.494  1.00  0.00    -0.203 F 
ATOM     87  C   UNL A   1      39.302  34.206  37.308  1.00  0.00     0.198 A 
ATOM     88  C   UNL A   1      37.835  32.403  37.908  1.00  0.00     0.198 A 
ATOM     89  F   UNL A   1      37.897  30.384  36.703  1.00  0.00    -0.203 F 
ATOM     90  F   UNL A   1      39.778  35.439  37.531  1.00  0.00    -0.200 F 
ATOM     91  C   UNL A   1      38.307  33.690  38.124  1.00  0.00     0.200 A 
ATOM     92  F   UNL A   1      36.866  31.906  38.690  1.00  0.00    -0.200 F 
ATOM     93  F   UNL A   1      37.809  34.428  39.125  1.00  0.00    -0.200 F 
ENDBRANCH  60  83
ENDBRANCH  34  35
ENDBRANCH  27  29
ENDBRANCH  26  27
ENDBRANCH  25  26
ENDBRANCH  24  25
ENDBRANCH   1  24
TORSDOF 16
ENDMDL
MODEL 3
REMARK VINA RESULT:     -10.7      7.552     12.929
REMARK SMILES CCOc1ccc(Cl)cc1NS(=O)(=O)c1cc(C(=O)OCCOC(=O)c2ccc(-c3c4nc(c(-c5c(F)c(F)c(F)c(F)c5F)c5ccc([nH]5)c(-c5c(F)c(F)c(F)c(F)c5F)c5nc(c(-c6c(F)c(F)c(F)c(F)c6F)c6ccc3[nH]6)C=C5)C=C4)cc2)cs1
REMARK SMILES IDX 20 1 18 2 19 3 17 4 15 5 16 6 90 7 89 8 12 9 13 10 14 11
REMARK SMILES IDX 11 12 10 14 4 15 5 16 6 17 9 18 7 19 8 20 3 21 2 22 1 23
REMARK SMILES IDX 21 24 22 25 23 26 24 27 25 28 26 29 27 30 88 31 28 32 87 33
REMARK SMILES IDX 29 34 30 35 31 36 81 37 32 38 86 39 80 40 82 41 33 42 85 43
REMARK SMILES IDX 79 44 78 45 34 47 66 48 46 49 65 50 47 51 50 52 64 53 83 54
REMARK SMILES IDX 48 55 49 56 63 58 84 59 51 60 35 61 36 62 44 63 37 64 38 65
REMARK SMILES IDX 42 66 45 67 39 68 40 69 43 70 41 71 67 72 68 73 76 74 69 75
REMARK SMILES IDX 70 76 74 77 77 78 71 79 72 80 75 81 73 82 52 83 53 84 61 85
REMARK SMILES IDX 54 86 55 87 59 88 62 89 56 90 57 91 60 92 58 93
REMARK H PARENT 11 13 82 46 50 57
REMARK Flexibility Score: inf
ROOT
ATOM      1  O   UNL A   1      34.385  34.899  28.275  1.00  0.00    -0.458 OA
ENDROOT
BRANCH   1   2
ATOM      2  C   UNL A   1      35.204  33.978  28.863  1.00  0.00     0.339 C 
ATOM      3  O   UNL A   1      35.907  34.199  29.833  1.00  0.00    -0.246 OA
BRANCH   2   4
ATOM      4  C   UNL A   1      35.111  32.651  28.246  1.00  0.00     0.072 A 
ATOM      5  C   UNL A   1      34.203  30.709  27.274  1.00  0.00     0.141 A 
ATOM      6  C   UNL A   1      33.975  32.032  27.622  1.00  0.00     0.050 A 
ATOM      7  S   UNL A   1      35.829  30.266  27.554  1.00  0.00    -0.130 S 
ATOM      8  C   UNL A   1      36.193  31.787  28.232  1.00  0.00     0.082 A 
BRANCH   5   9
ATOM      9  S   UNL A   1      33.135  29.437  26.624  1.00  0.00     0.271 S 
ATOM     10  O   UNL A   1      31.811  29.651  27.165  1.00  0.00    -0.200 OA
ATOM     11  O   UNL A   1      33.861  28.209  26.870  1.00  0.00    -0.200 OA
BRANCH   9  12
ATOM     12  N   UNL A   1      33.045  29.597  24.937  1.00  0.00    -0.275 N 
ATOM     13  H   UNL A   1      33.671  30.188  24.458  1.00  0.00     0.180 HD
BRANCH  12  14
ATOM     14  C   UNL A   1      32.038  28.857  24.212  1.00  0.00     0.092 A 
ATOM     15  C   UNL A   1      32.409  27.648  23.597  1.00  0.00     0.143 A 
ATOM     16  C   UNL A   1      31.496  26.936  22.816  1.00  0.00     0.050 A 
ATOM     17  C   UNL A   1      30.219  27.448  22.601  1.00  0.00     0.024 A 
ATOM     18  C   UNL A   1      30.760  29.366  23.980  1.00  0.00     0.051 A 
ATOM     19  C   UNL A   1      29.853  28.650  23.194  1.00  0.00     0.043 A 
ATOM     20  Cl  UNL A   1      28.253  29.242  22.964  1.00  0.00    -0.084 Cl
BRANCH  15  21
ATOM     21  O   UNL A   1      33.633  27.093  23.878  1.00  0.00    -0.492 OA
BRANCH  21  22
ATOM     22  C   UNL A   1      33.623  25.660  23.889  1.00  0.00     0.226 C 
ATOM     23  C   UNL A   1      34.548  25.071  24.943  1.00  0.00     0.049 C 
ENDBRANCH  21  22
ENDBRANCH  15  21
ENDBRANCH  12  14
ENDBRANCH   9  12
ENDBRANCH   5   9
ENDBRANCH   2   4
ENDBRANCH   1   2
BRANCH   1  24
ATOM     24  C   UNL A   1      33.038  34.955  28.790  1.00  0.00     0.275 C 
BRANCH  24  25
ATOM     25  C   UNL A   1      32.889  35.970  29.931  1.00  0.00     0.275 C 
BRANCH  25  26
ATOM     26  O   UNL A   1      32.255  35.405  31.095  1.00  0.00    -0.458 OA
BRANCH  26  27
ATOM     27  C   UNL A   1      32.702  35.894  32.277  1.00  0.00     0.338 C 
ATOM     28  O   UNL A   1      32.172  36.762  32.950  1.00  0.00    -0.246 OA
BRANCH  27  29
ATOM     29  C   UNL A   1      33.862  35.113  32.745  1.00  0.00     0.060 A 
ATOM     30  C   UNL A   1      35.105  35.750  32.743  1.00  0.00     0.016 A 
ATOM     31  C   UNL A   1      33.763  33.766  33.101  1.00  0.00     0.016 A 
ATOM     32  C   UNL A   1      36.255  35.048  33.091  1.00  0.00     0.010 A 
ATOM     33  C   UNL A   1      34.923  33.062  33.459  1.00  0.00     0.010 A 
ATOM     34  C   UNL A   1      36.179  33.696  33.450  1.00  0.00    -0.014 A 
BRANCH  34  35
ATOM     35  C   UNL A   1      37.427  32.957  33.781  1.00  0.00     0.031 A 
ATOM     36  C   UNL A   1      38.129  33.197  35.087  1.00  0.00     0.074 A 
ATOM     37  C   UNL A   1      37.905  32.031  32.927  1.00  0.00     0.049 A 
ATOM     38  N   UNL A   1      39.253  32.689  35.529  1.00  0.00    -0.248 NA
ATOM     39  C   UNL A   1      37.482  34.131  36.018  1.00  0.00     0.031 C 
ATOM     40  C   UNL A   1      37.293  31.669  31.649  1.00  0.00     0.029 A 
ATOM     41  N   UNL A   1      39.010  31.220  33.011  1.00  0.00    -0.354 N 
ATOM     42  C   UNL A   1      39.461  33.258  36.778  1.00  0.00     0.074 A 
ATOM     43  C   UNL A   1      38.353  34.161  37.018  1.00  0.00     0.031 C 
ATOM     44  C   UNL A   1      38.020  30.697  31.076  1.00  0.00     0.029 A 
ATOM     45  C   UNL A   1      39.176  30.403  31.920  1.00  0.00     0.049 A 
ATOM     46  H   UNL A   1      39.625  31.224  33.780  1.00  0.00     0.167 HD
ATOM     47  C   UNL A   1      40.480  33.045  37.646  1.00  0.00     0.037 A 
ATOM     48  C   UNL A   1      40.160  29.532  31.621  1.00  0.00     0.037 A 
ATOM     49  C   UNL A   1      41.566  32.125  37.422  1.00  0.00     0.049 A 
ATOM     50  C   UNL A   1      41.302  29.345  32.582  1.00  0.00     0.074 A 
ATOM     51  C   UNL A   1      42.636  31.833  38.252  1.00  0.00     0.029 A 
ATOM     52  N   UNL A   1      41.719  31.342  36.288  1.00  0.00    -0.354 N 
ATOM     53  N   UNL A   1      41.499  29.904  33.752  1.00  0.00    -0.248 NA
ATOM     54  C   UNL A   1      42.364  28.413  32.177  1.00  0.00     0.031 C 
ATOM     55  C   UNL A   1      43.456  30.904  37.604  1.00  0.00     0.029 A 
ATOM     56  C   UNL A   1      42.874  30.582  36.388  1.00  0.00     0.049 A 
ATOM     57  H   UNL A   1      41.098  31.328  35.523  1.00  0.00     0.167 HD
ATOM     58  C   UNL A   1      42.693  29.380  34.228  1.00  0.00     0.074 A 
ATOM     59  C   UNL A   1      43.170  28.446  33.230  1.00  0.00     0.031 C 
ATOM     60  C   UNL A   1      43.337  29.652  35.390  1.00  0.00     0.037 A 
BRANCH  47  61
ATOM     61  C   UNL A   1      40.489  33.847  38.914  1.00  0.00     0.064 A 
ATOM     62  C   UNL A   1      41.171  35.068  39.014  1.00  0.00     0.173 A 
ATOM     63  C   UNL A   1      39.772  33.402  40.035  1.00  0.00     0.173 A 
ATOM     64  F   UNL A   1      41.881  35.532  37.974  1.00  0.00    -0.203 F 
ATOM     65  C   UNL A   1      41.153  35.803  40.197  1.00  0.00     0.198 A 
ATOM     66  C   UNL A   1      39.735  34.151  41.207  1.00  0.00     0.198 A 
ATOM     67  F   UNL A   1      39.096  32.243  39.990  1.00  0.00    -0.203 F 
ATOM     68  F   UNL A   1      41.846  36.947  40.284  1.00  0.00    -0.200 F 
ATOM     69  C   UNL A   1      40.431  35.347  41.291  1.00  0.00     0.200 A 
ATOM     70  F   UNL A   1      39.026  33.715  42.258  1.00  0.00    -0.200 F 
ATOM     71  F   UNL A   1      40.411  36.058  42.426  1.00  0.00    -0.200 F 
ENDBRANCH  47  61
BRANCH  48  72
ATOM     72  C   UNL A   1      40.117  28.783  30.339  1.00  0.00     0.064 A 
ATOM     73  C   UNL A   1      40.685  29.311  29.172  1.00  0.00     0.173 A 
ATOM     74  C   UNL A   1      39.505  27.523  30.256  1.00  0.00     0.173 A 
ATOM     75  F   UNL A   1      41.255  30.524  29.195  1.00  0.00    -0.203 F 
ATOM     76  C   UNL A   1      40.633  28.611  27.968  1.00  0.00     0.198 A 
ATOM     77  C   UNL A   1      39.479  26.813  29.059  1.00  0.00     0.198 A 
ATOM     78  F   UNL A   1      38.942  26.976  31.345  1.00  0.00    -0.203 F 
ATOM     79  F   UNL A   1      41.147  29.156  26.857  1.00  0.00    -0.200 F 
ATOM     80  C   UNL A   1      40.037  27.360  27.914  1.00  0.00     0.200 A 
ATOM     81  F   UNL A   1      38.911  25.600  29.015  1.00  0.00    -0.200 F 
ATOM     82  F   UNL A   1      39.994  26.685  26.757  1.00  0.00    -0.200 F 
ENDBRANCH  48  72
BRANCH  60  83
ATOM     83  C   UNL A   1      44.613  28.912  35.658  1.00  0.00     0.064 A 
ATOM     84  C   UNL A   1      45.858  29.428  35.269  1.00  0.00     0.173 A 
ATOM     85  C   UNL A   1      44.595  27.689  36.345  1.00  0.00     0.173 A 
ATOM     86  F   UNL A   1      45.927  30.587  34.595  1.00  0.00    -0.203 F 
ATOM     87  C   UNL A   1      47.036  28.737  35.540  1.00  0.00     0.198 A 
ATOM     88  C   UNL A   1      45.776  27.012  36.636  1.00  0.00     0.198 A 
ATOM     89  F   UNL A   1      43.431  27.154  36.743  1.00  0.00    -0.203 F 
ATOM     90  F   UNL A   1      48.211  29.229  35.123  1.00  0.00    -0.200 F 
ATOM     91  C   UNL A   1      46.996  27.534  36.229  1.00  0.00     0.200 A 
ATOM     92  F   UNL A   1      45.736  25.855  37.311  1.00  0.00    -0.200 F 
ATOM     93  F   UNL A   1      48.130  26.872  36.494  1.00  0.00    -0.200 F 
ENDBRANCH  60  83
ENDBRANCH  34  35
ENDBRANCH  27  29
ENDBRANCH  26  27
ENDBRANCH  25  26
ENDBRANCH  24  25
ENDBRANCH   1  24
TORSDOF 16
ENDMDL
