MODEL 1
REMARK VINA RESULT:     -12.0      0.000      0.000
REMARK SMILES CCc1ccccc1O[C@H]1CCC[C@@]([NH2+]C)(C(=O)OCCOC(=O)c2ccc(-c3c4nc(c(-c5c(F)c(F)c(F)c(F)c5F)c5ccc([nH]5)c(-c5c(F)c(F)c(F)c(F)c5F)c5nc(c(-c6c(F)c(F)c(F)c(F)c6F)c6ccc3[nH]6)C=C5)C=C4)cc2)C1
REMARK SMILES IDX 20 1 19 2 17 3 18 4 14 5 10 6 11 7 88 8 12 9 13 10 9 11 8 12
REMARK SMILES IDX 3 13 4 14 5 15 7 16 6 17 2 18 1 19 15 20 16 21 21 24 22 25
REMARK SMILES IDX 23 26 24 27 25 28 26 29 87 30 27 31 86 32 28 33 29 34 30 35
REMARK SMILES IDX 80 36 31 37 85 38 79 39 81 40 32 41 84 42 78 43 77 44 33 46
REMARK SMILES IDX 65 47 45 48 64 49 46 50 49 51 63 52 82 53 47 54 48 55 62 57
REMARK SMILES IDX 83 58 50 59 34 60 35 61 43 62 36 63 37 64 41 65 44 66 38 67
REMARK SMILES IDX 39 68 42 69 40 70 66 71 67 72 75 73 68 74 69 75 73 76 76 77
REMARK SMILES IDX 70 78 71 79 74 80 72 81 51 82 52 83 60 84 53 85 54 86 58 87
REMARK SMILES IDX 61 88 55 89 56 90 59 91 57 92
REMARK H PARENT 15 22 15 23 81 45 49 56
REMARK Flexibility Score: inf
ROOT
ATOM      1  C   UNL A   1      31.914  30.651  26.226  1.00  0.00     0.274 C 
ENDROOT
BRANCH   1   2
ATOM      2  O   UNL A   1      31.317  30.107  25.035  1.00  0.00    -0.457 OA
BRANCH   2   3
ATOM      3  C   UNL A   1      32.165  29.293  24.353  1.00  0.00     0.368 C 
ATOM      4  O   UNL A   1      33.332  29.146  24.729  1.00  0.00    -0.245 OA
BRANCH   3   5
ATOM      5  C   UNL A   1      31.429  28.471  23.171  1.00  0.00     0.197 C 
ATOM      6  C   UNL A   1      32.178  25.755  23.518  1.00  0.00     0.180 C 
ATOM      7  C   UNL A   1      30.673  25.501  23.749  1.00  0.00     0.046 C 
ATOM      8  C   UNL A   1      32.062  27.121  22.584  1.00  0.00     0.126 C 
ATOM      9  C   UNL A   1      29.973  26.697  24.412  1.00  0.00     0.011 C 
ATOM     10  C   UNL A   1      30.021  28.040  23.641  1.00  0.00     0.081 C 
BRANCH   6  11
ATOM     11  O   UNL A   1      33.073  25.765  24.752  1.00  0.00    -0.490 OA
BRANCH  11  12
ATOM     12  C   UNL A   1      33.710  24.701  25.459  1.00  0.00     0.122 A 
ATOM     13  C   UNL A   1      33.029  23.617  26.236  1.00  0.00    -0.006 A 
ATOM     14  C   UNL A   1      33.808  22.444  26.546  1.00  0.00     0.007 A 
ATOM     15  C   UNL A   1      35.163  22.336  26.347  1.00  0.00     0.001 A 
ATOM     16  C   UNL A   1      35.112  24.548  25.303  1.00  0.00     0.047 A 
ATOM     17  C   UNL A   1      35.818  23.402  25.764  1.00  0.00     0.004 A 
BRANCH  13  18
ATOM     18  C   UNL A   1      31.635  23.265  26.974  1.00  0.00     0.036 C 
ATOM     19  C   UNL A   1      30.065  23.225  26.839  1.00  0.00     0.009 C 
ENDBRANCH  13  18
ENDBRANCH  11  12
ENDBRANCH   6  11
BRANCH   5  20
ATOM     20  N   UNL A   1      31.210  29.472  22.031  1.00  0.00    -0.334 N 
ATOM     21  C   UNL A   1      29.825  29.932  21.836  1.00  0.00     0.331 C 
ATOM     22  H   UNL A   1      31.517  29.030  21.164  1.00  0.00     0.347 HD
ATOM     23  H   UNL A   1      31.743  30.303  22.287  1.00  0.00     0.347 HD
ENDBRANCH   5  20
ENDBRANCH   3   5
ENDBRANCH   2   3
ENDBRANCH   1   2
BRANCH   1  24
ATOM     24  C   UNL A   1      31.200  31.947  26.629  1.00  0.00     0.275 C 
BRANCH  24  25
ATOM     25  O   UNL A   1      31.879  33.257  26.777  1.00  0.00    -0.458 OA
BRANCH  25  26
ATOM     26  C   UNL A   1      32.860  33.480  27.678  1.00  0.00     0.338 C 
ATOM     27  O   UNL A   1      32.676  34.393  28.436  1.00  0.00    -0.246 OA
BRANCH  26  28
ATOM     28  C   UNL A   1      34.255  32.872  27.924  1.00  0.00     0.060 A 
ATOM     29  C   UNL A   1      34.207  31.628  28.569  1.00  0.00     0.016 A 
ATOM     30  C   UNL A   1      35.485  33.538  28.038  1.00  0.00     0.016 A 
ATOM     31  C   UNL A   1      35.189  31.227  29.494  1.00  0.00     0.010 A 
ATOM     32  C   UNL A   1      36.510  33.126  28.910  1.00  0.00     0.010 A 
ATOM     33  C   UNL A   1      36.366  31.975  29.676  1.00  0.00    -0.014 A 
BRANCH  33  34
ATOM     34  C   UNL A   1      37.583  31.341  30.248  1.00  0.00     0.031 A 
ATOM     35  C   UNL A   1      38.495  30.364  29.550  1.00  0.00     0.074 A 
ATOM     36  C   UNL A   1      37.735  31.580  31.564  1.00  0.00     0.049 A 
ATOM     37  N   UNL A   1      39.589  29.798  30.009  1.00  0.00    -0.248 NA
ATOM     38  C   UNL A   1      38.131  29.928  28.195  1.00  0.00     0.031 C 
ATOM     39  C   UNL A   1      36.792  32.364  32.371  1.00  0.00     0.029 A 
ATOM     40  N   UNL A   1      38.697  31.205  32.457  1.00  0.00    -0.354 N 
ATOM     41  C   UNL A   1      40.044  28.939  29.012  1.00  0.00     0.074 A 
ATOM     42  C   UNL A   1      39.090  29.042  27.924  1.00  0.00     0.031 C 
ATOM     43  C   UNL A   1      37.254  32.475  33.615  1.00  0.00     0.029 A 
ATOM     44  C   UNL A   1      38.493  31.724  33.710  1.00  0.00     0.049 A 
ATOM     45  H   UNL A   1      39.457  30.623  32.226  1.00  0.00     0.167 HD
ATOM     46  C   UNL A   1      41.151  28.146  29.022  1.00  0.00     0.037 A 
ATOM     47  C   UNL A   1      39.224  31.623  34.830  1.00  0.00     0.037 A 
ATOM     48  C   UNL A   1      42.068  28.053  30.143  1.00  0.00     0.049 A 
ATOM     49  C   UNL A   1      40.494  30.847  34.770  1.00  0.00     0.074 A 
ATOM     50  C   UNL A   1      43.265  27.359  30.235  1.00  0.00     0.029 A 
ATOM     51  N   UNL A   1      41.875  28.659  31.379  1.00  0.00    -0.354 N 
ATOM     52  N   UNL A   1      40.985  30.152  33.775  1.00  0.00    -0.248 NA
ATOM     53  C   UNL A   1      41.320  30.858  35.977  1.00  0.00     0.031 C 
ATOM     54  C   UNL A   1      43.765  27.502  31.536  1.00  0.00     0.029 A 
ATOM     55  C   UNL A   1      42.916  28.338  32.241  1.00  0.00     0.049 A 
ATOM     56  H   UNL A   1      41.109  29.234  31.611  1.00  0.00     0.167 HD
ATOM     57  C   UNL A   1      42.185  29.639  34.230  1.00  0.00     0.074 A 
ATOM     58  C   UNL A   1      42.362  30.141  35.582  1.00  0.00     0.031 C 
ATOM     59  C   UNL A   1      43.057  28.820  33.593  1.00  0.00     0.037 A 
BRANCH  46  60
ATOM     60  C   UNL A   1      41.473  27.312  27.800  1.00  0.00     0.064 A 
ATOM     61  C   UNL A   1      42.306  27.796  26.777  1.00  0.00     0.173 A 
ATOM     62  C   UNL A   1      41.058  25.971  27.707  1.00  0.00     0.173 A 
ATOM     63  F   UNL A   1      42.753  29.060  26.812  1.00  0.00    -0.203 F 
ATOM     64  C   UNL A   1      42.691  26.982  25.709  1.00  0.00     0.198 A 
ATOM     65  C   UNL A   1      41.466  25.153  26.652  1.00  0.00     0.198 A 
ATOM     66  F   UNL A   1      40.282  25.436  28.663  1.00  0.00    -0.203 F 
ATOM     67  F   UNL A   1      43.468  27.479  24.736  1.00  0.00    -0.200 F 
ATOM     68  C   UNL A   1      42.278  25.660  25.651  1.00  0.00     0.200 A 
ATOM     69  F   UNL A   1      41.085  23.868  26.613  1.00  0.00    -0.200 F 
ATOM     70  F   UNL A   1      42.664  24.876  24.634  1.00  0.00    -0.200 F 
ENDBRANCH  46  60
BRANCH  47  71
ATOM     71  C   UNL A   1      38.778  32.363  36.033  1.00  0.00     0.064 A 
ATOM     72  C   UNL A   1      38.094  31.702  37.060  1.00  0.00     0.173 A 
ATOM     73  C   UNL A   1      39.152  33.699  36.246  1.00  0.00     0.173 A 
ATOM     74  F   UNL A   1      37.728  30.421  36.904  1.00  0.00    -0.203 F 
ATOM     75  C   UNL A   1      37.792  32.351  38.254  1.00  0.00     0.198 A 
ATOM     76  C   UNL A   1      38.883  34.335  37.454  1.00  0.00     0.198 A 
ATOM     77  F   UNL A   1      39.850  34.359  35.310  1.00  0.00    -0.203 F 
ATOM     78  F   UNL A   1      37.122  31.701  39.214  1.00  0.00    -0.200 F 
ATOM     79  C   UNL A   1      38.199  33.662  38.455  1.00  0.00     0.200 A 
ATOM     80  F   UNL A   1      39.316  35.586  37.661  1.00  0.00    -0.200 F 
ATOM     81  F   UNL A   1      37.940  34.273  39.618  1.00  0.00    -0.200 F 
ENDBRANCH  47  71
BRANCH  59  82
ATOM     82  C   UNL A   1      44.278  28.431  34.373  1.00  0.00     0.064 A 
ATOM     83  C   UNL A   1      45.449  29.205  34.336  1.00  0.00     0.173 A 
ATOM     84  C   UNL A   1      44.294  27.249  35.125  1.00  0.00     0.173 A 
ATOM     85  F   UNL A   1      45.489  30.334  33.611  1.00  0.00    -0.203 F 
ATOM     86  C   UNL A   1      46.606  28.782  34.981  1.00  0.00     0.198 A 
ATOM     87  C   UNL A   1      45.444  26.844  35.796  1.00  0.00     0.198 A 
ATOM     88  F   UNL A   1      43.200  26.474  35.192  1.00  0.00    -0.203 F 
ATOM     89  F   UNL A   1      47.735  29.494  34.864  1.00  0.00    -0.200 F 
ATOM     90  C   UNL A   1      46.602  27.602  35.711  1.00  0.00     0.200 A 
ATOM     91  F   UNL A   1      45.438  25.710  36.508  1.00  0.00    -0.200 F 
ATOM     92  F   UNL A   1      47.722  27.187  36.318  1.00  0.00    -0.200 F 
ENDBRANCH  59  82
ENDBRANCH  33  34
ENDBRANCH  26  28
ENDBRANCH  25  26
ENDBRANCH  24  25
ENDBRANCH   1  24
TORSDOF 15
ENDMDL
MODEL 2
REMARK VINA RESULT:     -11.7      0.925      7.560
REMARK SMILES CCc1ccccc1O[C@H]1CCC[C@@]([NH2+]C)(C(=O)OCCOC(=O)c2ccc(-c3c4nc(c(-c5c(F)c(F)c(F)c(F)c5F)c5ccc([nH]5)c(-c5c(F)c(F)c(F)c(F)c5F)c5nc(c(-c6c(F)c(F)c(F)c(F)c6F)c6ccc3[nH]6)C=C5)C=C4)cc2)C1
REMARK SMILES IDX 20 1 19 2 17 3 18 4 14 5 10 6 11 7 88 8 12 9 13 10 9 11 8 12
REMARK SMILES IDX 3 13 4 14 5 15 7 16 6 17 2 18 1 19 15 20 16 21 21 24 22 25
REMARK SMILES IDX 23 26 24 27 25 28 26 29 87 30 27 31 86 32 28 33 29 34 30 35
REMARK SMILES IDX 80 36 31 37 85 38 79 39 81 40 32 41 84 42 78 43 77 44 33 46
REMARK SMILES IDX 65 47 45 48 64 49 46 50 49 51 63 52 82 53 47 54 48 55 62 57
REMARK SMILES IDX 83 58 50 59 34 60 35 61 43 62 36 63 37 64 41 65 44 66 38 67
REMARK SMILES IDX 39 68 42 69 40 70 66 71 67 72 75 73 68 74 69 75 73 76 76 77
REMARK SMILES IDX 70 78 71 79 74 80 72 81 51 82 52 83 60 84 53 85 54 86 58 87
REMARK SMILES IDX 61 88 55 89 56 90 59 91 57 92
REMARK H PARENT 15 22 15 23 81 45 49 56
REMARK Flexibility Score: inf
ROOT
ATOM      1  C   UNL A   1      31.950  30.730  26.251  1.00  0.00     0.274 C 
ENDROOT
BRANCH   1   2
ATOM      2  O   UNL A   1      31.326  30.072  25.134  1.00  0.00    -0.457 OA
BRANCH   2   3
ATOM      3  C   UNL A   1      32.195  29.295  24.435  1.00  0.00     0.368 C 
ATOM      4  O   UNL A   1      33.363  29.165  24.812  1.00  0.00    -0.245 OA
BRANCH   3   5
ATOM      5  C   UNL A   1      31.482  28.487  23.229  1.00  0.00     0.197 C 
ATOM      6  C   UNL A   1      32.281  25.779  23.518  1.00  0.00     0.180 C 
ATOM      7  C   UNL A   1      30.780  25.491  23.733  1.00  0.00     0.046 C 
ATOM      8  C   UNL A   1      32.145  27.164  22.615  1.00  0.00     0.126 C 
ATOM      9  C   UNL A   1      30.052  26.657  24.418  1.00  0.00     0.011 C 
ATOM     10  C   UNL A   1      30.080  28.019  23.678  1.00  0.00     0.081 C 
BRANCH   6  11
ATOM     11  O   UNL A   1      33.167  25.777  24.758  1.00  0.00    -0.490 OA
BRANCH  11  12
ATOM     12  C   UNL A   1      33.827  24.710  25.439  1.00  0.00     0.122 A 
ATOM     13  C   UNL A   1      33.170  23.604  26.207  1.00  0.00    -0.006 A 
ATOM     14  C   UNL A   1      33.968  22.437  26.489  1.00  0.00     0.007 A 
ATOM     15  C   UNL A   1      35.321  22.350  26.270  1.00  0.00     0.001 A 
ATOM     16  C   UNL A   1      35.229  24.577  25.263  1.00  0.00     0.047 A 
ATOM     17  C   UNL A   1      35.955  23.433  25.696  1.00  0.00     0.004 A 
BRANCH  13  18
ATOM     18  C   UNL A   1      31.790  23.222  26.957  1.00  0.00     0.036 C 
ATOM     19  C   UNL A   1      30.219  23.178  26.847  1.00  0.00     0.009 C 
ENDBRANCH  13  18
ENDBRANCH  11  12
ENDBRANCH   6  11
BRANCH   5  20
ATOM     20  N   UNL A   1      31.252  29.511  22.111  1.00  0.00    -0.334 N 
ATOM     21  C   UNL A   1      29.857  29.935  21.905  1.00  0.00     0.331 C 
ATOM     22  H   UNL A   1      31.586  29.100  21.239  1.00  0.00     0.347 HD
ATOM     23  H   UNL A   1      31.757  30.349  22.396  1.00  0.00     0.347 HD
ENDBRANCH   5  20
ENDBRANCH   3   5
ENDBRANCH   2   3
ENDBRANCH   1   2
BRANCH   1  24
ATOM     24  C   UNL A   1      31.185  32.012  26.603  1.00  0.00     0.275 C 
BRANCH  24  25
ATOM     25  O   UNL A   1      31.809  33.355  26.680  1.00  0.00    -0.458 OA
BRANCH  25  26
ATOM     26  C   UNL A   1      32.682  33.706  27.649  1.00  0.00     0.338 C 
ATOM     27  O   UNL A   1      32.383  34.672  28.298  1.00  0.00    -0.246 OA
BRANCH  26  28
ATOM     28  C   UNL A   1      34.069  33.195  28.084  1.00  0.00     0.060 A 
ATOM     29  C   UNL A   1      34.006  32.034  28.868  1.00  0.00     0.016 A 
ATOM     30  C   UNL A   1      35.260  33.924  28.223  1.00  0.00     0.016 A 
ATOM     31  C   UNL A   1      34.914  31.788  29.915  1.00  0.00     0.010 A 
ATOM     32  C   UNL A   1      36.216  33.663  29.222  1.00  0.00     0.010 A 
ATOM     33  C   UNL A   1      36.043  32.605  30.106  1.00  0.00    -0.014 A 
BRANCH  33  34
ATOM     34  C   UNL A   1      37.225  32.098  30.853  1.00  0.00     0.031 A 
ATOM     35  C   UNL A   1      37.718  32.594  32.189  1.00  0.00     0.074 A 
ATOM     36  C   UNL A   1      37.969  31.232  30.142  1.00  0.00     0.049 A 
ATOM     37  N   UNL A   1      38.741  32.163  32.892  1.00  0.00    -0.248 NA
ATOM     38  C   UNL A   1      37.020  33.733  32.803  1.00  0.00     0.031 C 
ATOM     39  C   UNL A   1      37.672  30.835  28.759  1.00  0.00     0.029 A 
ATOM     40  N   UNL A   1      39.106  30.538  30.444  1.00  0.00    -0.354 N 
ATOM     41  C   UNL A   1      38.818  32.971  34.024  1.00  0.00     0.074 A 
ATOM     42  C   UNL A   1      37.744  33.939  33.903  1.00  0.00     0.031 C 
ATOM     43  C   UNL A   1      38.552  29.919  28.360  1.00  0.00     0.029 A 
ATOM     44  C   UNL A   1      39.507  29.705  29.431  1.00  0.00     0.049 A 
ATOM     45  H   UNL A   1      39.586  30.627  31.299  1.00  0.00     0.167 HD
ATOM     46  C   UNL A   1      39.708  32.899  35.053  1.00  0.00     0.037 A 
ATOM     47  C   UNL A   1      40.533  28.844  29.360  1.00  0.00     0.037 A 
ATOM     48  C   UNL A   1      40.785  31.930  35.123  1.00  0.00     0.049 A 
ATOM     49  C   UNL A   1      41.414  28.704  30.552  1.00  0.00     0.074 A 
ATOM     50  C   UNL A   1      41.687  31.701  36.152  1.00  0.00     0.029 A 
ATOM     51  N   UNL A   1      41.119  31.038  34.110  1.00  0.00    -0.354 N 
ATOM     52  N   UNL A   1      41.390  29.378  31.675  1.00  0.00    -0.248 NA
ATOM     53  C   UNL A   1      42.449  27.672  30.479  1.00  0.00     0.031 C 
ATOM     54  C   UNL A   1      42.593  30.715  35.741  1.00  0.00     0.029 A 
ATOM     55  C   UNL A   1      42.221  30.278  34.480  1.00  0.00     0.049 A 
ATOM     56  H   UNL A   1      40.642  30.958  33.251  1.00  0.00     0.167 HD
ATOM     57  C   UNL A   1      42.406  28.853  32.451  1.00  0.00     0.074 A 
ATOM     58  C   UNL A   1      43.000  27.775  31.679  1.00  0.00     0.031 C 
ATOM     59  C   UNL A   1      42.818  29.233  33.685  1.00  0.00     0.037 A 
BRANCH  46  60
ATOM     60  C   UNL A   1      39.579  33.869  36.209  1.00  0.00     0.064 A 
ATOM     61  C   UNL A   1      38.860  33.540  37.369  1.00  0.00     0.173 A 
ATOM     62  C   UNL A   1      40.289  35.084  36.218  1.00  0.00     0.173 A 
ATOM     63  F   UNL A   1      38.176  32.389  37.435  1.00  0.00    -0.203 F 
ATOM     64  C   UNL A   1      38.840  34.391  38.476  1.00  0.00     0.198 A 
ATOM     65  C   UNL A   1      40.288  35.920  37.335  1.00  0.00     0.198 A 
ATOM     66  F   UNL A   1      41.018  35.449  35.152  1.00  0.00    -0.203 F 
ATOM     67  F   UNL A   1      38.125  34.061  39.561  1.00  0.00    -0.200 F 
ATOM     68  C   UNL A   1      39.560  35.577  38.462  1.00  0.00     0.200 A 
ATOM     69  F   UNL A   1      41.005  37.053  37.327  1.00  0.00    -0.200 F 
ATOM     70  F   UNL A   1      39.553  36.383  39.534  1.00  0.00    -0.200 F 
ENDBRANCH  46  60
BRANCH  47  71
ATOM     71  C   UNL A   1      40.676  28.016  28.139  1.00  0.00     0.064 A 
ATOM     72  C   UNL A   1      41.509  28.431  27.094  1.00  0.00     0.173 A 
ATOM     73  C   UNL A   1      40.105  26.737  28.057  1.00  0.00     0.173 A 
ATOM     74  F   UNL A   1      42.086  29.642  27.138  1.00  0.00    -0.203 F 
ATOM     75  C   UNL A   1      41.762  27.601  26.006  1.00  0.00     0.198 A 
ATOM     76  C   UNL A   1      40.388  25.894  26.987  1.00  0.00     0.198 A 
ATOM     77  F   UNL A   1      39.338  26.278  29.057  1.00  0.00    -0.203 F 
ATOM     78  F   UNL A   1      42.550  28.028  25.010  1.00  0.00    -0.200 F 
ATOM     79  C   UNL A   1      41.212  26.329  25.960  1.00  0.00     0.200 A 
ATOM     80  F   UNL A   1      39.891  24.649  26.969  1.00  0.00    -0.200 F 
ATOM     81  F   UNL A   1      41.485  25.517  24.930  1.00  0.00    -0.200 F 
ENDBRANCH  47  71
BRANCH  59  82
ATOM     82  C   UNL A   1      43.967  28.459  34.258  1.00  0.00     0.064 A 
ATOM     83  C   UNL A   1      43.764  27.276  34.986  1.00  0.00     0.173 A 
ATOM     84  C   UNL A   1      45.280  28.930  34.121  1.00  0.00     0.173 A 
ATOM     85  F   UNL A   1      42.522  26.798  35.164  1.00  0.00    -0.203 F 
ATOM     86  C   UNL A   1      44.828  26.621  35.598  1.00  0.00     0.198 A 
ATOM     87  C   UNL A   1      46.346  28.256  34.708  1.00  0.00     0.198 A 
ATOM     88  F   UNL A   1      45.527  30.057  33.435  1.00  0.00    -0.203 F 
ATOM     89  F   UNL A   1      44.600  25.541  36.357  1.00  0.00    -0.200 F 
ATOM     90  C   UNL A   1      46.118  27.112  35.458  1.00  0.00     0.200 A 
ATOM     91  F   UNL A   1      47.593  28.725  34.566  1.00  0.00    -0.200 F 
ATOM     92  F   UNL A   1      47.139  26.490  36.062  1.00  0.00    -0.200 F 
ENDBRANCH  59  82
ENDBRANCH  33  34
ENDBRANCH  26  28
ENDBRANCH  25  26
ENDBRANCH  24  25
ENDBRANCH   1  24
TORSDOF 15
ENDMDL
MODEL 3
REMARK VINA RESULT:     -11.7      4.580     10.395
REMARK SMILES CCc1ccccc1O[C@H]1CCC[C@@]([NH2+]C)(C(=O)OCCOC(=O)c2ccc(-c3c4nc(c(-c5c(F)c(F)c(F)c(F)c5F)c5ccc([nH]5)c(-c5c(F)c(F)c(F)c(F)c5F)c5nc(c(-c6c(F)c(F)c(F)c(F)c6F)c6ccc3[nH]6)C=C5)C=C4)cc2)C1
REMARK SMILES IDX 20 1 19 2 17 3 18 4 14 5 10 6 11 7 88 8 12 9 13 10 9 11 8 12
REMARK SMILES IDX 3 13 4 14 5 15 7 16 6 17 2 18 1 19 15 20 16 21 21 24 22 25
REMARK SMILES IDX 23 26 24 27 25 28 26 29 87 30 27 31 86 32 28 33 29 34 30 35
REMARK SMILES IDX 80 36 31 37 85 38 79 39 81 40 32 41 84 42 78 43 77 44 33 46
REMARK SMILES IDX 65 47 45 48 64 49 46 50 49 51 63 52 82 53 47 54 48 55 62 57
REMARK SMILES IDX 83 58 50 59 34 60 35 61 43 62 36 63 37 64 41 65 44 66 38 67
REMARK SMILES IDX 39 68 42 69 40 70 66 71 67 72 75 73 68 74 69 75 73 76 76 77
REMARK SMILES IDX 70 78 71 79 74 80 72 81 51 82 52 83 60 84 53 85 54 86 58 87
REMARK SMILES IDX 61 88 55 89 56 90 59 91 57 92
REMARK H PARENT 15 22 15 23 81 45 49 56
REMARK Flexibility Score: inf
ROOT
ATOM      1  C   UNL A   1      36.357  19.616  24.974  1.00  0.00     0.274 C 
ENDROOT
BRANCH   1   2
ATOM      2  O   UNL A   1      35.552  20.742  24.581  1.00  0.00    -0.457 OA
BRANCH   2   3
ATOM      3  C   UNL A   1      34.821  21.245  25.610  1.00  0.00     0.368 C 
ATOM      4  O   UNL A   1      35.348  21.968  26.460  1.00  0.00    -0.245 OA
BRANCH   3   5
ATOM      5  C   UNL A   1      33.242  20.928  25.469  1.00  0.00     0.197 C 
ATOM      6  C   UNL A   1      31.973  23.428  25.025  1.00  0.00     0.180 C 
ATOM      7  C   UNL A   1      31.554  22.830  23.665  1.00  0.00     0.046 C 
ATOM      8  C   UNL A   1      32.140  22.016  25.879  1.00  0.00     0.126 C 
ATOM      9  C   UNL A   1      32.593  21.842  23.113  1.00  0.00     0.011 C 
ATOM     10  C   UNL A   1      32.908  20.607  23.995  1.00  0.00     0.081 C 
BRANCH   6  11
ATOM     11  O   UNL A   1      33.118  24.434  25.011  1.00  0.00    -0.490 OA
BRANCH  11  12
ATOM     12  C   UNL A   1      33.200  25.755  24.476  1.00  0.00     0.122 A 
ATOM     13  C   UNL A   1      33.250  27.030  25.262  1.00  0.00    -0.006 A 
ATOM     14  C   UNL A   1      33.711  28.208  24.571  1.00  0.00     0.007 A 
ATOM     15  C   UNL A   1      33.925  28.281  23.216  1.00  0.00     0.001 A 
ATOM     16  C   UNL A   1      33.406  25.894  23.080  1.00  0.00     0.047 A 
ATOM     17  C   UNL A   1      33.733  27.137  22.468  1.00  0.00     0.004 A 
BRANCH  13  18
ATOM     18  C   UNL A   1      32.889  27.645  26.712  1.00  0.00     0.036 C 
ATOM     19  C   UNL A   1      31.744  28.211  27.637  1.00  0.00     0.009 C 
ENDBRANCH  13  18
ENDBRANCH  11  12
ENDBRANCH   6  11
BRANCH   5  20
ATOM     20  N   UNL A   1      32.999  19.632  26.253  1.00  0.00    -0.334 N 
ATOM     21  C   UNL A   1      32.797  18.419  25.442  1.00  0.00     0.331 C 
ATOM     22  H   UNL A   1      32.166  19.766  26.827  1.00  0.00     0.347 HD
ATOM     23  H   UNL A   1      33.851  19.468  26.787  1.00  0.00     0.347 HD
ENDBRANCH   5  20
ENDBRANCH   3   5
ENDBRANCH   2   3
ENDBRANCH   1   2
BRANCH   1  24
ATOM     24  C   UNL A   1      37.846  19.959  24.842  1.00  0.00     0.275 C 
BRANCH  24  25
ATOM     25  O   UNL A   1      38.924  19.282  25.602  1.00  0.00    -0.458 OA
BRANCH  25  26
ATOM     26  C   UNL A   1      40.036  19.918  26.026  1.00  0.00     0.338 C 
ATOM     27  O   UNL A   1      41.067  19.314  25.893  1.00  0.00    -0.246 OA
BRANCH  26  28
ATOM     28  C   UNL A   1      40.305  21.253  26.748  1.00  0.00     0.060 A 
ATOM     29  C   UNL A   1      39.926  22.372  25.992  1.00  0.00     0.016 A 
ATOM     30  C   UNL A   1      41.244  21.523  27.755  1.00  0.00     0.016 A 
ATOM     31  C   UNL A   1      40.644  23.582  26.038  1.00  0.00     0.010 A 
ATOM     32  C   UNL A   1      41.933  22.746  27.863  1.00  0.00     0.010 A 
ATOM     33  C   UNL A   1      41.663  23.788  26.984  1.00  0.00    -0.014 A 
BRANCH  33  34
ATOM     34  C   UNL A   1      42.074  25.166  27.364  1.00  0.00     0.031 A 
ATOM     35  C   UNL A   1      41.244  26.170  28.122  1.00  0.00     0.074 A 
ATOM     36  C   UNL A   1      43.242  25.542  26.810  1.00  0.00     0.049 A 
ATOM     37  N   UNL A   1      41.573  27.386  28.496  1.00  0.00    -0.248 NA
ATOM     38  C   UNL A   1      39.865  25.800  28.474  1.00  0.00     0.031 C 
ATOM     39  C   UNL A   1      44.029  24.699  25.902  1.00  0.00     0.029 A 
ATOM     40  N   UNL A   1      43.970  26.693  26.901  1.00  0.00    -0.354 N 
ATOM     41  C   UNL A   1      40.454  27.931  29.120  1.00  0.00     0.074 A 
ATOM     42  C   UNL A   1      39.420  26.915  29.055  1.00  0.00     0.031 C 
ATOM     43  C   UNL A   1      45.160  25.325  25.579  1.00  0.00     0.029 A 
ATOM     44  C   UNL A   1      45.152  26.633  26.208  1.00  0.00     0.049 A 
ATOM     45  H   UNL A   1      43.676  27.483  27.410  1.00  0.00     0.167 HD
ATOM     46  C   UNL A   1      40.318  29.163  29.683  1.00  0.00     0.037 A 
ATOM     47  C   UNL A   1      46.143  27.528  26.087  1.00  0.00     0.037 A 
ATOM     48  C   UNL A   1      41.370  30.163  29.705  1.00  0.00     0.049 A 
ATOM     49  C   UNL A   1      46.014  28.819  26.819  1.00  0.00     0.074 A 
ATOM     50  C   UNL A   1      41.382  31.404  30.323  1.00  0.00     0.029 A 
ATOM     51  N   UNL A   1      42.595  30.040  29.058  1.00  0.00    -0.354 N 
ATOM     52  N   UNL A   1      45.004  29.266  27.523  1.00  0.00    -0.248 NA
ATOM     53  C   UNL A   1      47.165  29.719  26.758  1.00  0.00     0.031 C 
ATOM     54  C   UNL A   1      42.585  32.049  30.007  1.00  0.00     0.029 A 
ATOM     55  C   UNL A   1      43.356  31.187  29.245  1.00  0.00     0.049 A 
ATOM     56  H   UNL A   1      42.882  29.252  28.541  1.00  0.00     0.167 HD
ATOM     57  C   UNL A   1      45.395  30.505  27.997  1.00  0.00     0.074 A 
ATOM     58  C   UNL A   1      46.754  30.716  27.528  1.00  0.00     0.031 C 
ATOM     59  C   UNL A   1      44.692  31.391  28.743  1.00  0.00     0.037 A 
BRANCH  46  60
ATOM     60  C   UNL A   1      39.006  29.533  30.343  1.00  0.00     0.064 A 
ATOM     61  C   UNL A   1      38.797  29.351  31.720  1.00  0.00     0.173 A 
ATOM     62  C   UNL A   1      37.995  30.198  29.625  1.00  0.00     0.173 A 
ATOM     63  F   UNL A   1      39.728  28.741  32.468  1.00  0.00    -0.203 F 
ATOM     64  C   UNL A   1      37.630  29.798  32.343  1.00  0.00     0.198 A 
ATOM     65  C   UNL A   1      36.841  30.666  30.255  1.00  0.00     0.198 A 
ATOM     66  F   UNL A   1      38.140  30.429  28.311  1.00  0.00    -0.203 F 
ATOM     67  F   UNL A   1      37.449  29.588  33.655  1.00  0.00    -0.200 F 
ATOM     68  C   UNL A   1      36.656  30.462  31.612  1.00  0.00     0.200 A 
ATOM     69  F   UNL A   1      35.914  31.330  29.550  1.00  0.00    -0.200 F 
ATOM     70  F   UNL A   1      35.544  30.906  32.217  1.00  0.00    -0.200 F 
ENDBRANCH  46  60
BRANCH  47  71
ATOM     71  C   UNL A   1      47.348  27.148  25.314  1.00  0.00     0.064 A 
ATOM     72  C   UNL A   1      47.495  27.557  23.984  1.00  0.00     0.173 A 
ATOM     73  C   UNL A   1      48.431  26.500  25.927  1.00  0.00     0.173 A 
ATOM     74  F   UNL A   1      46.489  28.190  23.362  1.00  0.00    -0.203 F 
ATOM     75  C   UNL A   1      48.680  27.326  23.290  1.00  0.00     0.198 A 
ATOM     76  C   UNL A   1      49.628  26.303  25.244  1.00  0.00     0.198 A 
ATOM     77  F   UNL A   1      48.353  26.132  27.215  1.00  0.00    -0.203 F 
ATOM     78  F   UNL A   1      48.790  27.713  22.012  1.00  0.00    -0.200 F 
ATOM     79  C   UNL A   1      49.749  26.712  23.925  1.00  0.00     0.200 A 
ATOM     80  F   UNL A   1      50.673  25.750  25.875  1.00  0.00    -0.200 F 
ATOM     81  F   UNL A   1      50.901  26.523  23.268  1.00  0.00    -0.200 F 
ENDBRANCH  47  71
BRANCH  59  82
ATOM     82  C   UNL A   1      45.405  32.665  29.088  1.00  0.00     0.064 A 
ATOM     83  C   UNL A   1      46.178  32.779  30.255  1.00  0.00     0.173 A 
ATOM     84  C   UNL A   1      45.273  33.797  28.273  1.00  0.00     0.173 A 
ATOM     85  F   UNL A   1      46.314  31.729  31.080  1.00  0.00    -0.203 F 
ATOM     86  C   UNL A   1      46.751  33.994  30.617  1.00  0.00     0.198 A 
ATOM     87  C   UNL A   1      45.874  35.002  28.621  1.00  0.00     0.198 A 
ATOM     88  F   UNL A   1      44.545  33.739  27.147  1.00  0.00    -0.203 F 
ATOM     89  F   UNL A   1      47.415  34.100  31.776  1.00  0.00    -0.200 F 
ATOM     90  C   UNL A   1      46.599  35.104  29.799  1.00  0.00     0.200 A 
ATOM     91  F   UNL A   1      45.735  36.072  27.828  1.00  0.00    -0.200 F 
ATOM     92  F   UNL A   1      47.137  36.278  30.158  1.00  0.00    -0.200 F 
ENDBRANCH  59  82
ENDBRANCH  33  34
ENDBRANCH  26  28
ENDBRANCH  25  26
ENDBRANCH  24  25
ENDBRANCH   1  24
TORSDOF 15
ENDMDL
