MODEL 1
REMARK VINA RESULT:     -12.2      0.000      0.000
REMARK SMILES O=C(C[C@H]1CN(S(=O)(=O)c2cc(F)cc(F)c2)CCO1)OCCOC(=O)c1ccc(-c2c3nc(c(-c4c(F)c(F)c(F)c(F)c4F)c4ccc([nH]4)c(-c4c(F)c(F)c(F)c(F)c4F)c4nc(c(-c5c(F)c(F)c(F)c(F)c5F)c5ccc2[nH]5)C=C4)C=C3)cc1
REMARK SMILES IDX 22 1 21 2 2 3 1 4 3 5 4 6 5 7 20 8 6 9 19 10 18 11 7 12 8 13
REMARK SMILES IDX 9 14 10 15 11 16 17 17 12 18 15 19 13 20 14 21 16 22 23 23
REMARK SMILES IDX 24 24 25 25 26 26 27 27 28 28 89 29 29 30 88 31 30 32 31 33
REMARK SMILES IDX 32 34 82 35 33 36 87 37 81 38 83 39 34 40 86 41 80 42 79 43
REMARK SMILES IDX 35 45 67 46 47 47 66 48 48 49 51 50 65 51 84 52 49 53 50 54
REMARK SMILES IDX 64 56 85 57 52 58 36 59 37 60 45 61 38 62 39 63 43 64 46 65
REMARK SMILES IDX 40 66 41 67 44 68 42 69 68 70 69 71 77 72 70 73 71 74 75 75
REMARK SMILES IDX 78 76 72 77 73 78 76 79 74 80 53 81 54 82 62 83 55 84 56 85
REMARK SMILES IDX 60 86 63 87 57 88 58 89 61 90 59 91
REMARK H PARENT 83 44 51 55
REMARK Flexibility Score: inf
ROOT
ATOM      1  C   UNL A   1      32.342  28.059  23.882  1.00  0.00     0.274 C 
ENDROOT
BRANCH   1   2
ATOM      2  O   UNL A   1      33.372  27.049  23.882  1.00  0.00    -0.462 OA
BRANCH   2   3
ATOM      3  C   UNL A   1      33.639  26.157  22.910  1.00  0.00     0.308 C 
ATOM      4  O   UNL A   1      33.650  26.521  21.737  1.00  0.00    -0.252 OA
BRANCH   3   5
ATOM      5  C   UNL A   1      33.902  24.720  23.273  1.00  0.00     0.156 C 
BRANCH   5   6
ATOM      6  C   UNL A   1      32.766  23.750  22.909  1.00  0.00     0.144 C 
ATOM      7  C   UNL A   1      32.904  22.290  23.387  1.00  0.00     0.135 C 
ATOM      8  O   UNL A   1      31.448  24.200  23.258  1.00  0.00    -0.375 OA
ATOM      9  N   UNL A   1      32.699  22.092  24.847  1.00  0.00    -0.193 NA
ATOM     10  C   UNL A   1      31.115  24.024  24.647  1.00  0.00     0.177 C 
ATOM     11  C   UNL A   1      31.300  22.575  25.148  1.00  0.00     0.131 C 
BRANCH   9  12
ATOM     12  S   UNL A   1      33.741  22.507  26.123  1.00  0.00     0.243 S 
ATOM     13  O   UNL A   1      33.493  23.880  26.496  1.00  0.00    -0.207 OA
ATOM     14  O   UNL A   1      33.596  21.457  27.112  1.00  0.00    -0.207 OA
BRANCH  12  15
ATOM     15  C   UNL A   1      35.429  22.481  25.640  1.00  0.00     0.088 A 
ATOM     16  C   UNL A   1      36.308  23.535  25.871  1.00  0.00     0.061 A 
ATOM     17  C   UNL A   1      35.908  21.232  25.215  1.00  0.00     0.061 A 
ATOM     18  C   UNL A   1      37.650  23.348  25.733  1.00  0.00     0.127 A 
ATOM     19  C   UNL A   1      37.261  21.058  25.090  1.00  0.00     0.127 A 
ATOM     20  F   UNL A   1      38.506  24.333  26.032  1.00  0.00    -0.207 F 
ATOM     21  C   UNL A   1      38.101  22.111  25.376  1.00  0.00     0.078 A 
ATOM     22  F   UNL A   1      37.776  19.866  24.771  1.00  0.00    -0.207 F 
ENDBRANCH  12  15
ENDBRANCH   9  12
ENDBRANCH   5   6
ENDBRANCH   3   5
ENDBRANCH   2   3
ENDBRANCH   1   2
BRANCH   1  23
ATOM     23  C   UNL A   1      32.849  29.339  24.554  1.00  0.00     0.275 C 
BRANCH  23  24
ATOM     24  O   UNL A   1      32.498  29.410  25.958  1.00  0.00    -0.458 OA
BRANCH  24  25
ATOM     25  C   UNL A   1      32.768  30.588  26.587  1.00  0.00     0.338 C 
ATOM     26  O   UNL A   1      32.048  31.572  26.604  1.00  0.00    -0.246 OA
BRANCH  25  27
ATOM     27  C   UNL A   1      34.073  30.542  27.309  1.00  0.00     0.060 A 
ATOM     28  C   UNL A   1      34.551  29.300  27.734  1.00  0.00     0.016 A 
ATOM     29  C   UNL A   1      34.814  31.691  27.627  1.00  0.00     0.016 A 
ATOM     30  C   UNL A   1      35.785  29.208  28.401  1.00  0.00     0.010 A 
ATOM     31  C   UNL A   1      36.053  31.599  28.310  1.00  0.00     0.010 A 
ATOM     32  C   UNL A   1      36.578  30.354  28.676  1.00  0.00    -0.014 A 
BRANCH  32  33
ATOM     33  C   UNL A   1      37.943  30.137  29.294  1.00  0.00     0.031 A 
ATOM     34  C   UNL A   1      38.081  30.441  30.751  1.00  0.00     0.074 A 
ATOM     35  C   UNL A   1      39.001  29.550  28.673  1.00  0.00     0.049 A 
ATOM     36  N   UNL A   1      39.077  30.182  31.554  1.00  0.00    -0.248 NA
ATOM     37  C   UNL A   1      36.985  31.208  31.359  1.00  0.00     0.031 C 
ATOM     38  C   UNL A   1      39.152  29.324  27.242  1.00  0.00     0.029 A 
ATOM     39  N   UNL A   1      40.098  28.879  29.194  1.00  0.00    -0.354 N 
ATOM     40  C   UNL A   1      38.771  30.829  32.735  1.00  0.00     0.074 A 
ATOM     41  C   UNL A   1      37.456  31.416  32.576  1.00  0.00     0.031 C 
ATOM     42  C   UNL A   1      40.023  28.322  27.034  1.00  0.00     0.029 A 
ATOM     43  C   UNL A   1      40.681  27.995  28.293  1.00  0.00     0.049 A 
ATOM     44  H   UNL A   1      40.429  29.014  30.110  1.00  0.00     0.167 HD
ATOM     45  C   UNL A   1      39.566  31.005  33.815  1.00  0.00     0.037 A 
ATOM     46  C   UNL A   1      41.641  27.055  28.461  1.00  0.00     0.037 A 
ATOM     47  C   UNL A   1      40.902  30.492  33.926  1.00  0.00     0.049 A 
ATOM     48  C   UNL A   1      42.451  27.145  29.731  1.00  0.00     0.074 A 
ATOM     49  C   UNL A   1      41.850  30.749  34.898  1.00  0.00     0.029 A 
ATOM     50  N   UNL A   1      41.482  29.613  33.022  1.00  0.00    -0.354 N 
ATOM     51  N   UNL A   1      42.211  27.844  30.812  1.00  0.00    -0.248 NA
ATOM     52  C   UNL A   1      43.743  26.436  29.751  1.00  0.00     0.031 C 
ATOM     53  C   UNL A   1      43.013  30.041  34.571  1.00  0.00     0.029 A 
ATOM     54  C   UNL A   1      42.771  29.306  33.422  1.00  0.00     0.049 A 
ATOM     55  H   UNL A   1      41.041  29.259  32.216  1.00  0.00     0.167 HD
ATOM     56  C   UNL A   1      43.346  27.728  31.599  1.00  0.00     0.074 A 
ATOM     57  C   UNL A   1      44.239  26.811  30.923  1.00  0.00     0.031 C 
ATOM     58  C   UNL A   1      43.646  28.384  32.744  1.00  0.00     0.037 A 
BRANCH  45  59
ATOM     59  C   UNL A   1      39.030  31.926  34.861  1.00  0.00     0.064 A 
ATOM     60  C   UNL A   1      38.381  31.396  35.987  1.00  0.00     0.173 A 
ATOM     61  C   UNL A   1      39.271  33.306  34.820  1.00  0.00     0.173 A 
ATOM     62  F   UNL A   1      38.152  30.078  36.078  1.00  0.00    -0.203 F 
ATOM     63  C   UNL A   1      38.008  32.217  37.045  1.00  0.00     0.198 A 
ATOM     64  C   UNL A   1      38.920  34.119  35.892  1.00  0.00     0.198 A 
ATOM     65  F   UNL A   1      39.934  33.843  33.784  1.00  0.00    -0.203 F 
ATOM     66  F   UNL A   1      37.410  31.688  38.122  1.00  0.00    -0.200 F 
ATOM     67  C   UNL A   1      38.291  33.574  37.003  1.00  0.00     0.200 A 
ATOM     68  F   UNL A   1      39.237  35.420  35.874  1.00  0.00    -0.200 F 
ATOM     69  F   UNL A   1      37.983  34.354  38.049  1.00  0.00    -0.200 F 
ENDBRANCH  45  59
BRANCH  46  70
ATOM     70  C   UNL A   1      42.012  26.033  27.422  1.00  0.00     0.064 A 
ATOM     71  C   UNL A   1      43.027  26.232  26.475  1.00  0.00     0.173 A 
ATOM     72  C   UNL A   1      41.391  24.767  27.416  1.00  0.00     0.173 A 
ATOM     73  F   UNL A   1      43.722  27.377  26.460  1.00  0.00    -0.203 F 
ATOM     74  C   UNL A   1      43.366  25.248  25.541  1.00  0.00     0.198 A 
ATOM     75  C   UNL A   1      41.768  23.763  26.518  1.00  0.00     0.198 A 
ATOM     76  F   UNL A   1      40.455  24.475  28.332  1.00  0.00    -0.203 F 
ATOM     77  F   UNL A   1      44.312  25.498  24.626  1.00  0.00    -0.200 F 
ATOM     78  C   UNL A   1      42.745  24.010  25.569  1.00  0.00     0.200 A 
ATOM     79  F   UNL A   1      41.208  22.547  26.594  1.00  0.00    -0.200 F 
ATOM     80  F   UNL A   1      43.108  23.055  24.702  1.00  0.00    -0.200 F 
ENDBRANCH  46  70
BRANCH  58  81
ATOM     81  C   UNL A   1      45.000  28.155  33.339  1.00  0.00     0.064 A 
ATOM     82  C   UNL A   1      46.099  28.909  32.909  1.00  0.00     0.173 A 
ATOM     83  C   UNL A   1      45.222  27.125  34.264  1.00  0.00     0.173 A 
ATOM     84  F   UNL A   1      45.932  29.903  32.024  1.00  0.00    -0.203 F 
ATOM     85  C   UNL A   1      47.382  28.623  33.366  1.00  0.00     0.198 A 
ATOM     86  C   UNL A   1      46.504  26.855  34.735  1.00  0.00     0.198 A 
ATOM     87  F   UNL A   1      44.196  26.388  34.716  1.00  0.00    -0.203 F 
ATOM     88  F   UNL A   1      48.425  29.333  32.916  1.00  0.00    -0.200 F 
ATOM     89  C   UNL A   1      47.583  27.596  34.278  1.00  0.00     0.200 A 
ATOM     90  F   UNL A   1      46.695  25.875  35.630  1.00  0.00    -0.200 F 
ATOM     91  F   UNL A   1      48.819  27.321  34.715  1.00  0.00    -0.200 F 
ENDBRANCH  58  81
ENDBRANCH  32  33
ENDBRANCH  25  27
ENDBRANCH  24  25
ENDBRANCH  23  24
ENDBRANCH   1  23
TORSDOF 14
ENDMDL
MODEL 2
REMARK VINA RESULT:     -12.1      1.763      2.614
REMARK SMILES O=C(C[C@H]1CN(S(=O)(=O)c2cc(F)cc(F)c2)CCO1)OCCOC(=O)c1ccc(-c2c3nc(c(-c4c(F)c(F)c(F)c(F)c4F)c4ccc([nH]4)c(-c4c(F)c(F)c(F)c(F)c4F)c4nc(c(-c5c(F)c(F)c(F)c(F)c5F)c5ccc2[nH]5)C=C4)C=C3)cc1
REMARK SMILES IDX 22 1 21 2 2 3 1 4 3 5 4 6 5 7 20 8 6 9 19 10 18 11 7 12 8 13
REMARK SMILES IDX 9 14 10 15 11 16 17 17 12 18 15 19 13 20 14 21 16 22 23 23
REMARK SMILES IDX 24 24 25 25 26 26 27 27 28 28 89 29 29 30 88 31 30 32 31 33
REMARK SMILES IDX 32 34 82 35 33 36 87 37 81 38 83 39 34 40 86 41 80 42 79 43
REMARK SMILES IDX 35 45 67 46 47 47 66 48 48 49 51 50 65 51 84 52 49 53 50 54
REMARK SMILES IDX 64 56 85 57 52 58 36 59 37 60 45 61 38 62 39 63 43 64 46 65
REMARK SMILES IDX 40 66 41 67 44 68 42 69 68 70 69 71 77 72 70 73 71 74 75 75
REMARK SMILES IDX 78 76 72 77 73 78 76 79 74 80 53 81 54 82 62 83 55 84 56 85
REMARK SMILES IDX 60 86 63 87 57 88 58 89 61 90 59 91
REMARK H PARENT 83 44 51 55
REMARK Flexibility Score: inf
ROOT
ATOM      1  C   UNL A   1      31.556  27.576  26.745  1.00  0.00     0.274 C 
ENDROOT
BRANCH   1   2
ATOM      2  O   UNL A   1      32.201  26.448  26.118  1.00  0.00    -0.462 OA
BRANCH   2   3
ATOM      3  C   UNL A   1      31.929  25.144  26.309  1.00  0.00     0.308 C 
ATOM      4  O   UNL A   1      30.853  24.814  26.803  1.00  0.00    -0.252 OA
BRANCH   3   5
ATOM      5  C   UNL A   1      32.953  24.108  25.932  1.00  0.00     0.156 C 
BRANCH   5   6
ATOM      6  C   UNL A   1      33.308  24.076  24.436  1.00  0.00     0.144 C 
ATOM      7  C   UNL A   1      34.158  22.888  23.938  1.00  0.00     0.135 C 
ATOM      8  O   UNL A   1      32.193  24.217  23.544  1.00  0.00    -0.375 OA
ATOM      9  N   UNL A   1      33.432  21.591  23.865  1.00  0.00    -0.193 NA
ATOM     10  C   UNL A   1      31.430  23.010  23.359  1.00  0.00     0.177 C 
ATOM     11  C   UNL A   1      32.282  21.804  22.911  1.00  0.00     0.131 C 
BRANCH   9  12
ATOM     12  S   UNL A   1      32.948  20.583  25.143  1.00  0.00     0.243 S 
ATOM     13  O   UNL A   1      33.910  20.698  26.214  1.00  0.00    -0.207 OA
ATOM     14  O   UNL A   1      31.555  20.900  25.393  1.00  0.00    -0.207 OA
BRANCH  12  15
ATOM     15  C   UNL A   1      32.982  18.884  24.703  1.00  0.00     0.088 A 
ATOM     16  C   UNL A   1      33.621  18.401  23.565  1.00  0.00     0.061 A 
ATOM     17  C   UNL A   1      32.528  18.002  25.696  1.00  0.00     0.061 A 
ATOM     18  C   UNL A   1      33.855  17.066  23.428  1.00  0.00     0.127 A 
ATOM     19  C   UNL A   1      32.780  16.664  25.547  1.00  0.00     0.127 A 
ATOM     20  F   UNL A   1      34.540  16.603  22.376  1.00  0.00    -0.207 F 
ATOM     21  C   UNL A   1      33.458  16.230  24.431  1.00  0.00     0.078 A 
ATOM     22  F   UNL A   1      32.444  15.789  26.501  1.00  0.00    -0.207 F 
ENDBRANCH  12  15
ENDBRANCH   9  12
ENDBRANCH   5   6
ENDBRANCH   3   5
ENDBRANCH   2   3
ENDBRANCH   1   2
BRANCH   1  23
ATOM     23  C   UNL A   1      31.459  28.749  25.764  1.00  0.00     0.275 C 
BRANCH  23  24
ATOM     24  O   UNL A   1      32.696  29.499  25.664  1.00  0.00    -0.458 OA
BRANCH  24  25
ATOM     25  C   UNL A   1      32.829  30.555  26.513  1.00  0.00     0.338 C 
ATOM     26  O   UNL A   1      32.004  31.434  26.698  1.00  0.00    -0.246 OA
BRANCH  25  27
ATOM     27  C   UNL A   1      34.126  30.511  27.250  1.00  0.00     0.060 A 
ATOM     28  C   UNL A   1      34.632  29.264  27.624  1.00  0.00     0.016 A 
ATOM     29  C   UNL A   1      34.831  31.664  27.629  1.00  0.00     0.016 A 
ATOM     30  C   UNL A   1      35.860  29.175  28.304  1.00  0.00     0.010 A 
ATOM     31  C   UNL A   1      36.064  31.574  28.324  1.00  0.00     0.010 A 
ATOM     32  C   UNL A   1      36.619  30.328  28.640  1.00  0.00    -0.014 A 
BRANCH  32  33
ATOM     33  C   UNL A   1      37.981  30.120  29.267  1.00  0.00     0.031 A 
ATOM     34  C   UNL A   1      38.111  30.429  30.723  1.00  0.00     0.074 A 
ATOM     35  C   UNL A   1      39.045  29.536  28.653  1.00  0.00     0.049 A 
ATOM     36  N   UNL A   1      39.103  30.177  31.532  1.00  0.00    -0.248 NA
ATOM     37  C   UNL A   1      37.007  31.192  31.323  1.00  0.00     0.031 C 
ATOM     38  C   UNL A   1      39.205  29.307  27.223  1.00  0.00     0.029 A 
ATOM     39  N   UNL A   1      40.142  28.872  29.181  1.00  0.00    -0.354 N 
ATOM     40  C   UNL A   1      38.788  30.826  32.709  1.00  0.00     0.074 A 
ATOM     41  C   UNL A   1      37.471  31.406  32.542  1.00  0.00     0.031 C 
ATOM     42  C   UNL A   1      40.082  28.308  27.023  1.00  0.00     0.029 A 
ATOM     43  C   UNL A   1      40.734  27.988  28.286  1.00  0.00     0.049 A 
ATOM     44  H   UNL A   1      40.469  29.012  30.099  1.00  0.00     0.167 HD
ATOM     45  C   UNL A   1      39.576  31.009  33.792  1.00  0.00     0.037 A 
ATOM     46  C   UNL A   1      41.698  27.053  28.461  1.00  0.00     0.037 A 
ATOM     47  C   UNL A   1      40.914  30.503  33.912  1.00  0.00     0.049 A 
ATOM     48  C   UNL A   1      42.502  27.151  29.735  1.00  0.00     0.074 A 
ATOM     49  C   UNL A   1      41.856  30.768  34.888  1.00  0.00     0.029 A 
ATOM     50  N   UNL A   1      41.503  29.624  33.014  1.00  0.00    -0.354 N 
ATOM     51  N   UNL A   1      42.253  27.851  30.813  1.00  0.00    -0.248 NA
ATOM     52  C   UNL A   1      43.797  26.449  29.765  1.00  0.00     0.031 C 
ATOM     53  C   UNL A   1      43.024  30.064  34.570  1.00  0.00     0.029 A 
ATOM     54  C   UNL A   1      42.792  29.324  33.421  1.00  0.00     0.049 A 
ATOM     55  H   UNL A   1      41.068  29.265  32.207  1.00  0.00     0.167 HD
ATOM     56  C   UNL A   1      43.384  27.744  31.607  1.00  0.00     0.074 A 
ATOM     57  C   UNL A   1      44.284  26.829  30.938  1.00  0.00     0.031 C 
ATOM     58  C   UNL A   1      43.674  28.405  32.751  1.00  0.00     0.037 A 
BRANCH  45  59
ATOM     59  C   UNL A   1      39.031  31.931  34.833  1.00  0.00     0.064 A 
ATOM     60  C   UNL A   1      38.396  31.401  35.967  1.00  0.00     0.173 A 
ATOM     61  C   UNL A   1      39.250  33.314  34.779  1.00  0.00     0.173 A 
ATOM     62  F   UNL A   1      38.188  30.080  36.071  1.00  0.00    -0.203 F 
ATOM     63  C   UNL A   1      38.014  32.225  37.019  1.00  0.00     0.198 A 
ATOM     64  C   UNL A   1      38.890  34.130  35.845  1.00  0.00     0.198 A 
ATOM     65  F   UNL A   1      39.900  33.853  33.736  1.00  0.00    -0.203 F 
ATOM     66  F   UNL A   1      37.430  31.696  38.103  1.00  0.00    -0.200 F 
ATOM     67  C   UNL A   1      38.275  33.586  36.964  1.00  0.00     0.200 A 
ATOM     68  F   UNL A   1      39.186  35.437  35.815  1.00  0.00    -0.200 F 
ATOM     69  F   UNL A   1      37.960  34.370  38.004  1.00  0.00    -0.200 F 
ENDBRANCH  45  59
BRANCH  46  70
ATOM     70  C   UNL A   1      42.080  26.029  27.428  1.00  0.00     0.064 A 
ATOM     71  C   UNL A   1      43.106  26.226  26.493  1.00  0.00     0.173 A 
ATOM     72  C   UNL A   1      41.456  24.765  27.415  1.00  0.00     0.173 A 
ATOM     73  F   UNL A   1      43.804  27.370  26.486  1.00  0.00    -0.203 F 
ATOM     74  C   UNL A   1      43.454  25.241  25.564  1.00  0.00     0.198 A 
ATOM     75  C   UNL A   1      41.842  23.759  26.522  1.00  0.00     0.198 A 
ATOM     76  F   UNL A   1      40.508  24.475  28.320  1.00  0.00    -0.203 F 
ATOM     77  F   UNL A   1      44.412  25.488  24.660  1.00  0.00    -0.200 F 
ATOM     78  C   UNL A   1      42.831  24.004  25.585  1.00  0.00     0.200 A 
ATOM     79  F   UNL A   1      41.278  22.545  26.592  1.00  0.00    -0.200 F 
ATOM     80  F   UNL A   1      43.202  23.047  24.723  1.00  0.00    -0.200 F 
ENDBRANCH  46  70
BRANCH  58  81
ATOM     81  C   UNL A   1      45.026  28.184  33.353  1.00  0.00     0.064 A 
ATOM     82  C   UNL A   1      45.206  27.228  34.361  1.00  0.00     0.173 A 
ATOM     83  C   UNL A   1      46.120  28.987  32.997  1.00  0.00     0.173 A 
ATOM     84  F   UNL A   1      44.186  26.440  34.733  1.00  0.00    -0.203 F 
ATOM     85  C   UNL A   1      46.428  27.098  35.011  1.00  0.00     0.198 A 
ATOM     86  C   UNL A   1      47.349  28.840  33.636  1.00  0.00     0.198 A 
ATOM     87  F   UNL A   1      45.999  29.905  32.026  1.00  0.00    -0.203 F 
ATOM     88  F   UNL A   1      46.570  26.202  35.997  1.00  0.00    -0.200 F 
ATOM     89  C   UNL A   1      47.499  27.905  34.649  1.00  0.00     0.200 A 
ATOM     90  F   UNL A   1      48.387  29.607  33.273  1.00  0.00    -0.200 F 
ATOM     91  F   UNL A   1      48.675  27.781  35.279  1.00  0.00    -0.200 F 
ENDBRANCH  58  81
ENDBRANCH  32  33
ENDBRANCH  25  27
ENDBRANCH  24  25
ENDBRANCH  23  24
ENDBRANCH   1  23
TORSDOF 14
ENDMDL
MODEL 3
REMARK VINA RESULT:     -12.1      1.062      1.494
REMARK SMILES O=C(C[C@H]1CN(S(=O)(=O)c2cc(F)cc(F)c2)CCO1)OCCOC(=O)c1ccc(-c2c3nc(c(-c4c(F)c(F)c(F)c(F)c4F)c4ccc([nH]4)c(-c4c(F)c(F)c(F)c(F)c4F)c4nc(c(-c5c(F)c(F)c(F)c(F)c5F)c5ccc2[nH]5)C=C4)C=C3)cc1
REMARK SMILES IDX 22 1 21 2 2 3 1 4 3 5 4 6 5 7 20 8 6 9 19 10 18 11 7 12 8 13
REMARK SMILES IDX 9 14 10 15 11 16 17 17 12 18 15 19 13 20 14 21 16 22 23 23
REMARK SMILES IDX 24 24 25 25 26 26 27 27 28 28 89 29 29 30 88 31 30 32 31 33
REMARK SMILES IDX 32 34 82 35 33 36 87 37 81 38 83 39 34 40 86 41 80 42 79 43
REMARK SMILES IDX 35 45 67 46 47 47 66 48 48 49 51 50 65 51 84 52 49 53 50 54
REMARK SMILES IDX 64 56 85 57 52 58 36 59 37 60 45 61 38 62 39 63 43 64 46 65
REMARK SMILES IDX 40 66 41 67 44 68 42 69 68 70 69 71 77 72 70 73 71 74 75 75
REMARK SMILES IDX 78 76 72 77 73 78 76 79 74 80 53 81 54 82 62 83 55 84 56 85
REMARK SMILES IDX 60 86 63 87 57 88 58 89 61 90 59 91
REMARK H PARENT 83 44 51 55
REMARK Flexibility Score: inf
ROOT
ATOM      1  C   UNL A   1      31.013  29.332  24.226  1.00  0.00     0.274 C 
ENDROOT
BRANCH   1   2
ATOM      2  O   UNL A   1      31.562  28.284  23.401  1.00  0.00    -0.462 OA
BRANCH   2   3
ATOM      3  C   UNL A   1      30.886  27.434  22.605  1.00  0.00     0.308 C 
ATOM      4  O   UNL A   1      29.890  27.828  22.003  1.00  0.00    -0.252 OA
BRANCH   3   5
ATOM      5  C   UNL A   1      31.350  26.008  22.478  1.00  0.00     0.156 C 
BRANCH   5   6
ATOM      6  C   UNL A   1      30.662  25.025  23.440  1.00  0.00     0.144 C 
ATOM      7  C   UNL A   1      31.255  23.604  23.540  1.00  0.00     0.135 C 
ATOM      8  O   UNL A   1      30.476  25.513  24.777  1.00  0.00    -0.375 OA
ATOM      9  N   UNL A   1      32.550  23.520  24.268  1.00  0.00    -0.193 NA
ATOM     10  C   UNL A   1      31.657  25.446  25.598  1.00  0.00     0.177 C 
ATOM     11  C   UNL A   1      32.286  24.038  25.661  1.00  0.00     0.131 C 
BRANCH   9  12
ATOM     12  S   UNL A   1      34.087  24.019  23.744  1.00  0.00     0.243 S 
ATOM     13  O   UNL A   1      34.266  23.603  22.373  1.00  0.00    -0.207 OA
ATOM     14  O   UNL A   1      34.185  25.425  24.086  1.00  0.00    -0.207 OA
BRANCH  12  15
ATOM     15  C   UNL A   1      35.382  23.220  24.619  1.00  0.00     0.088 A 
ATOM     16  C   UNL A   1      35.720  21.883  24.434  1.00  0.00     0.061 A 
ATOM     17  C   UNL A   1      36.221  24.074  25.352  1.00  0.00     0.061 A 
ATOM     18  C   UNL A   1      36.898  21.402  24.923  1.00  0.00     0.127 A 
ATOM     19  C   UNL A   1      37.405  23.577  25.828  1.00  0.00     0.127 A 
ATOM     20  F   UNL A   1      37.267  20.139  24.679  1.00  0.00    -0.207 F 
ATOM     21  C   UNL A   1      37.727  22.262  25.582  1.00  0.00     0.078 A 
ATOM     22  F   UNL A   1      38.281  24.368  26.459  1.00  0.00    -0.207 F 
ENDBRANCH  12  15
ENDBRANCH   9  12
ENDBRANCH   5   6
ENDBRANCH   3   5
ENDBRANCH   2   3
ENDBRANCH   1   2
BRANCH   1  23
ATOM     23  C   UNL A   1      31.630  29.287  25.628  1.00  0.00     0.275 C 
BRANCH  23  24
ATOM     24  O   UNL A   1      32.884  30.008  25.710  1.00  0.00    -0.458 OA
BRANCH  24  25
ATOM     25  C   UNL A   1      32.978  30.941  26.698  1.00  0.00     0.338 C 
ATOM     26  O   UNL A   1      32.124  31.760  26.992  1.00  0.00    -0.246 OA
BRANCH  25  27
ATOM     27  C   UNL A   1      34.271  30.836  27.436  1.00  0.00     0.060 A 
ATOM     28  C   UNL A   1      34.683  29.574  27.871  1.00  0.00     0.016 A 
ATOM     29  C   UNL A   1      35.062  31.949  27.757  1.00  0.00     0.016 A 
ATOM     30  C   UNL A   1      35.904  29.426  28.554  1.00  0.00     0.010 A 
ATOM     31  C   UNL A   1      36.287  31.802  28.456  1.00  0.00     0.010 A 
ATOM     32  C   UNL A   1      36.748  30.534  28.833  1.00  0.00    -0.014 A 
BRANCH  32  33
ATOM     33  C   UNL A   1      38.093  30.255  29.469  1.00  0.00     0.031 A 
ATOM     34  C   UNL A   1      38.220  30.529  30.933  1.00  0.00     0.074 A 
ATOM     35  C   UNL A   1      39.138  29.638  28.854  1.00  0.00     0.049 A 
ATOM     36  N   UNL A   1      39.192  30.218  31.746  1.00  0.00    -0.248 NA
ATOM     37  C   UNL A   1      37.143  31.326  31.537  1.00  0.00     0.031 C 
ATOM     38  C   UNL A   1      39.304  29.432  27.421  1.00  0.00     0.029 A 
ATOM     39  N   UNL A   1      40.200  28.918  29.379  1.00  0.00    -0.354 N 
ATOM     40  C   UNL A   1      38.891  30.856  32.933  1.00  0.00     0.074 A 
ATOM     41  C   UNL A   1      37.603  31.495  32.765  1.00  0.00     0.031 C 
ATOM     42  C   UNL A   1      40.140  28.401  27.209  1.00  0.00     0.029 A 
ATOM     43  C   UNL A   1      40.764  28.028  28.471  1.00  0.00     0.049 A 
ATOM     44  H   UNL A   1      40.522  29.025  30.303  1.00  0.00     0.167 HD
ATOM     45  C   UNL A   1      39.675  30.983  34.028  1.00  0.00     0.037 A 
ATOM     46  C   UNL A   1      41.685  27.049  28.638  1.00  0.00     0.037 A 
ATOM     47  C   UNL A   1      40.989  30.418  34.150  1.00  0.00     0.049 A 
ATOM     48  C   UNL A   1      42.478  27.087  29.921  1.00  0.00     0.074 A 
ATOM     49  C   UNL A   1      41.930  30.622  35.141  1.00  0.00     0.029 A 
ATOM     50  N   UNL A   1      41.549  29.533  33.241  1.00  0.00    -0.354 N 
ATOM     51  N   UNL A   1      42.247  27.775  31.011  1.00  0.00    -0.248 NA
ATOM     52  C   UNL A   1      43.741  26.329  29.949  1.00  0.00     0.031 C 
ATOM     53  C   UNL A   1      43.070  29.876  34.820  1.00  0.00     0.029 A 
ATOM     54  C   UNL A   1      42.820  29.170  33.654  1.00  0.00     0.049 A 
ATOM     55  H   UNL A   1      41.108  29.210  32.421  1.00  0.00     0.167 HD
ATOM     56  C   UNL A   1      43.364  27.602  31.813  1.00  0.00     0.074 A 
ATOM     57  C   UNL A   1      44.232  26.664  31.135  1.00  0.00     0.031 C 
ATOM     58  C   UNL A   1      43.669  28.228  32.974  1.00  0.00     0.037 A 
BRANCH  45  59
ATOM     59  C   UNL A   1      39.158  31.906  35.082  1.00  0.00     0.064 A 
ATOM     60  C   UNL A   1      38.451  31.384  36.176  1.00  0.00     0.173 A 
ATOM     61  C   UNL A   1      39.470  33.272  35.081  1.00  0.00     0.173 A 
ATOM     62  F   UNL A   1      38.153  30.078  36.229  1.00  0.00    -0.203 F 
ATOM     63  C   UNL A   1      38.091  32.198  37.244  1.00  0.00     0.198 A 
ATOM     64  C   UNL A   1      39.131  34.077  36.164  1.00  0.00     0.198 A 
ATOM     65  F   UNL A   1      40.189  33.798  34.078  1.00  0.00    -0.203 F 
ATOM     66  F   UNL A   1      37.436  31.676  38.291  1.00  0.00    -0.200 F 
ATOM     67  C   UNL A   1      38.443  33.539  37.244  1.00  0.00     0.200 A 
ATOM     68  F   UNL A   1      39.514  35.360  36.187  1.00  0.00    -0.200 F 
ATOM     69  F   UNL A   1      38.147  34.310  38.300  1.00  0.00    -0.200 F 
ENDBRANCH  45  59
BRANCH  46  70
ATOM     70  C   UNL A   1      42.034  26.031  27.587  1.00  0.00     0.064 A 
ATOM     71  C   UNL A   1      43.076  26.204  26.665  1.00  0.00     0.173 A 
ATOM     72  C   UNL A   1      41.359  24.793  27.544  1.00  0.00     0.173 A 
ATOM     73  F   UNL A   1      43.821  27.318  26.687  1.00  0.00    -0.203 F 
ATOM     74  C   UNL A   1      43.392  25.224  25.719  1.00  0.00     0.198 A 
ATOM     75  C   UNL A   1      41.712  23.791  26.633  1.00  0.00     0.198 A 
ATOM     76  F   UNL A   1      40.392  24.526  28.434  1.00  0.00    -0.203 F 
ATOM     77  F   UNL A   1      44.368  25.449  24.829  1.00  0.00    -0.200 F 
ATOM     78  C   UNL A   1      42.718  24.014  25.710  1.00  0.00     0.200 A 
ATOM     79  F   UNL A   1      41.098  22.600  26.674  1.00  0.00    -0.200 F 
ATOM     80  F   UNL A   1      43.058  23.060  24.832  1.00  0.00    -0.200 F 
ENDBRANCH  46  70
BRANCH  58  81
ATOM     81  C   UNL A   1      45.004  27.937  33.586  1.00  0.00     0.064 A 
ATOM     82  C   UNL A   1      46.111  28.743  33.288  1.00  0.00     0.173 A 
ATOM     83  C   UNL A   1      45.204  26.805  34.389  1.00  0.00     0.173 A 
ATOM     84  F   UNL A   1      45.964  29.835  32.523  1.00  0.00    -0.203 F 
ATOM     85  C   UNL A   1      47.379  28.413  33.754  1.00  0.00     0.198 A 
ATOM     86  C   UNL A   1      46.472  26.488  34.871  1.00  0.00     0.198 A 
ATOM     87  F   UNL A   1      44.171  26.013  34.713  1.00  0.00    -0.203 F 
ATOM     88  F   UNL A   1      48.430  29.177  33.430  1.00  0.00    -0.200 F 
ATOM     89  C   UNL A   1      47.559  27.285  34.543  1.00  0.00     0.200 A 
ATOM     90  F   UNL A   1      46.642  25.410  35.648  1.00  0.00    -0.200 F 
ATOM     91  F   UNL A   1      48.782  26.966  34.989  1.00  0.00    -0.200 F 
ENDBRANCH  58  81
ENDBRANCH  32  33
ENDBRANCH  25  27
ENDBRANCH  24  25
ENDBRANCH  23  24
ENDBRANCH   1  23
TORSDOF 14
ENDMDL
