MODEL 1
REMARK VINA RESULT:     -12.3      0.000      0.000
REMARK SMILES Cc1sc2[nH]c(SCC(=O)OCCOC(=O)c3ccc(-c4c5nc(c(-c6c(F)c(F)c(F)c(F)c6F)c6ccc([nH]6)c(-c6c(F)c(F)c(F)c(F)c6F)c6nc(c(-c7c(F)c(F)c(F)c(F)c7F)c7ccc4[nH]7)C=C6)C=C5)cc3)nc(=O)c2c1C
REMARK SMILES IDX 12 1 11 2 9 3 10 4 8 5 7 6 6 7 1 8 2 9 3 10 84 11 4 12 83 13
REMARK SMILES IDX 85 14 5 15 81 16 80 18 82 19 13 20 14 21 15 22 16 23 17 24
REMARK SMILES IDX 18 25 79 26 19 27 78 28 20 29 21 30 22 31 72 32 23 33 77 34
REMARK SMILES IDX 71 35 73 36 24 37 76 38 70 39 69 40 25 42 57 43 37 44 56 45
REMARK SMILES IDX 38 46 41 47 55 48 74 49 39 50 40 51 54 53 75 54 42 55 26 56
REMARK SMILES IDX 27 57 35 58 28 59 29 60 33 61 36 62 30 63 31 64 34 65 32 66
REMARK SMILES IDX 58 67 59 68 67 69 60 70 61 71 65 72 68 73 62 74 63 75 66 76
REMARK SMILES IDX 64 77 43 78 44 79 52 80 45 81 46 82 50 83 53 84 47 85 48 86
REMARK SMILES IDX 51 87 49 88
REMARK H PARENT 5 17 73 41 41 52
REMARK Flexibility Score: inf
ROOT
ATOM      1  C   UNL A   1      41.776  40.656  26.376  1.00  0.00     0.274 C 
ENDROOT
BRANCH   1   2
ATOM      2  O   UNL A   1      42.847  40.704  25.405  1.00  0.00    -0.461 OA
BRANCH   2   3
ATOM      3  C   UNL A   1      43.410  41.926  25.217  1.00  0.00     0.316 C 
ATOM      4  O   UNL A   1      44.012  42.538  26.101  1.00  0.00    -0.251 OA
BRANCH   3   5
ATOM      5  C   UNL A   1      43.294  42.514  23.828  1.00  0.00     0.200 C 
BRANCH   5   6
ATOM      6  S   UNL A   1      41.664  42.530  23.054  1.00  0.00    -0.076 SA
BRANCH   6   7
ATOM      7  C   UNL A   1      41.994  43.130  21.439  1.00  0.00     0.170 A 
ATOM      8  C   UNL A   1      45.581  45.808  17.180  1.00  0.00     0.057 C 
ATOM      9  C   UNL A   1      44.626  45.187  18.143  1.00  0.00     0.007 A 
ATOM     10  S   UNL A   1      45.223  44.429  19.568  1.00  0.00    -0.122 S 
ATOM     11  C   UNL A   1      43.240  45.152  18.076  1.00  0.00    -0.022 A 
ATOM     12  C   UNL A   1      43.669  43.998  20.060  1.00  0.00     0.108 A 
ATOM     13  C   UNL A   1      42.709  44.349  19.149  1.00  0.00     0.080 A 
ATOM     14  C   UNL A   1      42.393  45.843  17.049  1.00  0.00     0.046 C 
ATOM     15  N   UNL A   1      43.319  43.382  21.203  1.00  0.00    -0.326 N 
ATOM     16  C   UNL A   1      41.335  43.911  19.371  1.00  0.00     0.282 A 
ATOM     17  H   UNL A   1      44.003  43.117  21.859  1.00  0.00     0.169 HD
ATOM     18  N   UNL A   1      41.036  43.316  20.594  1.00  0.00    -0.185 NA
ATOM     19  O   UNL A   1      40.516  44.043  18.477  1.00  0.00    -0.267 OA
ENDBRANCH   6   7
ENDBRANCH   5   6
ENDBRANCH   3   5
ENDBRANCH   2   3
ENDBRANCH   1   2
BRANCH   1  20
ATOM     20  C   UNL A   1      41.924  39.491  27.358  1.00  0.00     0.275 C 
BRANCH  20  21
ATOM     21  O   UNL A   1      41.941  38.224  26.667  1.00  0.00    -0.458 OA
BRANCH  21  22
ATOM     22  C   UNL A   1      43.026  37.489  26.998  1.00  0.00     0.338 C 
ATOM     23  O   UNL A   1      44.183  37.791  26.739  1.00  0.00    -0.246 OA
BRANCH  22  24
ATOM     24  C   UNL A   1      42.707  36.210  27.660  1.00  0.00     0.060 A 
ATOM     25  C   UNL A   1      41.398  35.776  27.913  1.00  0.00     0.016 A 
ATOM     26  C   UNL A   1      43.767  35.646  28.356  1.00  0.00     0.016 A 
ATOM     27  C   UNL A   1      41.149  34.867  28.962  1.00  0.00     0.010 A 
ATOM     28  C   UNL A   1      43.512  34.761  29.397  1.00  0.00     0.010 A 
ATOM     29  C   UNL A   1      42.203  34.380  29.750  1.00  0.00    -0.014 A 
BRANCH  29  30
ATOM     30  C   UNL A   1      41.989  33.358  30.815  1.00  0.00     0.031 A 
ATOM     31  C   UNL A   1      40.568  33.281  31.298  1.00  0.00     0.074 A 
ATOM     32  C   UNL A   1      42.678  32.210  31.008  1.00  0.00     0.049 A 
ATOM     33  N   UNL A   1      39.647  32.548  30.734  1.00  0.00    -0.248 NA
ATOM     34  C   UNL A   1      40.048  34.284  32.226  1.00  0.00     0.031 C 
ATOM     35  C   UNL A   1      43.201  31.357  29.936  1.00  0.00     0.029 A 
ATOM     36  N   UNL A   1      42.765  31.424  32.143  1.00  0.00    -0.354 N 
ATOM     37  C   UNL A   1      38.429  33.066  31.128  1.00  0.00     0.074 A 
ATOM     38  C   UNL A   1      38.726  34.115  32.083  1.00  0.00     0.031 C 
ATOM     39  C   UNL A   1      43.380  30.111  30.432  1.00  0.00     0.029 A 
ATOM     40  C   UNL A   1      43.140  30.112  31.875  1.00  0.00     0.049 A 
ATOM     41  H   UNL A   1      42.579  31.760  33.051  1.00  0.00     0.167 HD
ATOM     42  C   UNL A   1      37.233  32.667  30.620  1.00  0.00     0.037 A 
ATOM     43  C   UNL A   1      42.802  29.027  32.627  1.00  0.00     0.037 A 
ATOM     44  C   UNL A   1      37.250  31.621  29.645  1.00  0.00     0.049 A 
ATOM     45  C   UNL A   1      41.375  28.808  32.191  1.00  0.00     0.074 A 
ATOM     46  C   UNL A   1      37.225  31.507  28.270  1.00  0.00     0.029 A 
ATOM     47  N   UNL A   1      37.309  30.323  30.090  1.00  0.00    -0.354 N 
ATOM     48  N   UNL A   1      40.958  28.193  31.118  1.00  0.00    -0.248 NA
ATOM     49  C   UNL A   1      40.357  29.609  32.877  1.00  0.00     0.031 C 
ATOM     50  C   UNL A   1      37.744  30.204  27.982  1.00  0.00     0.029 A 
ATOM     51  C   UNL A   1      38.104  29.642  29.204  1.00  0.00     0.049 A 
ATOM     52  H   UNL A   1      36.866  29.954  30.889  1.00  0.00     0.167 HD
ATOM     53  C   UNL A   1      39.704  28.750  30.849  1.00  0.00     0.074 A 
ATOM     54  C   UNL A   1      39.370  29.564  31.996  1.00  0.00     0.031 C 
ATOM     55  C   UNL A   1      39.098  28.686  29.629  1.00  0.00     0.037 A 
BRANCH  42  56
ATOM     56  C   UNL A   1      35.938  33.145  31.129  1.00  0.00     0.064 A 
ATOM     57  C   UNL A   1      35.271  34.134  30.394  1.00  0.00     0.173 A 
ATOM     58  C   UNL A   1      35.449  32.804  32.392  1.00  0.00     0.173 A 
ATOM     59  F   UNL A   1      35.732  34.492  29.183  1.00  0.00    -0.203 F 
ATOM     60  C   UNL A   1      34.168  34.792  30.919  1.00  0.00     0.198 A 
ATOM     61  C   UNL A   1      34.335  33.460  32.913  1.00  0.00     0.198 A 
ATOM     62  F   UNL A   1      36.066  31.870  33.130  1.00  0.00    -0.203 F 
ATOM     63  F   UNL A   1      33.577  35.764  30.214  1.00  0.00    -0.200 F 
ATOM     64  C   UNL A   1      33.705  34.461  32.183  1.00  0.00     0.200 A 
ATOM     65  F   UNL A   1      33.885  33.146  34.136  1.00  0.00    -0.200 F 
ATOM     66  F   UNL A   1      32.661  35.118  32.703  1.00  0.00    -0.200 F 
ENDBRANCH  42  56
BRANCH  43  67
ATOM     67  C   UNL A   1      43.194  29.048  34.080  1.00  0.00     0.064 A 
ATOM     68  C   UNL A   1      43.918  27.956  34.603  1.00  0.00     0.173 A 
ATOM     69  C   UNL A   1      42.887  30.068  34.997  1.00  0.00     0.173 A 
ATOM     70  F   UNL A   1      44.139  26.869  33.847  1.00  0.00    -0.203 F 
ATOM     71  C   UNL A   1      44.426  27.957  35.904  1.00  0.00     0.198 A 
ATOM     72  C   UNL A   1      43.422  30.086  36.288  1.00  0.00     0.198 A 
ATOM     73  F   UNL A   1      42.074  31.078  34.662  1.00  0.00    -0.203 F 
ATOM     74  F   UNL A   1      45.141  26.911  36.344  1.00  0.00    -0.200 F 
ATOM     75  C   UNL A   1      44.210  29.041  36.734  1.00  0.00     0.200 A 
ATOM     76  F   UNL A   1      43.188  31.134  37.090  1.00  0.00    -0.200 F 
ATOM     77  F   UNL A   1      44.749  29.075  37.960  1.00  0.00    -0.200 F 
ENDBRANCH  43  67
BRANCH  55  78
ATOM     78  C   UNL A   1      39.720  27.761  28.647  1.00  0.00     0.064 A 
ATOM     79  C   UNL A   1      39.465  26.386  28.729  1.00  0.00     0.173 A 
ATOM     80  C   UNL A   1      40.529  28.223  27.599  1.00  0.00     0.173 A 
ATOM     81  F   UNL A   1      38.686  25.899  29.707  1.00  0.00    -0.203 F 
ATOM     82  C   UNL A   1      39.981  25.508  27.781  1.00  0.00     0.198 A 
ATOM     83  C   UNL A   1      41.023  27.345  26.639  1.00  0.00     0.198 A 
ATOM     84  F   UNL A   1      40.823  29.527  27.480  1.00  0.00    -0.203 F 
ATOM     85  F   UNL A   1      39.713  24.197  27.869  1.00  0.00    -0.200 F 
ATOM     86  C   UNL A   1      40.747  25.990  26.731  1.00  0.00     0.200 A 
ATOM     87  F   UNL A   1      41.743  27.814  25.610  1.00  0.00    -0.200 F 
ATOM     88  F   UNL A   1      41.206  25.148  25.794  1.00  0.00    -0.200 F 
ENDBRANCH  55  78
ENDBRANCH  29  30
ENDBRANCH  22  24
ENDBRANCH  21  22
ENDBRANCH  20  21
ENDBRANCH   1  20
TORSDOF 13
ENDMDL
MODEL 2
REMARK VINA RESULT:     -12.1      7.621     10.653
REMARK SMILES Cc1sc2[nH]c(SCC(=O)OCCOC(=O)c3ccc(-c4c5nc(c(-c6c(F)c(F)c(F)c(F)c6F)c6ccc([nH]6)c(-c6c(F)c(F)c(F)c(F)c6F)c6nc(c(-c7c(F)c(F)c(F)c(F)c7F)c7ccc4[nH]7)C=C6)C=C5)cc3)nc(=O)c2c1C
REMARK SMILES IDX 12 1 11 2 9 3 10 4 8 5 7 6 6 7 1 8 2 9 3 10 84 11 4 12 83 13
REMARK SMILES IDX 85 14 5 15 81 16 80 18 82 19 13 20 14 21 15 22 16 23 17 24
REMARK SMILES IDX 18 25 79 26 19 27 78 28 20 29 21 30 22 31 72 32 23 33 77 34
REMARK SMILES IDX 71 35 73 36 24 37 76 38 70 39 69 40 25 42 57 43 37 44 56 45
REMARK SMILES IDX 38 46 41 47 55 48 74 49 39 50 40 51 54 53 75 54 42 55 26 56
REMARK SMILES IDX 27 57 35 58 28 59 29 60 33 61 36 62 30 63 31 64 34 65 32 66
REMARK SMILES IDX 58 67 59 68 67 69 60 70 61 71 65 72 68 73 62 74 63 75 66 76
REMARK SMILES IDX 64 77 43 78 44 79 52 80 45 81 46 82 50 83 53 84 47 85 48 86
REMARK SMILES IDX 51 87 49 88
REMARK H PARENT 5 17 73 41 41 52
REMARK Flexibility Score: inf
ROOT
ATOM      1  C   UNL A   1      33.057  34.981  28.923  1.00  0.00     0.274 C 
ENDROOT
BRANCH   1   2
ATOM      2  O   UNL A   1      33.284  34.708  30.326  1.00  0.00    -0.461 OA
BRANCH   2   3
ATOM      3  C   UNL A   1      33.124  35.768  31.159  1.00  0.00     0.316 C 
ATOM      4  O   UNL A   1      32.155  36.528  31.112  1.00  0.00    -0.251 OA
BRANCH   3   5
ATOM      5  C   UNL A   1      34.199  35.970  32.205  1.00  0.00     0.200 C 
BRANCH   5   6
ATOM      6  S   UNL A   1      34.339  34.739  33.516  1.00  0.00    -0.076 SA
BRANCH   6   7
ATOM      7  C   UNL A   1      35.970  34.124  33.315  1.00  0.00     0.170 A 
ATOM      8  C   UNL A   1      40.871  30.814  35.105  1.00  0.00     0.057 C 
ATOM      9  C   UNL A   1      39.757  31.671  34.605  1.00  0.00     0.007 A 
ATOM     10  S   UNL A   1      38.153  31.395  35.161  1.00  0.00    -0.122 S 
ATOM     11  C   UNL A   1      39.827  32.744  33.727  1.00  0.00    -0.022 A 
ATOM     12  C   UNL A   1      37.543  32.640  34.200  1.00  0.00     0.108 A 
ATOM     13  C   UNL A   1      38.503  33.220  33.415  1.00  0.00     0.080 A 
ATOM     14  C   UNL A   1      41.085  33.343  33.171  1.00  0.00     0.046 C 
ATOM     15  N   UNL A   1      36.274  33.082  34.149  1.00  0.00    -0.326 N 
ATOM     16  C   UNL A   1      38.096  34.213  32.426  1.00  0.00     0.282 A 
ATOM     17  H   UNL A   1      35.575  32.664  34.703  1.00  0.00     0.169 HD
ATOM     18  N   UNL A   1      36.776  34.653  32.458  1.00  0.00    -0.185 NA
ATOM     19  O   UNL A   1      38.904  34.587  31.592  1.00  0.00    -0.267 OA
ENDBRANCH   6   7
ENDBRANCH   5   6
ENDBRANCH   3   5
ENDBRANCH   2   3
ENDBRANCH   1   2
BRANCH   1  20
ATOM     20  C   UNL A   1      33.909  34.100  28.007  1.00  0.00     0.275 C 
BRANCH  20  21
ATOM     21  O   UNL A   1      34.817  33.277  28.770  1.00  0.00    -0.458 OA
BRANCH  21  22
ATOM     22  C   UNL A   1      35.058  32.097  28.156  1.00  0.00     0.338 C 
ATOM     23  O   UNL A   1      34.256  31.497  27.452  1.00  0.00    -0.246 OA
BRANCH  22  24
ATOM     24  C   UNL A   1      36.382  31.521  28.457  1.00  0.00     0.060 A 
ATOM     25  C   UNL A   1      36.825  30.294  27.942  1.00  0.00     0.016 A 
ATOM     26  C   UNL A   1      37.004  32.067  29.570  1.00  0.00     0.016 A 
ATOM     27  C   UNL A   1      37.809  29.557  28.632  1.00  0.00     0.010 A 
ATOM     28  C   UNL A   1      37.965  31.328  30.251  1.00  0.00     0.010 A 
ATOM     29  C   UNL A   1      38.364  30.047  29.824  1.00  0.00    -0.014 A 
BRANCH  29  30
ATOM     30  C   UNL A   1      39.462  29.334  30.538  1.00  0.00     0.031 A 
ATOM     31  C   UNL A   1      39.623  27.901  30.117  1.00  0.00     0.074 A 
ATOM     32  C   UNL A   1      40.595  29.869  31.050  1.00  0.00     0.049 A 
ATOM     33  N   UNL A   1      40.349  27.519  29.102  1.00  0.00    -0.248 NA
ATOM     34  C   UNL A   1      38.706  26.878  30.615  1.00  0.00     0.031 C 
ATOM     35  C   UNL A   1      41.353  30.966  30.441  1.00  0.00     0.029 A 
ATOM     36  N   UNL A   1      41.454  29.347  32.002  1.00  0.00    -0.354 N 
ATOM     37  C   UNL A   1      39.903  26.260  28.746  1.00  0.00     0.074 A 
ATOM     38  C   UNL A   1      38.912  25.888  29.735  1.00  0.00     0.031 C 
ATOM     39  C   UNL A   1      42.623  30.916  30.905  1.00  0.00     0.029 A 
ATOM     40  C   UNL A   1      42.729  29.898  31.950  1.00  0.00     0.049 A 
ATOM     41  H   UNL A   1      41.188  28.654  32.651  1.00  0.00     0.167 HD
ATOM     42  C   UNL A   1      40.310  25.598  27.631  1.00  0.00     0.037 A 
ATOM     43  C   UNL A   1      43.875  29.267  32.334  1.00  0.00     0.037 A 
ATOM     44  C   UNL A   1      41.285  26.239  26.805  1.00  0.00     0.049 A 
ATOM     45  C   UNL A   1      44.115  28.361  31.153  1.00  0.00     0.074 A 
ATOM     46  C   UNL A   1      41.306  27.009  25.661  1.00  0.00     0.029 A 
ATOM     47  N   UNL A   1      42.608  26.122  27.157  1.00  0.00    -0.354 N 
ATOM     48  N   UNL A   1      44.670  28.673  30.013  1.00  0.00    -0.248 NA
ATOM     49  C   UNL A   1      43.400  27.082  31.160  1.00  0.00     0.031 C 
ATOM     50  C   UNL A   1      42.567  27.688  25.675  1.00  0.00     0.029 A 
ATOM     51  C   UNL A   1      43.198  27.325  26.863  1.00  0.00     0.049 A 
ATOM     52  H   UNL A   1      43.047  25.330  27.545  1.00  0.00     0.167 HD
ATOM     53  C   UNL A   1      44.142  27.761  29.095  1.00  0.00     0.074 A 
ATOM     54  C   UNL A   1      43.421  26.778  29.872  1.00  0.00     0.031 C 
ATOM     55  C   UNL A   1      44.144  27.964  27.746  1.00  0.00     0.037 A 
BRANCH  42  56
ATOM     56  C   UNL A   1      39.915  24.214  27.324  1.00  0.00     0.064 A 
ATOM     57  C   UNL A   1      40.782  23.185  27.715  1.00  0.00     0.173 A 
ATOM     58  C   UNL A   1      38.830  23.901  26.503  1.00  0.00     0.173 A 
ATOM     59  F   UNL A   1      41.843  23.463  28.491  1.00  0.00    -0.203 F 
ATOM     60  C   UNL A   1      40.594  21.885  27.267  1.00  0.00     0.198 A 
ATOM     61  C   UNL A   1      38.638  22.592  26.062  1.00  0.00     0.198 A 
ATOM     62  F   UNL A   1      37.984  24.860  26.099  1.00  0.00    -0.203 F 
ATOM     63  F   UNL A   1      41.464  20.929  27.619  1.00  0.00    -0.200 F 
ATOM     64  C   UNL A   1      39.527  21.590  26.433  1.00  0.00     0.200 A 
ATOM     65  F   UNL A   1      37.610  22.303  25.253  1.00  0.00    -0.200 F 
ATOM     66  F   UNL A   1      39.365  20.342  25.975  1.00  0.00    -0.200 F 
ENDBRANCH  42  56
BRANCH  43  67
ATOM     67  C   UNL A   1      43.939  28.759  33.750  1.00  0.00     0.064 A 
ATOM     68  C   UNL A   1      45.055  29.101  34.543  1.00  0.00     0.173 A 
ATOM     69  C   UNL A   1      42.980  27.942  34.371  1.00  0.00     0.173 A 
ATOM     70  F   UNL A   1      46.091  29.758  34.001  1.00  0.00    -0.203 F 
ATOM     71  C   UNL A   1      45.129  28.775  35.899  1.00  0.00     0.198 A 
ATOM     72  C   UNL A   1      43.036  27.644  35.736  1.00  0.00     0.198 A 
ATOM     73  F   UNL A   1      41.957  27.423  33.678  1.00  0.00    -0.203 F 
ATOM     74  F   UNL A   1      46.193  29.154  36.621  1.00  0.00    -0.200 F 
ATOM     75  C   UNL A   1      44.099  28.079  36.504  1.00  0.00     0.200 A 
ATOM     76  F   UNL A   1      42.040  26.951  36.307  1.00  0.00    -0.200 F 
ATOM     77  F   UNL A   1      44.135  27.820  37.819  1.00  0.00    -0.200 F 
ENDBRANCH  43  67
BRANCH  55  78
ATOM     78  C   UNL A   1      44.977  29.095  27.265  1.00  0.00     0.064 A 
ATOM     79  C   UNL A   1      44.397  30.358  27.082  1.00  0.00     0.173 A 
ATOM     80  C   UNL A   1      46.351  28.957  27.024  1.00  0.00     0.173 A 
ATOM     81  F   UNL A   1      43.087  30.541  27.312  1.00  0.00    -0.203 F 
ATOM     82  C   UNL A   1      45.170  31.447  26.696  1.00  0.00     0.198 A 
ATOM     83  C   UNL A   1      47.126  30.055  26.662  1.00  0.00     0.198 A 
ATOM     84  F   UNL A   1      46.959  27.769  27.164  1.00  0.00    -0.203 F 
ATOM     85  F   UNL A   1      44.599  32.651  26.541  1.00  0.00    -0.200 F 
ATOM     86  C   UNL A   1      46.535  31.298  26.500  1.00  0.00     0.200 A 
ATOM     87  F   UNL A   1      48.449  29.916  26.496  1.00  0.00    -0.200 F 
ATOM     88  F   UNL A   1      47.285  32.359  26.171  1.00  0.00    -0.200 F 
ENDBRANCH  55  78
ENDBRANCH  29  30
ENDBRANCH  22  24
ENDBRANCH  21  22
ENDBRANCH  20  21
ENDBRANCH   1  20
TORSDOF 13
ENDMDL
MODEL 3
REMARK VINA RESULT:     -12.1      8.266     12.270
REMARK SMILES Cc1sc2[nH]c(SCC(=O)OCCOC(=O)c3ccc(-c4c5nc(c(-c6c(F)c(F)c(F)c(F)c6F)c6ccc([nH]6)c(-c6c(F)c(F)c(F)c(F)c6F)c6nc(c(-c7c(F)c(F)c(F)c(F)c7F)c7ccc4[nH]7)C=C6)C=C5)cc3)nc(=O)c2c1C
REMARK SMILES IDX 12 1 11 2 9 3 10 4 8 5 7 6 6 7 1 8 2 9 3 10 84 11 4 12 83 13
REMARK SMILES IDX 85 14 5 15 81 16 80 18 82 19 13 20 14 21 15 22 16 23 17 24
REMARK SMILES IDX 18 25 79 26 19 27 78 28 20 29 21 30 22 31 72 32 23 33 77 34
REMARK SMILES IDX 71 35 73 36 24 37 76 38 70 39 69 40 25 42 57 43 37 44 56 45
REMARK SMILES IDX 38 46 41 47 55 48 74 49 39 50 40 51 54 53 75 54 42 55 26 56
REMARK SMILES IDX 27 57 35 58 28 59 29 60 33 61 36 62 30 63 31 64 34 65 32 66
REMARK SMILES IDX 58 67 59 68 67 69 60 70 61 71 65 72 68 73 62 74 63 75 66 76
REMARK SMILES IDX 64 77 43 78 44 79 52 80 45 81 46 82 50 83 53 84 47 85 48 86
REMARK SMILES IDX 51 87 49 88
REMARK H PARENT 5 17 73 41 41 52
REMARK Flexibility Score: inf
ROOT
ATOM      1  C   UNL A   1      36.153  21.089  25.323  1.00  0.00     0.274 C 
ENDROOT
BRANCH   1   2
ATOM      2  O   UNL A   1      35.257  22.225  25.353  1.00  0.00    -0.461 OA
BRANCH   2   3
ATOM      3  C   UNL A   1      34.557  22.445  24.210  1.00  0.00     0.316 C 
ATOM      4  O   UNL A   1      35.056  22.924  23.190  1.00  0.00    -0.251 OA
BRANCH   3   5
ATOM      5  C   UNL A   1      33.099  22.037  24.225  1.00  0.00     0.200 C 
BRANCH   5   6
ATOM      6  S   UNL A   1      32.120  22.466  25.678  1.00  0.00    -0.076 SA
BRANCH   6   7
ATOM      7  C   UNL A   1      32.017  24.216  25.588  1.00  0.00     0.170 A 
ATOM      8  C   UNL A   1      29.767  29.493  23.293  1.00  0.00     0.057 C 
ATOM      9  C   UNL A   1      30.399  28.278  23.885  1.00  0.00     0.007 A 
ATOM     10  S   UNL A   1      29.591  26.762  23.785  1.00  0.00    -0.122 S 
ATOM     11  C   UNL A   1      31.630  28.172  24.518  1.00  0.00    -0.022 A 
ATOM     12  C   UNL A   1      30.826  25.983  24.630  1.00  0.00     0.108 A 
ATOM     13  C   UNL A   1      31.805  26.843  25.047  1.00  0.00     0.080 A 
ATOM     14  C   UNL A   1      32.650  29.265  24.643  1.00  0.00     0.046 C 
ATOM     15  N   UNL A   1      30.922  24.669  24.903  1.00  0.00    -0.326 N 
ATOM     16  C   UNL A   1      32.864  26.336  25.915  1.00  0.00     0.282 A 
ATOM     17  H   UNL A   1      30.217  24.045  24.615  1.00  0.00     0.169 HD
ATOM     18  N   UNL A   1      32.925  24.960  26.122  1.00  0.00    -0.185 NA
ATOM     19  O   UNL A   1      33.622  27.125  26.453  1.00  0.00    -0.267 OA
ENDBRANCH   6   7
ENDBRANCH   5   6
ENDBRANCH   3   5
ENDBRANCH   2   3
ENDBRANCH   1   2
BRANCH   1  20
ATOM     20  C   UNL A   1      37.614  21.499  25.126  1.00  0.00     0.275 C 
BRANCH  20  21
ATOM     21  O   UNL A   1      38.023  22.471  26.111  1.00  0.00    -0.458 OA
BRANCH  21  22
ATOM     22  C   UNL A   1      39.299  22.272  26.510  1.00  0.00     0.338 C 
ATOM     23  O   UNL A   1      39.913  21.219  26.395  1.00  0.00    -0.246 OA
BRANCH  22  24
ATOM     24  C   UNL A   1      39.908  23.434  27.183  1.00  0.00     0.060 A 
ATOM     25  C   UNL A   1      39.164  24.415  27.853  1.00  0.00     0.016 A 
ATOM     26  C   UNL A   1      41.211  23.705  26.791  1.00  0.00     0.016 A 
ATOM     27  C   UNL A   1      39.693  25.714  28.009  1.00  0.00     0.010 A 
ATOM     28  C   UNL A   1      41.720  24.990  26.936  1.00  0.00     0.010 A 
ATOM     29  C   UNL A   1      40.966  26.031  27.512  1.00  0.00    -0.014 A 
BRANCH  29  30
ATOM     30  C   UNL A   1      41.589  27.369  27.728  1.00  0.00     0.031 A 
ATOM     31  C   UNL A   1      40.603  28.502  27.708  1.00  0.00     0.074 A 
ATOM     32  C   UNL A   1      42.711  27.652  28.429  1.00  0.00     0.049 A 
ATOM     33  N   UNL A   1      39.935  28.903  28.755  1.00  0.00    -0.248 NA
ATOM     34  C   UNL A   1      40.083  29.007  26.438  1.00  0.00     0.031 C 
ATOM     35  C   UNL A   1      43.121  26.976  29.663  1.00  0.00     0.029 A 
ATOM     36  N   UNL A   1      43.514  28.778  28.373  1.00  0.00    -0.354 N 
ATOM     37  C   UNL A   1      38.841  29.603  28.285  1.00  0.00     0.074 A 
ATOM     38  C   UNL A   1      38.995  29.675  26.847  1.00  0.00     0.031 C 
ATOM     39  C   UNL A   1      43.964  27.792  30.337  1.00  0.00     0.029 A 
ATOM     40  C   UNL A   1      44.277  28.965  29.521  1.00  0.00     0.049 A 
ATOM     41  H   UNL A   1      43.543  29.386  27.598  1.00  0.00     0.167 HD
ATOM     42  C   UNL A   1      37.824  30.041  29.074  1.00  0.00     0.037 A 
ATOM     43  C   UNL A   1      44.712  30.168  29.990  1.00  0.00     0.037 A 
ATOM     44  C   UNL A   1      37.925  29.787  30.477  1.00  0.00     0.049 A 
ATOM     45  C   UNL A   1      43.452  30.702  30.624  1.00  0.00     0.074 A 
ATOM     46  C   UNL A   1      37.461  28.854  31.381  1.00  0.00     0.029 A 
ATOM     47  N   UNL A   1      38.670  30.654  31.240  1.00  0.00    -0.354 N 
ATOM     48  N   UNL A   1      42.976  30.415  31.805  1.00  0.00    -0.248 NA
ATOM     49  C   UNL A   1      42.512  31.382  29.729  1.00  0.00     0.031 C 
ATOM     50  C   UNL A   1      38.333  28.947  32.514  1.00  0.00     0.029 A 
ATOM     51  C   UNL A   1      39.303  29.892  32.189  1.00  0.00     0.049 A 
ATOM     52  H   UNL A   1      38.737  31.630  31.126  1.00  0.00     0.167 HD
ATOM     53  C   UNL A   1      41.599  30.635  31.700  1.00  0.00     0.074 A 
ATOM     54  C   UNL A   1      41.391  31.284  30.426  1.00  0.00     0.031 C 
ATOM     55  C   UNL A   1      40.683  30.098  32.556  1.00  0.00     0.037 A 
BRANCH  42  56
ATOM     56  C   UNL A   1      36.723  30.883  28.579  1.00  0.00     0.064 A 
ATOM     57  C   UNL A   1      36.867  32.273  28.682  1.00  0.00     0.173 A 
ATOM     58  C   UNL A   1      35.484  30.363  28.200  1.00  0.00     0.173 A 
ATOM     59  F   UNL A   1      38.044  32.798  29.061  1.00  0.00    -0.203 F 
ATOM     60  C   UNL A   1      35.792  33.120  28.449  1.00  0.00     0.198 A 
ATOM     61  C   UNL A   1      34.409  31.217  27.958  1.00  0.00     0.198 A 
ATOM     62  F   UNL A   1      35.305  29.038  28.101  1.00  0.00    -0.203 F 
ATOM     63  F   UNL A   1      35.944  34.442  28.598  1.00  0.00    -0.200 F 
ATOM     64  C   UNL A   1      34.560  32.591  28.097  1.00  0.00     0.200 A 
ATOM     65  F   UNL A   1      33.215  30.709  27.620  1.00  0.00    -0.200 F 
ATOM     66  F   UNL A   1      33.515  33.407  27.904  1.00  0.00    -0.200 F 
ENDBRANCH  42  56
BRANCH  43  67
ATOM     67  C   UNL A   1      45.549  31.007  29.061  1.00  0.00     0.064 A 
ATOM     68  C   UNL A   1      46.868  31.330  29.443  1.00  0.00     0.173 A 
ATOM     69  C   UNL A   1      45.130  31.527  27.824  1.00  0.00     0.173 A 
ATOM     70  F   UNL A   1      47.316  31.002  30.665  1.00  0.00    -0.203 F 
ATOM     71  C   UNL A   1      47.747  31.995  28.586  1.00  0.00     0.198 A 
ATOM     72  C   UNL A   1      46.017  32.162  26.951  1.00  0.00     0.198 A 
ATOM     73  F   UNL A   1      43.856  31.421  27.424  1.00  0.00    -0.203 F 
ATOM     74  F   UNL A   1      49.003  32.248  28.980  1.00  0.00    -0.200 F 
ATOM     75  C   UNL A   1      47.332  32.377  27.323  1.00  0.00     0.200 A 
ATOM     76  F   UNL A   1      45.597  32.545  25.737  1.00  0.00    -0.200 F 
ATOM     77  F   UNL A   1      48.190  32.956  26.473  1.00  0.00    -0.200 F 
ENDBRANCH  43  67
BRANCH  55  78
ATOM     78  C   UNL A   1      41.237  29.467  33.782  1.00  0.00     0.064 A 
ATOM     79  C   UNL A   1      41.576  28.108  33.772  1.00  0.00     0.173 A 
ATOM     80  C   UNL A   1      41.478  30.201  34.952  1.00  0.00     0.173 A 
ATOM     81  F   UNL A   1      41.376  27.368  32.670  1.00  0.00    -0.203 F 
ATOM     82  C   UNL A   1      42.158  27.511  34.885  1.00  0.00     0.198 A 
ATOM     83  C   UNL A   1      42.083  29.606  36.055  1.00  0.00     0.198 A 
ATOM     84  F   UNL A   1      41.157  31.502  35.028  1.00  0.00    -0.203 F 
ATOM     85  F   UNL A   1      42.489  26.211  34.851  1.00  0.00    -0.200 F 
ATOM     86  C   UNL A   1      42.423  28.263  36.020  1.00  0.00     0.200 A 
ATOM     87  F   UNL A   1      42.361  30.339  37.143  1.00  0.00    -0.200 F 
ATOM     88  F   UNL A   1      43.024  27.695  37.075  1.00  0.00    -0.200 F 
ENDBRANCH  55  78
ENDBRANCH  29  30
ENDBRANCH  22  24
ENDBRANCH  21  22
ENDBRANCH  20  21
ENDBRANCH   1  20
TORSDOF 13
ENDMDL
