MODEL 1
REMARK VINA RESULT:     -14.0      0.000      0.000
REMARK SMILES Cc1cc(F)ccc1S(=O)(=O)Nc1ccc2oc(C)c(C(=O)OCCOC(=O)c3ccc(-c4c5nc(c(-c6c(F)c(F)c(F)c(F)c6F)c6ccc([nH]6)c(-c6c(F)c(F)c(F)c(F)c6F)c6nc(c(-c7c(F)c(F)c(F)c(F)c7F)c7ccc4[nH]7)C=C6)C=C5)cc3)c2c1
REMARK SMILES IDX 24 1 23 2 21 3 22 4 20 5 13 6 14 7 93 8 15 9 92 10 16 11
REMARK SMILES IDX 17 12 18 13 19 14 12 15 9 17 10 18 11 19 8 20 1 21 2 22 3 23
REMARK SMILES IDX 4 24 7 25 5 26 6 27 25 28 26 29 27 30 28 31 29 32 30 33
REMARK SMILES IDX 91 34 31 35 90 36 32 37 33 38 34 39 84 40 35 41 89 42 83 43
REMARK SMILES IDX 85 44 36 45 88 46 82 47 81 48 37 50 69 51 49 52 68 53 50 54
REMARK SMILES IDX 53 55 67 56 86 57 51 58 52 59 66 61 87 62 54 63 38 64 39 65
REMARK SMILES IDX 47 66 40 67 41 68 45 69 48 70 42 71 43 72 46 73 44 74 70 75
REMARK SMILES IDX 71 76 79 77 72 78 73 79 77 80 80 81 74 82 75 83 78 84 76 85
REMARK SMILES IDX 55 86 56 87 64 88 57 89 58 90 62 91 65 92 59 93 60 94 63 95
REMARK SMILES IDX 61 96
REMARK H PARENT 12 16 85 49 53 60
REMARK Flexibility Score: inf
ROOT
ATOM      1  C   UNL A   1      34.243  31.668  28.091  1.00  0.00     0.275 C 
ENDROOT
BRANCH   1   2
ATOM      2  O   UNL A   1      34.400  30.867  26.898  1.00  0.00    -0.458 OA
BRANCH   2   3
ATOM      3  C   UNL A   1      33.784  29.648  26.823  1.00  0.00     0.342 C 
ATOM      4  O   UNL A   1      34.029  28.711  27.577  1.00  0.00    -0.246 OA
BRANCH   3   5
ATOM      5  C   UNL A   1      32.762  29.586  25.782  1.00  0.00     0.109 A 
ATOM      6  C   UNL A   1      32.948  26.925  22.995  1.00  0.00     0.050 A 
ATOM      7  C   UNL A   1      31.716  27.252  22.427  1.00  0.00     0.030 A 
ATOM      8  C   UNL A   1      33.404  27.579  24.154  1.00  0.00     0.039 A 
ATOM      9  C   UNL A   1      30.957  28.313  22.920  1.00  0.00     0.050 A 
ATOM     10  C   UNL A   1      32.660  28.668  24.673  1.00  0.00     0.037 A 
ATOM     11  C   UNL A   1      31.477  28.996  24.018  1.00  0.00     0.135 A 
ATOM     12  O   UNL A   1      30.881  30.055  24.613  1.00  0.00    -0.460 OA
ATOM     13  C   UNL A   1      31.649  30.411  25.678  1.00  0.00     0.116 A 
ATOM     14  C   UNL A   1      31.132  31.568  26.442  1.00  0.00     0.088 C 
BRANCH   6  15
ATOM     15  N   UNL A   1      33.652  25.858  22.384  1.00  0.00    -0.280 N 
ATOM     16  H   UNL A   1      34.291  26.064  21.664  1.00  0.00     0.180 HD
BRANCH  15  17
ATOM     17  S   UNL A   1      33.441  24.253  22.840  1.00  0.00     0.262 S 
ATOM     18  O   UNL A   1      33.523  23.518  21.590  1.00  0.00    -0.201 OA
ATOM     19  O   UNL A   1      32.255  24.130  23.654  1.00  0.00    -0.201 OA
BRANCH  17  20
ATOM     20  C   UNL A   1      34.883  23.798  23.819  1.00  0.00     0.090 A 
ATOM     21  C   UNL A   1      34.022  24.820  26.045  1.00  0.00     0.046 C 
ATOM     22  C   UNL A   1      35.005  24.069  25.200  1.00  0.00    -0.028 A 
ATOM     23  C   UNL A   1      36.156  23.624  25.879  1.00  0.00     0.044 A 
ATOM     24  C   UNL A   1      37.108  22.846  25.239  1.00  0.00     0.123 A 
ATOM     25  C   UNL A   1      35.865  23.005  23.186  1.00  0.00     0.025 A 
ATOM     26  F   UNL A   1      38.160  22.391  25.931  1.00  0.00    -0.207 F 
ATOM     27  C   UNL A   1      36.964  22.518  23.901  1.00  0.00     0.040 A 
ENDBRANCH  17  20
ENDBRANCH  15  17
ENDBRANCH   6  15
ENDBRANCH   3   5
ENDBRANCH   2   3
ENDBRANCH   1   2
BRANCH   1  28
ATOM     28  C   UNL A   1      35.410  32.635  28.313  1.00  0.00     0.275 C 
BRANCH  28  29
ATOM     29  O   UNL A   1      36.653  32.016  27.957  1.00  0.00    -0.458 OA
BRANCH  29  30
ATOM     30  C   UNL A   1      37.097  31.199  28.928  1.00  0.00     0.338 C 
ATOM     31  O   UNL A   1      37.482  31.524  30.044  1.00  0.00    -0.246 OA
BRANCH  30  32
ATOM     32  C   UNL A   1      37.262  29.821  28.465  1.00  0.00     0.060 A 
ATOM     33  C   UNL A   1      37.375  28.915  29.525  1.00  0.00     0.016 A 
ATOM     34  C   UNL A   1      38.055  29.724  27.324  1.00  0.00     0.016 A 
ATOM     35  C   UNL A   1      38.531  28.170  29.629  1.00  0.00     0.010 A 
ATOM     36  C   UNL A   1      39.186  28.943  27.405  1.00  0.00     0.010 A 
ATOM     37  C   UNL A   1      39.468  28.266  28.600  1.00  0.00    -0.014 A 
BRANCH  37  38
ATOM     38  C   UNL A   1      40.771  27.641  28.708  1.00  0.00     0.031 A 
ATOM     39  C   UNL A   1      40.877  26.195  28.472  1.00  0.00     0.074 A 
ATOM     40  C   UNL A   1      41.844  28.383  29.049  1.00  0.00     0.049 A 
ATOM     41  N   UNL A   1      41.790  25.424  28.956  1.00  0.00    -0.248 NA
ATOM     42  C   UNL A   1      39.852  25.484  27.713  1.00  0.00     0.031 C 
ATOM     43  C   UNL A   1      43.244  28.006  28.932  1.00  0.00     0.029 A 
ATOM     44  N   UNL A   1      41.858  29.598  29.753  1.00  0.00    -0.354 N 
ATOM     45  C   UNL A   1      41.663  24.210  28.319  1.00  0.00     0.074 A 
ATOM     46  C   UNL A   1      40.368  24.255  27.682  1.00  0.00     0.031 C 
ATOM     47  C   UNL A   1      43.976  28.809  29.720  1.00  0.00     0.029 A 
ATOM     48  C   UNL A   1      43.051  29.607  30.508  1.00  0.00     0.049 A 
ATOM     49  H   UNL A   1      41.170  30.303  29.726  1.00  0.00     0.167 HD
ATOM     50  C   UNL A   1      42.752  23.391  28.227  1.00  0.00     0.037 A 
ATOM     51  C   UNL A   1      43.006  29.601  31.872  1.00  0.00     0.037 A 
ATOM     52  C   UNL A   1      43.873  23.916  29.008  1.00  0.00     0.049 A 
ATOM     53  C   UNL A   1      43.552  28.344  32.517  1.00  0.00     0.074 A 
ATOM     54  C   UNL A   1      44.967  24.702  28.679  1.00  0.00     0.029 A 
ATOM     55  N   UNL A   1      43.782  23.947  30.389  1.00  0.00    -0.354 N 
ATOM     56  N   UNL A   1      43.884  27.268  31.863  1.00  0.00    -0.248 NA
ATOM     57  C   UNL A   1      43.667  28.175  33.968  1.00  0.00     0.031 C 
ATOM     58  C   UNL A   1      45.496  25.253  29.878  1.00  0.00     0.029 A 
ATOM     59  C   UNL A   1      44.731  24.795  30.933  1.00  0.00     0.049 A 
ATOM     60  H   UNL A   1      43.128  23.432  30.916  1.00  0.00     0.167 HD
ATOM     61  C   UNL A   1      44.267  26.302  32.748  1.00  0.00     0.074 A 
ATOM     62  C   UNL A   1      44.089  26.902  34.058  1.00  0.00     0.031 C 
ATOM     63  C   UNL A   1      44.712  25.078  32.356  1.00  0.00     0.037 A 
BRANCH  50  64
ATOM     64  C   UNL A   1      42.890  22.371  27.117  1.00  0.00     0.064 A 
ATOM     65  C   UNL A   1      42.183  21.151  27.175  1.00  0.00     0.173 A 
ATOM     66  C   UNL A   1      43.780  22.478  26.031  1.00  0.00     0.173 A 
ATOM     67  F   UNL A   1      41.194  20.957  28.057  1.00  0.00    -0.203 F 
ATOM     68  C   UNL A   1      42.467  20.077  26.329  1.00  0.00     0.198 A 
ATOM     69  C   UNL A   1      44.110  21.386  25.221  1.00  0.00     0.198 A 
ATOM     70  F   UNL A   1      44.317  23.655  25.687  1.00  0.00    -0.203 F 
ATOM     71  F   UNL A   1      41.778  18.934  26.453  1.00  0.00    -0.200 F 
ATOM     72  C   UNL A   1      43.466  20.178  25.385  1.00  0.00     0.200 A 
ATOM     73  F   UNL A   1      45.060  21.516  24.284  1.00  0.00    -0.200 F 
ATOM     74  F   UNL A   1      43.782  19.128  24.614  1.00  0.00    -0.200 F 
ENDBRANCH  50  64
BRANCH  51  75
ATOM     75  C   UNL A   1      41.872  30.374  32.427  1.00  0.00     0.064 A 
ATOM     76  C   UNL A   1      41.946  31.777  32.486  1.00  0.00     0.173 A 
ATOM     77  C   UNL A   1      40.621  29.780  32.589  1.00  0.00     0.173 A 
ATOM     78  F   UNL A   1      43.128  32.394  32.325  1.00  0.00    -0.203 F 
ATOM     79  C   UNL A   1      40.801  32.556  32.631  1.00  0.00     0.198 A 
ATOM     80  C   UNL A   1      39.483  30.562  32.723  1.00  0.00     0.198 A 
ATOM     81  F   UNL A   1      40.485  28.446  32.537  1.00  0.00    -0.203 F 
ATOM     82  F   UNL A   1      40.891  33.893  32.612  1.00  0.00    -0.200 F 
ATOM     83  C   UNL A   1      39.564  31.947  32.736  1.00  0.00     0.200 A 
ATOM     84  F   UNL A   1      38.300  29.952  32.788  1.00  0.00    -0.200 F 
ATOM     85  F   UNL A   1      38.459  32.698  32.833  1.00  0.00    -0.200 F 
ENDBRANCH  51  75
BRANCH  63  86
ATOM     86  C   UNL A   1      45.253  24.079  33.320  1.00  0.00     0.064 A 
ATOM     87  C   UNL A   1      46.573  24.158  33.794  1.00  0.00     0.173 A 
ATOM     88  C   UNL A   1      44.513  22.939  33.682  1.00  0.00     0.173 A 
ATOM     89  F   UNL A   1      47.361  25.190  33.453  1.00  0.00    -0.203 F 
ATOM     90  C   UNL A   1      47.110  23.168  34.613  1.00  0.00     0.198 A 
ATOM     91  C   UNL A   1      45.070  21.929  34.461  1.00  0.00     0.198 A 
ATOM     92  F   UNL A   1      43.236  22.794  33.297  1.00  0.00    -0.203 F 
ATOM     93  F   UNL A   1      48.359  23.299  35.082  1.00  0.00    -0.200 F 
ATOM     94  C   UNL A   1      46.365  22.048  34.935  1.00  0.00     0.200 A 
ATOM     95  F   UNL A   1      44.347  20.837  34.751  1.00  0.00    -0.200 F 
ATOM     96  F   UNL A   1      46.892  21.083  35.700  1.00  0.00    -0.200 F 
ENDBRANCH  63  86
ENDBRANCH  37  38
ENDBRANCH  30  32
ENDBRANCH  29  30
ENDBRANCH  28  29
ENDBRANCH   1  28
TORSDOF 14
ENDMDL
MODEL 2
REMARK VINA RESULT:     -13.8      3.954     10.375
REMARK SMILES Cc1cc(F)ccc1S(=O)(=O)Nc1ccc2oc(C)c(C(=O)OCCOC(=O)c3ccc(-c4c5nc(c(-c6c(F)c(F)c(F)c(F)c6F)c6ccc([nH]6)c(-c6c(F)c(F)c(F)c(F)c6F)c6nc(c(-c7c(F)c(F)c(F)c(F)c7F)c7ccc4[nH]7)C=C6)C=C5)cc3)c2c1
REMARK SMILES IDX 24 1 23 2 21 3 22 4 20 5 13 6 14 7 93 8 15 9 92 10 16 11
REMARK SMILES IDX 17 12 18 13 19 14 12 15 9 17 10 18 11 19 8 20 1 21 2 22 3 23
REMARK SMILES IDX 4 24 7 25 5 26 6 27 25 28 26 29 27 30 28 31 29 32 30 33
REMARK SMILES IDX 91 34 31 35 90 36 32 37 33 38 34 39 84 40 35 41 89 42 83 43
REMARK SMILES IDX 85 44 36 45 88 46 82 47 81 48 37 50 69 51 49 52 68 53 50 54
REMARK SMILES IDX 53 55 67 56 86 57 51 58 52 59 66 61 87 62 54 63 38 64 39 65
REMARK SMILES IDX 47 66 40 67 41 68 45 69 48 70 42 71 43 72 46 73 44 74 70 75
REMARK SMILES IDX 71 76 79 77 72 78 73 79 77 80 80 81 74 82 75 83 78 84 76 85
REMARK SMILES IDX 55 86 56 87 64 88 57 89 58 90 62 91 65 92 59 93 60 94 63 95
REMARK SMILES IDX 61 96
REMARK H PARENT 12 16 85 49 53 60
REMARK Flexibility Score: inf
ROOT
ATOM      1  C   UNL A   1      39.331  21.751  26.183  1.00  0.00     0.275 C 
ENDROOT
BRANCH   1   2
ATOM      2  O   UNL A   1      38.138  22.472  26.566  1.00  0.00    -0.458 OA
BRANCH   2   3
ATOM      3  C   UNL A   1      37.259  22.876  25.598  1.00  0.00     0.342 C 
ATOM      4  O   UNL A   1      37.444  23.847  24.870  1.00  0.00    -0.246 OA
BRANCH   3   5
ATOM      5  C   UNL A   1      36.095  22.004  25.482  1.00  0.00     0.109 A 
ATOM      6  C   UNL A   1      32.576  23.281  26.414  1.00  0.00     0.050 A 
ATOM      7  C   UNL A   1      31.909  22.132  25.990  1.00  0.00     0.030 A 
ATOM      8  C   UNL A   1      33.968  23.408  26.254  1.00  0.00     0.039 A 
ATOM      9  C   UNL A   1      32.614  21.030  25.507  1.00  0.00     0.050 A 
ATOM     10  C   UNL A   1      34.713  22.301  25.775  1.00  0.00     0.037 A 
ATOM     11  C   UNL A   1      34.000  21.155  25.440  1.00  0.00     0.135 A 
ATOM     12  O   UNL A   1      34.836  20.182  25.009  1.00  0.00    -0.460 OA
ATOM     13  C   UNL A   1      36.098  20.690  25.029  1.00  0.00     0.116 A 
ATOM     14  C   UNL A   1      37.144  19.741  24.586  1.00  0.00     0.088 C 
BRANCH   6  15
ATOM     15  N   UNL A   1      31.761  24.321  26.929  1.00  0.00    -0.280 N 
ATOM     16  H   UNL A   1      31.563  24.332  27.892  1.00  0.00     0.180 HD
BRANCH  15  17
ATOM     17  S   UNL A   1      31.120  25.535  25.959  1.00  0.00     0.262 S 
ATOM     18  O   UNL A   1      29.802  25.774  26.518  1.00  0.00    -0.201 OA
ATOM     19  O   UNL A   1      31.240  25.163  24.568  1.00  0.00    -0.201 OA
BRANCH  17  20
ATOM     20  C   UNL A   1      32.101  27.015  26.263  1.00  0.00     0.090 A 
ATOM     21  C   UNL A   1      33.975  26.443  24.559  1.00  0.00     0.046 C 
ATOM     22  C   UNL A   1      33.298  27.312  25.574  1.00  0.00    -0.028 A 
ATOM     23  C   UNL A   1      33.961  28.523  25.857  1.00  0.00     0.044 A 
ATOM     24  C   UNL A   1      33.404  29.458  26.716  1.00  0.00     0.123 A 
ATOM     25  C   UNL A   1      31.553  27.982  27.135  1.00  0.00     0.025 A 
ATOM     26  F   UNL A   1      34.032  30.624  26.915  1.00  0.00    -0.207 F 
ATOM     27  C   UNL A   1      32.197  29.206  27.345  1.00  0.00     0.040 A 
ENDBRANCH  17  20
ENDBRANCH  15  17
ENDBRANCH   6  15
ENDBRANCH   3   5
ENDBRANCH   2   3
ENDBRANCH   1   2
BRANCH   1  28
ATOM     28  C   UNL A   1      40.612  22.558  26.416  1.00  0.00     0.275 C 
BRANCH  28  29
ATOM     29  O   UNL A   1      40.598  23.160  27.717  1.00  0.00    -0.458 OA
BRANCH  29  30
ATOM     30  C   UNL A   1      41.043  24.429  27.682  1.00  0.00     0.338 C 
ATOM     31  O   UNL A   1      42.186  24.812  27.895  1.00  0.00    -0.246 OA
BRANCH  30  32
ATOM     32  C   UNL A   1      39.957  25.397  27.533  1.00  0.00     0.060 A 
ATOM     33  C   UNL A   1      40.333  26.501  26.760  1.00  0.00     0.016 A 
ATOM     34  C   UNL A   1      39.188  25.532  28.687  1.00  0.00     0.016 A 
ATOM     35  C   UNL A   1      40.291  27.751  27.341  1.00  0.00     0.010 A 
ATOM     36  C   UNL A   1      39.103  26.787  29.246  1.00  0.00     0.010 A 
ATOM     37  C   UNL A   1      39.754  27.861  28.623  1.00  0.00    -0.014 A 
BRANCH  37  38
ATOM     38  C   UNL A   1      39.819  29.107  29.362  1.00  0.00     0.031 A 
ATOM     39  C   UNL A   1      38.812  30.140  29.082  1.00  0.00     0.074 A 
ATOM     40  C   UNL A   1      40.806  29.304  30.259  1.00  0.00     0.049 A 
ATOM     41  N   UNL A   1      38.972  31.406  29.268  1.00  0.00    -0.248 NA
ATOM     42  C   UNL A   1      37.539  29.795  28.457  1.00  0.00     0.031 C 
ATOM     43  C   UNL A   1      40.871  30.340  31.277  1.00  0.00     0.029 A 
ATOM     44  N   UNL A   1      42.063  28.679  30.302  1.00  0.00    -0.354 N 
ATOM     45  C   UNL A   1      37.736  31.990  29.101  1.00  0.00     0.074 A 
ATOM     46  C   UNL A   1      36.929  30.980  28.457  1.00  0.00     0.031 C 
ATOM     47  C   UNL A   1      42.142  30.460  31.691  1.00  0.00     0.029 A 
ATOM     48  C   UNL A   1      42.963  29.633  30.823  1.00  0.00     0.049 A 
ATOM     49  H   UNL A   1      42.273  27.758  30.023  1.00  0.00     0.167 HD
ATOM     50  C   UNL A   1      37.475  33.181  29.717  1.00  0.00     0.037 A 
ATOM     51  C   UNL A   1      43.985  30.111  30.054  1.00  0.00     0.037 A 
ATOM     52  C   UNL A   1      38.682  33.726  30.342  1.00  0.00     0.049 A 
ATOM     53  C   UNL A   1      43.880  31.581  29.705  1.00  0.00     0.074 A 
ATOM     54  C   UNL A   1      39.191  33.657  31.630  1.00  0.00     0.029 A 
ATOM     55  N   UNL A   1      39.726  34.156  29.540  1.00  0.00    -0.354 N 
ATOM     56  N   UNL A   1      42.836  32.321  29.950  1.00  0.00    -0.248 NA
ATOM     57  C   UNL A   1      44.914  32.302  28.959  1.00  0.00     0.031 C 
ATOM     58  C   UNL A   1      40.571  33.996  31.582  1.00  0.00     0.029 A 
ATOM     59  C   UNL A   1      40.897  34.279  30.269  1.00  0.00     0.049 A 
ATOM     60  H   UNL A   1      39.646  34.351  28.578  1.00  0.00     0.167 HD
ATOM     61  C   UNL A   1      43.042  33.572  29.445  1.00  0.00     0.074 A 
ATOM     62  C   UNL A   1      44.344  33.509  28.807  1.00  0.00     0.031 C 
ATOM     63  C   UNL A   1      42.140  34.581  29.586  1.00  0.00     0.037 A 
BRANCH  50  64
ATOM     64  C   UNL A   1      36.065  33.602  30.075  1.00  0.00     0.064 A 
ATOM     65  C   UNL A   1      35.201  34.116  29.086  1.00  0.00     0.173 A 
ATOM     66  C   UNL A   1      35.542  33.631  31.381  1.00  0.00     0.173 A 
ATOM     67  F   UNL A   1      35.492  34.019  27.782  1.00  0.00    -0.203 F 
ATOM     68  C   UNL A   1      34.000  34.756  29.398  1.00  0.00     0.198 A 
ATOM     69  C   UNL A   1      34.371  34.324  31.704  1.00  0.00     0.198 A 
ATOM     70  F   UNL A   1      36.118  32.947  32.377  1.00  0.00    -0.203 F 
ATOM     71  F   UNL A   1      33.235  35.248  28.414  1.00  0.00    -0.200 F 
ATOM     72  C   UNL A   1      33.609  34.906  30.712  1.00  0.00     0.200 A 
ATOM     73  F   UNL A   1      33.989  34.426  32.986  1.00  0.00    -0.200 F 
ATOM     74  F   UNL A   1      32.488  35.573  31.016  1.00  0.00    -0.200 F 
ENDBRANCH  50  64
BRANCH  51  75
ATOM     75  C   UNL A   1      44.558  29.097  29.140  1.00  0.00     0.064 A 
ATOM     76  C   UNL A   1      45.502  28.174  29.626  1.00  0.00     0.173 A 
ATOM     77  C   UNL A   1      43.954  28.827  27.913  1.00  0.00     0.173 A 
ATOM     78  F   UNL A   1      46.102  28.387  30.808  1.00  0.00    -0.203 F 
ATOM     79  C   UNL A   1      45.778  26.994  28.940  1.00  0.00     0.198 A 
ATOM     80  C   UNL A   1      44.226  27.644  27.240  1.00  0.00     0.198 A 
ATOM     81  F   UNL A   1      43.040  29.665  27.400  1.00  0.00    -0.203 F 
ATOM     82  F   UNL A   1      46.629  26.099  29.460  1.00  0.00    -0.200 F 
ATOM     83  C   UNL A   1      45.127  26.722  27.751  1.00  0.00     0.200 A 
ATOM     84  F   UNL A   1      43.560  27.390  26.114  1.00  0.00    -0.200 F 
ATOM     85  F   UNL A   1      45.362  25.566  27.114  1.00  0.00    -0.200 F 
ENDBRANCH  51  75
BRANCH  63  86
ATOM     86  C   UNL A   1      42.429  35.976  29.149  1.00  0.00     0.064 A 
ATOM     87  C   UNL A   1      41.931  36.482  27.938  1.00  0.00     0.173 A 
ATOM     88  C   UNL A   1      43.329  36.791  29.859  1.00  0.00     0.173 A 
ATOM     89  F   UNL A   1      41.107  35.746  27.177  1.00  0.00    -0.203 F 
ATOM     90  C   UNL A   1      42.286  37.748  27.480  1.00  0.00     0.198 A 
ATOM     91  C   UNL A   1      43.718  38.037  29.374  1.00  0.00     0.198 A 
ATOM     92  F   UNL A   1      43.833  36.399  31.039  1.00  0.00    -0.203 F 
ATOM     93  F   UNL A   1      41.756  38.216  26.340  1.00  0.00    -0.200 F 
ATOM     94  C   UNL A   1      43.190  38.519  28.190  1.00  0.00     0.200 A 
ATOM     95  F   UNL A   1      44.610  38.768  30.058  1.00  0.00    -0.200 F 
ATOM     96  F   UNL A   1      43.551  39.726  27.734  1.00  0.00    -0.200 F 
ENDBRANCH  63  86
ENDBRANCH  37  38
ENDBRANCH  30  32
ENDBRANCH  29  30
ENDBRANCH  28  29
ENDBRANCH   1  28
TORSDOF 14
ENDMDL
MODEL 3
REMARK VINA RESULT:     -13.3      3.564      6.006
REMARK SMILES Cc1cc(F)ccc1S(=O)(=O)Nc1ccc2oc(C)c(C(=O)OCCOC(=O)c3ccc(-c4c5nc(c(-c6c(F)c(F)c(F)c(F)c6F)c6ccc([nH]6)c(-c6c(F)c(F)c(F)c(F)c6F)c6nc(c(-c7c(F)c(F)c(F)c(F)c7F)c7ccc4[nH]7)C=C6)C=C5)cc3)c2c1
REMARK SMILES IDX 24 1 23 2 21 3 22 4 20 5 13 6 14 7 93 8 15 9 92 10 16 11
REMARK SMILES IDX 17 12 18 13 19 14 12 15 9 17 10 18 11 19 8 20 1 21 2 22 3 23
REMARK SMILES IDX 4 24 7 25 5 26 6 27 25 28 26 29 27 30 28 31 29 32 30 33
REMARK SMILES IDX 91 34 31 35 90 36 32 37 33 38 34 39 84 40 35 41 89 42 83 43
REMARK SMILES IDX 85 44 36 45 88 46 82 47 81 48 37 50 69 51 49 52 68 53 50 54
REMARK SMILES IDX 53 55 67 56 86 57 51 58 52 59 66 61 87 62 54 63 38 64 39 65
REMARK SMILES IDX 47 66 40 67 41 68 45 69 48 70 42 71 43 72 46 73 44 74 70 75
REMARK SMILES IDX 71 76 79 77 72 78 73 79 77 80 80 81 74 82 75 83 78 84 76 85
REMARK SMILES IDX 55 86 56 87 64 88 57 89 58 90 62 91 65 92 59 93 60 94 63 95
REMARK SMILES IDX 61 96
REMARK H PARENT 12 16 85 49 53 60
REMARK Flexibility Score: inf
ROOT
ATOM      1  C   UNL A   1      32.980  35.913  29.850  1.00  0.00     0.275 C 
ENDROOT
BRANCH   1   2
ATOM      2  O   UNL A   1      33.641  34.658  29.569  1.00  0.00    -0.458 OA
BRANCH   2   3
ATOM      3  C   UNL A   1      34.467  34.564  28.483  1.00  0.00     0.342 C 
ATOM      4  O   UNL A   1      34.645  35.473  27.678  1.00  0.00    -0.246 OA
BRANCH   3   5
ATOM      5  C   UNL A   1      35.162  33.282  28.403  1.00  0.00     0.109 A 
ATOM      6  C   UNL A   1      33.327  30.123  27.162  1.00  0.00     0.050 A 
ATOM      7  C   UNL A   1      34.460  29.309  27.170  1.00  0.00     0.030 A 
ATOM      8  C   UNL A   1      33.417  31.487  27.493  1.00  0.00     0.039 A 
ATOM      9  C   UNL A   1      35.688  29.792  27.620  1.00  0.00     0.050 A 
ATOM     10  C   UNL A   1      34.650  32.006  27.963  1.00  0.00     0.037 A 
ATOM     11  C   UNL A   1      35.726  31.126  28.021  1.00  0.00     0.135 A 
ATOM     12  O   UNL A   1      36.828  31.752  28.495  1.00  0.00    -0.460 OA
ATOM     13  C   UNL A   1      36.494  33.051  28.723  1.00  0.00     0.116 A 
ATOM     14  C   UNL A   1      37.599  33.881  29.252  1.00  0.00     0.088 C 
BRANCH   6  15
ATOM     15  N   UNL A   1      32.124  29.513  26.727  1.00  0.00    -0.280 N 
ATOM     16  H   UNL A   1      31.458  29.248  27.402  1.00  0.00     0.180 HD
BRANCH  15  17
ATOM     17  S   UNL A   1      31.788  29.222  25.106  1.00  0.00     0.262 S 
ATOM     18  O   UNL A   1      33.077  29.355  24.450  1.00  0.00    -0.201 OA
ATOM     19  O   UNL A   1      30.690  30.057  24.678  1.00  0.00    -0.201 OA
BRANCH  17  20
ATOM     20  C   UNL A   1      31.303  27.492  24.977  1.00  0.00     0.090 A 
ATOM     21  C   UNL A   1      30.831  27.541  22.424  1.00  0.00     0.046 C 
ATOM     22  C   UNL A   1      30.941  26.872  23.760  1.00  0.00    -0.028 A 
ATOM     23  C   UNL A   1      30.626  25.499  23.766  1.00  0.00     0.044 A 
ATOM     24  C   UNL A   1      30.765  24.739  24.917  1.00  0.00     0.123 A 
ATOM     25  C   UNL A   1      31.437  26.699  26.138  1.00  0.00     0.025 A 
ATOM     26  F   UNL A   1      30.513  23.425  24.872  1.00  0.00    -0.207 F 
ATOM     27  C   UNL A   1      31.184  25.324  26.100  1.00  0.00     0.040 A 
ENDBRANCH  17  20
ENDBRANCH  15  17
ENDBRANCH   6  15
ENDBRANCH   3   5
ENDBRANCH   2   3
ENDBRANCH   1   2
BRANCH   1  28
ATOM     28  C   UNL A   1      32.857  36.195  31.350  1.00  0.00     0.275 C 
BRANCH  28  29
ATOM     29  O   UNL A   1      32.981  34.982  32.103  1.00  0.00    -0.458 OA
BRANCH  29  30
ATOM     30  C   UNL A   1      34.051  35.010  32.917  1.00  0.00     0.338 C 
ATOM     31  O   UNL A   1      34.744  35.982  33.187  1.00  0.00    -0.246 OA
BRANCH  30  32
ATOM     32  C   UNL A   1      34.457  33.672  33.349  1.00  0.00     0.060 A 
ATOM     33  C   UNL A   1      35.401  33.712  34.381  1.00  0.00     0.016 A 
ATOM     34  C   UNL A   1      34.556  32.768  32.293  1.00  0.00     0.016 A 
ATOM     35  C   UNL A   1      36.637  33.142  34.161  1.00  0.00     0.010 A 
ATOM     36  C   UNL A   1      35.775  32.159  32.096  1.00  0.00     0.010 A 
ATOM     37  C   UNL A   1      36.834  32.445  32.969  1.00  0.00    -0.014 A 
BRANCH  37  38
ATOM     38  C   UNL A   1      38.145  31.954  32.592  1.00  0.00     0.031 A 
ATOM     39  C   UNL A   1      38.240  30.649  31.924  1.00  0.00     0.074 A 
ATOM     40  C   UNL A   1      39.243  32.682  32.885  1.00  0.00     0.049 A 
ATOM     41  N   UNL A   1      39.271  29.875  31.942  1.00  0.00    -0.248 NA
ATOM     42  C   UNL A   1      37.086  30.073  31.241  1.00  0.00     0.031 C 
ATOM     43  C   UNL A   1      40.583  32.501  32.350  1.00  0.00     0.029 A 
ATOM     44  N   UNL A   1      39.386  33.649  33.893  1.00  0.00    -0.354 N 
ATOM     45  C   UNL A   1      39.034  28.878  31.023  1.00  0.00     0.074 A 
ATOM     46  C   UNL A   1      37.621  28.961  30.735  1.00  0.00     0.031 C 
ATOM     47  C   UNL A   1      41.457  33.127  33.153  1.00  0.00     0.029 A 
ATOM     48  C   UNL A   1      40.727  33.575  34.327  1.00  0.00     0.049 A 
ATOM     49  H   UNL A   1      38.689  34.258  34.229  1.00  0.00     0.167 HD
ATOM     50  C   UNL A   1      40.095  28.236  30.451  1.00  0.00     0.037 A 
ATOM     51  C   UNL A   1      41.020  33.187  35.604  1.00  0.00     0.037 A 
ATOM     52  C   UNL A   1      41.355  28.638  31.078  1.00  0.00     0.049 A 
ATOM     53  C   UNL A   1      41.751  31.865  35.711  1.00  0.00     0.074 A 
ATOM     54  C   UNL A   1      42.306  29.595  30.757  1.00  0.00     0.029 A 
ATOM     55  N   UNL A   1      41.606  28.277  32.391  1.00  0.00    -0.354 N 
ATOM     56  N   UNL A   1      41.950  31.053  34.712  1.00  0.00    -0.248 NA
ATOM     57  C   UNL A   1      42.225  31.315  36.983  1.00  0.00     0.031 C 
ATOM     58  C   UNL A   1      43.094  29.846  31.913  1.00  0.00     0.029 A 
ATOM     59  C   UNL A   1      42.629  29.036  32.932  1.00  0.00     0.049 A 
ATOM     60  H   UNL A   1      41.120  27.571  32.877  1.00  0.00     0.167 HD
ATOM     61  C   UNL A   1      42.572  29.926  35.165  1.00  0.00     0.074 A 
ATOM     62  C   UNL A   1      42.700  30.118  36.598  1.00  0.00     0.031 C 
ATOM     63  C   UNL A   1      42.950  28.911  34.341  1.00  0.00     0.037 A 
BRANCH  50  64
ATOM     64  C   UNL A   1      39.992  27.582  29.089  1.00  0.00     0.064 A 
ATOM     65  C   UNL A   1      39.417  26.301  28.953  1.00  0.00     0.173 A 
ATOM     66  C   UNL A   1      40.536  28.107  27.902  1.00  0.00     0.173 A 
ATOM     67  F   UNL A   1      38.728  25.734  29.952  1.00  0.00    -0.203 F 
ATOM     68  C   UNL A   1      39.531  25.547  27.783  1.00  0.00     0.198 A 
ATOM     69  C   UNL A   1      40.705  27.333  26.749  1.00  0.00     0.198 A 
ATOM     70  F   UNL A   1      40.872  29.399  27.803  1.00  0.00    -0.203 F 
ATOM     71  F   UNL A   1      38.985  24.324  27.726  1.00  0.00    -0.200 F 
ATOM     72  C   UNL A   1      40.219  26.044  26.697  1.00  0.00     0.200 A 
ATOM     73  F   UNL A   1      41.346  27.849  25.689  1.00  0.00    -0.200 F 
ATOM     74  F   UNL A   1      40.382  25.298  25.596  1.00  0.00    -0.200 F 
ENDBRANCH  50  64
BRANCH  51  75
ATOM     75  C   UNL A   1      40.030  33.653  36.601  1.00  0.00     0.064 A 
ATOM     76  C   UNL A   1      39.014  32.782  37.036  1.00  0.00     0.173 A 
ATOM     77  C   UNL A   1      40.269  34.802  37.354  1.00  0.00     0.173 A 
ATOM     78  F   UNL A   1      38.755  31.658  36.349  1.00  0.00    -0.203 F 
ATOM     79  C   UNL A   1      38.314  33.020  38.215  1.00  0.00     0.198 A 
ATOM     80  C   UNL A   1      39.574  35.029  38.533  1.00  0.00     0.198 A 
ATOM     81  F   UNL A   1      41.229  35.668  36.995  1.00  0.00    -0.203 F 
ATOM     82  F   UNL A   1      37.400  32.138  38.643  1.00  0.00    -0.200 F 
ATOM     83  C   UNL A   1      38.604  34.139  38.974  1.00  0.00     0.200 A 
ATOM     84  F   UNL A   1      39.897  36.096  39.263  1.00  0.00    -0.200 F 
ATOM     85  F   UNL A   1      37.959  34.345  40.130  1.00  0.00    -0.200 F 
ENDBRANCH  51  75
BRANCH  63  86
ATOM     86  C   UNL A   1      43.746  27.747  34.822  1.00  0.00     0.064 A 
ATOM     87  C   UNL A   1      45.151  27.769  34.819  1.00  0.00     0.173 A 
ATOM     88  C   UNL A   1      43.128  26.531  35.161  1.00  0.00     0.173 A 
ATOM     89  F   UNL A   1      45.817  28.877  34.459  1.00  0.00    -0.203 F 
ATOM     90  C   UNL A   1      45.894  26.645  35.170  1.00  0.00     0.198 A 
ATOM     91  C   UNL A   1      43.875  25.396  35.465  1.00  0.00     0.198 A 
ATOM     92  F   UNL A   1      41.792  26.427  35.216  1.00  0.00    -0.203 F 
ATOM     93  F   UNL A   1      47.233  26.715  35.198  1.00  0.00    -0.200 F 
ATOM     94  C   UNL A   1      45.258  25.456  35.479  1.00  0.00     0.200 A 
ATOM     95  F   UNL A   1      43.250  24.243  35.743  1.00  0.00    -0.200 F 
ATOM     96  F   UNL A   1      45.975  24.368  35.790  1.00  0.00    -0.200 F 
ENDBRANCH  63  86
ENDBRANCH  37  38
ENDBRANCH  30  32
ENDBRANCH  29  30
ENDBRANCH  28  29
ENDBRANCH   1  28
TORSDOF 14
ENDMDL
