MODEL 1
REMARK VINA RESULT:     -13.6      0.000      0.000
REMARK SMILES O=C(OCCOC(=O)c1ccc([C@H]2Nc3ccc(Cl)cc3[C@H]3C=CC[C@H]32)cc1)c1ccc(-c2c3nc(c(-c4c(F)c(F)c(F)c(F)c4F)c4ccc([nH]4)c(-c4c(F)c(F)c(F)c(F)c4F)c4nc(c(-c5c(F)c(F)c(F)c(F)c5F)c5ccc2[nH]5)C=C4)C=C3)cc1
REMARK SMILES IDX 4 1 3 2 2 3 1 4 29 5 30 6 91 7 31 8 90 9 32 10 33 11 34 12
REMARK SMILES IDX 84 13 35 14 89 15 83 16 85 17 36 18 88 19 82 20 81 21 37 23
REMARK SMILES IDX 69 24 49 25 68 26 50 27 53 28 67 29 86 30 51 31 52 32 66 34
REMARK SMILES IDX 87 35 54 36 38 37 39 38 47 39 40 40 41 41 45 42 48 43 42 44
REMARK SMILES IDX 43 45 46 46 44 47 70 48 71 49 79 50 72 51 73 52 77 53 80 54
REMARK SMILES IDX 74 55 75 56 78 57 76 58 55 59 56 60 64 61 57 62 58 63 62 64
REMARK SMILES IDX 65 65 59 66 60 67 63 68 61 69 5 70 6 71 7 72 8 73 9 74 10 75
REMARK SMILES IDX 28 76 11 77 27 78 12 79 13 80 14 81 26 82 15 83 22 85 25 86
REMARK SMILES IDX 16 87 21 88 23 89 24 90 17 91 20 92 18 93 19 94
REMARK H PARENT 85 22 53 33 14 84
REMARK Flexibility Score: inf
ROOT
ATOM      1  C   UNL A   1      31.559  32.014  26.784  1.00  0.00     0.275 C 
ENDROOT
BRANCH   1   2
ATOM      2  O   UNL A   1      32.613  32.992  26.842  1.00  0.00    -0.458 OA
BRANCH   2   3
ATOM      3  C   UNL A   1      33.279  33.493  27.908  1.00  0.00     0.338 C 
ATOM      4  O   UNL A   1      32.964  34.600  28.343  1.00  0.00    -0.246 OA
BRANCH   3   5
ATOM      5  C   UNL A   1      34.474  32.835  28.515  1.00  0.00     0.060 A 
ATOM      6  C   UNL A   1      34.482  31.610  29.184  1.00  0.00     0.016 A 
ATOM      7  C   UNL A   1      35.688  33.542  28.424  1.00  0.00     0.016 A 
ATOM      8  C   UNL A   1      35.672  31.060  29.664  1.00  0.00     0.010 A 
ATOM      9  C   UNL A   1      36.879  33.000  28.910  1.00  0.00     0.010 A 
ATOM     10  C   UNL A   1      36.878  31.747  29.527  1.00  0.00    -0.014 A 
BRANCH  10  11
ATOM     11  C   UNL A   1      38.096  31.188  30.153  1.00  0.00     0.031 A 
ATOM     12  C   UNL A   1      38.440  31.606  31.549  1.00  0.00     0.074 A 
ATOM     13  C   UNL A   1      38.802  30.229  29.526  1.00  0.00     0.049 A 
ATOM     14  N   UNL A   1      39.366  31.142  32.345  1.00  0.00    -0.248 NA
ATOM     15  C   UNL A   1      37.601  32.658  32.147  1.00  0.00     0.031 C 
ATOM     16  C   UNL A   1      38.491  29.694  28.203  1.00  0.00     0.029 A 
ATOM     17  N   UNL A   1      39.911  29.523  29.914  1.00  0.00    -0.354 N 
ATOM     18  C   UNL A   1      39.175  31.789  33.555  1.00  0.00     0.074 A 
ATOM     19  C   UNL A   1      38.104  32.744  33.368  1.00  0.00     0.031 C 
ATOM     20  C   UNL A   1      39.410  28.775  27.866  1.00  0.00     0.029 A 
ATOM     21  C   UNL A   1      40.364  28.642  28.961  1.00  0.00     0.049 A 
ATOM     22  H   UNL A   1      40.342  29.636  30.791  1.00  0.00     0.167 HD
ATOM     23  C   UNL A   1      39.808  31.568  34.729  1.00  0.00     0.037 A 
ATOM     24  C   UNL A   1      41.428  27.819  28.980  1.00  0.00     0.037 A 
ATOM     25  C   UNL A   1      40.902  30.649  34.886  1.00  0.00     0.049 A 
ATOM     26  C   UNL A   1      42.237  27.735  30.244  1.00  0.00     0.074 A 
ATOM     27  C   UNL A   1      41.656  30.384  36.013  1.00  0.00     0.029 A 
ATOM     28  N   UNL A   1      41.408  29.853  33.865  1.00  0.00    -0.354 N 
ATOM     29  N   UNL A   1      42.036  28.336  31.392  1.00  0.00    -0.248 NA
ATOM     30  C   UNL A   1      43.397  26.838  30.228  1.00  0.00     0.031 C 
ATOM     31  C   UNL A   1      42.647  29.458  35.664  1.00  0.00     0.029 A 
ATOM     32  C   UNL A   1      42.478  29.109  34.333  1.00  0.00     0.049 A 
ATOM     33  H   UNL A   1      41.059  29.823  32.945  1.00  0.00     0.167 HD
ATOM     34  C   UNL A   1      43.017  27.862  32.248  1.00  0.00     0.074 A 
ATOM     35  C   UNL A   1      43.809  26.915  31.486  1.00  0.00     0.031 C 
ATOM     36  C   UNL A   1      43.241  28.170  33.549  1.00  0.00     0.037 A 
BRANCH  23  37
ATOM     37  C   UNL A   1      39.322  32.341  35.918  1.00  0.00     0.064 A 
ATOM     38  C   UNL A   1      39.791  33.638  36.184  1.00  0.00     0.173 A 
ATOM     39  C   UNL A   1      38.392  31.784  36.806  1.00  0.00     0.173 A 
ATOM     40  F   UNL A   1      40.700  34.207  35.376  1.00  0.00    -0.203 F 
ATOM     41  C   UNL A   1      39.366  34.337  37.311  1.00  0.00     0.198 A 
ATOM     42  C   UNL A   1      37.952  32.496  37.919  1.00  0.00     0.198 A 
ATOM     43  F   UNL A   1      37.922  30.545  36.601  1.00  0.00    -0.203 F 
ATOM     44  F   UNL A   1      39.866  35.553  37.572  1.00  0.00    -0.200 F 
ATOM     45  C   UNL A   1      38.443  33.767  38.174  1.00  0.00     0.200 A 
ATOM     46  F   UNL A   1      37.060  31.944  38.753  1.00  0.00    -0.200 F 
ATOM     47  F   UNL A   1      38.039  34.438  39.262  1.00  0.00    -0.200 F 
ENDBRANCH  23  37
BRANCH  24  48
ATOM     48  C   UNL A   1      41.805  27.033  27.774  1.00  0.00     0.064 A 
ATOM     49  C   UNL A   1      41.307  25.748  27.526  1.00  0.00     0.173 A 
ATOM     50  C   UNL A   1      42.729  27.552  26.859  1.00  0.00     0.173 A 
ATOM     51  F   UNL A   1      40.442  25.190  28.384  1.00  0.00    -0.203 F 
ATOM     52  C   UNL A   1      41.737  25.010  26.422  1.00  0.00     0.198 A 
ATOM     53  C   UNL A   1      43.138  26.831  25.741  1.00  0.00     0.198 A 
ATOM     54  F   UNL A   1      43.249  28.768  27.065  1.00  0.00    -0.203 F 
ATOM     55  F   UNL A   1      41.287  23.762  26.238  1.00  0.00    -0.200 F 
ATOM     56  C   UNL A   1      42.648  25.553  25.528  1.00  0.00     0.200 A 
ATOM     57  F   UNL A   1      44.013  27.369  24.880  1.00  0.00    -0.200 F 
ATOM     58  F   UNL A   1      43.064  24.842  24.472  1.00  0.00    -0.200 F 
ENDBRANCH  24  48
BRANCH  36  59
ATOM     59  C   UNL A   1      44.354  27.436  34.232  1.00  0.00     0.064 A 
ATOM     60  C   UNL A   1      44.152  26.191  34.843  1.00  0.00     0.173 A 
ATOM     61  C   UNL A   1      45.646  27.985  34.263  1.00  0.00     0.173 A 
ATOM     62  F   UNL A   1      42.929  25.637  34.859  1.00  0.00    -0.203 F 
ATOM     63  C   UNL A   1      45.196  25.535  35.488  1.00  0.00     0.198 A 
ATOM     64  C   UNL A   1      46.694  27.311  34.880  1.00  0.00     0.198 A 
ATOM     65  F   UNL A   1      45.890  29.174  33.691  1.00  0.00    -0.203 F 
ATOM     66  F   UNL A   1      44.967  24.374  36.116  1.00  0.00    -0.200 F 
ATOM     67  C   UNL A   1      46.466  26.092  35.499  1.00  0.00     0.200 A 
ATOM     68  F   UNL A   1      47.923  27.845  34.881  1.00  0.00    -0.200 F 
ATOM     69  F   UNL A   1      47.471  25.457  36.120  1.00  0.00    -0.200 F 
ENDBRANCH  36  59
ENDBRANCH  10  11
ENDBRANCH   3   5
ENDBRANCH   2   3
ENDBRANCH   1   2
BRANCH   1  70
ATOM     70  C   UNL A   1      32.020  30.555  26.749  1.00  0.00     0.275 C 
BRANCH  70  71
ATOM     71  O   UNL A   1      32.397  30.088  25.443  1.00  0.00    -0.458 OA
BRANCH  71  72
ATOM     72  C   UNL A   1      31.552  29.169  24.900  1.00  0.00     0.338 C 
ATOM     73  O   UNL A   1      30.559  29.402  24.231  1.00  0.00    -0.246 OA
BRANCH  72  74
ATOM     74  C   UNL A   1      32.075  27.804  25.122  1.00  0.00     0.060 A 
ATOM     75  C   UNL A   1      33.452  27.596  25.036  1.00  0.00     0.016 A 
ATOM     76  C   UNL A   1      31.239  26.736  25.438  1.00  0.00     0.016 A 
ATOM     77  C   UNL A   1      33.989  26.333  25.319  1.00  0.00     0.007 A 
ATOM     78  C   UNL A   1      31.788  25.473  25.721  1.00  0.00     0.007 A 
ATOM     79  C   UNL A   1      33.170  25.240  25.677  1.00  0.00    -0.025 A 
BRANCH  79  80
ATOM     80  C   UNL A   1      33.852  23.947  26.142  1.00  0.00     0.114 C 
ATOM     81  N   UNL A   1      32.889  22.869  25.959  1.00  0.00    -0.378 N 
ATOM     82  C   UNL A   1      35.286  23.590  25.707  1.00  0.00     0.031 C 
ATOM     83  C   UNL A   1      33.211  21.589  25.575  1.00  0.00     0.038 A 
ATOM     84  H   UNL A   1      31.940  23.073  26.122  1.00  0.00     0.161 HD
ATOM     85  C   UNL A   1      35.633  22.099  25.948  1.00  0.00     0.049 C 
ATOM     86  C   UNL A   1      35.788  23.824  24.278  1.00  0.00     0.034 C 
ATOM     87  C   UNL A   1      32.182  20.710  25.202  1.00  0.00     0.027 A 
ATOM     88  C   UNL A   1      34.542  21.177  25.438  1.00  0.00    -0.016 A 
ATOM     89  C   UNL A   1      36.925  21.995  25.179  1.00  0.00    -0.023 C 
ATOM     90  C   UNL A   1      37.007  22.952  24.247  1.00  0.00    -0.030 C 
ATOM     91  C   UNL A   1      32.460  19.466  24.637  1.00  0.00     0.022 A 
ATOM     92  C   UNL A   1      34.818  19.914  24.880  1.00  0.00     0.027 A 
ATOM     93  C   UNL A   1      33.780  19.082  24.458  1.00  0.00     0.041 A 
ATOM     94  Cl  UNL A   1      34.137  17.577  23.706  1.00  0.00    -0.084 Cl
ENDBRANCH  79  80
ENDBRANCH  72  74
ENDBRANCH  71  72
ENDBRANCH  70  71
ENDBRANCH   1  70
TORSDOF 12
ENDMDL
MODEL 2
REMARK VINA RESULT:     -13.6      0.116      1.120
REMARK SMILES O=C(OCCOC(=O)c1ccc([C@H]2Nc3ccc(Cl)cc3[C@H]3C=CC[C@H]32)cc1)c1ccc(-c2c3nc(c(-c4c(F)c(F)c(F)c(F)c4F)c4ccc([nH]4)c(-c4c(F)c(F)c(F)c(F)c4F)c4nc(c(-c5c(F)c(F)c(F)c(F)c5F)c5ccc2[nH]5)C=C4)C=C3)cc1
REMARK SMILES IDX 4 1 3 2 2 3 1 4 29 5 30 6 91 7 31 8 90 9 32 10 33 11 34 12
REMARK SMILES IDX 84 13 35 14 89 15 83 16 85 17 36 18 88 19 82 20 81 21 37 23
REMARK SMILES IDX 69 24 49 25 68 26 50 27 53 28 67 29 86 30 51 31 52 32 66 34
REMARK SMILES IDX 87 35 54 36 38 37 39 38 47 39 40 40 41 41 45 42 48 43 42 44
REMARK SMILES IDX 43 45 46 46 44 47 70 48 71 49 79 50 72 51 73 52 77 53 80 54
REMARK SMILES IDX 74 55 75 56 78 57 76 58 55 59 56 60 64 61 57 62 58 63 62 64
REMARK SMILES IDX 65 65 59 66 60 67 63 68 61 69 5 70 6 71 7 72 8 73 9 74 10 75
REMARK SMILES IDX 28 76 11 77 27 78 12 79 13 80 14 81 26 82 15 83 22 85 25 86
REMARK SMILES IDX 16 87 21 88 23 89 24 90 17 91 20 92 18 93 19 94
REMARK H PARENT 85 22 53 33 14 84
REMARK Flexibility Score: inf
ROOT
ATOM      1  C   UNL A   1      31.468  32.165  26.856  1.00  0.00     0.275 C 
ENDROOT
BRANCH   1   2
ATOM      2  O   UNL A   1      32.609  33.040  26.821  1.00  0.00    -0.458 OA
BRANCH   2   3
ATOM      3  C   UNL A   1      33.326  33.577  27.835  1.00  0.00     0.338 C 
ATOM      4  O   UNL A   1      33.068  34.720  28.209  1.00  0.00    -0.246 OA
BRANCH   3   5
ATOM      5  C   UNL A   1      34.514  32.909  28.447  1.00  0.00     0.060 A 
ATOM      6  C   UNL A   1      34.519  31.659  29.067  1.00  0.00     0.016 A 
ATOM      7  C   UNL A   1      35.721  33.632  28.416  1.00  0.00     0.016 A 
ATOM      8  C   UNL A   1      35.702  31.104  29.557  1.00  0.00     0.010 A 
ATOM      9  C   UNL A   1      36.905  33.085  28.912  1.00  0.00     0.010 A 
ATOM     10  C   UNL A   1      36.904  31.809  29.479  1.00  0.00    -0.014 A 
BRANCH  10  11
ATOM     11  C   UNL A   1      38.111  31.239  30.115  1.00  0.00     0.031 A 
ATOM     12  C   UNL A   1      38.442  31.647  31.516  1.00  0.00     0.074 A 
ATOM     13  C   UNL A   1      38.819  30.280  29.490  1.00  0.00     0.049 A 
ATOM     14  N   UNL A   1      39.357  31.173  32.320  1.00  0.00    -0.248 NA
ATOM     15  C   UNL A   1      37.604  32.701  32.112  1.00  0.00     0.031 C 
ATOM     16  C   UNL A   1      38.518  29.754  28.161  1.00  0.00     0.029 A 
ATOM     17  N   UNL A   1      39.919  29.565  29.885  1.00  0.00    -0.354 N 
ATOM     18  C   UNL A   1      39.157  31.815  33.532  1.00  0.00     0.074 A 
ATOM     19  C   UNL A   1      38.094  32.776  33.339  1.00  0.00     0.031 C 
ATOM     20  C   UNL A   1      39.436  28.832  27.828  1.00  0.00     0.029 A 
ATOM     21  C   UNL A   1      40.377  28.687  28.932  1.00  0.00     0.049 A 
ATOM     22  H   UNL A   1      40.342  29.671  30.768  1.00  0.00     0.167 HD
ATOM     23  C   UNL A   1      39.776  31.583  34.711  1.00  0.00     0.037 A 
ATOM     24  C   UNL A   1      41.437  27.858  28.958  1.00  0.00     0.037 A 
ATOM     25  C   UNL A   1      40.863  30.657  34.874  1.00  0.00     0.049 A 
ATOM     26  C   UNL A   1      42.231  27.762  30.230  1.00  0.00     0.074 A 
ATOM     27  C   UNL A   1      41.604  30.381  36.008  1.00  0.00     0.029 A 
ATOM     28  N   UNL A   1      41.376  29.864  33.854  1.00  0.00    -0.354 N 
ATOM     29  N   UNL A   1      42.021  28.357  31.379  1.00  0.00    -0.248 NA
ATOM     30  C   UNL A   1      43.387  26.858  30.222  1.00  0.00     0.031 C 
ATOM     31  C   UNL A   1      42.593  29.451  35.664  1.00  0.00     0.029 A 
ATOM     32  C   UNL A   1      42.436  29.111  34.329  1.00  0.00     0.049 A 
ATOM     33  H   UNL A   1      41.036  29.841  32.931  1.00  0.00     0.167 HD
ATOM     34  C   UNL A   1      42.991  27.873  32.243  1.00  0.00     0.074 A 
ATOM     35  C   UNL A   1      43.785  26.926  31.484  1.00  0.00     0.031 C 
ATOM     36  C   UNL A   1      43.202  28.172  33.548  1.00  0.00     0.037 A 
BRANCH  23  37
ATOM     37  C   UNL A   1      39.282  32.352  35.899  1.00  0.00     0.064 A 
ATOM     38  C   UNL A   1      39.767  33.639  36.186  1.00  0.00     0.173 A 
ATOM     39  C   UNL A   1      38.328  31.801  36.765  1.00  0.00     0.173 A 
ATOM     40  F   UNL A   1      40.699  34.201  35.401  1.00  0.00    -0.203 F 
ATOM     41  C   UNL A   1      39.334  34.333  37.313  1.00  0.00     0.198 A 
ATOM     42  C   UNL A   1      37.879  32.509  37.878  1.00  0.00     0.198 A 
ATOM     43  F   UNL A   1      37.841  30.572  36.540  1.00  0.00    -0.203 F 
ATOM     44  F   UNL A   1      39.849  35.538  37.595  1.00  0.00    -0.200 F 
ATOM     45  C   UNL A   1      38.387  33.770  38.154  1.00  0.00     0.200 A 
ATOM     46  F   UNL A   1      36.964  31.963  38.690  1.00  0.00    -0.200 F 
ATOM     47  F   UNL A   1      37.975  34.436  39.242  1.00  0.00    -0.200 F 
ENDBRANCH  23  37
BRANCH  24  48
ATOM     48  C   UNL A   1      41.822  27.077  27.751  1.00  0.00     0.064 A 
ATOM     49  C   UNL A   1      41.308  25.802  27.484  1.00  0.00     0.173 A 
ATOM     50  C   UNL A   1      42.770  27.589  26.857  1.00  0.00     0.173 A 
ATOM     51  F   UNL A   1      40.419  25.250  28.321  1.00  0.00    -0.203 F 
ATOM     52  C   UNL A   1      41.746  25.067  26.381  1.00  0.00     0.198 A 
ATOM     53  C   UNL A   1      43.186  26.872  25.740  1.00  0.00     0.198 A 
ATOM     54  F   UNL A   1      43.305  28.795  27.083  1.00  0.00    -0.203 F 
ATOM     55  F   UNL A   1      41.279  23.828  26.177  1.00  0.00    -0.200 F 
ATOM     56  C   UNL A   1      42.681  25.603  25.507  1.00  0.00     0.200 A 
ATOM     57  F   UNL A   1      44.084  27.404  24.899  1.00  0.00    -0.200 F 
ATOM     58  F   UNL A   1      43.103  24.895  24.452  1.00  0.00    -0.200 F 
ENDBRANCH  24  48
BRANCH  36  59
ATOM     59  C   UNL A   1      44.304  27.428  34.239  1.00  0.00     0.064 A 
ATOM     60  C   UNL A   1      45.612  27.929  34.295  1.00  0.00     0.173 A 
ATOM     61  C   UNL A   1      44.040  26.199  34.864  1.00  0.00     0.173 A 
ATOM     62  F   UNL A   1      45.917  29.089  33.692  1.00  0.00    -0.203 F 
ATOM     63  C   UNL A   1      46.623  27.212  34.926  1.00  0.00     0.198 A 
ATOM     64  C   UNL A   1      45.047  25.502  35.522  1.00  0.00     0.198 A 
ATOM     65  F   UNL A   1      42.803  25.679  34.839  1.00  0.00    -0.203 F 
ATOM     66  F   UNL A   1      47.879  27.681  34.917  1.00  0.00    -0.200 F 
ATOM     67  C   UNL A   1      46.339  26.005  35.545  1.00  0.00     0.200 A 
ATOM     68  F   UNL A   1      44.768  24.340  36.130  1.00  0.00    -0.200 F 
ATOM     69  F   UNL A   1      47.315  25.316  36.154  1.00  0.00    -0.200 F 
ENDBRANCH  36  59
ENDBRANCH  10  11
ENDBRANCH   3   5
ENDBRANCH   2   3
ENDBRANCH   1   2
BRANCH   1  70
ATOM     70  C   UNL A   1      31.787  30.669  26.786  1.00  0.00     0.275 C 
BRANCH  70  71
ATOM     71  O   UNL A   1      32.285  30.232  25.511  1.00  0.00    -0.458 OA
BRANCH  71  72
ATOM     72  C   UNL A   1      31.503  29.316  24.877  1.00  0.00     0.338 C 
ATOM     73  O   UNL A   1      30.563  29.551  24.136  1.00  0.00    -0.246 OA
BRANCH  72  74
ATOM     74  C   UNL A   1      32.029  27.953  25.106  1.00  0.00     0.060 A 
ATOM     75  C   UNL A   1      33.405  27.746  25.011  1.00  0.00     0.016 A 
ATOM     76  C   UNL A   1      31.198  26.887  25.438  1.00  0.00     0.016 A 
ATOM     77  C   UNL A   1      33.947  26.486  25.300  1.00  0.00     0.007 A 
ATOM     78  C   UNL A   1      31.750  25.626  25.727  1.00  0.00     0.007 A 
ATOM     79  C   UNL A   1      33.133  25.395  25.674  1.00  0.00    -0.025 A 
BRANCH  79  80
ATOM     80  C   UNL A   1      33.821  24.107  26.144  1.00  0.00     0.114 C 
ATOM     81  N   UNL A   1      32.858  23.027  25.977  1.00  0.00    -0.378 N 
ATOM     82  C   UNL A   1      35.252  23.749  25.701  1.00  0.00     0.031 C 
ATOM     83  C   UNL A   1      33.179  21.743  25.601  1.00  0.00     0.038 A 
ATOM     84  H   UNL A   1      31.910  23.230  26.146  1.00  0.00     0.161 HD
ATOM     85  C   UNL A   1      35.603  22.260  25.951  1.00  0.00     0.049 C 
ATOM     86  C   UNL A   1      35.742  23.972  24.266  1.00  0.00     0.034 C 
ATOM     87  C   UNL A   1      32.148  20.860  25.244  1.00  0.00     0.027 A 
ATOM     88  C   UNL A   1      34.509  21.332  25.458  1.00  0.00    -0.016 A 
ATOM     89  C   UNL A   1      36.889  22.152  25.173  1.00  0.00    -0.023 C 
ATOM     90  C   UNL A   1      36.962  23.101  24.232  1.00  0.00    -0.030 C 
ATOM     91  C   UNL A   1      32.424  19.611  24.687  1.00  0.00     0.022 A 
ATOM     92  C   UNL A   1      34.783  20.065  24.908  1.00  0.00     0.027 A 
ATOM     93  C   UNL A   1      33.743  19.229  24.500  1.00  0.00     0.041 A 
ATOM     94  Cl  UNL A   1      34.096  17.718  23.759  1.00  0.00    -0.084 Cl
ENDBRANCH  79  80
ENDBRANCH  72  74
ENDBRANCH  71  72
ENDBRANCH  70  71
ENDBRANCH   1  70
TORSDOF 12
ENDMDL
MODEL 3
REMARK VINA RESULT:     -13.5      5.064     10.500
REMARK SMILES O=C(OCCOC(=O)c1ccc([C@H]2Nc3ccc(Cl)cc3[C@H]3C=CC[C@H]32)cc1)c1ccc(-c2c3nc(c(-c4c(F)c(F)c(F)c(F)c4F)c4ccc([nH]4)c(-c4c(F)c(F)c(F)c(F)c4F)c4nc(c(-c5c(F)c(F)c(F)c(F)c5F)c5ccc2[nH]5)C=C4)C=C3)cc1
REMARK SMILES IDX 4 1 3 2 2 3 1 4 29 5 30 6 91 7 31 8 90 9 32 10 33 11 34 12
REMARK SMILES IDX 84 13 35 14 89 15 83 16 85 17 36 18 88 19 82 20 81 21 37 23
REMARK SMILES IDX 69 24 49 25 68 26 50 27 53 28 67 29 86 30 51 31 52 32 66 34
REMARK SMILES IDX 87 35 54 36 38 37 39 38 47 39 40 40 41 41 45 42 48 43 42 44
REMARK SMILES IDX 43 45 46 46 44 47 70 48 71 49 79 50 72 51 73 52 77 53 80 54
REMARK SMILES IDX 74 55 75 56 78 57 76 58 55 59 56 60 64 61 57 62 58 63 62 64
REMARK SMILES IDX 65 65 59 66 60 67 63 68 61 69 5 70 6 71 7 72 8 73 9 74 10 75
REMARK SMILES IDX 28 76 11 77 27 78 12 79 13 80 14 81 26 82 15 83 22 85 25 86
REMARK SMILES IDX 16 87 21 88 23 89 24 90 17 91 20 92 18 93 19 94
REMARK H PARENT 85 22 53 33 14 84
REMARK Flexibility Score: inf
ROOT
ATOM      1  C   UNL A   1      38.618  20.061  25.432  1.00  0.00     0.275 C 
ENDROOT
BRANCH   1   2
ATOM      2  O   UNL A   1      40.016  20.161  25.759  1.00  0.00    -0.458 OA
BRANCH   2   3
ATOM      3  C   UNL A   1      40.615  20.578  26.899  1.00  0.00     0.338 C 
ATOM      4  O   UNL A   1      40.749  19.784  27.828  1.00  0.00    -0.246 OA
BRANCH   3   5
ATOM      5  C   UNL A   1      41.011  21.997  27.149  1.00  0.00     0.060 A 
ATOM      6  C   UNL A   1      40.703  23.087  26.334  1.00  0.00     0.016 A 
ATOM      7  C   UNL A   1      41.790  22.233  28.297  1.00  0.00     0.016 A 
ATOM      8  C   UNL A   1      41.077  24.383  26.694  1.00  0.00     0.010 A 
ATOM      9  C   UNL A   1      42.173  23.526  28.658  1.00  0.00     0.010 A 
ATOM     10  C   UNL A   1      41.809  24.613  27.860  1.00  0.00    -0.014 A 
BRANCH  10  11
ATOM     11  C   UNL A   1      42.288  25.983  28.146  1.00  0.00     0.031 A 
ATOM     12  C   UNL A   1      43.650  26.379  27.669  1.00  0.00     0.074 A 
ATOM     13  C   UNL A   1      41.464  26.885  28.709  1.00  0.00     0.049 A 
ATOM     14  N   UNL A   1      44.217  27.556  27.676  1.00  0.00    -0.248 NA
ATOM     15  C   UNL A   1      44.471  25.318  27.063  1.00  0.00     0.031 C 
ATOM     16  C   UNL A   1      40.089  26.617  29.123  1.00  0.00     0.029 A 
ATOM     17  N   UNL A   1      41.646  28.209  29.015  1.00  0.00    -0.354 N 
ATOM     18  C   UNL A   1      45.423  27.392  27.013  1.00  0.00     0.074 A 
ATOM     19  C   UNL A   1      45.551  25.987  26.693  1.00  0.00     0.031 C 
ATOM     20  C   UNL A   1      39.563  27.724  29.671  1.00  0.00     0.029 A 
ATOM     21  C   UNL A   1      40.559  28.788  29.625  1.00  0.00     0.049 A 
ATOM     22  H   UNL A   1      42.477  28.698  28.817  1.00  0.00     0.167 HD
ATOM     23  C   UNL A   1      46.318  28.343  26.661  1.00  0.00     0.037 A 
ATOM     24  C   UNL A   1      40.393  30.040  30.089  1.00  0.00     0.037 A 
ATOM     25  C   UNL A   1      46.198  29.727  27.028  1.00  0.00     0.049 A 
ATOM     26  C   UNL A   1      41.494  31.036  29.852  1.00  0.00     0.074 A 
ATOM     27  C   UNL A   1      47.070  30.769  26.776  1.00  0.00     0.029 A 
ATOM     28  N   UNL A   1      45.133  30.258  27.747  1.00  0.00    -0.354 N 
ATOM     29  N   UNL A   1      42.622  30.878  29.204  1.00  0.00    -0.248 NA
ATOM     30  C   UNL A   1      41.286  32.389  30.380  1.00  0.00     0.031 C 
ATOM     31  C   UNL A   1      46.554  31.922  27.379  1.00  0.00     0.029 A 
ATOM     32  C   UNL A   1      45.336  31.610  27.963  1.00  0.00     0.049 A 
ATOM     33  H   UNL A   1      44.351  29.747  28.057  1.00  0.00     0.167 HD
ATOM     34  C   UNL A   1      43.243  32.117  29.210  1.00  0.00     0.074 A 
ATOM     35  C   UNL A   1      42.358  33.019  29.921  1.00  0.00     0.031 C 
ATOM     36  C   UNL A   1      44.431  32.482  28.670  1.00  0.00     0.037 A 
BRANCH  23  37
ATOM     37  C   UNL A   1      47.493  27.898  25.844  1.00  0.00     0.064 A 
ATOM     38  C   UNL A   1      47.407  27.786  24.447  1.00  0.00     0.173 A 
ATOM     39  C   UNL A   1      48.710  27.568  26.456  1.00  0.00     0.173 A 
ATOM     40  F   UNL A   1      46.257  28.068  23.815  1.00  0.00    -0.203 F 
ATOM     41  C   UNL A   1      48.490  27.335  23.696  1.00  0.00     0.198 A 
ATOM     42  C   UNL A   1      49.798  27.140  25.699  1.00  0.00     0.198 A 
ATOM     43  F   UNL A   1      48.839  27.649  27.788  1.00  0.00    -0.203 F 
ATOM     44  F   UNL A   1      48.369  27.186  22.369  1.00  0.00    -0.200 F 
ATOM     45  C   UNL A   1      49.684  27.017  24.322  1.00  0.00     0.200 A 
ATOM     46  F   UNL A   1      50.952  26.833  26.306  1.00  0.00    -0.200 F 
ATOM     47  F   UNL A   1      50.724  26.576  23.600  1.00  0.00    -0.200 F 
ENDBRANCH  23  37
BRANCH  24  48
ATOM     48  C   UNL A   1      39.162  30.419  30.834  1.00  0.00     0.064 A 
ATOM     49  C   UNL A   1      38.055  31.008  30.211  1.00  0.00     0.173 A 
ATOM     50  C   UNL A   1      39.098  30.238  32.221  1.00  0.00     0.173 A 
ATOM     51  F   UNL A   1      38.073  31.233  28.890  1.00  0.00    -0.203 F 
ATOM     52  C   UNL A   1      36.945  31.418  30.952  1.00  0.00     0.198 A 
ATOM     53  C   UNL A   1      37.981  30.617  32.959  1.00  0.00     0.198 A 
ATOM     54  F   UNL A   1      40.140  29.698  32.864  1.00  0.00    -0.203 F 
ATOM     55  F   UNL A   1      35.922  32.028  30.339  1.00  0.00    -0.200 F 
ATOM     56  C   UNL A   1      36.906  31.218  32.324  1.00  0.00     0.200 A 
ATOM     57  F   UNL A   1      37.952  30.412  34.284  1.00  0.00    -0.200 F 
ATOM     58  F   UNL A   1      35.843  31.616  33.035  1.00  0.00    -0.200 F 
ENDBRANCH  24  48
BRANCH  36  59
ATOM     59  C   UNL A   1      44.808  33.928  28.787  1.00  0.00     0.064 A 
ATOM     60  C   UNL A   1      44.409  34.874  27.833  1.00  0.00     0.173 A 
ATOM     61  C   UNL A   1      45.568  34.371  29.880  1.00  0.00     0.173 A 
ATOM     62  F   UNL A   1      43.700  34.493  26.759  1.00  0.00    -0.203 F 
ATOM     63  C   UNL A   1      44.785  36.208  27.952  1.00  0.00     0.198 A 
ATOM     64  C   UNL A   1      45.914  35.712  30.012  1.00  0.00     0.198 A 
ATOM     65  F   UNL A   1      45.973  33.503  30.820  1.00  0.00    -0.203 F 
ATOM     66  F   UNL A   1      44.444  37.085  26.998  1.00  0.00    -0.200 F 
ATOM     67  C   UNL A   1      45.530  36.626  29.044  1.00  0.00     0.200 A 
ATOM     68  F   UNL A   1      46.625  36.116  31.075  1.00  0.00    -0.200 F 
ATOM     69  F   UNL A   1      45.890  37.913  29.158  1.00  0.00    -0.200 F 
ENDBRANCH  36  59
ENDBRANCH  10  11
ENDBRANCH   3   5
ENDBRANCH   2   3
ENDBRANCH   1   2
BRANCH   1  70
ATOM     70  C   UNL A   1      37.860  21.390  25.379  1.00  0.00     0.275 C 
BRANCH  70  71
ATOM     71  O   UNL A   1      36.958  21.509  24.266  1.00  0.00    -0.458 OA
BRANCH  71  72
ATOM     72  C   UNL A   1      35.638  21.456  24.593  1.00  0.00     0.338 C 
ATOM     73  O   UNL A   1      35.019  20.470  24.956  1.00  0.00    -0.246 OA
BRANCH  72  74
ATOM     74  C   UNL A   1      35.055  22.815  24.575  1.00  0.00     0.060 A 
ATOM     75  C   UNL A   1      35.115  23.581  25.739  1.00  0.00     0.016 A 
ATOM     76  C   UNL A   1      34.476  23.354  23.429  1.00  0.00     0.016 A 
ATOM     77  C   UNL A   1      34.645  24.901  25.735  1.00  0.00     0.007 A 
ATOM     78  C   UNL A   1      34.007  24.679  23.435  1.00  0.00     0.007 A 
ATOM     79  C   UNL A   1      34.085  25.487  24.579  1.00  0.00    -0.025 A 
BRANCH  79  80
ATOM     80  C   UNL A   1      33.761  26.987  24.613  1.00  0.00     0.114 C 
ATOM     81  N   UNL A   1      32.974  27.277  23.422  1.00  0.00    -0.378 N 
ATOM     82  C   UNL A   1      33.243  27.671  25.892  1.00  0.00     0.031 C 
ATOM     83  C   UNL A   1      31.945  28.188  23.366  1.00  0.00     0.038 A 
ATOM     84  H   UNL A   1      33.195  26.787  22.598  1.00  0.00     0.161 HD
ATOM     85  C   UNL A   1      32.612  29.059  25.617  1.00  0.00     0.049 C 
ATOM     86  C   UNL A   1      32.210  27.010  26.811  1.00  0.00     0.034 C 
ATOM     87  C   UNL A   1      31.112  28.207  22.237  1.00  0.00     0.027 A 
ATOM     88  C   UNL A   1      31.640  29.016  24.453  1.00  0.00    -0.016 A 
ATOM     89  C   UNL A   1      31.957  29.327  26.947  1.00  0.00    -0.023 C 
ATOM     90  C   UNL A   1      31.728  28.186  27.608  1.00  0.00    -0.030 C 
ATOM     91  C   UNL A   1      29.953  28.982  22.204  1.00  0.00     0.022 A 
ATOM     92  C   UNL A   1      30.476  29.807  24.410  1.00  0.00     0.027 A 
ATOM     93  C   UNL A   1      29.628  29.763  23.303  1.00  0.00     0.041 A 
ATOM     94  Cl  UNL A   1      28.170  30.675  23.299  1.00  0.00    -0.084 Cl
ENDBRANCH  79  80
ENDBRANCH  72  74
ENDBRANCH  71  72
ENDBRANCH  70  71
ENDBRANCH   1  70
TORSDOF 12
ENDMDL
