MODEL 1
REMARK VINA RESULT:     -12.5      0.000      0.000
REMARK SMILES Cc1nnc(-c2ccccc2-c2cc(NCC(=O)OCCOC(=O)c3ccc(-c4c5nc(c(-c6c(F)c(F)c(F)c(F)c6F)c6ccc([nH]6)c(-c6c(F)c(F)c(F)c(F)c6F)c6nc(c(-c7c(F)c(F)c(F)c(F)c7F)c7ccc4[nH]7)C=C6)C=C5)cc3)nc3[nH]ccc23)o1
REMARK SMILES IDX 20 1 19 2 17 3 18 4 16 5 15 6 14 8 12 9 13 10 93 11 89 12
REMARK SMILES IDX 92 13 88 14 90 15 91 16 11 18 6 19 7 20 8 21 10 22 9 23 5 24
REMARK SMILES IDX 1 25 2 26 3 27 94 28 4 29 21 30 22 31 23 32 24 33 25 34
REMARK SMILES IDX 26 35 87 36 27 37 86 38 28 39 29 40 30 41 80 42 31 43 85 44
REMARK SMILES IDX 79 45 81 46 32 47 84 48 78 49 77 50 33 52 65 53 45 54 64 55
REMARK SMILES IDX 46 56 49 57 63 58 82 59 47 60 48 61 62 63 83 64 50 65 34 66
REMARK SMILES IDX 35 67 43 68 36 69 37 70 41 71 44 72 38 73 39 74 42 75 40 76
REMARK SMILES IDX 66 77 67 78 75 79 68 80 69 81 73 82 76 83 70 84 71 85 74 86
REMARK SMILES IDX 72 87 51 88 52 89 60 90 53 91 54 92 58 93 61 94 55 95 56 96
REMARK SMILES IDX 59 97 57 98
REMARK H PARENT 15 7 90 17 81 51 49 62
REMARK Flexibility Score: inf
ROOT
ATOM      1  C   UNL A   1      38.828  20.543  25.369  1.00  0.00     0.274 C 
ENDROOT
BRANCH   1   2
ATOM      2  O   UNL A   1      39.109  21.823  25.959  1.00  0.00    -0.461 OA
BRANCH   2   3
ATOM      3  C   UNL A   1      38.122  22.760  25.889  1.00  0.00     0.325 C 
ATOM      4  O   UNL A   1      38.258  23.943  26.186  1.00  0.00    -0.250 OA
BRANCH   3   5
ATOM      5  C   UNL A   1      36.805  22.165  25.410  1.00  0.00     0.237 C 
BRANCH   5   6
ATOM      6  N   UNL A   1      35.822  22.025  26.488  1.00  0.00    -0.359 N 
ATOM      7  H   UNL A   1      35.981  21.411  27.241  1.00  0.00     0.162 HD
BRANCH   6   8
ATOM      8  C   UNL A   1      34.660  22.785  26.416  1.00  0.00     0.129 A 
ATOM      9  C   UNL A   1      33.608  24.941  25.946  1.00  0.00    -0.003 A 
ATOM     10  C   UNL A   1      34.761  24.141  26.095  1.00  0.00     0.056 A 
ATOM     11  C   UNL A   1      32.372  24.306  26.187  1.00  0.00     0.027 A 
ATOM     12  C   UNL A   1      32.411  22.971  26.559  1.00  0.00     0.140 A 
ATOM     13  C   UNL A   1      30.991  24.662  26.139  1.00  0.00     0.030 A 
ATOM     14  N   UNL A   1      33.488  22.190  26.703  1.00  0.00    -0.213 NA
ATOM     15  N   UNL A   1      31.130  22.537  26.752  1.00  0.00    -0.346 N 
ATOM     16  C   UNL A   1      30.251  23.555  26.495  1.00  0.00     0.085 A 
ATOM     17  H   UNL A   1      30.877  21.627  27.033  1.00  0.00     0.167 HD
BRANCH   9  18
ATOM     18  C   UNL A   1      33.644  26.351  25.518  1.00  0.00    -0.005 A 
ATOM     19  C   UNL A   1      33.544  26.746  24.162  1.00  0.00     0.047 A 
ATOM     20  C   UNL A   1      33.554  28.114  23.829  1.00  0.00     0.014 A 
ATOM     21  C   UNL A   1      33.656  29.093  24.817  1.00  0.00     0.001 A 
ATOM     22  C   UNL A   1      33.770  27.362  26.493  1.00  0.00     0.009 A 
ATOM     23  C   UNL A   1      33.770  28.716  26.150  1.00  0.00     0.001 A 
BRANCH  19  24
ATOM     24  C   UNL A   1      33.427  25.775  23.087  1.00  0.00     0.248 A 
ATOM     25  C   UNL A   1      32.334  25.244  19.785  1.00  0.00     0.113 C 
ATOM     26  C   UNL A   1      32.905  25.126  21.136  1.00  0.00     0.213 A 
ATOM     27  N   UNL A   1      33.591  24.144  21.677  1.00  0.00    -0.113 NA
ATOM     28  O   UNL A   1      32.736  26.192  21.978  1.00  0.00    -0.421 OA
ATOM     29  N   UNL A   1      33.936  24.569  22.945  1.00  0.00    -0.108 NA
ENDBRANCH  19  24
ENDBRANCH   9  18
ENDBRANCH   6   8
ENDBRANCH   5   6
ENDBRANCH   3   5
ENDBRANCH   2   3
ENDBRANCH   1   2
BRANCH   1  30
ATOM     30  C   UNL A   1      39.634  19.433  26.051  1.00  0.00     0.275 C 
BRANCH  30  31
ATOM     31  O   UNL A   1      40.880  19.178  25.376  1.00  0.00    -0.458 OA
BRANCH  31  32
ATOM     32  C   UNL A   1      41.975  19.137  26.174  1.00  0.00     0.338 C 
ATOM     33  O   UNL A   1      42.651  18.161  26.452  1.00  0.00    -0.246 OA
BRANCH  32  34
ATOM     34  C   UNL A   1      42.345  20.512  26.554  1.00  0.00     0.060 A 
ATOM     35  C   UNL A   1      42.755  21.384  25.540  1.00  0.00     0.016 A 
ATOM     36  C   UNL A   1      42.327  20.934  27.885  1.00  0.00     0.016 A 
ATOM     37  C   UNL A   1      43.132  22.689  25.849  1.00  0.00     0.010 A 
ATOM     38  C   UNL A   1      42.715  22.242  28.196  1.00  0.00     0.010 A 
ATOM     39  C   UNL A   1      43.120  23.126  27.181  1.00  0.00    -0.014 A 
BRANCH  39  40
ATOM     40  C   UNL A   1      43.566  24.499  27.511  1.00  0.00     0.031 A 
ATOM     41  C   UNL A   1      42.556  25.545  27.877  1.00  0.00     0.074 A 
ATOM     42  C   UNL A   1      44.877  24.800  27.495  1.00  0.00     0.049 A 
ATOM     43  N   UNL A   1      42.730  26.820  28.114  1.00  0.00    -0.248 NA
ATOM     44  C   UNL A   1      41.161  25.093  27.993  1.00  0.00     0.031 C 
ATOM     45  C   UNL A   1      45.955  23.853  27.212  1.00  0.00     0.029 A 
ATOM     46  N   UNL A   1      45.525  25.989  27.719  1.00  0.00    -0.354 N 
ATOM     47  C   UNL A   1      41.468  27.327  28.390  1.00  0.00     0.074 A 
ATOM     48  C   UNL A   1      40.534  26.227  28.277  1.00  0.00     0.031 C 
ATOM     49  C   UNL A   1      47.131  24.497  27.282  1.00  0.00     0.029 A 
ATOM     50  C   UNL A   1      46.885  25.910  27.564  1.00  0.00     0.049 A 
ATOM     51  H   UNL A   1      45.057  26.819  27.968  1.00  0.00     0.167 HD
ATOM     52  C   UNL A   1      41.124  28.598  28.710  1.00  0.00     0.037 A 
ATOM     53  C   UNL A   1      47.824  26.875  27.614  1.00  0.00     0.037 A 
ATOM     54  C   UNL A   1      42.060  29.685  28.835  1.00  0.00     0.049 A 
ATOM     55  C   UNL A   1      47.403  28.295  27.880  1.00  0.00     0.074 A 
ATOM     56  C   UNL A   1      41.814  31.002  29.184  1.00  0.00     0.029 A 
ATOM     57  N   UNL A   1      43.425  29.580  28.607  1.00  0.00    -0.354 N 
ATOM     58  N   UNL A   1      46.208  28.770  28.141  1.00  0.00    -0.248 NA
ATOM     59  C   UNL A   1      48.459  29.317  27.840  1.00  0.00     0.031 C 
ATOM     60  C   UNL A   1      43.023  31.704  29.120  1.00  0.00     0.029 A 
ATOM     61  C   UNL A   1      44.029  30.816  28.775  1.00  0.00     0.049 A 
ATOM     62  H   UNL A   1      43.894  28.750  28.364  1.00  0.00     0.167 HD
ATOM     63  C   UNL A   1      46.372  30.137  28.318  1.00  0.00     0.074 A 
ATOM     64  C   UNL A   1      47.782  30.416  28.144  1.00  0.00     0.031 C 
ATOM     65  C   UNL A   1      45.435  31.075  28.599  1.00  0.00     0.037 A 
BRANCH  52  66
ATOM     66  C   UNL A   1      39.666  28.889  28.913  1.00  0.00     0.064 A 
ATOM     67  C   UNL A   1      39.058  28.791  30.173  1.00  0.00     0.173 A 
ATOM     68  C   UNL A   1      38.871  29.292  27.829  1.00  0.00     0.173 A 
ATOM     69  F   UNL A   1      39.773  28.396  31.237  1.00  0.00    -0.203 F 
ATOM     70  C   UNL A   1      37.702  29.060  30.335  1.00  0.00     0.198 A 
ATOM     71  C   UNL A   1      37.521  29.586  28.001  1.00  0.00     0.198 A 
ATOM     72  F   UNL A   1      39.404  29.405  26.604  1.00  0.00    -0.203 F 
ATOM     73  F   UNL A   1      37.131  28.916  31.540  1.00  0.00    -0.200 F 
ATOM     74  C   UNL A   1      36.936  29.463  29.251  1.00  0.00     0.200 A 
ATOM     75  F   UNL A   1      36.784  29.984  26.953  1.00  0.00    -0.200 F 
ATOM     76  F   UNL A   1      35.631  29.723  29.410  1.00  0.00    -0.200 F 
ENDBRANCH  52  66
BRANCH  53  77
ATOM     77  C   UNL A   1      49.251  26.534  27.383  1.00  0.00     0.064 A 
ATOM     78  C   UNL A   1      50.122  26.321  28.460  1.00  0.00     0.173 A 
ATOM     79  C   UNL A   1      49.772  26.418  26.087  1.00  0.00     0.173 A 
ATOM     80  F   UNL A   1      49.677  26.450  29.718  1.00  0.00    -0.203 F 
ATOM     81  C   UNL A   1      51.464  26.011  28.248  1.00  0.00     0.198 A 
ATOM     82  C   UNL A   1      51.108  26.081  25.876  1.00  0.00     0.198 A 
ATOM     83  F   UNL A   1      48.982  26.619  25.023  1.00  0.00    -0.203 F 
ATOM     84  F   UNL A   1      52.285  25.850  29.293  1.00  0.00    -0.200 F 
ATOM     85  C   UNL A   1      51.954  25.884  26.956  1.00  0.00     0.200 A 
ATOM     86  F   UNL A   1      51.575  25.953  24.626  1.00  0.00    -0.200 F 
ATOM     87  F   UNL A   1      53.244  25.582  26.753  1.00  0.00    -0.200 F 
ENDBRANCH  53  77
BRANCH  65  88
ATOM     88  C   UNL A   1      45.909  32.490  28.761  1.00  0.00     0.064 A 
ATOM     89  C   UNL A   1      46.358  32.975  29.998  1.00  0.00     0.173 A 
ATOM     90  C   UNL A   1      45.957  33.354  27.656  1.00  0.00     0.173 A 
ATOM     91  F   UNL A   1      46.313  32.193  31.086  1.00  0.00    -0.203 F 
ATOM     92  C   UNL A   1      46.821  34.282  30.126  1.00  0.00     0.198 A 
ATOM     93  C   UNL A   1      46.447  34.651  27.783  1.00  0.00     0.198 A 
ATOM     94  F   UNL A   1      45.544  32.934  26.451  1.00  0.00    -0.203 F 
ATOM     95  F   UNL A   1      47.210  34.738  31.325  1.00  0.00    -0.200 F 
ATOM     96  C   UNL A   1      46.873  35.115  29.018  1.00  0.00     0.200 A 
ATOM     97  F   UNL A   1      46.506  35.451  26.710  1.00  0.00    -0.200 F 
ATOM     98  F   UNL A   1      47.330  36.369  29.143  1.00  0.00    -0.200 F 
ENDBRANCH  65  88
ENDBRANCH  39  40
ENDBRANCH  32  34
ENDBRANCH  31  32
ENDBRANCH  30  31
ENDBRANCH   1  30
TORSDOF 15
ENDMDL
MODEL 2
REMARK VINA RESULT:     -12.4      5.678     10.529
REMARK SMILES Cc1nnc(-c2ccccc2-c2cc(NCC(=O)OCCOC(=O)c3ccc(-c4c5nc(c(-c6c(F)c(F)c(F)c(F)c6F)c6ccc([nH]6)c(-c6c(F)c(F)c(F)c(F)c6F)c6nc(c(-c7c(F)c(F)c(F)c(F)c7F)c7ccc4[nH]7)C=C6)C=C5)cc3)nc3[nH]ccc23)o1
REMARK SMILES IDX 20 1 19 2 17 3 18 4 16 5 15 6 14 8 12 9 13 10 93 11 89 12
REMARK SMILES IDX 92 13 88 14 90 15 91 16 11 18 6 19 7 20 8 21 10 22 9 23 5 24
REMARK SMILES IDX 1 25 2 26 3 27 94 28 4 29 21 30 22 31 23 32 24 33 25 34
REMARK SMILES IDX 26 35 87 36 27 37 86 38 28 39 29 40 30 41 80 42 31 43 85 44
REMARK SMILES IDX 79 45 81 46 32 47 84 48 78 49 77 50 33 52 65 53 45 54 64 55
REMARK SMILES IDX 46 56 49 57 63 58 82 59 47 60 48 61 62 63 83 64 50 65 34 66
REMARK SMILES IDX 35 67 43 68 36 69 37 70 41 71 44 72 38 73 39 74 42 75 40 76
REMARK SMILES IDX 66 77 67 78 75 79 68 80 69 81 73 82 76 83 70 84 71 85 74 86
REMARK SMILES IDX 72 87 51 88 52 89 60 90 53 91 54 92 58 93 61 94 55 95 56 96
REMARK SMILES IDX 59 97 57 98
REMARK H PARENT 15 7 90 17 81 51 49 62
REMARK Flexibility Score: inf
ROOT
ATOM      1  C   UNL A   1      32.855  31.924  27.540  1.00  0.00     0.274 C 
ENDROOT
BRANCH   1   2
ATOM      2  O   UNL A   1      34.202  31.445  27.687  1.00  0.00    -0.461 OA
BRANCH   2   3
ATOM      3  C   UNL A   1      34.415  30.124  27.430  1.00  0.00     0.325 C 
ATOM      4  O   UNL A   1      35.518  29.591  27.373  1.00  0.00    -0.250 OA
BRANCH   3   5
ATOM      5  C   UNL A   1      33.110  29.371  27.202  1.00  0.00     0.237 C 
BRANCH   5   6
ATOM      6  N   UNL A   1      33.088  28.653  25.926  1.00  0.00    -0.359 N 
ATOM      7  H   UNL A   1      33.147  29.137  25.071  1.00  0.00     0.162 HD
BRANCH   6   8
ATOM      8  C   UNL A   1      32.982  27.266  25.958  1.00  0.00     0.129 A 
ATOM      9  C   UNL A   1      34.023  25.090  25.563  1.00  0.00    -0.003 A 
ATOM     10  C   UNL A   1      34.053  26.499  25.492  1.00  0.00     0.056 A 
ATOM     11  C   UNL A   1      32.843  24.515  26.078  1.00  0.00     0.027 A 
ATOM     12  C   UNL A   1      31.828  25.385  26.448  1.00  0.00     0.140 A 
ATOM     13  C   UNL A   1      32.362  23.203  26.366  1.00  0.00     0.030 A 
ATOM     14  N   UNL A   1      31.834  26.722  26.396  1.00  0.00    -0.213 NA
ATOM     15  N   UNL A   1      30.775  24.650  26.915  1.00  0.00    -0.346 N 
ATOM     16  C   UNL A   1      31.086  23.317  26.875  1.00  0.00     0.085 A 
ATOM     17  H   UNL A   1      29.921  25.023  27.232  1.00  0.00     0.167 HD
BRANCH   9  18
ATOM     18  C   UNL A   1      35.155  24.229  25.175  1.00  0.00    -0.005 A 
ATOM     19  C   UNL A   1      35.219  23.556  23.932  1.00  0.00     0.047 A 
ATOM     20  C   UNL A   1      36.348  22.774  23.616  1.00  0.00     0.014 A 
ATOM     21  C   UNL A   1      37.410  22.654  24.510  1.00  0.00     0.001 A 
ATOM     22  C   UNL A   1      36.235  24.070  26.069  1.00  0.00     0.009 A 
ATOM     23  C   UNL A   1      37.352  23.299  25.741  1.00  0.00     0.001 A 
BRANCH  19  24
ATOM     24  C   UNL A   1      34.148  23.647  22.954  1.00  0.00     0.248 A 
ATOM     25  C   UNL A   1      32.612  25.692  20.537  1.00  0.00     0.113 C 
ATOM     26  C   UNL A   1      33.012  24.597  21.434  1.00  0.00     0.213 A 
ATOM     27  N   UNL A   1      32.588  23.354  21.486  1.00  0.00    -0.113 NA
ATOM     28  O   UNL A   1      33.988  24.870  22.354  1.00  0.00    -0.421 OA
ATOM     29  N   UNL A   1      33.331  22.734  22.471  1.00  0.00    -0.108 NA
ENDBRANCH  19  24
ENDBRANCH   9  18
ENDBRANCH   6   8
ENDBRANCH   5   6
ENDBRANCH   3   5
ENDBRANCH   2   3
ENDBRANCH   1   2
BRANCH   1  30
ATOM     30  C   UNL A   1      32.833  33.434  27.281  1.00  0.00     0.275 C 
BRANCH  30  31
ATOM     31  O   UNL A   1      32.329  34.168  28.412  1.00  0.00    -0.458 OA
BRANCH  31  32
ATOM     32  C   UNL A   1      33.138  35.153  28.873  1.00  0.00     0.338 C 
ATOM     33  O   UNL A   1      32.936  36.354  28.833  1.00  0.00    -0.246 OA
BRANCH  32  34
ATOM     34  C   UNL A   1      34.270  34.546  29.597  1.00  0.00     0.060 A 
ATOM     35  C   UNL A   1      35.532  34.596  28.999  1.00  0.00     0.016 A 
ATOM     36  C   UNL A   1      34.093  33.907  30.826  1.00  0.00     0.016 A 
ATOM     37  C   UNL A   1      36.631  34.023  29.634  1.00  0.00     0.010 A 
ATOM     38  C   UNL A   1      35.196  33.323  31.460  1.00  0.00     0.010 A 
ATOM     39  C   UNL A   1      36.470  33.376  30.867  1.00  0.00    -0.014 A 
BRANCH  39  40
ATOM     40  C   UNL A   1      37.631  32.726  31.517  1.00  0.00     0.031 A 
ATOM     41  C   UNL A   1      38.287  31.545  30.866  1.00  0.00     0.074 A 
ATOM     42  C   UNL A   1      38.102  33.206  32.682  1.00  0.00     0.049 A 
ATOM     43  N   UNL A   1      39.254  30.783  31.310  1.00  0.00    -0.248 NA
ATOM     44  C   UNL A   1      37.784  31.172  29.536  1.00  0.00     0.031 C 
ATOM     45  C   UNL A   1      37.586  34.382  33.380  1.00  0.00     0.029 A 
ATOM     46  N   UNL A   1      39.122  32.760  33.486  1.00  0.00    -0.354 N 
ATOM     47  C   UNL A   1      39.466  29.832  30.323  1.00  0.00     0.074 A 
ATOM     48  C   UNL A   1      38.518  30.101  29.263  1.00  0.00     0.031 C 
ATOM     49  C   UNL A   1      38.293  34.567  34.506  1.00  0.00     0.029 A 
ATOM     50  C   UNL A   1      39.277  33.495  34.634  1.00  0.00     0.049 A 
ATOM     51  H   UNL A   1      39.688  31.987  33.259  1.00  0.00     0.167 HD
ATOM     52  C   UNL A   1      40.374  28.826  30.306  1.00  0.00     0.037 A 
ATOM     53  C   UNL A   1      40.098  33.304  35.684  1.00  0.00     0.037 A 
ATOM     54  C   UNL A   1      41.324  28.572  31.358  1.00  0.00     0.049 A 
ATOM     55  C   UNL A   1      41.032  32.124  35.681  1.00  0.00     0.074 A 
ATOM     56  C   UNL A   1      42.304  27.596  31.421  1.00  0.00     0.029 A 
ATOM     57  N   UNL A   1      41.408  29.300  32.536  1.00  0.00    -0.354 N 
ATOM     58  N   UNL A   1      41.230  31.227  34.745  1.00  0.00    -0.248 NA
ATOM     59  C   UNL A   1      41.845  31.920  36.889  1.00  0.00     0.031 C 
ATOM     60  C   UNL A   1      42.947  27.704  32.659  1.00  0.00     0.029 A 
ATOM     61  C   UNL A   1      42.400  28.774  33.348  1.00  0.00     0.049 A 
ATOM     62  H   UNL A   1      40.846  30.076  32.762  1.00  0.00     0.167 HD
ATOM     63  C   UNL A   1      42.202  30.368  35.240  1.00  0.00     0.074 A 
ATOM     64  C   UNL A   1      42.562  30.856  36.555  1.00  0.00     0.031 C 
ATOM     65  C   UNL A   1      42.746  29.273  34.654  1.00  0.00     0.037 A 
BRANCH  52  66
ATOM     66  C   UNL A   1      40.357  27.899  29.126  1.00  0.00     0.064 A 
ATOM     67  C   UNL A   1      39.586  26.727  29.114  1.00  0.00     0.173 A 
ATOM     68  C   UNL A   1      41.109  28.203  27.980  1.00  0.00     0.173 A 
ATOM     69  F   UNL A   1      38.862  26.386  30.191  1.00  0.00    -0.203 F 
ATOM     70  C   UNL A   1      39.590  25.880  28.009  1.00  0.00     0.198 A 
ATOM     71  C   UNL A   1      41.089  27.367  26.868  1.00  0.00     0.198 A 
ATOM     72  F   UNL A   1      41.859  29.314  27.938  1.00  0.00    -0.203 F 
ATOM     73  F   UNL A   1      38.882  24.742  28.037  1.00  0.00    -0.200 F 
ATOM     74  C   UNL A   1      40.336  26.203  26.885  1.00  0.00     0.200 A 
ATOM     75  F   UNL A   1      41.804  27.685  25.779  1.00  0.00    -0.200 F 
ATOM     76  F   UNL A   1      40.338  25.386  25.823  1.00  0.00    -0.200 F 
ENDBRANCH  52  66
BRANCH  53  77
ATOM     77  C   UNL A   1      40.057  34.240  36.837  1.00  0.00     0.064 A 
ATOM     78  C   UNL A   1      39.189  34.016  37.914  1.00  0.00     0.173 A 
ATOM     79  C   UNL A   1      40.880  35.374  36.885  1.00  0.00     0.173 A 
ATOM     80  F   UNL A   1      38.362  32.961  37.900  1.00  0.00    -0.203 F 
ATOM     81  C   UNL A   1      39.140  34.897  38.992  1.00  0.00     0.198 A 
ATOM     82  C   UNL A   1      40.850  36.240  37.976  1.00  0.00     0.198 A 
ATOM     83  F   UNL A   1      41.723  35.637  35.876  1.00  0.00    -0.203 F 
ATOM     84  F   UNL A   1      38.274  34.683  39.991  1.00  0.00    -0.200 F 
ATOM     85  C   UNL A   1      39.976  36.004  39.026  1.00  0.00     0.200 A 
ATOM     86  F   UNL A   1      41.664  37.305  38.007  1.00  0.00    -0.200 F 
ATOM     87  F   UNL A   1      39.932  36.849  40.066  1.00  0.00    -0.200 F 
ENDBRANCH  53  77
BRANCH  65  88
ATOM     88  C   UNL A   1      43.807  28.541  35.422  1.00  0.00     0.064 A 
ATOM     89  C   UNL A   1      45.167  28.840  35.260  1.00  0.00     0.173 A 
ATOM     90  C   UNL A   1      43.454  27.562  36.365  1.00  0.00     0.173 A 
ATOM     91  F   UNL A   1      45.554  29.754  34.359  1.00  0.00    -0.203 F 
ATOM     92  C   UNL A   1      46.138  28.172  36.001  1.00  0.00     0.198 A 
ATOM     93  C   UNL A   1      44.427  26.916  37.123  1.00  0.00     0.198 A 
ATOM     94  F   UNL A   1      42.166  27.245  36.560  1.00  0.00    -0.203 F 
ATOM     95  F   UNL A   1      47.435  28.446  35.803  1.00  0.00    -0.200 F 
ATOM     96  C   UNL A   1      45.767  27.218  36.936  1.00  0.00     0.200 A 
ATOM     97  F   UNL A   1      44.066  26.001  38.033  1.00  0.00    -0.200 F 
ATOM     98  F   UNL A   1      46.704  26.583  37.655  1.00  0.00    -0.200 F 
ENDBRANCH  65  88
ENDBRANCH  39  40
ENDBRANCH  32  34
ENDBRANCH  31  32
ENDBRANCH  30  31
ENDBRANCH   1  30
TORSDOF 15
ENDMDL
MODEL 3
REMARK VINA RESULT:     -12.3      4.651      9.877
REMARK SMILES Cc1nnc(-c2ccccc2-c2cc(NCC(=O)OCCOC(=O)c3ccc(-c4c5nc(c(-c6c(F)c(F)c(F)c(F)c6F)c6ccc([nH]6)c(-c6c(F)c(F)c(F)c(F)c6F)c6nc(c(-c7c(F)c(F)c(F)c(F)c7F)c7ccc4[nH]7)C=C6)C=C5)cc3)nc3[nH]ccc23)o1
REMARK SMILES IDX 20 1 19 2 17 3 18 4 16 5 15 6 14 8 12 9 13 10 93 11 89 12
REMARK SMILES IDX 92 13 88 14 90 15 91 16 11 18 6 19 7 20 8 21 10 22 9 23 5 24
REMARK SMILES IDX 1 25 2 26 3 27 94 28 4 29 21 30 22 31 23 32 24 33 25 34
REMARK SMILES IDX 26 35 87 36 27 37 86 38 28 39 29 40 30 41 80 42 31 43 85 44
REMARK SMILES IDX 79 45 81 46 32 47 84 48 78 49 77 50 33 52 65 53 45 54 64 55
REMARK SMILES IDX 46 56 49 57 63 58 82 59 47 60 48 61 62 63 83 64 50 65 34 66
REMARK SMILES IDX 35 67 43 68 36 69 37 70 41 71 44 72 38 73 39 74 42 75 40 76
REMARK SMILES IDX 66 77 67 78 75 79 68 80 69 81 73 82 76 83 70 84 71 85 74 86
REMARK SMILES IDX 72 87 51 88 52 89 60 90 53 91 54 92 58 93 61 94 55 95 56 96
REMARK SMILES IDX 59 97 57 98
REMARK H PARENT 15 7 90 17 81 51 49 62
REMARK Flexibility Score: inf
ROOT
ATOM      1  C   UNL A   1      31.663  28.461  24.989  1.00  0.00     0.274 C 
ENDROOT
BRANCH   1   2
ATOM      2  O   UNL A   1      31.967  28.594  23.591  1.00  0.00    -0.461 OA
BRANCH   2   3
ATOM      3  C   UNL A   1      32.785  27.648  23.048  1.00  0.00     0.325 C 
ATOM      4  O   UNL A   1      33.985  27.542  23.284  1.00  0.00    -0.250 OA
BRANCH   3   5
ATOM      5  C   UNL A   1      32.037  26.733  22.088  1.00  0.00     0.237 C 
BRANCH   5   6
ATOM      6  N   UNL A   1      32.597  25.379  22.046  1.00  0.00    -0.359 N 
ATOM      7  H   UNL A   1      33.251  25.122  21.357  1.00  0.00     0.162 HD
BRANCH   6   8
ATOM      8  C   UNL A   1      32.177  24.469  23.011  1.00  0.00     0.129 A 
ATOM      9  C   UNL A   1      32.277  22.200  23.915  1.00  0.00    -0.003 A 
ATOM     10  C   UNL A   1      32.621  23.146  22.927  1.00  0.00     0.056 A 
ATOM     11  C   UNL A   1      31.430  22.654  24.947  1.00  0.00     0.027 A 
ATOM     12  C   UNL A   1      31.009  23.973  24.882  1.00  0.00     0.140 A 
ATOM     13  C   UNL A   1      30.852  22.113  26.135  1.00  0.00     0.030 A 
ATOM     14  N   UNL A   1      31.323  24.891  23.960  1.00  0.00    -0.213 NA
ATOM     15  N   UNL A   1      30.200  24.224  25.954  1.00  0.00    -0.346 N 
ATOM     16  C   UNL A   1      30.097  23.101  26.731  1.00  0.00     0.085 A 
ATOM     17  H   UNL A   1      29.758  25.084  26.140  1.00  0.00     0.167 HD
BRANCH   9  18
ATOM     18  C   UNL A   1      32.789  20.818  23.934  1.00  0.00    -0.005 A 
ATOM     19  C   UNL A   1      33.923  20.428  24.686  1.00  0.00     0.047 A 
ATOM     20  C   UNL A   1      34.337  19.081  24.681  1.00  0.00     0.014 A 
ATOM     21  C   UNL A   1      33.643  18.120  23.948  1.00  0.00     0.001 A 
ATOM     22  C   UNL A   1      32.121  19.827  23.183  1.00  0.00     0.009 A 
ATOM     23  C   UNL A   1      32.537  18.494  23.194  1.00  0.00     0.001 A 
BRANCH  19  24
ATOM     24  C   UNL A   1      34.684  21.380  25.475  1.00  0.00     0.248 A 
ATOM     25  C   UNL A   1      37.297  23.737  25.424  1.00  0.00     0.113 C 
ATOM     26  C   UNL A   1      36.170  22.863  25.786  1.00  0.00     0.213 A 
ATOM     27  N   UNL A   1      35.461  22.818  26.891  1.00  0.00    -0.113 NA
ATOM     28  O   UNL A   1      35.754  21.962  24.844  1.00  0.00    -0.421 OA
ATOM     29  N   UNL A   1      34.490  21.858  26.688  1.00  0.00    -0.108 NA
ENDBRANCH  19  24
ENDBRANCH   9  18
ENDBRANCH   6   8
ENDBRANCH   5   6
ENDBRANCH   3   5
ENDBRANCH   2   3
ENDBRANCH   1   2
BRANCH   1  30
ATOM     30  C   UNL A   1      31.765  29.812  25.705  1.00  0.00     0.275 C 
BRANCH  30  31
ATOM     31  O   UNL A   1      33.132  30.209  25.917  1.00  0.00    -0.458 OA
BRANCH  31  32
ATOM     32  C   UNL A   1      33.316  31.192  26.832  1.00  0.00     0.338 C 
ATOM     33  O   UNL A   1      32.539  32.084  27.125  1.00  0.00    -0.246 OA
BRANCH  32  34
ATOM     34  C   UNL A   1      34.569  30.936  27.566  1.00  0.00     0.060 A 
ATOM     35  C   UNL A   1      34.836  29.626  27.972  1.00  0.00     0.016 A 
ATOM     36  C   UNL A   1      35.454  31.970  27.883  1.00  0.00     0.016 A 
ATOM     37  C   UNL A   1      35.998  29.335  28.682  1.00  0.00     0.010 A 
ATOM     38  C   UNL A   1      36.617  31.679  28.606  1.00  0.00     0.010 A 
ATOM     39  C   UNL A   1      36.895  30.361  29.010  1.00  0.00    -0.014 A 
BRANCH  39  40
ATOM     40  C   UNL A   1      38.105  30.057  29.807  1.00  0.00     0.031 A 
ATOM     41  C   UNL A   1      39.155  29.141  29.251  1.00  0.00     0.074 A 
ATOM     42  C   UNL A   1      38.266  30.613  31.021  1.00  0.00     0.049 A 
ATOM     43  N   UNL A   1      40.240  28.681  29.818  1.00  0.00    -0.248 NA
ATOM     44  C   UNL A   1      38.954  28.684  27.868  1.00  0.00     0.031 C 
ATOM     45  C   UNL A   1      37.343  31.563  31.642  1.00  0.00     0.029 A 
ATOM     46  N   UNL A   1      39.263  30.457  31.952  1.00  0.00    -0.354 N 
ATOM     47  C   UNL A   1      40.844  27.867  28.871  1.00  0.00     0.074 A 
ATOM     48  C   UNL A   1      39.998  27.883  27.696  1.00  0.00     0.031 C 
ATOM     49  C   UNL A   1      37.818  31.907  32.849  1.00  0.00     0.029 A 
ATOM     50  C   UNL A   1      39.050  31.165  33.107  1.00  0.00     0.049 A 
ATOM     51  H   UNL A   1      40.055  29.891  31.803  1.00  0.00     0.167 HD
ATOM     52  C   UNL A   1      42.002  27.171  28.976  1.00  0.00     0.037 A 
ATOM     53  C   UNL A   1      39.754  31.187  34.255  1.00  0.00     0.037 A 
ATOM     54  C   UNL A   1      42.846  27.170  30.142  1.00  0.00     0.049 A 
ATOM     55  C   UNL A   1      40.987  30.332  34.377  1.00  0.00     0.074 A 
ATOM     56  C   UNL A   1      44.054  26.521  30.335  1.00  0.00     0.029 A 
ATOM     57  N   UNL A   1      42.564  27.850  31.318  1.00  0.00    -0.354 N 
ATOM     58  N   UNL A   1      41.554  29.564  33.478  1.00  0.00    -0.248 NA
ATOM     59  C   UNL A   1      41.666  30.333  35.681  1.00  0.00     0.031 C 
ATOM     60  C   UNL A   1      44.478  26.770  31.645  1.00  0.00     0.029 A 
ATOM     61  C   UNL A   1      43.558  27.609  32.254  1.00  0.00     0.049 A 
ATOM     62  H   UNL A   1      41.776  28.420  31.467  1.00  0.00     0.167 HD
ATOM     63  C   UNL A   1      42.666  29.010  34.097  1.00  0.00     0.074 A 
ATOM     64  C   UNL A   1      42.700  29.536  35.446  1.00  0.00     0.031 C 
ATOM     65  C   UNL A   1      43.576  28.143  33.592  1.00  0.00     0.037 A 
BRANCH  52  66
ATOM     66  C   UNL A   1      42.405  26.321  27.806  1.00  0.00     0.064 A 
ATOM     67  C   UNL A   1      41.887  25.032  27.613  1.00  0.00     0.173 A 
ATOM     68  C   UNL A   1      43.309  26.815  26.854  1.00  0.00     0.173 A 
ATOM     69  F   UNL A   1      41.030  24.510  28.504  1.00  0.00    -0.203 F 
ATOM     70  C   UNL A   1      42.279  24.260  26.524  1.00  0.00     0.198 A 
ATOM     71  C   UNL A   1      43.679  26.050  25.752  1.00  0.00     0.198 A 
ATOM     72  F   UNL A   1      43.831  28.044  26.990  1.00  0.00    -0.203 F 
ATOM     73  F   UNL A   1      41.807  23.013  26.383  1.00  0.00    -0.200 F 
ATOM     74  C   UNL A   1      43.170  24.771  25.591  1.00  0.00     0.200 A 
ATOM     75  F   UNL A   1      44.533  26.549  24.847  1.00  0.00    -0.200 F 
ATOM     76  F   UNL A   1      43.546  24.025  24.542  1.00  0.00    -0.200 F 
ENDBRANCH  52  66
BRANCH  53  77
ATOM     77  C   UNL A   1      39.297  32.030  35.389  1.00  0.00     0.064 A 
ATOM     78  C   UNL A   1      39.686  33.372  35.490  1.00  0.00     0.173 A 
ATOM     79  C   UNL A   1      38.466  31.512  36.394  1.00  0.00     0.173 A 
ATOM     80  F   UNL A   1      40.503  33.904  34.570  1.00  0.00    -0.203 F 
ATOM     81  C   UNL A   1      39.267  34.163  36.558  1.00  0.00     0.198 A 
ATOM     82  C   UNL A   1      38.026  32.311  37.447  1.00  0.00     0.198 A 
ATOM     83  F   UNL A   1      38.072  30.232  36.347  1.00  0.00    -0.203 F 
ATOM     84  F   UNL A   1      39.684  35.432  36.653  1.00  0.00    -0.200 F 
ATOM     85  C   UNL A   1      38.431  33.634  37.531  1.00  0.00     0.200 A 
ATOM     86  F   UNL A   1      37.213  31.798  38.381  1.00  0.00    -0.200 F 
ATOM     87  F   UNL A   1      38.025  34.397  38.556  1.00  0.00    -0.200 F 
ENDBRANCH  53  77
BRANCH  65  88
ATOM     88  C   UNL A   1      44.702  27.726  34.493  1.00  0.00     0.064 A 
ATOM     89  C   UNL A   1      45.886  28.471  34.578  1.00  0.00     0.173 A 
ATOM     90  C   UNL A   1      44.573  26.595  35.314  1.00  0.00     0.173 A 
ATOM     91  F   UNL A   1      46.063  29.549  33.800  1.00  0.00    -0.203 F 
ATOM     92  C   UNL A   1      46.910  28.088  35.441  1.00  0.00     0.198 A 
ATOM     93  C   UNL A   1      45.588  26.231  36.195  1.00  0.00     0.198 A 
ATOM     94  F   UNL A   1      43.457  25.853  35.273  1.00  0.00    -0.203 F 
ATOM     95  F   UNL A   1      48.049  28.793  35.479  1.00  0.00    -0.200 F 
ATOM     96  C   UNL A   1      46.757  26.975  36.254  1.00  0.00     0.200 A 
ATOM     97  F   UNL A   1      45.434  25.161  36.987  1.00  0.00    -0.200 F 
ATOM     98  F   UNL A   1      47.740  26.614  37.091  1.00  0.00    -0.200 F 
ENDBRANCH  65  88
ENDBRANCH  39  40
ENDBRANCH  32  34
ENDBRANCH  31  32
ENDBRANCH  30  31
ENDBRANCH   1  30
TORSDOF 15
ENDMDL
