MODEL 1
REMARK VINA RESULT:     -12.6      0.000      0.000
REMARK SMILES Nc1cc(C(=O)OCCOC(=O)c2ccc(-c3c4nc(c(-c5c(F)c(F)c(F)c(F)c5F)c5ccc([nH]5)c(-c5c(F)c(F)c(F)c(F)c5F)c5nc(c(-c6c(F)c(F)c(F)c(F)c6F)c6ccc3[nH]6)C=C5)C=C4)cc2)c(-c2ccc(F)cc2O)cn1
REMARK SMILES IDX 8 1 7 2 5 3 6 4 4 5 2 6 3 7 86 8 85 9 76 10 1 11 77 14 78 15
REMARK SMILES IDX 83 16 79 17 82 18 80 19 81 20 84 21 9 23 10 24 11 25 12 26
REMARK SMILES IDX 13 27 14 28 75 29 15 30 74 31 16 32 17 33 18 34 68 35 19 36
REMARK SMILES IDX 73 37 67 38 69 39 20 40 72 41 66 42 65 43 21 45 53 46 33 47
REMARK SMILES IDX 52 48 34 49 37 50 51 51 70 52 35 53 36 54 50 56 71 57 38 58
REMARK SMILES IDX 22 59 23 60 31 61 24 62 25 63 29 64 32 65 26 66 27 67 30 68
REMARK SMILES IDX 28 69 54 70 55 71 63 72 56 73 57 74 61 75 64 76 58 77 59 78
REMARK SMILES IDX 62 79 60 80 39 81 40 82 48 83 41 84 42 85 46 86 49 87 43 88
REMARK SMILES IDX 44 89 47 90 45 91
REMARK H PARENT 1 12 1 13 84 22 69 44 37 55
REMARK Flexibility Score: inf
ROOT
ATOM      1  C   UNL A   1      31.470  28.528  26.252  1.00  0.00     0.275 C 
ENDROOT
BRANCH   1   2
ATOM      2  O   UNL A   1      32.619  27.679  26.026  1.00  0.00    -0.458 OA
BRANCH   2   3
ATOM      3  C   UNL A   1      32.379  26.347  26.006  1.00  0.00     0.339 C 
ATOM      4  O   UNL A   1      31.736  25.707  26.820  1.00  0.00    -0.246 OA
BRANCH   3   5
ATOM      5  C   UNL A   1      33.125  25.721  24.894  1.00  0.00     0.073 A 
ATOM      6  C   UNL A   1      34.809  24.107  24.411  1.00  0.00     0.124 A 
ATOM      7  C   UNL A   1      34.190  24.926  25.325  1.00  0.00     0.062 A 
ATOM      8  N   UNL A   1      34.448  24.084  23.116  1.00  0.00    -0.239 NA
ATOM      9  C   UNL A   1      33.418  24.881  22.712  1.00  0.00     0.123 A 
ATOM     10  C   UNL A   1      32.694  25.718  23.547  1.00  0.00     0.018 A 
BRANCH   6  11
ATOM     11  N   UNL A   1      35.733  23.177  24.840  1.00  0.00    -0.384 N 
ATOM     12  H   UNL A   1      35.726  22.871  25.775  1.00  0.00     0.158 HD
ATOM     13  H   UNL A   1      36.400  22.819  24.210  1.00  0.00     0.158 HD
ENDBRANCH   6  11
BRANCH  10  14
ATOM     14  C   UNL A   1      31.431  26.346  23.106  1.00  0.00     0.026 A 
ATOM     15  C   UNL A   1      29.980  25.548  23.736  1.00  0.00     0.015 A 
ATOM     16  C   UNL A   1      31.261  28.051  22.487  1.00  0.00     0.126 A 
ATOM     17  C   UNL A   1      28.402  26.328  23.876  1.00  0.00     0.040 A 
ATOM     18  C   UNL A   1      29.442  28.927  22.683  1.00  0.00     0.086 A 
ATOM     19  C   UNL A   1      28.107  27.975  23.397  1.00  0.00     0.126 A 
ATOM     20  F   UNL A   1      26.883  28.504  23.501  1.00  0.00    -0.207 F 
BRANCH  16  21
ATOM     21  O   UNL A   1      32.486  28.504  22.001  1.00  0.00    -0.507 OA
ATOM     22  H   UNL A   1      32.597  28.662  21.084  1.00  0.00     0.293 HD
ENDBRANCH  16  21
ENDBRANCH  10  14
ENDBRANCH   3   5
ENDBRANCH   2   3
ENDBRANCH   1   2
BRANCH   1  23
ATOM     23  C   UNL A   1      31.602  29.810  25.434  1.00  0.00     0.275 C 
BRANCH  23  24
ATOM     24  O   UNL A   1      32.837  30.453  25.788  1.00  0.00    -0.458 OA
BRANCH  24  25
ATOM     25  C   UNL A   1      32.698  31.409  26.724  1.00  0.00     0.338 C 
ATOM     26  O   UNL A   1      31.778  32.196  26.876  1.00  0.00    -0.246 OA
BRANCH  25  27
ATOM     27  C   UNL A   1      33.760  31.299  27.716  1.00  0.00     0.060 A 
ATOM     28  C   UNL A   1      34.827  32.720  27.998  1.00  0.00     0.016 A 
ATOM     29  C   UNL A   1      34.413  29.695  28.003  1.00  0.00     0.016 A 
ATOM     30  C   UNL A   1      36.740  32.377  28.567  1.00  0.00     0.010 A 
ATOM     31  C   UNL A   1      36.077  29.401  28.563  1.00  0.00     0.010 A 
ATOM     32  C   UNL A   1      37.278  30.672  28.861  1.00  0.00    -0.014 A 
BRANCH  32  33
ATOM     33  C   UNL A   1      38.553  30.314  29.621  1.00  0.00     0.031 A 
ATOM     34  C   UNL A   1      39.555  29.307  29.070  1.00  0.00     0.074 A 
ATOM     35  C   UNL A   1      38.761  30.735  30.892  1.00  0.00     0.049 A 
ATOM     36  N   UNL A   1      40.520  28.662  29.691  1.00  0.00    -0.248 NA
ATOM     37  C   UNL A   1      39.430  28.938  27.655  1.00  0.00     0.031 C 
ATOM     38  C   UNL A   1      37.895  31.621  31.649  1.00  0.00     0.029 A 
ATOM     39  N   UNL A   1      39.757  30.448  31.810  1.00  0.00    -0.354 N 
ATOM     40  C   UNL A   1      41.057  27.768  28.767  1.00  0.00     0.074 A 
ATOM     41  C   UNL A   1      40.271  27.915  27.559  1.00  0.00     0.031 C 
ATOM     42  C   UNL A   1      38.385  31.855  32.864  1.00  0.00     0.029 A 
ATOM     43  C   UNL A   1      39.570  31.049  33.038  1.00  0.00     0.049 A 
ATOM     44  H   UNL A   1      40.527  29.870  31.605  1.00  0.00     0.167 HD
ATOM     45  C   UNL A   1      42.120  26.929  28.892  1.00  0.00     0.037 A 
ATOM     46  C   UNL A   1      40.216  30.966  34.216  1.00  0.00     0.037 A 
ATOM     47  C   UNL A   1      42.971  26.851  30.059  1.00  0.00     0.049 A 
ATOM     48  C   UNL A   1      41.412  30.087  34.321  1.00  0.00     0.074 A 
ATOM     49  C   UNL A   1      44.135  26.117  30.233  1.00  0.00     0.029 A 
ATOM     50  N   UNL A   1      42.762  27.541  31.245  1.00  0.00    -0.354 N 
ATOM     51  N   UNL A   1      41.909  29.277  33.422  1.00  0.00    -0.248 NA
ATOM     52  C   UNL A   1      42.147  30.118  35.589  1.00  0.00     0.031 C 
ATOM     53  C   UNL A   1      44.611  26.339  31.532  1.00  0.00     0.029 A 
ATOM     54  C   UNL A   1      43.771  27.246  32.154  1.00  0.00     0.049 A 
ATOM     55  H   UNL A   1      42.008  28.150  31.417  1.00  0.00     0.167 HD
ATOM     56  C   UNL A   1      43.030  28.716  34.004  1.00  0.00     0.074 A 
ATOM     57  C   UNL A   1      43.148  29.291  35.330  1.00  0.00     0.031 C 
ATOM     58  C   UNL A   1      43.884  27.809  33.476  1.00  0.00     0.037 A 
BRANCH  45  59
ATOM     59  C   UNL A   1      42.451  26.030  27.723  1.00  0.00     0.064 A 
ATOM     60  C   UNL A   1      41.794  24.807  27.515  1.00  0.00     0.173 A 
ATOM     61  C   UNL A   1      43.416  26.413  26.774  1.00  0.00     0.173 A 
ATOM     62  F   UNL A   1      40.853  24.391  28.376  1.00  0.00    -0.203 F 
ATOM     63  C   UNL A   1      42.132  23.976  26.447  1.00  0.00     0.198 A 
ATOM     64  C   UNL A   1      43.723  25.597  25.684  1.00  0.00     0.198 A 
ATOM     65  F   UNL A   1      44.059  27.584  26.894  1.00  0.00    -0.203 F 
ATOM     66  F   UNL A   1      41.538  22.781  26.316  1.00  0.00    -0.200 F 
ATOM     67  C   UNL A   1      43.093  24.373  25.531  1.00  0.00     0.200 A 
ATOM     68  F   UNL A   1      44.633  25.996  24.784  1.00  0.00    -0.200 F 
ATOM     69  F   UNL A   1      43.417  23.572  24.505  1.00  0.00    -0.200 F 
ENDBRANCH  45  59
BRANCH  46  70
ATOM     70  C   UNL A   1      39.738  31.780  35.368  1.00  0.00     0.064 A 
ATOM     71  C   UNL A   1      40.204  33.088  35.561  1.00  0.00     0.173 A 
ATOM     72  C   UNL A   1      38.733  31.312  36.232  1.00  0.00     0.173 A 
ATOM     73  F   UNL A   1      41.169  33.577  34.769  1.00  0.00    -0.203 F 
ATOM     74  C   UNL A   1      39.686  33.896  36.572  1.00  0.00     0.198 A 
ATOM     75  C   UNL A   1      38.193  32.133  37.221  1.00  0.00     0.198 A 
ATOM     76  F   UNL A   1      38.234  30.078  36.075  1.00  0.00    -0.203 F 
ATOM     77  F   UNL A   1      40.164  35.135  36.745  1.00  0.00    -0.200 F 
ATOM     78  C   UNL A   1      38.673  33.423  37.391  1.00  0.00     0.200 A 
ATOM     79  F   UNL A   1      37.192  31.684  37.990  1.00  0.00    -0.200 F 
ATOM     80  F   UNL A   1      38.153  34.212  38.342  1.00  0.00    -0.200 F 
ENDBRANCH  46  70
BRANCH  58  81
ATOM     81  C   UNL A   1      45.049  27.415  34.330  1.00  0.00     0.064 A 
ATOM     82  C   UNL A   1      46.261  28.120  34.294  1.00  0.00     0.173 A 
ATOM     83  C   UNL A   1      44.958  26.302  35.178  1.00  0.00     0.173 A 
ATOM     84  F   UNL A   1      46.406  29.173  33.476  1.00  0.00    -0.203 F 
ATOM     85  C   UNL A   1      47.350  27.706  35.055  1.00  0.00     0.198 A 
ATOM     86  C   UNL A   1      46.039  25.908  35.960  1.00  0.00     0.198 A 
ATOM     87  F   UNL A   1      43.822  25.591  35.242  1.00  0.00    -0.203 F 
ATOM     88  F   UNL A   1      48.519  28.355  34.958  1.00  0.00    -0.200 F 
ATOM     89  C   UNL A   1      47.237  26.604  35.890  1.00  0.00     0.200 A 
ATOM     90  F   UNL A   1      45.927  24.847  36.770  1.00  0.00    -0.200 F 
ATOM     91  F   UNL A   1      48.288  26.203  36.619  1.00  0.00    -0.200 F 
ENDBRANCH  58  81
ENDBRANCH  32  33
ENDBRANCH  25  27
ENDBRANCH  24  25
ENDBRANCH  23  24
ENDBRANCH   1  23
TORSDOF 14
ENDMDL
MODEL 2
REMARK VINA RESULT:     -12.4      1.815      3.214
REMARK SMILES Nc1cc(C(=O)OCCOC(=O)c2ccc(-c3c4nc(c(-c5c(F)c(F)c(F)c(F)c5F)c5ccc([nH]5)c(-c5c(F)c(F)c(F)c(F)c5F)c5nc(c(-c6c(F)c(F)c(F)c(F)c6F)c6ccc3[nH]6)C=C5)C=C4)cc2)c(-c2ccc(F)cc2O)cn1
REMARK SMILES IDX 8 1 7 2 5 3 6 4 4 5 2 6 3 7 86 8 85 9 76 10 1 11 77 14 78 15
REMARK SMILES IDX 83 16 79 17 82 18 80 19 81 20 84 21 9 23 10 24 11 25 12 26
REMARK SMILES IDX 13 27 14 28 75 29 15 30 74 31 16 32 17 33 18 34 68 35 19 36
REMARK SMILES IDX 73 37 67 38 69 39 20 40 72 41 66 42 65 43 21 45 53 46 33 47
REMARK SMILES IDX 52 48 34 49 37 50 51 51 70 52 35 53 36 54 50 56 71 57 38 58
REMARK SMILES IDX 22 59 23 60 31 61 24 62 25 63 29 64 32 65 26 66 27 67 30 68
REMARK SMILES IDX 28 69 54 70 55 71 63 72 56 73 57 74 61 75 64 76 58 77 59 78
REMARK SMILES IDX 62 79 60 80 39 81 40 82 48 83 41 84 42 85 46 86 49 87 43 88
REMARK SMILES IDX 44 89 47 90 45 91
REMARK H PARENT 1 12 1 13 84 22 69 44 37 55
REMARK Flexibility Score: inf
ROOT
ATOM      1  C   UNL A   1      32.297  28.647  25.149  1.00  0.00     0.275 C 
ENDROOT
BRANCH   1   2
ATOM      2  O   UNL A   1      32.408  28.710  23.709  1.00  0.00    -0.458 OA
BRANCH   2   3
ATOM      3  C   UNL A   1      31.778  27.728  23.021  1.00  0.00     0.339 C 
ATOM      4  O   UNL A   1      32.279  26.961  22.217  1.00  0.00    -0.246 OA
BRANCH   3   5
ATOM      5  C   UNL A   1      30.326  27.784  23.288  1.00  0.00     0.073 A 
ATOM      6  C   UNL A   1      28.313  28.865  22.613  1.00  0.00     0.124 A 
ATOM      7  C   UNL A   1      29.687  28.843  22.638  1.00  0.00     0.062 A 
ATOM      8  N   UNL A   1      27.575  27.926  23.229  1.00  0.00    -0.239 NA
ATOM      9  C   UNL A   1      28.218  26.910  23.873  1.00  0.00     0.123 A 
ATOM     10  C   UNL A   1      29.594  26.761  23.934  1.00  0.00     0.018 A 
BRANCH   6  11
ATOM     11  N   UNL A   1      27.657  29.788  21.825  1.00  0.00    -0.384 N 
ATOM     12  H   UNL A   1      27.970  30.721  21.795  1.00  0.00     0.158 HD
ATOM     13  H   UNL A   1      26.875  29.514  21.293  1.00  0.00     0.158 HD
ENDBRANCH   6  11
BRANCH  10  14
ATOM     14  C   UNL A   1      30.215  25.508  24.412  1.00  0.00     0.026 A 
ATOM     15  C   UNL A   1      30.513  24.324  23.127  1.00  0.00     0.015 A 
ATOM     16  C   UNL A   1      31.135  25.315  25.972  1.00  0.00     0.126 A 
ATOM     17  C   UNL A   1      31.701  23.022  23.235  1.00  0.00     0.040 A 
ATOM     18  C   UNL A   1      32.508  23.825  26.058  1.00  0.00     0.086 A 
ATOM     19  C   UNL A   1      32.705  22.761  24.632  1.00  0.00     0.126 A 
ATOM     20  F   UNL A   1      33.569  21.740  24.668  1.00  0.00    -0.207 F 
BRANCH  16  21
ATOM     21  O   UNL A   1      30.752  26.306  26.874  1.00  0.00    -0.507 OA
ATOM     22  H   UNL A   1      29.891  26.294  27.246  1.00  0.00     0.293 HD
ENDBRANCH  16  21
ENDBRANCH  10  14
ENDBRANCH   3   5
ENDBRANCH   2   3
ENDBRANCH   1   2
BRANCH   1  23
ATOM     23  C   UNL A   1      31.806  29.987  25.691  1.00  0.00     0.275 C 
BRANCH  23  24
ATOM     24  O   UNL A   1      32.943  30.842  25.894  1.00  0.00    -0.458 OA
BRANCH  24  25
ATOM     25  C   UNL A   1      32.769  31.745  26.876  1.00  0.00     0.338 C 
ATOM     26  O   UNL A   1      31.817  32.483  27.070  1.00  0.00    -0.246 OA
BRANCH  25  27
ATOM     27  C   UNL A   1      33.842  31.634  27.856  1.00  0.00     0.060 A 
ATOM     28  C   UNL A   1      35.019  32.986  28.003  1.00  0.00     0.016 A 
ATOM     29  C   UNL A   1      34.378  30.012  28.263  1.00  0.00     0.016 A 
ATOM     30  C   UNL A   1      36.913  32.543  28.568  1.00  0.00     0.010 A 
ATOM     31  C   UNL A   1      36.027  29.636  28.819  1.00  0.00     0.010 A 
ATOM     32  C   UNL A   1      37.328  30.831  28.992  1.00  0.00    -0.014 A 
BRANCH  32  33
ATOM     33  C   UNL A   1      38.588  30.438  29.758  1.00  0.00     0.031 A 
ATOM     34  C   UNL A   1      39.582  29.428  29.197  1.00  0.00     0.074 A 
ATOM     35  C   UNL A   1      38.789  30.828  31.040  1.00  0.00     0.049 A 
ATOM     36  N   UNL A   1      40.530  28.756  29.814  1.00  0.00    -0.248 NA
ATOM     37  C   UNL A   1      39.468  29.092  27.772  1.00  0.00     0.031 C 
ATOM     38  C   UNL A   1      37.927  31.711  31.807  1.00  0.00     0.029 A 
ATOM     39  N   UNL A   1      39.770  30.507  31.962  1.00  0.00    -0.354 N 
ATOM     40  C   UNL A   1      41.065  27.875  28.877  1.00  0.00     0.074 A 
ATOM     41  C   UNL A   1      40.294  28.059  27.664  1.00  0.00     0.031 C 
ATOM     42  C   UNL A   1      38.406  31.912  33.032  1.00  0.00     0.029 A 
ATOM     43  C   UNL A   1      39.578  31.085  33.201  1.00  0.00     0.049 A 
ATOM     44  H   UNL A   1      40.533  29.922  31.754  1.00  0.00     0.167 HD
ATOM     45  C   UNL A   1      42.114  27.017  28.995  1.00  0.00     0.037 A 
ATOM     46  C   UNL A   1      40.209  30.967  34.384  1.00  0.00     0.037 A 
ATOM     47  C   UNL A   1      42.950  26.901  30.170  1.00  0.00     0.049 A 
ATOM     48  C   UNL A   1      41.391  30.069  34.483  1.00  0.00     0.074 A 
ATOM     49  C   UNL A   1      44.101  26.147  30.341  1.00  0.00     0.029 A 
ATOM     50  N   UNL A   1      42.738  27.569  31.368  1.00  0.00    -0.354 N 
ATOM     51  N   UNL A   1      41.886  29.270  33.573  1.00  0.00    -0.248 NA
ATOM     52  C   UNL A   1      42.111  30.062  35.760  1.00  0.00     0.031 C 
ATOM     53  C   UNL A   1      44.566  26.334  31.649  1.00  0.00     0.029 A 
ATOM     54  C   UNL A   1      43.732  27.240  32.281  1.00  0.00     0.049 A 
ATOM     55  H   UNL A   1      41.991  28.186  31.545  1.00  0.00     0.167 HD
ATOM     56  C   UNL A   1      42.992  28.681  34.155  1.00  0.00     0.074 A 
ATOM     57  C   UNL A   1      43.103  29.225  35.494  1.00  0.00     0.031 C 
ATOM     58  C   UNL A   1      43.838  27.773  33.616  1.00  0.00     0.037 A 
BRANCH  45  59
ATOM     59  C   UNL A   1      42.445  26.139  27.811  1.00  0.00     0.064 A 
ATOM     60  C   UNL A   1      43.436  26.489  26.878  1.00  0.00     0.173 A 
ATOM     61  C   UNL A   1      41.788  24.911  27.621  1.00  0.00     0.173 A 
ATOM     62  F   UNL A   1      44.110  27.642  27.011  1.00  0.00    -0.203 F 
ATOM     63  C   UNL A   1      43.709  25.682  25.775  1.00  0.00     0.198 A 
ATOM     64  C   UNL A   1      42.092  24.086  26.537  1.00  0.00     0.198 A 
ATOM     65  F   UNL A   1      40.853  24.501  28.491  1.00  0.00    -0.203 F 
ATOM     66  F   UNL A   1      44.609  26.078  24.864  1.00  0.00    -0.200 F 
ATOM     67  C   UNL A   1      43.040  24.480  25.607  1.00  0.00     0.200 A 
ATOM     68  F   UNL A   1      41.463  22.911  26.392  1.00  0.00    -0.200 F 
ATOM     69  F   UNL A   1      43.304  23.706  24.544  1.00  0.00    -0.200 F 
ENDBRANCH  45  59
BRANCH  46  70
ATOM     70  C   UNL A   1      39.729  31.763  35.548  1.00  0.00     0.064 A 
ATOM     71  C   UNL A   1      40.235  33.047  35.792  1.00  0.00     0.173 A 
ATOM     72  C   UNL A   1      38.687  31.306  36.372  1.00  0.00     0.173 A 
ATOM     73  F   UNL A   1      41.236  33.525  35.039  1.00  0.00    -0.203 F 
ATOM     74  C   UNL A   1      39.720  33.843  36.814  1.00  0.00     0.198 A 
ATOM     75  C   UNL A   1      38.150  32.116  37.372  1.00  0.00     0.198 A 
ATOM     76  F   UNL A   1      38.149  30.095  36.165  1.00  0.00    -0.203 F 
ATOM     77  F   UNL A   1      40.235  35.059  37.036  1.00  0.00    -0.200 F 
ATOM     78  C   UNL A   1      38.670  33.382  37.593  1.00  0.00     0.200 A 
ATOM     79  F   UNL A   1      37.115  31.680  38.102  1.00  0.00    -0.200 F 
ATOM     80  F   UNL A   1      38.153  34.161  38.554  1.00  0.00    -0.200 F 
ENDBRANCH  46  70
BRANCH  58  81
ATOM     81  C   UNL A   1      44.987  27.343  34.475  1.00  0.00     0.064 A 
ATOM     82  C   UNL A   1      44.900  26.226  35.318  1.00  0.00     0.173 A 
ATOM     83  C   UNL A   1      46.183  28.075  34.472  1.00  0.00     0.173 A 
ATOM     84  F   UNL A   1      43.765  25.512  35.379  1.00  0.00    -0.203 F 
ATOM     85  C   UNL A   1      45.960  25.874  36.149  1.00  0.00     0.198 A 
ATOM     86  C   UNL A   1      47.252  27.704  35.282  1.00  0.00     0.198 A 
ATOM     87  F   UNL A   1      46.312  29.157  33.688  1.00  0.00    -0.203 F 
ATOM     88  F   UNL A   1      45.832  24.841  36.994  1.00  0.00    -0.200 F 
ATOM     89  C   UNL A   1      47.135  26.610  36.127  1.00  0.00     0.200 A 
ATOM     90  F   UNL A   1      48.389  28.412  35.255  1.00  0.00    -0.200 F 
ATOM     91  F   UNL A   1      48.153  26.274  36.931  1.00  0.00    -0.200 F 
ENDBRANCH  58  81
ENDBRANCH  32  33
ENDBRANCH  25  27
ENDBRANCH  24  25
ENDBRANCH  23  24
ENDBRANCH   1  23
TORSDOF 14
ENDMDL
MODEL 3
REMARK VINA RESULT:     -12.3      0.913      1.732
REMARK SMILES Nc1cc(C(=O)OCCOC(=O)c2ccc(-c3c4nc(c(-c5c(F)c(F)c(F)c(F)c5F)c5ccc([nH]5)c(-c5c(F)c(F)c(F)c(F)c5F)c5nc(c(-c6c(F)c(F)c(F)c(F)c6F)c6ccc3[nH]6)C=C5)C=C4)cc2)c(-c2ccc(F)cc2O)cn1
REMARK SMILES IDX 8 1 7 2 5 3 6 4 4 5 2 6 3 7 86 8 85 9 76 10 1 11 77 14 78 15
REMARK SMILES IDX 83 16 79 17 82 18 80 19 81 20 84 21 9 23 10 24 11 25 12 26
REMARK SMILES IDX 13 27 14 28 75 29 15 30 74 31 16 32 17 33 18 34 68 35 19 36
REMARK SMILES IDX 73 37 67 38 69 39 20 40 72 41 66 42 65 43 21 45 53 46 33 47
REMARK SMILES IDX 52 48 34 49 37 50 51 51 70 52 35 53 36 54 50 56 71 57 38 58
REMARK SMILES IDX 22 59 23 60 31 61 24 62 25 63 29 64 32 65 26 66 27 67 30 68
REMARK SMILES IDX 28 69 54 70 55 71 63 72 56 73 57 74 61 75 64 76 58 77 59 78
REMARK SMILES IDX 62 79 60 80 39 81 40 82 48 83 41 84 42 85 46 86 49 87 43 88
REMARK SMILES IDX 44 89 47 90 45 91
REMARK H PARENT 1 12 1 13 84 22 69 44 37 55
REMARK Flexibility Score: inf
ROOT
ATOM      1  C   UNL A   1      31.741  28.444  26.845  1.00  0.00     0.275 C 
ENDROOT
BRANCH   1   2
ATOM      2  O   UNL A   1      32.257  27.222  26.268  1.00  0.00    -0.458 OA
BRANCH   2   3
ATOM      3  C   UNL A   1      31.337  26.370  25.759  1.00  0.00     0.339 C 
ATOM      4  O   UNL A   1      30.372  25.903  26.340  1.00  0.00    -0.246 OA
BRANCH   3   5
ATOM      5  C   UNL A   1      31.731  25.965  24.394  1.00  0.00     0.073 A 
ATOM      6  C   UNL A   1      32.680  24.170  23.147  1.00  0.00     0.124 A 
ATOM      7  C   UNL A   1      32.461  24.774  24.362  1.00  0.00     0.062 A 
ATOM      8  N   UNL A   1      32.252  24.715  21.995  1.00  0.00    -0.239 NA
ATOM      9  C   UNL A   1      31.557  25.887  22.045  1.00  0.00     0.123 A 
ATOM     10  C   UNL A   1      31.243  26.567  23.211  1.00  0.00     0.018 A 
BRANCH   6  11
ATOM     11  N   UNL A   1      33.230  22.906  23.099  1.00  0.00    -0.384 N 
ATOM     12  H   UNL A   1      32.648  22.120  22.987  1.00  0.00     0.158 HD
ATOM     13  H   UNL A   1      34.205  22.791  23.176  1.00  0.00     0.158 HD
ENDBRANCH   6  11
BRANCH  10  14
ATOM     14  C   UNL A   1      30.267  27.678  23.219  1.00  0.00     0.026 A 
ATOM     15  C   UNL A   1      30.835  29.131  22.378  1.00  0.00     0.015 A 
ATOM     16  C   UNL A   1      28.476  27.506  23.502  1.00  0.00     0.126 A 
ATOM     17  C   UNL A   1      29.768  30.379  21.728  1.00  0.00     0.040 A 
ATOM     18  C   UNL A   1      27.276  28.943  22.723  1.00  0.00     0.086 A 
ATOM     19  C   UNL A   1      28.034  30.312  21.854  1.00  0.00     0.126 A 
ATOM     20  F   UNL A   1      27.278  31.301  21.366  1.00  0.00    -0.207 F 
BRANCH  16  21
ATOM     21  O   UNL A   1      28.217  26.329  24.202  1.00  0.00    -0.507 OA
ATOM     22  H   UNL A   1      28.905  25.906  24.679  1.00  0.00     0.293 HD
ENDBRANCH  16  21
ENDBRANCH  10  14
ENDBRANCH   3   5
ENDBRANCH   2   3
ENDBRANCH   1   2
BRANCH   1  23
ATOM     23  C   UNL A   1      31.675  29.535  25.780  1.00  0.00     0.275 C 
BRANCH  23  24
ATOM     24  O   UNL A   1      32.869  30.329  25.865  1.00  0.00    -0.458 OA
BRANCH  24  25
ATOM     25  C   UNL A   1      32.785  31.337  26.753  1.00  0.00     0.338 C 
ATOM     26  O   UNL A   1      31.902  32.170  26.875  1.00  0.00    -0.246 OA
BRANCH  25  27
ATOM     27  C   UNL A   1      33.854  31.229  27.737  1.00  0.00     0.060 A 
ATOM     28  C   UNL A   1      34.928  32.648  28.001  1.00  0.00     0.016 A 
ATOM     29  C   UNL A   1      34.503  29.625  28.031  1.00  0.00     0.016 A 
ATOM     30  C   UNL A   1      36.844  32.301  28.558  1.00  0.00     0.010 A 
ATOM     31  C   UNL A   1      36.170  29.328  28.580  1.00  0.00     0.010 A 
ATOM     32  C   UNL A   1      37.378  30.596  28.860  1.00  0.00    -0.014 A 
BRANCH  32  33
ATOM     33  C   UNL A   1      38.658  30.239  29.612  1.00  0.00     0.031 A 
ATOM     34  C   UNL A   1      39.651  29.224  29.061  1.00  0.00     0.074 A 
ATOM     35  C   UNL A   1      38.877  30.668  30.879  1.00  0.00     0.049 A 
ATOM     36  N   UNL A   1      40.619  28.580  29.679  1.00  0.00    -0.248 NA
ATOM     37  C   UNL A   1      39.514  28.845  27.649  1.00  0.00     0.031 C 
ATOM     38  C   UNL A   1      38.020  31.563  31.636  1.00  0.00     0.029 A 
ATOM     39  N   UNL A   1      39.879  30.383  31.791  1.00  0.00    -0.354 N 
ATOM     40  C   UNL A   1      41.145  27.677  28.757  1.00  0.00     0.074 A 
ATOM     41  C   UNL A   1      40.350  27.819  27.554  1.00  0.00     0.031 C 
ATOM     42  C   UNL A   1      38.521  31.804  32.846  1.00  0.00     0.029 A 
ATOM     43  C   UNL A   1      39.704  30.994  33.017  1.00  0.00     0.049 A 
ATOM     44  H   UNL A   1      40.645  29.801  31.584  1.00  0.00     0.167 HD
ATOM     45  C   UNL A   1      42.206  26.835  28.880  1.00  0.00     0.037 A 
ATOM     46  C   UNL A   1      40.359  30.917  34.189  1.00  0.00     0.037 A 
ATOM     47  C   UNL A   1      43.065  26.761  30.041  1.00  0.00     0.049 A 
ATOM     48  C   UNL A   1      41.552  30.034  34.292  1.00  0.00     0.074 A 
ATOM     49  C   UNL A   1      44.227  26.024  30.211  1.00  0.00     0.029 A 
ATOM     50  N   UNL A   1      42.868  27.461  31.223  1.00  0.00    -0.354 N 
ATOM     51  N   UNL A   1      42.039  29.215  33.395  1.00  0.00    -0.248 NA
ATOM     52  C   UNL A   1      42.297  30.071  35.554  1.00  0.00     0.031 C 
ATOM     53  C   UNL A   1      44.714  26.253  31.505  1.00  0.00     0.029 A 
ATOM     54  C   UNL A   1      43.883  27.168  32.126  1.00  0.00     0.049 A 
ATOM     55  H   UNL A   1      42.118  28.074  31.397  1.00  0.00     0.167 HD
ATOM     56  C   UNL A   1      43.162  28.654  33.972  1.00  0.00     0.074 A 
ATOM     57  C   UNL A   1      43.293  29.238  35.293  1.00  0.00     0.031 C 
ATOM     58  C   UNL A   1      44.008  27.740  33.444  1.00  0.00     0.037 A 
BRANCH  45  59
ATOM     59  C   UNL A   1      42.524  25.927  27.714  1.00  0.00     0.064 A 
ATOM     60  C   UNL A   1      41.851  24.711  27.513  1.00  0.00     0.173 A 
ATOM     61  C   UNL A   1      43.494  26.292  26.763  1.00  0.00     0.173 A 
ATOM     62  F   UNL A   1      40.905  24.311  28.376  1.00  0.00    -0.203 F 
ATOM     63  C   UNL A   1      42.177  23.871  26.448  1.00  0.00     0.198 A 
ATOM     64  C   UNL A   1      43.789  25.468  25.677  1.00  0.00     0.198 A 
ATOM     65  F   UNL A   1      44.152  27.455  26.878  1.00  0.00    -0.203 F 
ATOM     66  F   UNL A   1      41.568  22.683  26.323  1.00  0.00    -0.200 F 
ATOM     67  C   UNL A   1      43.143  24.251  25.530  1.00  0.00     0.200 A 
ATOM     68  F   UNL A   1      44.704  25.850  24.775  1.00  0.00    -0.200 F 
ATOM     69  F   UNL A   1      43.455  23.441  24.508  1.00  0.00    -0.200 F 
ENDBRANCH  45  59
BRANCH  46  70
ATOM     70  C   UNL A   1      39.892  31.741  35.339  1.00  0.00     0.064 A 
ATOM     71  C   UNL A   1      40.392  33.035  35.540  1.00  0.00     0.173 A 
ATOM     72  C   UNL A   1      38.868  31.298  36.194  1.00  0.00     0.173 A 
ATOM     73  F   UNL A   1      41.377  33.500  34.757  1.00  0.00    -0.203 F 
ATOM     74  C   UNL A   1      39.888  33.855  36.548  1.00  0.00     0.198 A 
ATOM     75  C   UNL A   1      38.342  32.131  37.180  1.00  0.00     0.198 A 
ATOM     76  F   UNL A   1      38.336  30.079  36.028  1.00  0.00    -0.203 F 
ATOM     77  F   UNL A   1      40.397  35.080  36.729  1.00  0.00    -0.200 F 
ATOM     78  C   UNL A   1      38.855  33.407  37.357  1.00  0.00     0.200 A 
ATOM     79  F   UNL A   1      37.322  31.708  37.938  1.00  0.00    -0.200 F 
ATOM     80  F   UNL A   1      38.348  34.208  38.305  1.00  0.00    -0.200 F 
ENDBRANCH  46  70
BRANCH  58  81
ATOM     81  C   UNL A   1      45.178  27.348  34.292  1.00  0.00     0.064 A 
ATOM     82  C   UNL A   1      45.105  26.280  35.199  1.00  0.00     0.173 A 
ATOM     83  C   UNL A   1      46.380  28.066  34.213  1.00  0.00     0.173 A 
ATOM     84  F   UNL A   1      43.966  25.583  35.332  1.00  0.00    -0.203 F 
ATOM     85  C   UNL A   1      46.185  25.965  36.018  1.00  0.00     0.198 A 
ATOM     86  C   UNL A   1      47.468  27.729  35.013  1.00  0.00     0.198 A 
ATOM     87  F   UNL A   1      46.496  29.100  33.367  1.00  0.00    -0.203 F 
ATOM     88  F   UNL A   1      46.073  24.982  36.923  1.00  0.00    -0.200 F 
ATOM     89  C   UNL A   1      47.366  26.686  35.921  1.00  0.00     0.200 A 
ATOM     90  F   UNL A   1      48.610  28.423  34.913  1.00  0.00    -0.200 F 
ATOM     91  F   UNL A   1      48.404  26.384  36.714  1.00  0.00    -0.200 F 
ENDBRANCH  58  81
ENDBRANCH  32  33
ENDBRANCH  25  27
ENDBRANCH  24  25
ENDBRANCH  23  24
ENDBRANCH   1  23
TORSDOF 14
ENDMDL
