MODEL 1
REMARK VINA RESULT:     -12.1      0.000      0.000
REMARK SMILES O=C(OCCOC(=O)[C@@H]1CC[C@@H](CNC(=O)c2cc(Cl)ccc2Cl)O1)c1ccc(-c2c3nc(c(-c4c(F)c(F)c(F)c(F)c4F)c4ccc([nH]4)c(-c4c(F)c(F)c(F)c(F)c4F)c4nc(c(-c5c(F)c(F)c(F)c(F)c5F)c5ccc2[nH]5)C=C4)C=C3)cc1
REMARK SMILES IDX 5 1 4 2 3 3 2 4 1 5 26 6 27 7 88 8 28 9 87 10 29 11 30 12
REMARK SMILES IDX 31 13 81 14 32 15 86 16 80 17 82 18 33 19 85 20 79 21 78 22
REMARK SMILES IDX 34 24 66 25 46 26 65 27 47 28 50 29 64 30 83 31 48 32 49 33
REMARK SMILES IDX 63 35 84 36 51 37 35 38 36 39 44 40 37 41 38 42 42 43 45 44
REMARK SMILES IDX 39 45 40 46 43 47 41 48 67 49 68 50 76 51 69 52 70 53 74 54
REMARK SMILES IDX 77 55 71 56 72 57 75 58 73 59 52 60 53 61 61 62 54 63 55 64
REMARK SMILES IDX 59 65 62 66 56 67 57 68 60 69 58 70 6 71 7 72 8 73 9 74
REMARK SMILES IDX 10 75 25 76 11 77 12 78 13 79 14 80 15 81 16 83 17 84 18 85
REMARK SMILES IDX 23 86 19 87 22 88 24 89 20 90 21 91
REMARK H PARENT 82 23 50 34 14 82
REMARK Flexibility Score: inf
ROOT
ATOM      1  C   UNL A   1      33.991  35.260  28.777  1.00  0.00     0.274 C 
ENDROOT
BRANCH   1   2
ATOM      2  C   UNL A   1      32.861  36.227  29.128  1.00  0.00     0.275 C 
BRANCH   2   3
ATOM      3  O   UNL A   1      32.917  36.763  30.454  1.00  0.00    -0.458 OA
BRANCH   3   4
ATOM      4  C   UNL A   1      32.747  36.124  31.634  1.00  0.00     0.338 C 
ATOM      5  O   UNL A   1      31.778  36.425  32.329  1.00  0.00    -0.246 OA
BRANCH   4   6
ATOM      6  C   UNL A   1      33.740  35.158  32.203  1.00  0.00     0.060 A 
ATOM      7  C   UNL A   1      33.466  33.939  32.838  1.00  0.00     0.016 A 
ATOM      8  C   UNL A   1      35.081  35.549  32.104  1.00  0.00     0.016 A 
ATOM      9  C   UNL A   1      34.499  33.084  33.262  1.00  0.00     0.010 A 
ATOM     10  C   UNL A   1      36.104  34.714  32.553  1.00  0.00     0.010 A 
ATOM     11  C   UNL A   1      35.830  33.455  33.100  1.00  0.00    -0.014 A 
BRANCH  11  12
ATOM     12  C   UNL A   1      36.971  32.596  33.508  1.00  0.00     0.031 A 
ATOM     13  C   UNL A   1      37.692  32.917  34.785  1.00  0.00     0.074 A 
ATOM     14  C   UNL A   1      37.438  31.638  32.681  1.00  0.00     0.049 A 
ATOM     15  N   UNL A   1      38.810  32.427  35.258  1.00  0.00    -0.248 NA
ATOM     16  C   UNL A   1      37.073  33.942  35.638  1.00  0.00     0.031 C 
ATOM     17  C   UNL A   1      36.808  31.209  31.433  1.00  0.00     0.029 A 
ATOM     18  N   UNL A   1      38.581  30.882  32.745  1.00  0.00    -0.354 N 
ATOM     19  C   UNL A   1      39.044  33.109  36.445  1.00  0.00     0.074 A 
ATOM     20  C   UNL A   1      37.962  34.056  36.611  1.00  0.00     0.031 C 
ATOM     21  C   UNL A   1      37.601  30.316  30.817  1.00  0.00     0.029 A 
ATOM     22  C   UNL A   1      38.790  30.101  31.632  1.00  0.00     0.049 A 
ATOM     23  H   UNL A   1      39.196  30.897  33.515  1.00  0.00     0.167 HD
ATOM     24  C   UNL A   1      40.084  32.973  37.303  1.00  0.00     0.037 A 
ATOM     25  C   UNL A   1      39.826  29.304  31.310  1.00  0.00     0.037 A 
ATOM     26  C   UNL A   1      41.153  32.027  37.119  1.00  0.00     0.049 A 
ATOM     27  C   UNL A   1      40.951  29.142  32.297  1.00  0.00     0.074 A 
ATOM     28  C   UNL A   1      42.236  31.774  37.939  1.00  0.00     0.029 A 
ATOM     29  N   UNL A   1      41.274  31.183  36.023  1.00  0.00    -0.354 N 
ATOM     30  N   UNL A   1      41.119  29.728  33.457  1.00  0.00    -0.248 NA
ATOM     31  C   UNL A   1      42.007  28.181  31.949  1.00  0.00     0.031 C 
ATOM     32  C   UNL A   1      43.043  30.816  37.316  1.00  0.00     0.029 A 
ATOM     33  C   UNL A   1      42.430  30.430  36.134  1.00  0.00     0.049 A 
ATOM     34  H   UNL A   1      40.633  31.129  35.278  1.00  0.00     0.167 HD
ATOM     35  C   UNL A   1      42.270  29.174  33.999  1.00  0.00     0.074 A 
ATOM     36  C   UNL A   1      42.758  28.203  33.041  1.00  0.00     0.031 C 
ATOM     37  C   UNL A   1      42.866  29.438  35.186  1.00  0.00     0.037 A 
BRANCH  24  38
ATOM     38  C   UNL A   1      40.149  33.927  38.464  1.00  0.00     0.064 A 
ATOM     39  C   UNL A   1      40.854  35.138  38.403  1.00  0.00     0.173 A 
ATOM     40  C   UNL A   1      39.513  33.603  39.672  1.00  0.00     0.173 A 
ATOM     41  F   UNL A   1      41.489  35.493  37.276  1.00  0.00    -0.203 F 
ATOM     42  C   UNL A   1      40.968  35.958  39.524  1.00  0.00     0.198 A 
ATOM     43  C   UNL A   1      39.601  34.440  40.780  1.00  0.00     0.198 A 
ATOM     44  F   UNL A   1      38.816  32.462  39.785  1.00  0.00    -0.203 F 
ATOM     45  F   UNL A   1      41.711  37.072  39.464  1.00  0.00    -0.200 F 
ATOM     46  C   UNL A   1      40.341  35.609  40.711  1.00  0.00     0.200 A 
ATOM     47  F   UNL A   1      38.983  34.104  41.921  1.00  0.00    -0.200 F 
ATOM     48  F   UNL A   1      40.460  36.394  41.791  1.00  0.00    -0.200 F 
ENDBRANCH  24  38
BRANCH  25  49
ATOM     49  C   UNL A   1      39.838  28.557  30.024  1.00  0.00     0.064 A 
ATOM     50  C   UNL A   1      39.299  27.265  29.940  1.00  0.00     0.173 A 
ATOM     51  C   UNL A   1      40.419  29.098  28.869  1.00  0.00     0.173 A 
ATOM     52  F   UNL A   1      38.745  26.701  31.023  1.00  0.00    -0.203 F 
ATOM     53  C   UNL A   1      39.369  26.529  28.759  1.00  0.00     0.198 A 
ATOM     54  C   UNL A   1      40.472  28.367  27.682  1.00  0.00     0.198 A 
ATOM     55  F   UNL A   1      40.934  30.335  28.892  1.00  0.00    -0.203 F 
ATOM     56  F   UNL A   1      38.886  25.279  28.721  1.00  0.00    -0.200 F 
ATOM     57  C   UNL A   1      39.956  27.080  27.630  1.00  0.00     0.200 A 
ATOM     58  F   UNL A   1      41.029  28.908  26.589  1.00  0.00    -0.200 F 
ATOM     59  F   UNL A   1      40.030  26.370  26.497  1.00  0.00    -0.200 F 
ENDBRANCH  25  49
BRANCH  37  60
ATOM     60  C   UNL A   1      44.061  28.611  35.555  1.00  0.00     0.064 A 
ATOM     61  C   UNL A   1      45.361  28.977  35.179  1.00  0.00     0.173 A 
ATOM     62  C   UNL A   1      43.899  27.460  36.341  1.00  0.00     0.173 A 
ATOM     63  F   UNL A   1      45.562  30.061  34.414  1.00  0.00    -0.203 F 
ATOM     64  C   UNL A   1      46.456  28.209  35.563  1.00  0.00     0.198 A 
ATOM     65  C   UNL A   1      44.999  26.710  36.744  1.00  0.00     0.198 A 
ATOM     66  F   UNL A   1      42.674  27.071  36.726  1.00  0.00    -0.203 F 
ATOM     67  F   UNL A   1      47.687  28.554  35.161  1.00  0.00    -0.200 F 
ATOM     68  C   UNL A   1      46.275  27.082  36.352  1.00  0.00     0.200 A 
ATOM     69  F   UNL A   1      44.823  25.627  37.515  1.00  0.00    -0.200 F 
ATOM     70  F   UNL A   1      47.333  26.350  36.728  1.00  0.00    -0.200 F 
ENDBRANCH  37  60
ENDBRANCH  11  12
ENDBRANCH   4   6
ENDBRANCH   3   4
ENDBRANCH   2   3
ENDBRANCH   1   2
BRANCH   1  71
ATOM     71  O   UNL A   1      33.580  33.882  28.690  1.00  0.00    -0.460 OA
BRANCH  71  72
ATOM     72  C   UNL A   1      34.498  33.036  28.134  1.00  0.00     0.335 C 
ATOM     73  O   UNL A   1      35.553  33.398  27.627  1.00  0.00    -0.249 OA
BRANCH  72  74
ATOM     74  C   UNL A   1      34.001  31.578  28.077  1.00  0.00     0.228 C 
ATOM     75  C   UNL A   1      35.146  30.648  27.677  1.00  0.00     0.047 C 
ATOM     76  O   UNL A   1      32.880  31.244  27.239  1.00  0.00    -0.361 OA
ATOM     77  C   UNL A   1      34.416  29.478  27.073  1.00  0.00     0.037 C 
ATOM     78  C   UNL A   1      33.285  30.186  26.349  1.00  0.00     0.138 C 
BRANCH  78  79
ATOM     79  C   UNL A   1      32.169  29.222  25.903  1.00  0.00     0.148 C 
BRANCH  79  80
ATOM     80  N   UNL A   1      31.514  29.578  24.657  1.00  0.00    -0.349 N 
ATOM     81  C   UNL A   1      31.212  28.860  23.525  1.00  0.00     0.252 C 
ATOM     82  H   UNL A   1      31.232  30.520  24.614  1.00  0.00     0.163 HD
ATOM     83  O   UNL A   1      30.443  29.361  22.709  1.00  0.00    -0.269 OA
BRANCH  81  84
ATOM     84  C   UNL A   1      31.799  27.524  23.235  1.00  0.00     0.059 A 
ATOM     85  C   UNL A   1      31.028  26.358  23.349  1.00  0.00     0.036 A 
ATOM     86  C   UNL A   1      33.121  27.419  22.761  1.00  0.00     0.053 A 
ATOM     87  C   UNL A   1      31.585  25.113  23.042  1.00  0.00     0.041 A 
ATOM     88  C   UNL A   1      33.647  26.172  22.405  1.00  0.00     0.023 A 
ATOM     89  Cl  UNL A   1      34.212  28.759  22.652  1.00  0.00    -0.083 Cl
ATOM     90  Cl  UNL A   1      30.653  23.684  23.260  1.00  0.00    -0.084 Cl
ATOM     91  C   UNL A   1      32.886  25.015  22.560  1.00  0.00     0.022 A 
ENDBRANCH  81  84
ENDBRANCH  79  80
ENDBRANCH  78  79
ENDBRANCH  72  74
ENDBRANCH  71  72
ENDBRANCH   1  71
TORSDOF 14
ENDMDL
MODEL 2
REMARK VINA RESULT:     -12.0      7.600     12.839
REMARK SMILES O=C(OCCOC(=O)[C@@H]1CC[C@@H](CNC(=O)c2cc(Cl)ccc2Cl)O1)c1ccc(-c2c3nc(c(-c4c(F)c(F)c(F)c(F)c4F)c4ccc([nH]4)c(-c4c(F)c(F)c(F)c(F)c4F)c4nc(c(-c5c(F)c(F)c(F)c(F)c5F)c5ccc2[nH]5)C=C4)C=C3)cc1
REMARK SMILES IDX 5 1 4 2 3 3 2 4 1 5 26 6 27 7 88 8 28 9 87 10 29 11 30 12
REMARK SMILES IDX 31 13 81 14 32 15 86 16 80 17 82 18 33 19 85 20 79 21 78 22
REMARK SMILES IDX 34 24 66 25 46 26 65 27 47 28 50 29 64 30 83 31 48 32 49 33
REMARK SMILES IDX 63 35 84 36 51 37 35 38 36 39 44 40 37 41 38 42 42 43 45 44
REMARK SMILES IDX 39 45 40 46 43 47 41 48 67 49 68 50 76 51 69 52 70 53 74 54
REMARK SMILES IDX 77 55 71 56 72 57 75 58 73 59 52 60 53 61 61 62 54 63 55 64
REMARK SMILES IDX 59 65 62 66 56 67 57 68 60 69 58 70 6 71 7 72 8 73 9 74
REMARK SMILES IDX 10 75 25 76 11 77 12 78 13 79 14 80 15 81 16 83 17 84 18 85
REMARK SMILES IDX 23 86 19 87 22 88 24 89 20 90 21 91
REMARK H PARENT 82 23 50 34 14 82
REMARK Flexibility Score: inf
ROOT
ATOM      1  C   UNL A   1      42.052  19.554  27.301  1.00  0.00     0.274 C 
ENDROOT
BRANCH   1   2
ATOM      2  C   UNL A   1      42.153  18.984  25.886  1.00  0.00     0.275 C 
BRANCH   2   3
ATOM      3  O   UNL A   1      43.467  18.566  25.499  1.00  0.00    -0.458 OA
BRANCH   3   4
ATOM      4  C   UNL A   1      44.402  19.249  24.802  1.00  0.00     0.338 C 
ATOM      5  O   UNL A   1      45.220  18.613  24.140  1.00  0.00    -0.246 OA
BRANCH   4   6
ATOM      6  C   UNL A   1      44.579  20.734  24.888  1.00  0.00     0.060 A 
ATOM      7  C   UNL A   1      44.419  21.667  23.854  1.00  0.00     0.016 A 
ATOM      8  C   UNL A   1      44.974  21.218  26.141  1.00  0.00     0.016 A 
ATOM      9  C   UNL A   1      44.541  23.048  24.085  1.00  0.00     0.010 A 
ATOM     10  C   UNL A   1      45.125  22.588  26.362  1.00  0.00     0.010 A 
ATOM     11  C   UNL A   1      44.871  23.521  25.352  1.00  0.00    -0.014 A 
BRANCH  11  12
ATOM     12  C   UNL A   1      45.000  24.966  25.673  1.00  0.00     0.031 A 
ATOM     13  C   UNL A   1      46.358  25.601  25.602  1.00  0.00     0.074 A 
ATOM     14  C   UNL A   1      43.946  25.657  26.154  1.00  0.00     0.049 A 
ATOM     15  N   UNL A   1      46.748  26.786  25.998  1.00  0.00    -0.248 NA
ATOM     16  C   UNL A   1      47.427  24.778  25.016  1.00  0.00     0.031 C 
ATOM     17  C   UNL A   1      42.571  25.166  26.239  1.00  0.00     0.029 A 
ATOM     18  N   UNL A   1      43.878  26.912  26.708  1.00  0.00    -0.354 N 
ATOM     19  C   UNL A   1      48.112  26.836  25.741  1.00  0.00     0.074 A 
ATOM     20  C   UNL A   1      48.483  25.559  25.170  1.00  0.00     0.031 C 
ATOM     21  C   UNL A   1      41.810  26.078  26.867  1.00  0.00     0.029 A 
ATOM     22  C   UNL A   1      42.640  27.223  27.220  1.00  0.00     0.049 A 
ATOM     23  H   UNL A   1      44.644  27.531  26.737  1.00  0.00     0.167 HD
ATOM     24  C   UNL A   1      48.978  27.849  25.986  1.00  0.00     0.037 A 
ATOM     25  C   UNL A   1      42.226  28.311  27.897  1.00  0.00     0.037 A 
ATOM     26  C   UNL A   1      48.588  29.112  26.558  1.00  0.00     0.049 A 
ATOM     27  C   UNL A   1      43.198  29.437  28.123  1.00  0.00     0.074 A 
ATOM     28  C   UNL A   1      49.370  30.223  26.815  1.00  0.00     0.029 A 
ATOM     29  N   UNL A   1      47.301  29.423  26.973  1.00  0.00    -0.354 N 
ATOM     30  N   UNL A   1      44.466  29.508  27.799  1.00  0.00    -0.248 NA
ATOM     31  C   UNL A   1      42.674  30.646  28.773  1.00  0.00     0.031 C 
ATOM     32  C   UNL A   1      48.568  31.187  27.436  1.00  0.00     0.029 A 
ATOM     33  C   UNL A   1      47.273  30.698  27.510  1.00  0.00     0.049 A 
ATOM     34  H   UNL A   1      46.523  28.824  26.896  1.00  0.00     0.167 HD
ATOM     35  C   UNL A   1      44.878  30.783  28.158  1.00  0.00     0.074 A 
ATOM     36  C   UNL A   1      43.725  31.453  28.725  1.00  0.00     0.031 C 
ATOM     37  C   UNL A   1      46.100  31.354  28.025  1.00  0.00     0.037 A 
BRANCH  24  38
ATOM     38  C   UNL A   1      50.433  27.593  25.712  1.00  0.00     0.064 A 
ATOM     39  C   UNL A   1      51.003  27.772  24.443  1.00  0.00     0.173 A 
ATOM     40  C   UNL A   1      51.268  27.129  26.741  1.00  0.00     0.173 A 
ATOM     41  F   UNL A   1      50.250  28.204  23.420  1.00  0.00    -0.203 F 
ATOM     42  C   UNL A   1      52.335  27.441  24.201  1.00  0.00     0.198 A 
ATOM     43  C   UNL A   1      52.607  26.832  26.505  1.00  0.00     0.198 A 
ATOM     44  F   UNL A   1      50.780  26.949  27.978  1.00  0.00    -0.203 F 
ATOM     45  F   UNL A   1      52.836  27.548  22.963  1.00  0.00    -0.200 F 
ATOM     46  C   UNL A   1      53.136  26.972  25.233  1.00  0.00     0.200 A 
ATOM     47  F   UNL A   1      53.379  26.390  27.508  1.00  0.00    -0.200 F 
ATOM     48  F   UNL A   1      54.414  26.646  24.996  1.00  0.00    -0.200 F 
ENDBRANCH  24  38
BRANCH  25  49
ATOM     49  C   UNL A   1      40.821  28.420  28.372  1.00  0.00     0.064 A 
ATOM     50  C   UNL A   1      39.825  28.962  27.546  1.00  0.00     0.173 A 
ATOM     51  C   UNL A   1      40.452  28.025  29.665  1.00  0.00     0.173 A 
ATOM     52  F   UNL A   1      40.135  29.366  26.305  1.00  0.00    -0.203 F 
ATOM     53  C   UNL A   1      38.522  29.135  28.005  1.00  0.00     0.198 A 
ATOM     54  C   UNL A   1      39.143  28.182  30.118  1.00  0.00     0.198 A 
ATOM     55  F   UNL A   1      41.363  27.487  30.488  1.00  0.00    -0.203 F 
ATOM     56  F   UNL A   1      37.602  29.697  27.209  1.00  0.00    -0.200 F 
ATOM     57  C   UNL A   1      38.180  28.745  29.291  1.00  0.00     0.200 A 
ATOM     58  F   UNL A   1      38.813  27.793  31.357  1.00  0.00    -0.200 F 
ATOM     59  F   UNL A   1      36.929  28.919  29.737  1.00  0.00    -0.200 F 
ENDBRANCH  25  49
BRANCH  37  60
ATOM     60  C   UNL A   1      46.233  32.794  28.420  1.00  0.00     0.064 A 
ATOM     61  C   UNL A   1      46.567  33.176  29.727  1.00  0.00     0.173 A 
ATOM     62  C   UNL A   1      46.073  33.801  27.457  1.00  0.00     0.173 A 
ATOM     63  F   UNL A   1      46.713  32.249  30.685  1.00  0.00    -0.203 F 
ATOM     64  C   UNL A   1      46.717  34.519  30.059  1.00  0.00     0.198 A 
ATOM     65  C   UNL A   1      46.250  35.141  27.787  1.00  0.00     0.198 A 
ATOM     66  F   UNL A   1      45.756  33.483  26.192  1.00  0.00    -0.203 F 
ATOM     67  F   UNL A   1      46.997  34.867  31.323  1.00  0.00    -0.200 F 
ATOM     68  C   UNL A   1      46.567  35.499  29.088  1.00  0.00     0.200 A 
ATOM     69  F   UNL A   1      46.115  36.084  26.845  1.00  0.00    -0.200 F 
ATOM     70  F   UNL A   1      46.722  36.790  29.409  1.00  0.00    -0.200 F 
ENDBRANCH  37  60
ENDBRANCH  11  12
ENDBRANCH   4   6
ENDBRANCH   3   4
ENDBRANCH   2   3
ENDBRANCH   1   2
BRANCH   1  71
ATOM     71  O   UNL A   1      40.824  20.260  27.565  1.00  0.00    -0.460 OA
BRANCH  71  72
ATOM     72  C   UNL A   1      40.916  21.623  27.525  1.00  0.00     0.335 C 
ATOM     73  O   UNL A   1      41.494  22.301  28.366  1.00  0.00    -0.249 OA
BRANCH  72  74
ATOM     74  C   UNL A   1      40.088  22.238  26.379  1.00  0.00     0.228 C 
ATOM     75  C   UNL A   1      39.221  23.378  26.913  1.00  0.00     0.047 C 
ATOM     76  O   UNL A   1      39.229  21.393  25.593  1.00  0.00    -0.361 OA
ATOM     77  C   UNL A   1      38.095  23.422  25.914  1.00  0.00     0.037 C 
ATOM     78  C   UNL A   1      37.899  21.942  25.636  1.00  0.00     0.138 C 
BRANCH  78  79
ATOM     79  C   UNL A   1      37.026  21.682  24.394  1.00  0.00     0.148 C 
BRANCH  79  80
ATOM     80  N   UNL A   1      35.727  21.094  24.670  1.00  0.00    -0.349 N 
ATOM     81  C   UNL A   1      34.459  21.622  24.732  1.00  0.00     0.252 C 
ATOM     82  H   UNL A   1      35.762  20.127  24.848  1.00  0.00     0.163 HD
ATOM     83  O   UNL A   1      33.510  20.845  24.759  1.00  0.00    -0.269 OA
BRANCH  81  84
ATOM     84  C   UNL A   1      34.196  23.084  24.800  1.00  0.00     0.059 A 
ATOM     85  C   UNL A   1      34.032  23.843  23.632  1.00  0.00     0.036 A 
ATOM     86  C   UNL A   1      34.026  23.716  26.047  1.00  0.00     0.053 A 
ATOM     87  C   UNL A   1      33.754  25.210  23.713  1.00  0.00     0.041 A 
ATOM     88  C   UNL A   1      33.692  25.073  26.112  1.00  0.00     0.023 A 
ATOM     89  Cl  UNL A   1      34.281  22.927  27.567  1.00  0.00    -0.083 Cl
ATOM     90  Cl  UNL A   1      33.631  26.143  22.273  1.00  0.00    -0.084 Cl
ATOM     91  C   UNL A   1      33.571  25.826  24.946  1.00  0.00     0.022 A 
ENDBRANCH  81  84
ENDBRANCH  79  80
ENDBRANCH  78  79
ENDBRANCH  72  74
ENDBRANCH  71  72
ENDBRANCH   1  71
TORSDOF 14
ENDMDL
MODEL 3
REMARK VINA RESULT:     -12.0      5.298      7.981
REMARK SMILES O=C(OCCOC(=O)[C@@H]1CC[C@@H](CNC(=O)c2cc(Cl)ccc2Cl)O1)c1ccc(-c2c3nc(c(-c4c(F)c(F)c(F)c(F)c4F)c4ccc([nH]4)c(-c4c(F)c(F)c(F)c(F)c4F)c4nc(c(-c5c(F)c(F)c(F)c(F)c5F)c5ccc2[nH]5)C=C4)C=C3)cc1
REMARK SMILES IDX 5 1 4 2 3 3 2 4 1 5 26 6 27 7 88 8 28 9 87 10 29 11 30 12
REMARK SMILES IDX 31 13 81 14 32 15 86 16 80 17 82 18 33 19 85 20 79 21 78 22
REMARK SMILES IDX 34 24 66 25 46 26 65 27 47 28 50 29 64 30 83 31 48 32 49 33
REMARK SMILES IDX 63 35 84 36 51 37 35 38 36 39 44 40 37 41 38 42 42 43 45 44
REMARK SMILES IDX 39 45 40 46 43 47 41 48 67 49 68 50 76 51 69 52 70 53 74 54
REMARK SMILES IDX 77 55 71 56 72 57 75 58 73 59 52 60 53 61 61 62 54 63 55 64
REMARK SMILES IDX 59 65 62 66 56 67 57 68 60 69 58 70 6 71 7 72 8 73 9 74
REMARK SMILES IDX 10 75 25 76 11 77 12 78 13 79 14 80 15 81 16 83 17 84 18 85
REMARK SMILES IDX 23 86 19 87 22 88 24 89 20 90 21 91
REMARK H PARENT 82 23 50 34 14 82
REMARK Flexibility Score: inf
ROOT
ATOM      1  C   UNL A   1      34.728  34.290  30.054  1.00  0.00     0.274 C 
ENDROOT
BRANCH   1   2
ATOM      2  C   UNL A   1      34.594  34.201  31.574  1.00  0.00     0.275 C 
BRANCH   2   3
ATOM      3  O   UNL A   1      34.721  32.881  32.113  1.00  0.00    -0.458 OA
BRANCH   3   4
ATOM      4  C   UNL A   1      35.803  32.295  32.673  1.00  0.00     0.338 C 
ATOM      5  O   UNL A   1      35.926  32.340  33.896  1.00  0.00    -0.246 OA
BRANCH   4   6
ATOM      6  C   UNL A   1      36.928  31.703  31.881  1.00  0.00     0.060 A 
ATOM      7  C   UNL A   1      36.991  31.542  30.490  1.00  0.00     0.016 A 
ATOM      8  C   UNL A   1      38.013  31.241  32.636  1.00  0.00     0.016 A 
ATOM      9  C   UNL A   1      38.142  31.038  29.861  1.00  0.00     0.010 A 
ATOM     10  C   UNL A   1      39.144  30.712  32.012  1.00  0.00     0.010 A 
ATOM     11  C   UNL A   1      39.241  30.642  30.618  1.00  0.00    -0.014 A 
BRANCH  11  12
ATOM     12  C   UNL A   1      40.496  30.117  30.021  1.00  0.00     0.031 A 
ATOM     13  C   UNL A   1      41.606  31.081  29.716  1.00  0.00     0.074 A 
ATOM     14  C   UNL A   1      40.581  28.829  29.629  1.00  0.00     0.049 A 
ATOM     15  N   UNL A   1      42.713  30.893  29.044  1.00  0.00    -0.248 NA
ATOM     16  C   UNL A   1      41.435  32.448  30.230  1.00  0.00     0.031 C 
ATOM     17  C   UNL A   1      39.588  27.789  29.897  1.00  0.00     0.029 A 
ATOM     18  N   UNL A   1      41.533  28.185  28.879  1.00  0.00    -0.354 N 
ATOM     19  C   UNL A   1      43.351  32.126  29.025  1.00  0.00     0.074 A 
ATOM     20  C   UNL A   1      42.502  33.056  29.739  1.00  0.00     0.031 C 
ATOM     21  C   UNL A   1      39.948  26.657  29.268  1.00  0.00     0.029 A 
ATOM     22  C   UNL A   1      41.202  26.888  28.562  1.00  0.00     0.049 A 
ATOM     23  H   UNL A   1      42.374  28.611  28.593  1.00  0.00     0.167 HD
ATOM     24  C   UNL A   1      44.529  32.456  28.441  1.00  0.00     0.037 A 
ATOM     25  C   UNL A   1      41.841  25.990  27.788  1.00  0.00     0.037 A 
ATOM     26  C   UNL A   1      45.359  31.517  27.732  1.00  0.00     0.049 A 
ATOM     27  C   UNL A   1      43.165  26.369  27.181  1.00  0.00     0.074 A 
ATOM     28  C   UNL A   1      46.587  31.727  27.133  1.00  0.00     0.029 A 
ATOM     29  N   UNL A   1      45.032  30.184  27.518  1.00  0.00    -0.354 N 
ATOM     30  N   UNL A   1      43.802  27.513  27.241  1.00  0.00    -0.248 NA
ATOM     31  C   UNL A   1      43.876  25.324  26.432  1.00  0.00     0.031 C 
ATOM     32  C   UNL A   1      46.979  30.537  26.510  1.00  0.00     0.029 A 
ATOM     33  C   UNL A   1      46.022  29.569  26.772  1.00  0.00     0.049 A 
ATOM     34  H   UNL A   1      44.215  29.743  27.848  1.00  0.00     0.167 HD
ATOM     35  C   UNL A   1      45.006  27.312  26.584  1.00  0.00     0.074 A 
ATOM     36  C   UNL A   1      45.013  25.935  26.133  1.00  0.00     0.031 C 
ATOM     37  C   UNL A   1      46.021  28.185  26.377  1.00  0.00     0.037 A 
BRANCH  24  38
ATOM     38  C   UNL A   1      44.935  33.902  28.476  1.00  0.00     0.064 A 
ATOM     39  C   UNL A   1      45.721  34.438  29.508  1.00  0.00     0.173 A 
ATOM     40  C   UNL A   1      44.501  34.777  27.467  1.00  0.00     0.173 A 
ATOM     41  F   UNL A   1      46.156  33.650  30.503  1.00  0.00    -0.203 F 
ATOM     42  C   UNL A   1      46.007  35.801  29.558  1.00  0.00     0.198 A 
ATOM     43  C   UNL A   1      44.816  36.132  27.502  1.00  0.00     0.198 A 
ATOM     44  F   UNL A   1      43.756  34.318  26.451  1.00  0.00    -0.203 F 
ATOM     45  F   UNL A   1      46.694  36.301  30.594  1.00  0.00    -0.200 F 
ATOM     46  C   UNL A   1      45.555  36.646  28.555  1.00  0.00     0.200 A 
ATOM     47  F   UNL A   1      44.387  36.941  26.524  1.00  0.00    -0.200 F 
ATOM     48  F   UNL A   1      45.822  37.958  28.611  1.00  0.00    -0.200 F 
ENDBRANCH  24  38
BRANCH  25  49
ATOM     49  C   UNL A   1      41.275  24.632  27.576  1.00  0.00     0.064 A 
ATOM     50  C   UNL A   1      41.855  23.510  28.186  1.00  0.00     0.173 A 
ATOM     51  C   UNL A   1      40.174  24.421  26.734  1.00  0.00     0.173 A 
ATOM     52  F   UNL A   1      42.918  23.662  28.988  1.00  0.00    -0.203 F 
ATOM     53  C   UNL A   1      41.376  22.225  27.937  1.00  0.00     0.198 A 
ATOM     54  C   UNL A   1      39.685  23.136  26.501  1.00  0.00     0.198 A 
ATOM     55  F   UNL A   1      39.574  25.462  26.140  1.00  0.00    -0.203 F 
ATOM     56  F   UNL A   1      41.979  21.168  28.497  1.00  0.00    -0.200 F 
ATOM     57  C   UNL A   1      40.292  22.038  27.094  1.00  0.00     0.200 A 
ATOM     58  F   UNL A   1      38.628  22.960  25.695  1.00  0.00    -0.200 F 
ATOM     59  F   UNL A   1      39.836  20.802  26.848  1.00  0.00    -0.200 F 
ENDBRANCH  25  49
BRANCH  37  60
ATOM     60  C   UNL A   1      47.255  27.660  25.708  1.00  0.00     0.064 A 
ATOM     61  C   UNL A   1      47.402  27.663  24.314  1.00  0.00     0.173 A 
ATOM     62  C   UNL A   1      48.327  27.193  26.484  1.00  0.00     0.173 A 
ATOM     63  F   UNL A   1      46.397  28.084  23.531  1.00  0.00    -0.203 F 
ATOM     64  C   UNL A   1      48.572  27.199  23.720  1.00  0.00     0.198 A 
ATOM     65  C   UNL A   1      49.505  26.755  25.886  1.00  0.00     0.198 A 
ATOM     66  F   UNL A   1      48.234  27.173  27.822  1.00  0.00    -0.203 F 
ATOM     67  F   UNL A   1      48.676  27.173  22.383  1.00  0.00    -0.200 F 
ATOM     68  C   UNL A   1      49.624  26.754  24.506  1.00  0.00     0.200 A 
ATOM     69  F   UNL A   1      50.524  26.336  26.648  1.00  0.00    -0.200 F 
ATOM     70  F   UNL A   1      50.753  26.318  23.931  1.00  0.00    -0.200 F 
ENDBRANCH  37  60
ENDBRANCH  11  12
ENDBRANCH   4   6
ENDBRANCH   3   4
ENDBRANCH   2   3
ENDBRANCH   1   2
BRANCH   1  71
ATOM     71  O   UNL A   1      33.932  33.329  29.335  1.00  0.00    -0.460 OA
BRANCH  71  72
ATOM     72  C   UNL A   1      34.585  32.665  28.335  1.00  0.00     0.335 C 
ATOM     73  O   UNL A   1      35.440  33.168  27.615  1.00  0.00    -0.249 OA
BRANCH  72  74
ATOM     74  C   UNL A   1      34.029  31.246  28.106  1.00  0.00     0.228 C 
ATOM     75  C   UNL A   1      35.136  30.326  27.592  1.00  0.00     0.047 C 
ATOM     76  O   UNL A   1      32.896  31.061  27.239  1.00  0.00    -0.361 OA
ATOM     77  C   UNL A   1      34.358  29.267  26.855  1.00  0.00     0.037 C 
ATOM     78  C   UNL A   1      33.257  30.103  26.227  1.00  0.00     0.138 C 
BRANCH  78  79
ATOM     79  C   UNL A   1      32.103  29.245  25.673  1.00  0.00     0.148 C 
BRANCH  79  80
ATOM     80  N   UNL A   1      32.413  28.512  24.458  1.00  0.00    -0.349 N 
ATOM     81  C   UNL A   1      31.767  28.393  23.251  1.00  0.00     0.252 C 
ATOM     82  H   UNL A   1      33.251  27.998  24.510  1.00  0.00     0.163 HD
ATOM     83  O   UNL A   1      32.378  27.886  22.315  1.00  0.00    -0.269 OA
BRANCH  81  84
ATOM     84  C   UNL A   1      30.357  28.820  23.044  1.00  0.00     0.059 A 
ATOM     85  C   UNL A   1      30.058  30.040  22.419  1.00  0.00     0.036 A 
ATOM     86  C   UNL A   1      29.298  27.964  23.401  1.00  0.00     0.053 A 
ATOM     87  C   UNL A   1      28.728  30.413  22.204  1.00  0.00     0.041 A 
ATOM     88  C   UNL A   1      27.974  28.326  23.128  1.00  0.00     0.023 A 
ATOM     89  Cl  UNL A   1      29.513  26.472  24.253  1.00  0.00    -0.083 Cl
ATOM     90  Cl  UNL A   1      28.374  31.945  21.507  1.00  0.00    -0.084 Cl
ATOM     91  C   UNL A   1      27.685  29.557  22.544  1.00  0.00     0.022 A 
ENDBRANCH  81  84
ENDBRANCH  79  80
ENDBRANCH  78  79
ENDBRANCH  72  74
ENDBRANCH  71  72
ENDBRANCH   1  71
TORSDOF 14
ENDMDL
