MODEL 1
REMARK VINA RESULT:     -11.1      0.000      0.000
REMARK SMILES Cc1c([C@H](C)NC(=O)c2cnn(CC(=O)OCCOC(=O)c3ccc(-c4c5nc(c(-c6c(F)c(F)c(F)c(F)c6F)c6ccc([nH]6)c(-c6c(F)c(F)c(F)c(F)c6F)c6nc(c(-c7c(F)c(F)c(F)c(F)c7F)c7ccc4[nH]7)C=C6)C=C5)cc3)c2)cnn1C
REMARK SMILES IDX 17 1 16 2 14 3 15 4 13 5 12 6 9 7 10 8 85 9 11 10 7 11 6 12
REMARK SMILES IDX 8 14 4 15 5 16 3 17 1 18 2 19 88 20 86 21 87 22 89 23 18 24
REMARK SMILES IDX 19 25 20 26 21 27 22 28 23 29 84 30 24 31 83 32 25 33 26 34
REMARK SMILES IDX 27 35 77 36 28 37 82 38 76 39 78 40 29 41 81 42 75 43 74 44
REMARK SMILES IDX 30 46 62 47 42 48 61 49 43 50 46 51 60 52 79 53 44 54 45 55
REMARK SMILES IDX 59 57 80 58 47 59 31 60 32 61 40 62 33 63 34 64 38 65 41 66
REMARK SMILES IDX 35 67 36 68 39 69 37 70 63 71 64 72 72 73 65 74 66 75 70 76
REMARK SMILES IDX 73 77 67 78 68 79 71 80 69 81 48 82 49 83 57 84 50 85 51 86
REMARK SMILES IDX 55 87 58 88 52 89 53 90 56 91 54 92
REMARK H PARENT 6 13 78 45 46 56
REMARK Flexibility Score: inf
ROOT
ATOM      1  C   UNL A   1      42.299  19.389  26.383  1.00  0.00     0.274 C 
ENDROOT
BRANCH   1   2
ATOM      2  O   UNL A   1      42.803  19.469  25.033  1.00  0.00    -0.461 OA
BRANCH   2   3
ATOM      3  C   UNL A   1      44.095  19.075  24.848  1.00  0.00     0.327 C 
ATOM      4  O   UNL A   1      44.589  18.078  25.370  1.00  0.00    -0.250 OA
BRANCH   3   5
ATOM      5  C   UNL A   1      44.919  20.051  24.056  1.00  0.00     0.266 C 
BRANCH   5   6
ATOM      6  N   UNL A   1      45.028  21.365  24.655  1.00  0.00    -0.261 N 
ATOM      7  C   UNL A   1      44.785  23.504  25.136  1.00  0.00     0.077 A 
ATOM      8  C   UNL A   1      45.628  22.824  26.045  1.00  0.00     0.149 A 
ATOM      9  C   UNL A   1      44.379  22.504  24.270  1.00  0.00     0.123 A 
ATOM     10  N   UNL A   1      45.689  21.510  25.816  1.00  0.00    -0.180 NA
BRANCH   7  11
ATOM     11  C   UNL A   1      44.309  24.873  25.138  1.00  0.00     0.254 C 
ATOM     12  N   UNL A   1      45.164  25.906  25.412  1.00  0.00    -0.345 N 
ATOM     13  H   UNL A   1      44.742  26.723  25.762  1.00  0.00     0.164 HD
ATOM     14  O   UNL A   1      43.125  25.137  24.919  1.00  0.00    -0.269 OA
BRANCH  12  15
ATOM     15  C   UNL A   1      46.610  25.963  25.260  1.00  0.00     0.113 C 
ATOM     16  C   UNL A   1      46.964  27.277  24.552  1.00  0.00     0.036 C 
BRANCH  15  17
ATOM     17  C   UNL A   1      47.240  25.819  26.618  1.00  0.00     0.015 A 
ATOM     18  C   UNL A   1      49.812  25.579  26.124  1.00  0.00     0.067 C 
ATOM     19  C   UNL A   1      48.585  25.676  26.957  1.00  0.00     0.040 A 
ATOM     20  N   UNL A   1      48.632  25.677  28.330  1.00  0.00    -0.273 N 
ATOM     21  C   UNL A   1      46.586  25.853  27.877  1.00  0.00     0.141 A 
ATOM     22  N   UNL A   1      47.423  25.755  28.908  1.00  0.00    -0.181 NA
ATOM     23  C   UNL A   1      49.811  25.639  29.166  1.00  0.00     0.174 C 
ENDBRANCH  15  17
ENDBRANCH  12  15
ENDBRANCH   7  11
ENDBRANCH   5   6
ENDBRANCH   3   5
ENDBRANCH   2   3
ENDBRANCH   1   2
BRANCH   1  24
ATOM     24  C   UNL A   1      40.880  19.930  26.523  1.00  0.00     0.275 C 
BRANCH  24  25
ATOM     25  O   UNL A   1      40.838  21.091  27.350  1.00  0.00    -0.458 OA
BRANCH  25  26
ATOM     26  C   UNL A   1      40.002  22.043  26.878  1.00  0.00     0.338 C 
ATOM     27  O   UNL A   1      38.949  21.861  26.295  1.00  0.00    -0.246 OA
BRANCH  26  28
ATOM     28  C   UNL A   1      40.643  23.358  26.947  1.00  0.00     0.060 A 
ATOM     29  C   UNL A   1      41.744  23.500  27.797  1.00  0.00     0.016 A 
ATOM     30  C   UNL A   1      39.943  24.464  26.447  1.00  0.00     0.016 A 
ATOM     31  C   UNL A   1      42.044  24.757  28.283  1.00  0.00     0.010 A 
ATOM     32  C   UNL A   1      40.234  25.715  26.945  1.00  0.00     0.010 A 
ATOM     33  C   UNL A   1      41.229  25.833  27.916  1.00  0.00    -0.014 A 
BRANCH  33  34
ATOM     34  C   UNL A   1      41.445  27.109  28.571  1.00  0.00     0.031 A 
ATOM     35  C   UNL A   1      42.643  27.854  28.118  1.00  0.00     0.074 A 
ATOM     36  C   UNL A   1      40.535  27.637  29.412  1.00  0.00     0.049 A 
ATOM     37  N   UNL A   1      43.624  28.304  28.829  1.00  0.00    -0.248 NA
ATOM     38  C   UNL A   1      42.802  28.060  26.671  1.00  0.00     0.031 C 
ATOM     39  C   UNL A   1      39.179  27.161  29.696  1.00  0.00     0.029 A 
ATOM     40  N   UNL A   1      40.600  28.809  30.100  1.00  0.00    -0.354 N 
ATOM     41  C   UNL A   1      44.457  28.980  27.942  1.00  0.00     0.074 A 
ATOM     42  C   UNL A   1      43.973  28.694  26.618  1.00  0.00     0.031 C 
ATOM     43  C   UNL A   1      38.481  28.152  30.295  1.00  0.00     0.029 A 
ATOM     44  C   UNL A   1      39.371  29.277  30.534  1.00  0.00     0.049 A 
ATOM     45  H   UNL A   1      41.445  29.282  30.274  1.00  0.00     0.167 HD
ATOM     46  C   UNL A   1      45.364  29.898  28.371  1.00  0.00     0.037 A 
ATOM     47  C   UNL A   1      39.100  30.539  30.952  1.00  0.00     0.037 A 
ATOM     48  C   UNL A   1      45.686  29.724  29.761  1.00  0.00     0.049 A 
ATOM     49  C   UNL A   1      40.394  31.182  31.308  1.00  0.00     0.074 A 
ATOM     50  C   UNL A   1      46.198  28.674  30.503  1.00  0.00     0.029 A 
ATOM     51  N   UNL A   1      45.161  30.596  30.682  1.00  0.00    -0.354 N 
ATOM     52  N   UNL A   1      41.126  30.841  32.333  1.00  0.00    -0.248 NA
ATOM     53  C   UNL A   1      41.093  31.911  30.258  1.00  0.00     0.031 C 
ATOM     54  C   UNL A   1      45.494  28.722  31.741  1.00  0.00     0.029 A 
ATOM     55  C   UNL A   1      44.642  29.825  31.692  1.00  0.00     0.049 A 
ATOM     56  H   UNL A   1      45.157  31.579  30.629  1.00  0.00     0.167 HD
ATOM     57  C   UNL A   1      42.433  30.928  31.877  1.00  0.00     0.074 A 
ATOM     58  C   UNL A   1      42.355  31.675  30.625  1.00  0.00     0.031 C 
ATOM     59  C   UNL A   1      43.425  30.146  32.397  1.00  0.00     0.037 A 
BRANCH  46  60
ATOM     60  C   UNL A   1      45.705  31.145  27.602  1.00  0.00     0.064 A 
ATOM     61  C   UNL A   1      47.048  31.424  27.289  1.00  0.00     0.173 A 
ATOM     62  C   UNL A   1      44.798  32.213  27.418  1.00  0.00     0.173 A 
ATOM     63  F   UNL A   1      47.996  30.491  27.460  1.00  0.00    -0.203 F 
ATOM     64  C   UNL A   1      47.458  32.695  26.881  1.00  0.00     0.198 A 
ATOM     65  C   UNL A   1      45.202  33.462  26.955  1.00  0.00     0.198 A 
ATOM     66  F   UNL A   1      43.513  32.125  27.785  1.00  0.00    -0.203 F 
ATOM     67  F   UNL A   1      48.763  32.949  26.713  1.00  0.00    -0.200 F 
ATOM     68  C   UNL A   1      46.537  33.714  26.717  1.00  0.00     0.200 A 
ATOM     69  F   UNL A   1      44.295  34.441  26.824  1.00  0.00    -0.200 F 
ATOM     70  F   UNL A   1      46.935  34.947  26.381  1.00  0.00    -0.200 F 
ENDBRANCH  46  60
BRANCH  47  71
ATOM     71  C   UNL A   1      37.851  31.310  30.738  1.00  0.00     0.064 A 
ATOM     72  C   UNL A   1      37.378  31.582  29.444  1.00  0.00     0.173 A 
ATOM     73  C   UNL A   1      36.961  31.584  31.795  1.00  0.00     0.173 A 
ATOM     74  F   UNL A   1      38.137  31.299  28.374  1.00  0.00    -0.203 F 
ATOM     75  C   UNL A   1      36.091  32.086  29.223  1.00  0.00     0.198 A 
ATOM     76  C   UNL A   1      35.684  32.101  31.576  1.00  0.00     0.198 A 
ATOM     77  F   UNL A   1      37.270  31.268  33.061  1.00  0.00    -0.203 F 
ATOM     78  F   UNL A   1      35.653  32.278  27.971  1.00  0.00    -0.200 F 
ATOM     79  C   UNL A   1      35.244  32.342  30.290  1.00  0.00     0.200 A 
ATOM     80  F   UNL A   1      34.863  32.308  32.616  1.00  0.00    -0.200 F 
ATOM     81  F   UNL A   1      33.994  32.777  30.076  1.00  0.00    -0.200 F 
ENDBRANCH  47  71
BRANCH  59  82
ATOM     82  C   UNL A   1      43.132  29.349  33.636  1.00  0.00     0.064 A 
ATOM     83  C   UNL A   1      42.506  28.090  33.624  1.00  0.00     0.173 A 
ATOM     84  C   UNL A   1      43.658  29.792  34.857  1.00  0.00     0.173 A 
ATOM     85  F   UNL A   1      42.077  27.542  32.481  1.00  0.00    -0.203 F 
ATOM     86  C   UNL A   1      42.372  27.336  34.788  1.00  0.00     0.198 A 
ATOM     87  C   UNL A   1      43.557  29.020  36.012  1.00  0.00     0.198 A 
ATOM     88  F   UNL A   1      44.322  30.957  34.921  1.00  0.00    -0.203 F 
ATOM     89  F   UNL A   1      41.764  26.141  34.750  1.00  0.00    -0.200 F 
ATOM     90  C   UNL A   1      42.905  27.799  35.979  1.00  0.00     0.200 A 
ATOM     91  F   UNL A   1      44.123  29.445  37.150  1.00  0.00    -0.200 F 
ATOM     92  F   UNL A   1      42.822  27.050  37.088  1.00  0.00    -0.200 F 
ENDBRANCH  59  82
ENDBRANCH  33  34
ENDBRANCH  26  28
ENDBRANCH  25  26
ENDBRANCH  24  25
ENDBRANCH   1  24
TORSDOF 15
ENDMDL
MODEL 2
REMARK VINA RESULT:     -11.0      5.369     10.849
REMARK SMILES Cc1c([C@H](C)NC(=O)c2cnn(CC(=O)OCCOC(=O)c3ccc(-c4c5nc(c(-c6c(F)c(F)c(F)c(F)c6F)c6ccc([nH]6)c(-c6c(F)c(F)c(F)c(F)c6F)c6nc(c(-c7c(F)c(F)c(F)c(F)c7F)c7ccc4[nH]7)C=C6)C=C5)cc3)c2)cnn1C
REMARK SMILES IDX 17 1 16 2 14 3 15 4 13 5 12 6 9 7 10 8 85 9 11 10 7 11 6 12
REMARK SMILES IDX 8 14 4 15 5 16 3 17 1 18 2 19 88 20 86 21 87 22 89 23 18 24
REMARK SMILES IDX 19 25 20 26 21 27 22 28 23 29 84 30 24 31 83 32 25 33 26 34
REMARK SMILES IDX 27 35 77 36 28 37 82 38 76 39 78 40 29 41 81 42 75 43 74 44
REMARK SMILES IDX 30 46 62 47 42 48 61 49 43 50 46 51 60 52 79 53 44 54 45 55
REMARK SMILES IDX 59 57 80 58 47 59 31 60 32 61 40 62 33 63 34 64 38 65 41 66
REMARK SMILES IDX 35 67 36 68 39 69 37 70 63 71 64 72 72 73 65 74 66 75 70 76
REMARK SMILES IDX 73 77 67 78 68 79 71 80 69 81 48 82 49 83 57 84 50 85 51 86
REMARK SMILES IDX 55 87 58 88 52 89 53 90 56 91 54 92
REMARK H PARENT 6 13 78 45 46 56
REMARK Flexibility Score: inf
ROOT
ATOM      1  C   UNL A   1      32.251  29.923  26.451  1.00  0.00     0.274 C 
ENDROOT
BRANCH   1   2
ATOM      2  O   UNL A   1      33.085  28.911  25.850  1.00  0.00    -0.461 OA
BRANCH   2   3
ATOM      3  C   UNL A   1      32.736  28.508  24.596  1.00  0.00     0.327 C 
ATOM      4  O   UNL A   1      31.870  29.056  23.916  1.00  0.00    -0.250 OA
BRANCH   3   5
ATOM      5  C   UNL A   1      33.404  27.235  24.160  1.00  0.00     0.266 C 
BRANCH   5   6
ATOM      6  N   UNL A   1      32.642  26.035  24.438  1.00  0.00    -0.261 N 
ATOM      7  C   UNL A   1      31.691  24.307  25.426  1.00  0.00     0.077 A 
ATOM      8  C   UNL A   1      31.319  24.443  24.069  1.00  0.00     0.149 A 
ATOM      9  C   UNL A   1      32.521  25.394  25.638  1.00  0.00     0.123 A 
ATOM     10  N   UNL A   1      31.809  25.548  23.502  1.00  0.00    -0.180 NA
BRANCH   7  11
ATOM     11  C   UNL A   1      31.239  23.371  26.437  1.00  0.00     0.254 C 
ATOM     12  N   UNL A   1      31.752  22.103  26.487  1.00  0.00    -0.345 N 
ATOM     13  H   UNL A   1      31.172  21.429  26.912  1.00  0.00     0.164 HD
ATOM     14  O   UNL A   1      30.372  23.684  27.254  1.00  0.00    -0.269 OA
BRANCH  12  15
ATOM     15  C   UNL A   1      33.031  21.611  26.000  1.00  0.00     0.113 C 
ATOM     16  C   UNL A   1      33.972  21.456  27.200  1.00  0.00     0.036 C 
BRANCH  15  17
ATOM     17  C   UNL A   1      32.795  20.329  25.247  1.00  0.00     0.015 A 
ATOM     18  C   UNL A   1      32.230  21.103  22.798  1.00  0.00     0.067 C 
ATOM     19  C   UNL A   1      32.478  20.140  23.903  1.00  0.00     0.040 A 
ATOM     20  N   UNL A   1      32.461  18.781  23.706  1.00  0.00    -0.273 N 
ATOM     21  C   UNL A   1      32.903  19.006  25.749  1.00  0.00     0.141 A 
ATOM     22  N   UNL A   1      32.689  18.074  24.823  1.00  0.00    -0.181 NA
ATOM     23  C   UNL A   1      32.264  18.080  22.456  1.00  0.00     0.174 C 
ENDBRANCH  15  17
ENDBRANCH  12  15
ENDBRANCH   7  11
ENDBRANCH   5   6
ENDBRANCH   3   5
ENDBRANCH   2   3
ENDBRANCH   1   2
BRANCH   1  24
ATOM     24  C   UNL A   1      33.047  30.989  27.195  1.00  0.00     0.275 C 
BRANCH  24  25
ATOM     25  O   UNL A   1      34.451  30.746  27.121  1.00  0.00    -0.458 OA
BRANCH  25  26
ATOM     26  C   UNL A   1      35.179  31.662  27.798  1.00  0.00     0.338 C 
ATOM     27  O   UNL A   1      35.172  32.867  27.625  1.00  0.00    -0.246 OA
BRANCH  26  28
ATOM     28  C   UNL A   1      36.177  30.995  28.636  1.00  0.00     0.060 A 
ATOM     29  C   UNL A   1      37.253  31.760  29.098  1.00  0.00     0.016 A 
ATOM     30  C   UNL A   1      36.201  29.594  28.652  1.00  0.00     0.016 A 
ATOM     31  C   UNL A   1      38.428  31.114  29.426  1.00  0.00     0.010 A 
ATOM     32  C   UNL A   1      37.379  28.954  28.964  1.00  0.00     0.010 A 
ATOM     33  C   UNL A   1      38.500  29.726  29.270  1.00  0.00    -0.014 A 
BRANCH  33  34
ATOM     34  C   UNL A   1      39.789  29.085  29.445  1.00  0.00     0.031 A 
ATOM     35  C   UNL A   1      40.211  28.894  30.853  1.00  0.00     0.074 A 
ATOM     36  C   UNL A   1      40.469  28.565  28.405  1.00  0.00     0.049 A 
ATOM     37  N   UNL A   1      41.302  29.288  31.424  1.00  0.00    -0.248 NA
ATOM     38  C   UNL A   1      39.257  28.239  31.761  1.00  0.00     0.031 C 
ATOM     39  C   UNL A   1      40.022  28.402  27.020  1.00  0.00     0.029 A 
ATOM     40  N   UNL A   1      41.680  27.945  28.412  1.00  0.00    -0.354 N 
ATOM     41  C   UNL A   1      41.243  28.807  32.728  1.00  0.00     0.074 A 
ATOM     42  C   UNL A   1      39.917  28.280  32.917  1.00  0.00     0.031 C 
ATOM     43  C   UNL A   1      40.839  27.525  26.394  1.00  0.00     0.029 A 
ATOM     44  C   UNL A   1      41.919  27.161  27.296  1.00  0.00     0.049 A 
ATOM     45  H   UNL A   1      42.330  28.047  29.145  1.00  0.00     0.167 HD
ATOM     46  C   UNL A   1      42.358  28.688  33.497  1.00  0.00     0.037 A 
ATOM     47  C   UNL A   1      42.874  26.204  27.183  1.00  0.00     0.037 A 
ATOM     48  C   UNL A   1      43.427  29.525  33.025  1.00  0.00     0.049 A 
ATOM     49  C   UNL A   1      43.891  26.457  28.239  1.00  0.00     0.074 A 
ATOM     50  C   UNL A   1      43.557  30.885  32.812  1.00  0.00     0.029 A 
ATOM     51  N   UNL A   1      44.476  28.950  32.351  1.00  0.00    -0.354 N 
ATOM     52  N   UNL A   1      44.705  27.478  28.247  1.00  0.00    -0.248 NA
ATOM     53  C   UNL A   1      43.697  25.806  29.529  1.00  0.00     0.031 C 
ATOM     54  C   UNL A   1      44.333  30.998  31.621  1.00  0.00     0.029 A 
ATOM     55  C   UNL A   1      44.667  29.704  31.220  1.00  0.00     0.049 A 
ATOM     56  H   UNL A   1      44.988  28.156  32.624  1.00  0.00     0.167 HD
ATOM     57  C   UNL A   1      44.785  27.855  29.579  1.00  0.00     0.074 A 
ATOM     58  C   UNL A   1      44.218  26.739  30.330  1.00  0.00     0.031 C 
ATOM     59  C   UNL A   1      45.036  29.147  29.942  1.00  0.00     0.037 A 
BRANCH  46  60
ATOM     60  C   UNL A   1      42.568  27.569  34.481  1.00  0.00     0.064 A 
ATOM     61  C   UNL A   1      43.131  26.356  34.044  1.00  0.00     0.173 A 
ATOM     62  C   UNL A   1      41.971  27.542  35.761  1.00  0.00     0.173 A 
ATOM     63  F   UNL A   1      43.692  26.263  32.829  1.00  0.00    -0.203 F 
ATOM     64  C   UNL A   1      43.048  25.190  34.808  1.00  0.00     0.198 A 
ATOM     65  C   UNL A   1      41.942  26.391  36.545  1.00  0.00     0.198 A 
ATOM     66  F   UNL A   1      41.297  28.589  36.254  1.00  0.00    -0.203 F 
ATOM     67  F   UNL A   1      43.488  24.031  34.301  1.00  0.00    -0.200 F 
ATOM     68  C   UNL A   1      42.452  25.207  36.056  1.00  0.00     0.200 A 
ATOM     69  F   UNL A   1      41.340  26.425  37.742  1.00  0.00    -0.200 F 
ATOM     70  F   UNL A   1      42.320  24.079  36.765  1.00  0.00    -0.200 F 
ENDBRANCH  46  60
BRANCH  47  71
ATOM     71  C   UNL A   1      42.778  24.917  26.452  1.00  0.00     0.064 A 
ATOM     72  C   UNL A   1      43.653  24.613  25.397  1.00  0.00     0.173 A 
ATOM     73  C   UNL A   1      41.990  23.851  26.932  1.00  0.00     0.173 A 
ATOM     74  F   UNL A   1      44.480  25.553  24.914  1.00  0.00    -0.203 F 
ATOM     75  C   UNL A   1      43.740  23.322  24.863  1.00  0.00     0.198 A 
ATOM     76  C   UNL A   1      42.066  22.568  26.389  1.00  0.00     0.198 A 
ATOM     77  F   UNL A   1      41.195  24.004  28.002  1.00  0.00    -0.203 F 
ATOM     78  F   UNL A   1      44.629  23.057  23.895  1.00  0.00    -0.200 F 
ATOM     79  C   UNL A   1      42.949  22.300  25.363  1.00  0.00     0.200 A 
ATOM     80  F   UNL A   1      41.321  21.582  26.910  1.00  0.00    -0.200 F 
ATOM     81  F   UNL A   1      43.068  21.053  24.887  1.00  0.00    -0.200 F 
ENDBRANCH  47  71
BRANCH  59  82
ATOM     82  C   UNL A   1      45.456  30.121  28.877  1.00  0.00     0.064 A 
ATOM     83  C   UNL A   1      44.553  30.810  28.049  1.00  0.00     0.173 A 
ATOM     84  C   UNL A   1      46.805  30.499  28.810  1.00  0.00     0.173 A 
ATOM     85  F   UNL A   1      43.235  30.591  28.130  1.00  0.00    -0.203 F 
ATOM     86  C   UNL A   1      44.987  31.795  27.165  1.00  0.00     0.198 A 
ATOM     87  C   UNL A   1      47.231  31.510  27.954  1.00  0.00     0.198 A 
ATOM     88  F   UNL A   1      47.706  29.922  29.621  1.00  0.00    -0.203 F 
ATOM     89  F   UNL A   1      44.104  32.432  26.381  1.00  0.00    -0.200 F 
ATOM     90  C   UNL A   1      46.325  32.150  27.124  1.00  0.00     0.200 A 
ATOM     91  F   UNL A   1      48.516  31.890  27.957  1.00  0.00    -0.200 F 
ATOM     92  F   UNL A   1      46.735  33.133  26.311  1.00  0.00    -0.200 F 
ENDBRANCH  59  82
ENDBRANCH  33  34
ENDBRANCH  26  28
ENDBRANCH  25  26
ENDBRANCH  24  25
ENDBRANCH   1  24
TORSDOF 15
ENDMDL
MODEL 3
REMARK VINA RESULT:     -10.9      1.164      2.160
REMARK SMILES Cc1c([C@H](C)NC(=O)c2cnn(CC(=O)OCCOC(=O)c3ccc(-c4c5nc(c(-c6c(F)c(F)c(F)c(F)c6F)c6ccc([nH]6)c(-c6c(F)c(F)c(F)c(F)c6F)c6nc(c(-c7c(F)c(F)c(F)c(F)c7F)c7ccc4[nH]7)C=C6)C=C5)cc3)c2)cnn1C
REMARK SMILES IDX 17 1 16 2 14 3 15 4 13 5 12 6 9 7 10 8 85 9 11 10 7 11 6 12
REMARK SMILES IDX 8 14 4 15 5 16 3 17 1 18 2 19 88 20 86 21 87 22 89 23 18 24
REMARK SMILES IDX 19 25 20 26 21 27 22 28 23 29 84 30 24 31 83 32 25 33 26 34
REMARK SMILES IDX 27 35 77 36 28 37 82 38 76 39 78 40 29 41 81 42 75 43 74 44
REMARK SMILES IDX 30 46 62 47 42 48 61 49 43 50 46 51 60 52 79 53 44 54 45 55
REMARK SMILES IDX 59 57 80 58 47 59 31 60 32 61 40 62 33 63 34 64 38 65 41 66
REMARK SMILES IDX 35 67 36 68 39 69 37 70 63 71 64 72 72 73 65 74 66 75 70 76
REMARK SMILES IDX 73 77 67 78 68 79 71 80 69 81 48 82 49 83 57 84 50 85 51 86
REMARK SMILES IDX 55 87 58 88 52 89 53 90 56 91 54 92
REMARK H PARENT 6 13 78 45 46 56
REMARK Flexibility Score: inf
ROOT
ATOM      1  C   UNL A   1      42.204  19.226  26.436  1.00  0.00     0.274 C 
ENDROOT
BRANCH   1   2
ATOM      2  O   UNL A   1      42.772  19.497  25.138  1.00  0.00    -0.461 OA
BRANCH   2   3
ATOM      3  C   UNL A   1      44.075  19.135  24.963  1.00  0.00     0.327 C 
ATOM      4  O   UNL A   1      44.573  18.115  25.435  1.00  0.00    -0.250 OA
BRANCH   3   5
ATOM      5  C   UNL A   1      44.902  20.171  24.255  1.00  0.00     0.266 C 
BRANCH   5   6
ATOM      6  N   UNL A   1      44.817  21.498  24.830  1.00  0.00    -0.261 N 
ATOM      7  C   UNL A   1      45.157  23.313  26.037  1.00  0.00     0.077 A 
ATOM      8  C   UNL A   1      44.157  23.482  25.053  1.00  0.00     0.149 A 
ATOM      9  C   UNL A   1      45.594  22.017  25.826  1.00  0.00     0.123 A 
ATOM     10  N   UNL A   1      44.026  22.420  24.255  1.00  0.00    -0.180 NA
BRANCH   7  11
ATOM     11  C   UNL A   1      45.732  24.263  26.968  1.00  0.00     0.254 C 
ATOM     12  N   UNL A   1      46.689  25.150  26.552  1.00  0.00    -0.345 N 
ATOM     13  H   UNL A   1      47.288  25.487  27.257  1.00  0.00     0.164 HD
ATOM     14  O   UNL A   1      45.395  24.279  28.153  1.00  0.00    -0.269 OA
BRANCH  12  15
ATOM     15  C   UNL A   1      46.944  25.663  25.216  1.00  0.00     0.113 C 
ATOM     16  C   UNL A   1      46.041  26.883  24.991  1.00  0.00     0.036 C 
BRANCH  15  17
ATOM     17  C   UNL A   1      48.412  25.967  25.091  1.00  0.00     0.015 A 
ATOM     18  C   UNL A   1      48.651  27.091  22.726  1.00  0.00     0.067 C 
ATOM     19  C   UNL A   1      49.102  26.581  24.047  1.00  0.00     0.040 A 
ATOM     20  N   UNL A   1      50.404  26.699  24.471  1.00  0.00    -0.273 N 
ATOM     21  C   UNL A   1      49.423  25.734  26.060  1.00  0.00     0.141 A 
ATOM     22  N   UNL A   1      50.624  26.164  25.681  1.00  0.00    -0.181 NA
ATOM     23  C   UNL A   1      51.495  27.347  23.777  1.00  0.00     0.174 C 
ENDBRANCH  15  17
ENDBRANCH  12  15
ENDBRANCH   7  11
ENDBRANCH   5   6
ENDBRANCH   3   5
ENDBRANCH   2   3
ENDBRANCH   1   2
BRANCH   1  24
ATOM     24  C   UNL A   1      40.906  19.985  26.690  1.00  0.00     0.275 C 
BRANCH  24  25
ATOM     25  O   UNL A   1      41.151  21.282  27.229  1.00  0.00    -0.458 OA
BRANCH  25  26
ATOM     26  C   UNL A   1      40.174  22.168  26.931  1.00  0.00     0.338 C 
ATOM     27  O   UNL A   1      39.070  21.909  26.486  1.00  0.00    -0.246 OA
BRANCH  26  28
ATOM     28  C   UNL A   1      40.694  23.535  26.992  1.00  0.00     0.060 A 
ATOM     29  C   UNL A   1      41.787  23.777  27.830  1.00  0.00     0.016 A 
ATOM     30  C   UNL A   1      39.892  24.573  26.500  1.00  0.00     0.016 A 
ATOM     31  C   UNL A   1      41.979  25.056  28.311  1.00  0.00     0.010 A 
ATOM     32  C   UNL A   1      40.075  25.845  26.994  1.00  0.00     0.010 A 
ATOM     33  C   UNL A   1      41.066  26.054  27.954  1.00  0.00    -0.014 A 
BRANCH  33  34
ATOM     34  C   UNL A   1      41.175  27.345  28.606  1.00  0.00     0.031 A 
ATOM     35  C   UNL A   1      42.293  28.195  28.136  1.00  0.00     0.074 A 
ATOM     36  C   UNL A   1      40.232  27.789  29.459  1.00  0.00     0.049 A 
ATOM     37  N   UNL A   1      43.239  28.734  28.834  1.00  0.00    -0.248 NA
ATOM     38  C   UNL A   1      42.413  28.414  26.687  1.00  0.00     0.031 C 
ATOM     39  C   UNL A   1      38.929  27.192  29.761  1.00  0.00     0.029 A 
ATOM     40  N   UNL A   1      40.199  28.963  30.146  1.00  0.00    -0.354 N 
ATOM     41  C   UNL A   1      43.994  29.481  27.935  1.00  0.00     0.074 A 
ATOM     42  C   UNL A   1      43.520  29.151  26.618  1.00  0.00     0.031 C 
ATOM     43  C   UNL A   1      38.152  28.116  30.370  1.00  0.00     0.029 A 
ATOM     44  C   UNL A   1      38.938  29.318  30.597  1.00  0.00     0.049 A 
ATOM     45  H   UNL A   1      41.000  29.511  30.309  1.00  0.00     0.167 HD
ATOM     46  C   UNL A   1      44.820  30.479  28.352  1.00  0.00     0.037 A 
ATOM     47  C   UNL A   1      38.560  30.550  31.019  1.00  0.00     0.037 A 
ATOM     48  C   UNL A   1      45.176  30.337  29.737  1.00  0.00     0.049 A 
ATOM     49  C   UNL A   1      39.794  31.309  31.357  1.00  0.00     0.074 A 
ATOM     50  C   UNL A   1      45.791  29.339  30.472  1.00  0.00     0.029 A 
ATOM     51  N   UNL A   1      44.586  31.158  30.665  1.00  0.00    -0.354 N 
ATOM     52  N   UNL A   1      40.569  31.037  32.372  1.00  0.00    -0.248 NA
ATOM     53  C   UNL A   1      40.410  32.097  30.297  1.00  0.00     0.031 C 
ATOM     54  C   UNL A   1      45.103  29.324  31.720  1.00  0.00     0.029 A 
ATOM     55  C   UNL A   1      44.153  30.345  31.682  1.00  0.00     0.049 A 
ATOM     56  H   UNL A   1      44.492  32.137  30.612  1.00  0.00     0.167 HD
ATOM     57  C   UNL A   1      41.856  31.242  31.897  1.00  0.00     0.074 A 
ATOM     58  C   UNL A   1      41.693  31.978  30.647  1.00  0.00     0.031 C 
ATOM     59  C   UNL A   1      42.922  30.555  32.404  1.00  0.00     0.037 A 
BRANCH  46  60
ATOM     60  C   UNL A   1      45.035  31.751  27.578  1.00  0.00     0.064 A 
ATOM     61  C   UNL A   1      46.270  31.979  26.944  1.00  0.00     0.173 A 
ATOM     62  C   UNL A   1      44.183  32.873  27.682  1.00  0.00     0.173 A 
ATOM     63  F   UNL A   1      47.168  30.989  26.824  1.00  0.00    -0.203 F 
ATOM     64  C   UNL A   1      46.646  33.249  26.502  1.00  0.00     0.198 A 
ATOM     65  C   UNL A   1      44.537  34.125  27.187  1.00  0.00     0.198 A 
ATOM     66  F   UNL A   1      43.030  32.830  28.361  1.00  0.00    -0.203 F 
ATOM     67  F   UNL A   1      47.879  33.446  26.017  1.00  0.00    -0.200 F 
ATOM     68  C   UNL A   1      45.781  34.322  26.626  1.00  0.00     0.200 A 
ATOM     69  F   UNL A   1      43.693  35.156  27.337  1.00  0.00    -0.200 F 
ATOM     70  F   UNL A   1      46.161  35.551  26.256  1.00  0.00    -0.200 F 
ENDBRANCH  46  60
BRANCH  47  71
ATOM     71  C   UNL A   1      37.243  31.204  30.822  1.00  0.00     0.064 A 
ATOM     72  C   UNL A   1      36.426  31.537  31.914  1.00  0.00     0.173 A 
ATOM     73  C   UNL A   1      36.866  31.745  29.576  1.00  0.00     0.173 A 
ATOM     74  F   UNL A   1      36.742  31.112  33.147  1.00  0.00    -0.203 F 
ATOM     75  C   UNL A   1      35.307  32.366  31.769  1.00  0.00     0.198 A 
ATOM     76  C   UNL A   1      35.742  32.559  29.430  1.00  0.00     0.198 A 
ATOM     77  F   UNL A   1      37.629  31.576  28.487  1.00  0.00    -0.203 F 
ATOM     78  F   UNL A   1      34.585  32.709  32.845  1.00  0.00    -0.200 F 
ATOM     79  C   UNL A   1      34.969  32.879  30.528  1.00  0.00     0.200 A 
ATOM     80  F   UNL A   1      35.450  33.077  28.228  1.00  0.00    -0.200 F 
ATOM     81  F   UNL A   1      33.928  33.714  30.397  1.00  0.00    -0.200 F 
ENDBRANCH  47  71
BRANCH  59  82
ATOM     82  C   UNL A   1      42.719  29.735  33.647  1.00  0.00     0.064 A 
ATOM     83  C   UNL A   1      42.848  30.248  34.950  1.00  0.00     0.173 A 
ATOM     84  C   UNL A   1      42.209  28.436  33.516  1.00  0.00     0.173 A 
ATOM     85  F   UNL A   1      43.219  31.516  35.160  1.00  0.00    -0.203 F 
ATOM     86  C   UNL A   1      42.525  29.479  36.066  1.00  0.00     0.198 A 
ATOM     87  C   UNL A   1      41.851  27.683  34.631  1.00  0.00     0.198 A 
ATOM     88  F   UNL A   1      42.004  27.913  32.296  1.00  0.00    -0.203 F 
ATOM     89  F   UNL A   1      42.663  29.991  37.298  1.00  0.00    -0.200 F 
ATOM     90  C   UNL A   1      42.019  28.200  35.905  1.00  0.00     0.200 A 
ATOM     91  F   UNL A   1      41.309  26.468  34.470  1.00  0.00    -0.200 F 
ATOM     92  F   UNL A   1      41.661  27.480  36.977  1.00  0.00    -0.200 F 
ENDBRANCH  59  82
ENDBRANCH  33  34
ENDBRANCH  26  28
ENDBRANCH  25  26
ENDBRANCH  24  25
ENDBRANCH   1  24
TORSDOF 15
ENDMDL
