MODEL 1
REMARK VINA RESULT:     -12.4      0.000      0.000
REMARK SMILES O=C(/C=C\c1ccc([N+](=O)[O-])cc1)OCCOC(=O)c1ccc(-c2c3nc(c(-c4c(F)c(F)c(F)c(F)c4F)c4ccc([nH]4)c(-c4c(F)c(F)c(F)c(F)c4F)c4nc(c(-c5c(F)c(F)c(F)c(F)c5F)c5ccc2[nH]5)C=C4)C=C3)cc1
REMARK SMILES IDX 15 1 14 2 2 3 1 4 3 5 4 6 5 7 6 8 13 9 7 10 12 11 8 12 9 13
REMARK SMILES IDX 10 14 11 15 16 16 17 17 18 18 19 19 20 20 21 21 82 22 22 23
REMARK SMILES IDX 81 24 23 25 24 26 25 27 75 28 26 29 80 30 74 31 76 32 27 33
REMARK SMILES IDX 79 34 73 35 72 36 28 38 60 39 40 40 59 41 41 42 44 43 58 44
REMARK SMILES IDX 77 45 42 46 43 47 57 49 78 50 45 51 29 52 30 53 38 54 31 55
REMARK SMILES IDX 32 56 36 57 39 58 33 59 34 60 37 61 35 62 61 63 62 64 70 65
REMARK SMILES IDX 63 66 64 67 68 68 71 69 65 70 66 71 69 72 67 73 46 74 47 75
REMARK SMILES IDX 55 76 48 77 49 78 53 79 56 80 50 81 51 82 54 83 52 84
REMARK H PARENT 76 37 44 48
REMARK Flexibility Score: inf
ROOT
ATOM      1  C   UNL A   1      35.858  21.052  25.237  1.00  0.00     0.275 C 
ENDROOT
BRANCH   1   2
ATOM      2  O   UNL A   1      35.440  22.324  24.729  1.00  0.00    -0.459 OA
BRANCH   2   3
ATOM      3  C   UNL A   1      34.669  22.522  23.639  1.00  0.00     0.330 C 
ATOM      4  O   UNL A   1      35.026  23.340  22.790  1.00  0.00    -0.247 OA
BRANCH   3   5
ATOM      5  C   UNL A   1      33.264  22.059  23.574  1.00  0.00     0.094 C 
ATOM      6  C   UNL A   1      32.515  20.950  23.729  1.00  0.00     0.015 C 
BRANCH   6   7
ATOM      7  C   UNL A   1      32.758  19.552  24.115  1.00  0.00    -0.025 A 
ATOM      8  C   UNL A   1      32.881  18.572  23.120  1.00  0.00     0.015 A 
ATOM      9  C   UNL A   1      32.670  19.114  25.436  1.00  0.00     0.015 A 
ATOM     10  C   UNL A   1      33.018  17.214  23.451  1.00  0.00     0.086 A 
ATOM     11  C   UNL A   1      32.880  17.782  25.798  1.00  0.00     0.086 A 
ATOM     12  C   UNL A   1      33.062  16.832  24.797  1.00  0.00     0.269 A 
BRANCH  12  13
ATOM     13  N   UNL A   1      33.267  15.429  25.168  1.00  0.00     0.062 N 
ATOM     14  O   UNL A   1      32.262  14.729  25.350  1.00  0.00    -0.258 OA
ATOM     15  O   UNL A   1      34.435  15.029  25.275  1.00  0.00    -0.258 OA
ENDBRANCH  12  13
ENDBRANCH   6   7
ENDBRANCH   3   5
ENDBRANCH   2   3
ENDBRANCH   1   2
BRANCH   1  16
ATOM     16  C   UNL A   1      37.335  20.714  24.987  1.00  0.00     0.275 C 
BRANCH  16  17
ATOM     17  O   UNL A   1      38.190  21.829  25.220  1.00  0.00    -0.458 OA
BRANCH  17  18
ATOM     18  C   UNL A   1      39.255  21.486  25.983  1.00  0.00     0.338 C 
ATOM     19  O   UNL A   1      39.884  20.444  25.944  1.00  0.00    -0.246 OA
BRANCH  18  20
ATOM     20  C   UNL A   1      39.660  22.622  26.814  1.00  0.00     0.060 A 
ATOM     21  C   UNL A   1      38.994  23.825  26.575  1.00  0.00     0.016 A 
ATOM     22  C   UNL A   1      40.726  22.543  27.716  1.00  0.00     0.016 A 
ATOM     23  C   UNL A   1      39.471  24.989  27.148  1.00  0.00     0.010 A 
ATOM     24  C   UNL A   1      41.189  23.712  28.315  1.00  0.00     0.010 A 
ATOM     25  C   UNL A   1      40.603  24.942  27.975  1.00  0.00    -0.014 A 
BRANCH  25  26
ATOM     26  C   UNL A   1      41.251  26.220  28.319  1.00  0.00     0.031 A 
ATOM     27  C   UNL A   1      42.647  26.476  27.829  1.00  0.00     0.074 A 
ATOM     28  C   UNL A   1      40.534  27.167  28.945  1.00  0.00     0.049 A 
ATOM     29  N   UNL A   1      43.369  27.564  27.909  1.00  0.00    -0.248 NA
ATOM     30  C   UNL A   1      43.326  25.358  27.150  1.00  0.00     0.031 C 
ATOM     31  C   UNL A   1      39.158  27.002  29.414  1.00  0.00     0.029 A 
ATOM     32  N   UNL A   1      40.849  28.458  29.265  1.00  0.00    -0.354 N 
ATOM     33  C   UNL A   1      44.571  27.265  27.280  1.00  0.00     0.074 A 
ATOM     34  C   UNL A   1      44.511  25.879  26.877  1.00  0.00     0.031 C 
ATOM     35  C   UNL A   1      38.738  28.161  29.947  1.00  0.00     0.029 A 
ATOM     36  C   UNL A   1      39.826  29.131  29.882  1.00  0.00     0.049 A 
ATOM     37  H   UNL A   1      41.724  28.865  29.071  1.00  0.00     0.167 HD
ATOM     38  C   UNL A   1      45.618  28.088  27.042  1.00  0.00     0.037 A 
ATOM     39  C   UNL A   1      39.787  30.393  30.347  1.00  0.00     0.037 A 
ATOM     40  C   UNL A   1      45.652  29.464  27.463  1.00  0.00     0.049 A 
ATOM     41  C   UNL A   1      40.996  31.264  30.132  1.00  0.00     0.074 A 
ATOM     42  C   UNL A   1      46.659  30.396  27.302  1.00  0.00     0.029 A 
ATOM     43  N   UNL A   1      44.619  30.101  28.140  1.00  0.00    -0.354 N 
ATOM     44  N   UNL A   1      42.124  30.982  29.522  1.00  0.00    -0.248 NA
ATOM     45  C   UNL A   1      40.924  32.631  30.659  1.00  0.00     0.031 C 
ATOM     46  C   UNL A   1      46.258  31.579  27.931  1.00  0.00     0.029 A 
ATOM     47  C   UNL A   1      44.974  31.409  28.424  1.00  0.00     0.049 A 
ATOM     48  H   UNL A   1      43.760  29.684  28.381  1.00  0.00     0.167 HD
ATOM     49  C   UNL A   1      42.884  32.142  29.566  1.00  0.00     0.074 A 
ATOM     50  C   UNL A   1      42.075  33.138  30.242  1.00  0.00     0.031 C 
ATOM     51  C   UNL A   1      44.137  32.370  29.098  1.00  0.00     0.037 A 
BRANCH  38  52
ATOM     52  C   UNL A   1      46.805  27.517  26.319  1.00  0.00     0.064 A 
ATOM     53  C   UNL A   1      46.939  27.610  24.925  1.00  0.00     0.173 A 
ATOM     54  C   UNL A   1      47.834  26.881  27.030  1.00  0.00     0.173 A 
ATOM     55  F   UNL A   1      45.977  28.193  24.191  1.00  0.00    -0.203 F 
ATOM     56  C   UNL A   1      48.040  27.065  24.269  1.00  0.00     0.198 A 
ATOM     57  C   UNL A   1      48.951  26.365  26.375  1.00  0.00     0.198 A 
ATOM     58  F   UNL A   1      47.760  26.759  28.364  1.00  0.00    -0.203 F 
ATOM     59  F   UNL A   1      48.118  27.120  22.932  1.00  0.00    -0.200 F 
ATOM     60  C   UNL A   1      49.049  26.451  24.994  1.00  0.00     0.200 A 
ATOM     61  F   UNL A   1      49.928  25.780  27.079  1.00  0.00    -0.200 F 
ATOM     62  F   UNL A   1      50.111  25.931  24.363  1.00  0.00    -0.200 F 
ENDBRANCH  38  52
BRANCH  39  63
ATOM     63  C   UNL A   1      38.580  30.892  31.055  1.00  0.00     0.064 A 
ATOM     64  C   UNL A   1      37.498  31.450  30.361  1.00  0.00     0.173 A 
ATOM     65  C   UNL A   1      38.491  30.834  32.456  1.00  0.00     0.173 A 
ATOM     66  F   UNL A   1      37.536  31.540  29.024  1.00  0.00    -0.203 F 
ATOM     67  C   UNL A   1      36.392  31.961  31.039  1.00  0.00     0.198 A 
ATOM     68  C   UNL A   1      37.371  31.312  33.131  1.00  0.00     0.198 A 
ATOM     69  F   UNL A   1      39.494  30.302  33.171  1.00  0.00    -0.203 F 
ATOM     70  F   UNL A   1      35.400  32.545  30.353  1.00  0.00    -0.200 F 
ATOM     71  C   UNL A   1      36.328  31.888  32.422  1.00  0.00     0.200 A 
ATOM     72  F   UNL A   1      37.305  31.220  34.465  1.00  0.00    -0.200 F 
ATOM     73  F   UNL A   1      35.266  32.381  33.074  1.00  0.00    -0.200 F 
ENDBRANCH  39  63
BRANCH  51  74
ATOM     74  C   UNL A   1      44.683  33.757  29.273  1.00  0.00     0.064 A 
ATOM     75  C   UNL A   1      45.433  34.119  30.402  1.00  0.00     0.173 A 
ATOM     76  C   UNL A   1      44.469  34.731  28.286  1.00  0.00     0.173 A 
ATOM     77  F   UNL A   1      45.654  33.226  31.380  1.00  0.00    -0.203 F 
ATOM     78  C   UNL A   1      45.912  35.416  30.556  1.00  0.00     0.198 A 
ATOM     79  C   UNL A   1      44.985  36.016  28.423  1.00  0.00     0.198 A 
ATOM     80  F   UNL A   1      43.768  34.434  27.181  1.00  0.00    -0.203 F 
ATOM     81  F   UNL A   1      46.567  35.757  31.674  1.00  0.00    -0.200 F 
ATOM     82  C   UNL A   1      45.695  36.361  29.564  1.00  0.00     0.200 A 
ATOM     83  F   UNL A   1      44.792  36.922  27.455  1.00  0.00    -0.200 F 
ATOM     84  F   UNL A   1      46.162  37.608  29.712  1.00  0.00    -0.200 F 
ENDBRANCH  51  74
ENDBRANCH  25  26
ENDBRANCH  18  20
ENDBRANCH  17  18
ENDBRANCH  16  17
ENDBRANCH   1  16
TORSDOF 13
ENDMDL
MODEL 2
REMARK VINA RESULT:     -12.2      0.162      2.038
REMARK SMILES O=C(/C=C\c1ccc([N+](=O)[O-])cc1)OCCOC(=O)c1ccc(-c2c3nc(c(-c4c(F)c(F)c(F)c(F)c4F)c4ccc([nH]4)c(-c4c(F)c(F)c(F)c(F)c4F)c4nc(c(-c5c(F)c(F)c(F)c(F)c5F)c5ccc2[nH]5)C=C4)C=C3)cc1
REMARK SMILES IDX 15 1 14 2 2 3 1 4 3 5 4 6 5 7 6 8 13 9 7 10 12 11 8 12 9 13
REMARK SMILES IDX 10 14 11 15 16 16 17 17 18 18 19 19 20 20 21 21 82 22 22 23
REMARK SMILES IDX 81 24 23 25 24 26 25 27 75 28 26 29 80 30 74 31 76 32 27 33
REMARK SMILES IDX 79 34 73 35 72 36 28 38 60 39 40 40 59 41 41 42 44 43 58 44
REMARK SMILES IDX 77 45 42 46 43 47 57 49 78 50 45 51 29 52 30 53 38 54 31 55
REMARK SMILES IDX 32 56 36 57 39 58 33 59 34 60 37 61 35 62 61 63 62 64 70 65
REMARK SMILES IDX 63 66 64 67 68 68 71 69 65 70 66 71 69 72 67 73 46 74 47 75
REMARK SMILES IDX 55 76 48 77 49 78 53 79 56 80 50 81 51 82 54 83 52 84
REMARK H PARENT 76 37 44 48
REMARK Flexibility Score: inf
ROOT
ATOM      1  C   UNL A   1      35.987  21.153  25.276  1.00  0.00     0.275 C 
ENDROOT
BRANCH   1   2
ATOM      2  O   UNL A   1      35.594  22.415  24.723  1.00  0.00    -0.459 OA
BRANCH   2   3
ATOM      3  C   UNL A   1      34.838  22.589  23.618  1.00  0.00     0.330 C 
ATOM      4  O   UNL A   1      35.233  23.348  22.733  1.00  0.00    -0.247 OA
BRANCH   3   5
ATOM      5  C   UNL A   1      33.415  22.181  23.568  1.00  0.00     0.094 C 
ATOM      6  C   UNL A   1      32.625  21.101  23.724  1.00  0.00     0.015 C 
BRANCH   6   7
ATOM      7  C   UNL A   1      32.818  19.692  24.098  1.00  0.00    -0.025 A 
ATOM      8  C   UNL A   1      32.796  18.705  23.103  1.00  0.00     0.015 A 
ATOM      9  C   UNL A   1      32.819  19.263  25.424  1.00  0.00     0.015 A 
ATOM     10  C   UNL A   1      32.881  17.341  23.431  1.00  0.00     0.086 A 
ATOM     11  C   UNL A   1      32.981  17.922  25.777  1.00  0.00     0.086 A 
ATOM     12  C   UNL A   1      33.019  16.960  24.771  1.00  0.00     0.269 A 
BRANCH  12  13
ATOM     13  N   UNL A   1      33.172  15.549  25.134  1.00  0.00     0.062 N 
ATOM     14  O   UNL A   1      32.144  14.901  25.375  1.00  0.00    -0.258 OA
ATOM     15  O   UNL A   1      34.322  15.089  25.174  1.00  0.00    -0.258 OA
ENDBRANCH  12  13
ENDBRANCH   6   7
ENDBRANCH   3   5
ENDBRANCH   2   3
ENDBRANCH   1   2
BRANCH   1  16
ATOM     16  C   UNL A   1      37.447  20.762  25.013  1.00  0.00     0.275 C 
BRANCH  16  17
ATOM     17  O   UNL A   1      38.345  21.846  25.237  1.00  0.00    -0.458 OA
BRANCH  17  18
ATOM     18  C   UNL A   1      39.358  21.488  26.061  1.00  0.00     0.338 C 
ATOM     19  O   UNL A   1      39.943  20.421  26.088  1.00  0.00    -0.246 OA
BRANCH  18  20
ATOM     20  C   UNL A   1      39.771  22.636  26.871  1.00  0.00     0.060 A 
ATOM     21  C   UNL A   1      39.093  23.833  26.630  1.00  0.00     0.016 A 
ATOM     22  C   UNL A   1      40.852  22.575  27.755  1.00  0.00     0.016 A 
ATOM     23  C   UNL A   1      39.574  25.007  27.181  1.00  0.00     0.010 A 
ATOM     24  C   UNL A   1      41.320  23.754  28.332  1.00  0.00     0.010 A 
ATOM     25  C   UNL A   1      40.721  24.975  27.987  1.00  0.00    -0.014 A 
BRANCH  25  26
ATOM     26  C   UNL A   1      41.367  26.262  28.305  1.00  0.00     0.031 A 
ATOM     27  C   UNL A   1      42.757  26.515  27.797  1.00  0.00     0.074 A 
ATOM     28  C   UNL A   1      40.652  27.216  28.923  1.00  0.00     0.049 A 
ATOM     29  N   UNL A   1      43.475  27.607  27.853  1.00  0.00    -0.248 NA
ATOM     30  C   UNL A   1      43.433  25.388  27.129  1.00  0.00     0.031 C 
ATOM     31  C   UNL A   1      39.282  27.053  29.408  1.00  0.00     0.029 A 
ATOM     32  N   UNL A   1      40.966  28.513  29.219  1.00  0.00    -0.354 N 
ATOM     33  C   UNL A   1      44.672  27.302  27.217  1.00  0.00     0.074 A 
ATOM     34  C   UNL A   1      44.614  25.910  26.836  1.00  0.00     0.031 C 
ATOM     35  C   UNL A   1      38.862  28.219  29.926  1.00  0.00     0.029 A 
ATOM     36  C   UNL A   1      39.946  29.193  29.835  1.00  0.00     0.049 A 
ATOM     37  H   UNL A   1      41.837  28.920  29.009  1.00  0.00     0.167 HD
ATOM     38  C   UNL A   1      45.714  28.125  26.955  1.00  0.00     0.037 A 
ATOM     39  C   UNL A   1      39.907  30.461  30.280  1.00  0.00     0.037 A 
ATOM     40  C   UNL A   1      45.747  29.508  27.353  1.00  0.00     0.049 A 
ATOM     41  C   UNL A   1      41.111  31.333  30.039  1.00  0.00     0.074 A 
ATOM     42  C   UNL A   1      46.749  30.441  27.168  1.00  0.00     0.029 A 
ATOM     43  N   UNL A   1      44.718  30.152  28.030  1.00  0.00    -0.354 N 
ATOM     44  N   UNL A   1      42.233  31.046  29.422  1.00  0.00    -0.248 NA
ATOM     45  C   UNL A   1      41.039  32.708  30.545  1.00  0.00     0.031 C 
ATOM     46  C   UNL A   1      46.350  31.632  27.781  1.00  0.00     0.029 A 
ATOM     47  C   UNL A   1      45.071  31.465  28.290  1.00  0.00     0.049 A 
ATOM     48  H   UNL A   1      43.863  29.735  28.286  1.00  0.00     0.167 HD
ATOM     49  C   UNL A   1      42.990  32.209  29.441  1.00  0.00     0.074 A 
ATOM     50  C   UNL A   1      42.183  33.213  30.108  1.00  0.00     0.031 C 
ATOM     51  C   UNL A   1      44.237  32.434  28.956  1.00  0.00     0.037 A 
BRANCH  38  52
ATOM     52  C   UNL A   1      46.896  27.546  26.230  1.00  0.00     0.064 A 
ATOM     53  C   UNL A   1      47.948  26.914  26.913  1.00  0.00     0.173 A 
ATOM     54  C   UNL A   1      46.975  27.608  24.831  1.00  0.00     0.173 A 
ATOM     55  F   UNL A   1      47.935  26.842  28.254  1.00  0.00    -0.203 F 
ATOM     56  C   UNL A   1      49.042  26.394  26.227  1.00  0.00     0.198 A 
ATOM     57  C   UNL A   1      48.055  27.057  24.144  1.00  0.00     0.198 A 
ATOM     58  F   UNL A   1      46.001  28.202  24.124  1.00  0.00    -0.203 F 
ATOM     59  F   UNL A   1      50.058  25.844  26.907  1.00  0.00    -0.200 F 
ATOM     60  C   UNL A   1      49.091  26.458  24.843  1.00  0.00     0.200 A 
ATOM     61  F   UNL A   1      48.095  27.112  22.806  1.00  0.00    -0.200 F 
ATOM     62  F   UNL A   1      50.142  25.951  24.183  1.00  0.00    -0.200 F 
ENDBRANCH  38  52
BRANCH  39  63
ATOM     63  C   UNL A   1      38.705  30.967  30.992  1.00  0.00     0.064 A 
ATOM     64  C   UNL A   1      38.599  30.907  32.389  1.00  0.00     0.173 A 
ATOM     65  C   UNL A   1      37.621  31.508  30.282  1.00  0.00     0.173 A 
ATOM     66  F   UNL A   1      39.600  30.388  33.114  1.00  0.00    -0.203 F 
ATOM     67  C   UNL A   1      37.445  31.337  33.043  1.00  0.00     0.198 A 
ATOM     68  C   UNL A   1      36.483  31.970  30.939  1.00  0.00     0.198 A 
ATOM     69  F   UNL A   1      37.671  31.598  28.944  1.00  0.00    -0.203 F 
ATOM     70  F   UNL A   1      37.346  31.210  34.374  1.00  0.00    -0.200 F 
ATOM     71  C   UNL A   1      36.391  31.871  32.319  1.00  0.00     0.200 A 
ATOM     72  F   UNL A   1      35.477  32.505  30.236  1.00  0.00    -0.200 F 
ATOM     73  F   UNL A   1      35.282  32.282  32.947  1.00  0.00    -0.200 F 
ENDBRANCH  39  63
BRANCH  51  74
ATOM     74  C   UNL A   1      44.779  33.826  29.104  1.00  0.00     0.064 A 
ATOM     75  C   UNL A   1      44.568  34.809  28.125  1.00  0.00     0.173 A 
ATOM     76  C   UNL A   1      45.501  34.185  30.252  1.00  0.00     0.173 A 
ATOM     77  F   UNL A   1      43.895  34.511  27.003  1.00  0.00    -0.203 F 
ATOM     78  C   UNL A   1      45.097  36.088  28.272  1.00  0.00     0.198 A 
ATOM     79  C   UNL A   1      45.993  35.476  30.415  1.00  0.00     0.198 A 
ATOM     80  F   UNL A   1      45.721  33.286  31.224  1.00  0.00    -0.203 F 
ATOM     81  F   UNL A   1      44.941  36.989  27.293  1.00  0.00    -0.200 F 
ATOM     82  C   UNL A   1      45.801  36.422  29.419  1.00  0.00     0.200 A 
ATOM     83  F   UNL A   1      46.656  35.804  31.532  1.00  0.00    -0.200 F 
ATOM     84  F   UNL A   1      46.305  37.656  29.560  1.00  0.00    -0.200 F 
ENDBRANCH  51  74
ENDBRANCH  25  26
ENDBRANCH  18  20
ENDBRANCH  17  18
ENDBRANCH  16  17
ENDBRANCH   1  16
TORSDOF 13
ENDMDL
MODEL 3
REMARK VINA RESULT:     -12.0      5.805     10.975
REMARK SMILES O=C(/C=C\c1ccc([N+](=O)[O-])cc1)OCCOC(=O)c1ccc(-c2c3nc(c(-c4c(F)c(F)c(F)c(F)c4F)c4ccc([nH]4)c(-c4c(F)c(F)c(F)c(F)c4F)c4nc(c(-c5c(F)c(F)c(F)c(F)c5F)c5ccc2[nH]5)C=C4)C=C3)cc1
REMARK SMILES IDX 15 1 14 2 2 3 1 4 3 5 4 6 5 7 6 8 13 9 7 10 12 11 8 12 9 13
REMARK SMILES IDX 10 14 11 15 16 16 17 17 18 18 19 19 20 20 21 21 82 22 22 23
REMARK SMILES IDX 81 24 23 25 24 26 25 27 75 28 26 29 80 30 74 31 76 32 27 33
REMARK SMILES IDX 79 34 73 35 72 36 28 38 60 39 40 40 59 41 41 42 44 43 58 44
REMARK SMILES IDX 77 45 42 46 43 47 57 49 78 50 45 51 29 52 30 53 38 54 31 55
REMARK SMILES IDX 32 56 36 57 39 58 33 59 34 60 37 61 35 62 61 63 62 64 70 65
REMARK SMILES IDX 63 66 64 67 68 68 71 69 65 70 66 71 69 72 67 73 46 74 47 75
REMARK SMILES IDX 55 76 48 77 49 78 53 79 56 80 50 81 51 82 54 83 52 84
REMARK H PARENT 76 37 44 48
REMARK Flexibility Score: inf
ROOT
ATOM      1  C   UNL A   1      32.394  28.853  26.105  1.00  0.00     0.275 C 
ENDROOT
BRANCH   1   2
ATOM      2  O   UNL A   1      32.444  28.444  24.733  1.00  0.00    -0.459 OA
BRANCH   2   3
ATOM      3  C   UNL A   1      32.048  27.246  24.254  1.00  0.00     0.330 C 
ATOM      4  O   UNL A   1      32.899  26.423  23.915  1.00  0.00    -0.247 OA
BRANCH   3   5
ATOM      5  C   UNL A   1      30.659  27.000  23.802  1.00  0.00     0.094 C 
ATOM      6  C   UNL A   1      29.576  27.649  23.334  1.00  0.00     0.015 C 
BRANCH   6   7
ATOM      7  C   UNL A   1      29.244  29.036  22.975  1.00  0.00    -0.025 A 
ATOM      8  C   UNL A   1      29.698  30.086  23.784  1.00  0.00     0.015 A 
ATOM      9  C   UNL A   1      28.323  29.350  21.976  1.00  0.00     0.015 A 
ATOM     10  C   UNL A   1      29.323  31.415  23.527  1.00  0.00     0.086 A 
ATOM     11  C   UNL A   1      27.994  30.667  21.651  1.00  0.00     0.086 A 
ATOM     12  C   UNL A   1      28.504  31.702  22.429  1.00  0.00     0.269 A 
BRANCH  12  13
ATOM     13  N   UNL A   1      28.150  33.086  22.104  1.00  0.00     0.062 N 
ATOM     14  O   UNL A   1      27.600  33.300  21.015  1.00  0.00    -0.258 OA
ATOM     15  O   UNL A   1      28.421  33.959  22.942  1.00  0.00    -0.258 OA
ENDBRANCH  12  13
ENDBRANCH   6   7
ENDBRANCH   3   5
ENDBRANCH   2   3
ENDBRANCH   1   2
BRANCH   1  16
ATOM     16  C   UNL A   1      32.425  30.372  26.325  1.00  0.00     0.275 C 
BRANCH  16  17
ATOM     17  O   UNL A   1      32.820  30.716  27.651  1.00  0.00    -0.458 OA
BRANCH  17  18
ATOM     18  C   UNL A   1      33.579  31.838  27.666  1.00  0.00     0.338 C 
ATOM     19  O   UNL A   1      33.190  32.990  27.618  1.00  0.00    -0.246 OA
BRANCH  18  20
ATOM     20  C   UNL A   1      34.983  31.486  27.885  1.00  0.00     0.060 A 
ATOM     21  C   UNL A   1      35.259  30.126  28.037  1.00  0.00     0.016 A 
ATOM     22  C   UNL A   1      35.978  32.456  28.045  1.00  0.00     0.016 A 
ATOM     23  C   UNL A   1      36.511  29.734  28.474  1.00  0.00     0.010 A 
ATOM     24  C   UNL A   1      37.247  32.058  28.458  1.00  0.00     0.010 A 
ATOM     25  C   UNL A   1      37.489  30.703  28.738  1.00  0.00    -0.014 A 
BRANCH  25  26
ATOM     26  C   UNL A   1      38.692  30.276  29.476  1.00  0.00     0.031 A 
ATOM     27  C   UNL A   1      38.867  30.734  30.895  1.00  0.00     0.074 A 
ATOM     28  C   UNL A   1      39.526  29.391  28.908  1.00  0.00     0.049 A 
ATOM     29  N   UNL A   1      39.778  30.395  31.770  1.00  0.00    -0.248 NA
ATOM     30  C   UNL A   1      37.880  31.703  31.405  1.00  0.00     0.031 C 
ATOM     31  C   UNL A   1      39.394  28.872  27.546  1.00  0.00     0.029 A 
ATOM     32  N   UNL A   1      40.624  28.751  29.411  1.00  0.00    -0.354 N 
ATOM     33  C   UNL A   1      39.463  31.093  32.930  1.00  0.00     0.074 A 
ATOM     34  C   UNL A   1      38.318  31.921  32.635  1.00  0.00     0.031 C 
ATOM     35  C   UNL A   1      40.367  27.973  27.327  1.00  0.00     0.029 A 
ATOM     36  C   UNL A   1      41.202  27.882  28.521  1.00  0.00     0.049 A 
ATOM     37  H   UNL A   1      40.966  28.899  30.322  1.00  0.00     0.167 HD
ATOM     38  C   UNL A   1      40.068  31.023  34.138  1.00  0.00     0.037 A 
ATOM     39  C   UNL A   1      42.293  27.107  28.665  1.00  0.00     0.037 A 
ATOM     40  C   UNL A   1      41.214  30.192  34.401  1.00  0.00     0.049 A 
ATOM     41  C   UNL A   1      42.989  27.107  30.000  1.00  0.00     0.074 A 
ATOM     42  C   UNL A   1      41.931  30.048  35.573  1.00  0.00     0.029 A 
ATOM     43  N   UNL A   1      41.813  29.365  33.458  1.00  0.00    -0.354 N 
ATOM     44  N   UNL A   1      42.678  27.755  31.098  1.00  0.00    -0.248 NA
ATOM     45  C   UNL A   1      44.180  26.259  30.120  1.00  0.00     0.031 C 
ATOM     46  C   UNL A   1      42.996  29.177  35.324  1.00  0.00     0.029 A 
ATOM     47  C   UNL A   1      42.906  28.724  34.017  1.00  0.00     0.049 A 
ATOM     48  H   UNL A   1      41.505  29.251  32.530  1.00  0.00     0.167 HD
ATOM     49  C   UNL A   1      43.616  27.373  32.047  1.00  0.00     0.074 A 
ATOM     50  C   UNL A   1      44.491  26.415  31.398  1.00  0.00     0.031 C 
ATOM     51  C   UNL A   1      43.751  27.775  33.337  1.00  0.00     0.037 A 
BRANCH  38  52
ATOM     52  C   UNL A   1      39.517  31.877  35.245  1.00  0.00     0.064 A 
ATOM     53  C   UNL A   1      38.619  31.366  36.197  1.00  0.00     0.173 A 
ATOM     54  C   UNL A   1      39.903  33.219  35.370  1.00  0.00     0.173 A 
ATOM     55  F   UNL A   1      38.201  30.093  36.117  1.00  0.00    -0.203 F 
ATOM     56  C   UNL A   1      38.108  32.174  37.210  1.00  0.00     0.198 A 
ATOM     57  C   UNL A   1      39.416  34.017  36.404  1.00  0.00     0.198 A 
ATOM     58  F   UNL A   1      40.756  33.763  34.488  1.00  0.00    -0.203 F 
ATOM     59  F   UNL A   1      37.211  31.678  38.074  1.00  0.00    -0.200 F 
ATOM     60  C   UNL A   1      38.513  33.495  37.318  1.00  0.00     0.200 A 
ATOM     61  F   UNL A   1      39.816  35.290  36.511  1.00  0.00    -0.200 F 
ATOM     62  F   UNL A   1      38.025  34.271  38.297  1.00  0.00    -0.200 F 
ENDBRANCH  38  52
BRANCH  39  63
ATOM     63  C   UNL A   1      42.784  26.290  27.525  1.00  0.00     0.064 A 
ATOM     64  C   UNL A   1      42.300  24.997  27.286  1.00  0.00     0.173 A 
ATOM     65  C   UNL A   1      43.770  26.785  26.656  1.00  0.00     0.173 A 
ATOM     66  F   UNL A   1      41.368  24.471  28.093  1.00  0.00    -0.203 F 
ATOM     67  C   UNL A   1      42.806  24.219  26.245  1.00  0.00     0.198 A 
ATOM     68  C   UNL A   1      44.248  26.022  25.594  1.00  0.00     0.198 A 
ATOM     69  F   UNL A   1      44.263  28.020  26.833  1.00  0.00    -0.203 F 
ATOM     70  F   UNL A   1      42.369  22.963  26.077  1.00  0.00    -0.200 F 
ATOM     71  C   UNL A   1      43.775  24.734  25.398  1.00  0.00     0.200 A 
ATOM     72  F   UNL A   1      45.169  26.532  24.767  1.00  0.00    -0.200 F 
ATOM     73  F   UNL A   1      44.262  23.986  24.398  1.00  0.00    -0.200 F 
ENDBRANCH  39  63
BRANCH  51  74
ATOM     74  C   UNL A   1      44.862  27.149  34.127  1.00  0.00     0.064 A 
ATOM     75  C   UNL A   1      44.684  25.946  34.828  1.00  0.00     0.173 A 
ATOM     76  C   UNL A   1      46.129  27.750  34.165  1.00  0.00     0.173 A 
ATOM     77  F   UNL A   1      43.487  25.338  34.833  1.00  0.00    -0.203 F 
ATOM     78  C   UNL A   1      45.721  25.392  35.572  1.00  0.00     0.198 A 
ATOM     79  C   UNL A   1      47.176  27.173  34.876  1.00  0.00     0.198 A 
ATOM     80  F   UNL A   1      46.356  28.895  33.503  1.00  0.00    -0.203 F 
ATOM     81  F   UNL A   1      45.508  24.280  36.288  1.00  0.00    -0.200 F 
ATOM     82  C   UNL A   1      46.968  26.002  35.589  1.00  0.00     0.200 A 
ATOM     83  F   UNL A   1      48.385  27.751  34.876  1.00  0.00    -0.200 F 
ATOM     84  F   UNL A   1      47.967  25.464  36.302  1.00  0.00    -0.200 F 
ENDBRANCH  51  74
ENDBRANCH  25  26
ENDBRANCH  18  20
ENDBRANCH  17  18
ENDBRANCH  16  17
ENDBRANCH   1  16
TORSDOF 13
ENDMDL
