MODEL 1
REMARK VINA RESULT:     -13.4      0.000      0.000
REMARK SMILES O=C(OCCOC(=O)[C@@H]1CC=CC[C@H]1C(=O)N1CC[NH+](Cc2ccc3c(c2)OCO3)CC1)c1ccc(-c2c3nc(c(-c4c(F)c(F)c(F)c(F)c4F)c4ccc([nH]4)c(-c4c(F)c(F)c(F)c(F)c4F)c4nc(c(-c5c(F)c(F)c(F)c(F)c5F)c5ccc2[nH]5)C=C4)C=C3)cc1
REMARK SMILES IDX 5 1 4 2 3 3 2 4 1 5 33 6 34 7 95 8 35 9 94 10 36 11 37 12
REMARK SMILES IDX 38 13 88 14 39 15 93 16 87 17 89 18 40 19 92 20 86 21 85 22
REMARK SMILES IDX 41 24 73 25 53 26 72 27 54 28 57 29 71 30 90 31 55 32 56 33
REMARK SMILES IDX 70 35 91 36 58 37 42 38 43 39 51 40 44 41 45 42 49 43 52 44
REMARK SMILES IDX 46 45 47 46 50 47 48 48 74 49 75 50 83 51 76 52 77 53 81 54
REMARK SMILES IDX 84 55 78 56 79 57 82 58 80 59 59 60 60 61 68 62 61 63 62 64
REMARK SMILES IDX 66 65 69 66 63 67 64 68 67 69 65 70 6 71 7 72 8 73 9 74
REMARK SMILES IDX 10 75 14 76 11 77 13 78 12 79 15 80 16 81 17 82 18 83 32 84
REMARK SMILES IDX 19 85 31 86 20 87 21 89 22 90 23 91 27 92 24 93 26 94 25 95
REMARK SMILES IDX 28 96 30 97 29 98
REMARK H PARENT 89 23 57 34 20 88
REMARK Flexibility Score: inf
ROOT
ATOM      1  C   UNL A   1      32.211  30.801  26.775  1.00  0.00     0.274 C 
ENDROOT
BRANCH   1   2
ATOM      2  C   UNL A   1      31.624  32.210  26.903  1.00  0.00     0.275 C 
BRANCH   2   3
ATOM      3  O   UNL A   1      32.591  33.271  26.882  1.00  0.00    -0.458 OA
BRANCH   3   4
ATOM      4  C   UNL A   1      33.096  33.849  28.000  1.00  0.00     0.338 C 
ATOM      5  O   UNL A   1      32.705  34.936  28.407  1.00  0.00    -0.246 OA
BRANCH   4   6
ATOM      6  C   UNL A   1      34.344  33.279  28.559  1.00  0.00     0.060 A 
ATOM      7  C   UNL A   1      35.618  33.526  28.040  1.00  0.00     0.016 A 
ATOM      8  C   UNL A   1      34.203  32.407  29.642  1.00  0.00     0.016 A 
ATOM      9  C   UNL A   1      36.752  32.996  28.664  1.00  0.00     0.010 A 
ATOM     10  C   UNL A   1      35.332  31.898  30.282  1.00  0.00     0.010 A 
ATOM     11  C   UNL A   1      36.620  32.188  29.795  1.00  0.00    -0.014 A 
BRANCH  11  12
ATOM     12  C   UNL A   1      37.798  31.511  30.385  1.00  0.00     0.031 A 
ATOM     13  C   UNL A   1      38.319  32.039  31.689  1.00  0.00     0.074 A 
ATOM     14  C   UNL A   1      38.412  30.467  29.788  1.00  0.00     0.049 A 
ATOM     15  N   UNL A   1      39.253  31.547  32.459  1.00  0.00    -0.248 NA
ATOM     16  C   UNL A   1      37.682  33.259  32.217  1.00  0.00     0.031 C 
ATOM     17  C   UNL A   1      38.001  29.819  28.544  1.00  0.00     0.029 A 
ATOM     18  N   UNL A   1      39.563  29.802  30.130  1.00  0.00    -0.354 N 
ATOM     19  C   UNL A   1      39.237  32.337  33.597  1.00  0.00     0.074 A 
ATOM     20  C   UNL A   1      38.328  33.431  33.357  1.00  0.00     0.031 C 
ATOM     21  C   UNL A   1      38.957  28.960  28.150  1.00  0.00     0.029 A 
ATOM     22  C   UNL A   1      40.000  28.923  29.166  1.00  0.00     0.049 A 
ATOM     23  H   UNL A   1      40.030  29.939  30.985  1.00  0.00     0.167 HD
ATOM     24  C   UNL A   1      39.849  32.107  34.780  1.00  0.00     0.037 A 
ATOM     25  C   UNL A   1      41.107  28.158  29.128  1.00  0.00     0.037 A 
ATOM     26  C   UNL A   1      40.781  31.040  34.995  1.00  0.00     0.049 A 
ATOM     27  C   UNL A   1      41.931  28.043  30.381  1.00  0.00     0.074 A 
ATOM     28  C   UNL A   1      41.432  30.672  36.155  1.00  0.00     0.029 A 
ATOM     29  N   UNL A   1      41.221  30.186  33.993  1.00  0.00    -0.354 N 
ATOM     30  N   UNL A   1      41.779  28.664  31.526  1.00  0.00    -0.248 NA
ATOM     31  C   UNL A   1      43.017  27.055  30.372  1.00  0.00     0.031 C 
ATOM     32  C   UNL A   1      42.304  29.621  35.843  1.00  0.00     0.029 A 
ATOM     33  C   UNL A   1      42.166  29.312  34.497  1.00  0.00     0.049 A 
ATOM     34  H   UNL A   1      40.905  30.199  33.060  1.00  0.00     0.167 HD
ATOM     35  C   UNL A   1      42.678  28.074  32.402  1.00  0.00     0.074 A 
ATOM     36  C   UNL A   1      43.404  27.077  31.641  1.00  0.00     0.031 C 
ATOM     37  C   UNL A   1      42.852  28.307  33.726  1.00  0.00     0.037 A 
BRANCH  24  38
ATOM     38  C   UNL A   1      39.460  33.012  35.907  1.00  0.00     0.064 A 
ATOM     39  C   UNL A   1      40.159  34.212  36.134  1.00  0.00     0.173 A 
ATOM     40  C   UNL A   1      38.453  32.654  36.809  1.00  0.00     0.173 A 
ATOM     41  F   UNL A   1      41.151  34.583  35.309  1.00  0.00    -0.203 F 
ATOM     42  C   UNL A   1      39.893  34.994  37.253  1.00  0.00     0.198 A 
ATOM     43  C   UNL A   1      38.173  33.454  37.915  1.00  0.00     0.198 A 
ATOM     44  F   UNL A   1      37.767  31.516  36.639  1.00  0.00    -0.203 F 
ATOM     45  F   UNL A   1      40.623  36.093  37.489  1.00  0.00    -0.200 F 
ATOM     46  C   UNL A   1      38.902  34.614  38.143  1.00  0.00     0.200 A 
ATOM     47  F   UNL A   1      37.217  33.087  38.779  1.00  0.00    -0.200 F 
ATOM     48  F   UNL A   1      38.660  35.355  39.234  1.00  0.00    -0.200 F 
ENDBRANCH  24  38
BRANCH  25  49
ATOM     49  C   UNL A   1      41.434  27.355  27.922  1.00  0.00     0.064 A 
ATOM     50  C   UNL A   1      40.886  26.081  27.727  1.00  0.00     0.173 A 
ATOM     51  C   UNL A   1      42.328  27.836  26.954  1.00  0.00     0.173 A 
ATOM     52  F   UNL A   1      40.038  25.573  28.634  1.00  0.00    -0.203 F 
ATOM     53  C   UNL A   1      41.238  25.305  26.624  1.00  0.00     0.198 A 
ATOM     54  C   UNL A   1      42.672  27.064  25.844  1.00  0.00     0.198 A 
ATOM     55  F   UNL A   1      42.881  29.050  27.093  1.00  0.00    -0.203 F 
ATOM     56  F   UNL A   1      40.727  24.074  26.483  1.00  0.00    -0.200 F 
ATOM     57  C   UNL A   1      42.131  25.796  25.683  1.00  0.00     0.200 A 
ATOM     58  F   UNL A   1      43.533  27.541  24.935  1.00  0.00    -0.200 F 
ATOM     59  F   UNL A   1      42.477  25.045  24.628  1.00  0.00    -0.200 F 
ENDBRANCH  25  49
BRANCH  37  60
ATOM     60  C   UNL A   1      43.804  27.412  34.458  1.00  0.00     0.064 A 
ATOM     61  C   UNL A   1      45.143  27.765  34.665  1.00  0.00     0.173 A 
ATOM     62  C   UNL A   1      43.346  26.203  35.005  1.00  0.00     0.173 A 
ATOM     63  F   UNL A   1      45.628  28.902  34.143  1.00  0.00    -0.203 F 
ATOM     64  C   UNL A   1      45.997  26.930  35.378  1.00  0.00     0.198 A 
ATOM     65  C   UNL A   1      44.194  25.385  35.743  1.00  0.00     0.198 A 
ATOM     66  F   UNL A   1      42.070  25.823  34.834  1.00  0.00    -0.203 F 
ATOM     67  F   UNL A   1      47.285  27.265  35.530  1.00  0.00    -0.200 F 
ATOM     68  C   UNL A   1      45.520  25.748  35.925  1.00  0.00     0.200 A 
ATOM     69  F   UNL A   1      43.728  24.250  36.279  1.00  0.00    -0.200 F 
ATOM     70  F   UNL A   1      46.342  24.952  36.623  1.00  0.00    -0.200 F 
ENDBRANCH  37  60
ENDBRANCH  11  12
ENDBRANCH   4   6
ENDBRANCH   3   4
ENDBRANCH   2   3
ENDBRANCH   1   2
BRANCH   1  71
ATOM     71  O   UNL A   1      31.399  29.859  26.049  1.00  0.00    -0.462 OA
BRANCH  71  72
ATOM     72  C   UNL A   1      31.700  29.760  24.724  1.00  0.00     0.310 C 
ATOM     73  O   UNL A   1      32.849  29.648  24.311  1.00  0.00    -0.252 OA
BRANCH  72  74
ATOM     74  C   UNL A   1      30.490  29.862  23.783  1.00  0.00     0.115 C 
ATOM     75  C   UNL A   1      29.530  30.994  24.134  1.00  0.00     0.043 C 
ATOM     76  C   UNL A   1      29.825  28.484  23.681  1.00  0.00     0.097 C 
ATOM     77  C   UNL A   1      28.186  30.885  23.489  1.00  0.00    -0.030 C 
ATOM     78  C   UNL A   1      28.464  28.470  22.956  1.00  0.00     0.041 C 
ATOM     79  C   UNL A   1      27.706  29.752  22.971  1.00  0.00    -0.030 C 
BRANCH  76  80
ATOM     80  C   UNL A   1      30.623  27.354  23.030  1.00  0.00     0.227 C 
ATOM     81  O   UNL A   1      30.653  27.278  21.798  1.00  0.00    -0.275 OA
ATOM     82  N   UNL A   1      31.541  26.686  23.826  1.00  0.00    -0.331 N 
ATOM     83  C   UNL A   1      32.792  26.285  23.189  1.00  0.00     0.181 C 
ATOM     84  C   UNL A   1      31.119  25.762  24.867  1.00  0.00     0.181 C 
ATOM     85  C   UNL A   1      33.885  25.889  24.206  1.00  0.00     0.284 C 
ATOM     86  C   UNL A   1      32.209  25.554  25.922  1.00  0.00     0.284 C 
ATOM     87  N   UNL A   1      33.480  25.074  25.368  1.00  0.00    -0.328 N 
ATOM     88  H   UNL A   1      34.204  25.229  26.071  1.00  0.00     0.348 HD
BRANCH  87  89
ATOM     89  C   UNL A   1      33.567  23.612  25.213  1.00  0.00     0.299 C 
BRANCH  89  90
ATOM     90  C   UNL A   1      34.906  22.965  25.507  1.00  0.00     0.010 A 
ATOM     91  C   UNL A   1      36.031  23.769  25.801  1.00  0.00     0.013 A 
ATOM     92  C   UNL A   1      35.076  21.575  25.340  1.00  0.00     0.060 A 
ATOM     93  C   UNL A   1      37.321  23.229  25.805  1.00  0.00     0.051 A 
ATOM     94  C   UNL A   1      36.364  21.077  25.320  1.00  0.00     0.166 A 
ATOM     95  C   UNL A   1      37.456  21.887  25.528  1.00  0.00     0.165 A 
ATOM     96  O   UNL A   1      36.719  19.803  25.001  1.00  0.00    -0.454 OA
ATOM     97  O   UNL A   1      38.631  21.221  25.379  1.00  0.00    -0.454 OA
ATOM     98  C   UNL A   1      38.154  19.943  24.913  1.00  0.00     0.468 C 
ENDBRANCH  89  90
ENDBRANCH  87  89
ENDBRANCH  76  80
ENDBRANCH  72  74
ENDBRANCH  71  72
ENDBRANCH   1  71
TORSDOF 14
ENDMDL
MODEL 2
REMARK VINA RESULT:     -13.4      1.681      2.257
REMARK SMILES O=C(OCCOC(=O)[C@@H]1CC=CC[C@H]1C(=O)N1CC[NH+](Cc2ccc3c(c2)OCO3)CC1)c1ccc(-c2c3nc(c(-c4c(F)c(F)c(F)c(F)c4F)c4ccc([nH]4)c(-c4c(F)c(F)c(F)c(F)c4F)c4nc(c(-c5c(F)c(F)c(F)c(F)c5F)c5ccc2[nH]5)C=C4)C=C3)cc1
REMARK SMILES IDX 5 1 4 2 3 3 2 4 1 5 33 6 34 7 95 8 35 9 94 10 36 11 37 12
REMARK SMILES IDX 38 13 88 14 39 15 93 16 87 17 89 18 40 19 92 20 86 21 85 22
REMARK SMILES IDX 41 24 73 25 53 26 72 27 54 28 57 29 71 30 90 31 55 32 56 33
REMARK SMILES IDX 70 35 91 36 58 37 42 38 43 39 51 40 44 41 45 42 49 43 52 44
REMARK SMILES IDX 46 45 47 46 50 47 48 48 74 49 75 50 83 51 76 52 77 53 81 54
REMARK SMILES IDX 84 55 78 56 79 57 82 58 80 59 59 60 60 61 68 62 61 63 62 64
REMARK SMILES IDX 66 65 69 66 63 67 64 68 67 69 65 70 6 71 7 72 8 73 9 74
REMARK SMILES IDX 10 75 14 76 11 77 13 78 12 79 15 80 16 81 17 82 18 83 32 84
REMARK SMILES IDX 19 85 31 86 20 87 21 89 22 90 23 91 27 92 24 93 26 94 25 95
REMARK SMILES IDX 28 96 30 97 29 98
REMARK H PARENT 89 23 57 34 20 88
REMARK Flexibility Score: inf
ROOT
ATOM      1  C   UNL A   1      32.316  31.210  26.884  1.00  0.00     0.274 C 
ENDROOT
BRANCH   1   2
ATOM      2  C   UNL A   1      32.144  32.732  26.875  1.00  0.00     0.275 C 
BRANCH   2   3
ATOM      3  O   UNL A   1      32.744  33.415  27.986  1.00  0.00    -0.458 OA
BRANCH   3   4
ATOM      4  C   UNL A   1      34.003  33.919  27.967  1.00  0.00     0.338 C 
ATOM      5  O   UNL A   1      34.315  34.873  27.265  1.00  0.00    -0.246 OA
BRANCH   4   6
ATOM      6  C   UNL A   1      35.073  33.106  28.592  1.00  0.00     0.060 A 
ATOM      7  C   UNL A   1      34.837  31.977  29.381  1.00  0.00     0.016 A 
ATOM      8  C   UNL A   1      36.385  33.548  28.403  1.00  0.00     0.016 A 
ATOM      9  C   UNL A   1      35.906  31.230  29.886  1.00  0.00     0.010 A 
ATOM     10  C   UNL A   1      37.454  32.791  28.882  1.00  0.00     0.010 A 
ATOM     11  C   UNL A   1      37.222  31.623  29.632  1.00  0.00    -0.014 A 
BRANCH  11  12
ATOM     12  C   UNL A   1      38.359  30.922  30.271  1.00  0.00     0.031 A 
ATOM     13  C   UNL A   1      38.772  31.378  31.639  1.00  0.00     0.074 A 
ATOM     14  C   UNL A   1      39.029  29.919  29.665  1.00  0.00     0.049 A 
ATOM     15  N   UNL A   1      39.650  30.849  32.450  1.00  0.00    -0.248 NA
ATOM     16  C   UNL A   1      38.083  32.561  32.185  1.00  0.00     0.031 C 
ATOM     17  C   UNL A   1      38.722  29.341  28.358  1.00  0.00     0.029 A 
ATOM     18  N   UNL A   1      40.158  29.243  30.056  1.00  0.00    -0.354 N 
ATOM     19  C   UNL A   1      39.538  31.572  33.626  1.00  0.00     0.074 A 
ATOM     20  C   UNL A   1      38.638  32.672  33.379  1.00  0.00     0.031 C 
ATOM     21  C   UNL A   1      39.715  28.512  27.990  1.00  0.00     0.029 A 
ATOM     22  C   UNL A   1      40.678  28.425  29.080  1.00  0.00     0.049 A 
ATOM     23  H   UNL A   1      40.557  29.334  30.950  1.00  0.00     0.167 HD
ATOM     24  C   UNL A   1      40.061  31.279  34.837  1.00  0.00     0.037 A 
ATOM     25  C   UNL A   1      41.794  27.671  29.085  1.00  0.00     0.037 A 
ATOM     26  C   UNL A   1      40.986  30.209  35.063  1.00  0.00     0.049 A 
ATOM     27  C   UNL A   1      42.521  27.490  30.389  1.00  0.00     0.074 A 
ATOM     28  C   UNL A   1      41.551  29.779  36.247  1.00  0.00     0.029 A 
ATOM     29  N   UNL A   1      41.511  29.416  34.051  1.00  0.00    -0.354 N 
ATOM     30  N   UNL A   1      42.274  28.043  31.552  1.00  0.00    -0.248 NA
ATOM     31  C   UNL A   1      43.616  26.512  30.407  1.00  0.00     0.031 C 
ATOM     32  C   UNL A   1      42.456  28.754  35.944  1.00  0.00     0.029 A 
ATOM     33  C   UNL A   1      42.425  28.522  34.576  1.00  0.00     0.049 A 
ATOM     34  H   UNL A   1      41.268  29.481  33.099  1.00  0.00     0.167 HD
ATOM     35  C   UNL A   1      43.110  27.410  32.459  1.00  0.00     0.074 A 
ATOM     36  C   UNL A   1      43.904  26.464  31.701  1.00  0.00     0.031 C 
ATOM     37  C   UNL A   1      43.180  27.568  33.804  1.00  0.00     0.037 A 
BRANCH  24  38
ATOM     38  C   UNL A   1      39.576  32.115  35.981  1.00  0.00     0.064 A 
ATOM     39  C   UNL A   1      40.278  33.271  36.369  1.00  0.00     0.173 A 
ATOM     40  C   UNL A   1      38.469  31.729  36.743  1.00  0.00     0.173 A 
ATOM     41  F   UNL A   1      41.363  33.665  35.684  1.00  0.00    -0.203 F 
ATOM     42  C   UNL A   1      39.914  33.981  37.508  1.00  0.00     0.198 A 
ATOM     43  C   UNL A   1      38.092  32.457  37.868  1.00  0.00     0.198 A 
ATOM     44  F   UNL A   1      37.774  30.629  36.417  1.00  0.00    -0.203 F 
ATOM     45  F   UNL A   1      40.642  35.034  37.901  1.00  0.00    -0.200 F 
ATOM     46  C   UNL A   1      38.822  33.572  38.258  1.00  0.00     0.200 A 
ATOM     47  F   UNL A   1      37.038  32.063  38.596  1.00  0.00    -0.200 F 
ATOM     48  F   UNL A   1      38.484  34.243  39.369  1.00  0.00    -0.200 F 
ENDBRANCH  24  38
BRANCH  25  49
ATOM     49  C   UNL A   1      42.221  26.942  27.863  1.00  0.00     0.064 A 
ATOM     50  C   UNL A   1      41.738  25.658  27.577  1.00  0.00     0.173 A 
ATOM     51  C   UNL A   1      43.148  27.503  26.973  1.00  0.00     0.173 A 
ATOM     52  F   UNL A   1      40.862  25.074  28.409  1.00  0.00    -0.203 F 
ATOM     53  C   UNL A   1      42.184  24.951  26.462  1.00  0.00     0.198 A 
ATOM     54  C   UNL A   1      43.585  26.800  25.849  1.00  0.00     0.198 A 
ATOM     55  F   UNL A   1      43.641  28.729  27.200  1.00  0.00    -0.203 F 
ATOM     56  F   UNL A   1      41.734  23.710  26.234  1.00  0.00    -0.200 F 
ATOM     57  C   UNL A   1      43.107  25.522  25.598  1.00  0.00     0.200 A 
ATOM     58  F   UNL A   1      44.475  27.355  25.016  1.00  0.00    -0.200 F 
ATOM     59  F   UNL A   1      43.543  24.838  24.531  1.00  0.00    -0.200 F 
ENDBRANCH  25  49
BRANCH  37  60
ATOM     60  C   UNL A   1      44.083  26.639  34.555  1.00  0.00     0.064 A 
ATOM     61  C   UNL A   1      45.400  26.988  34.881  1.00  0.00     0.173 A 
ATOM     62  C   UNL A   1      43.597  25.399  34.999  1.00  0.00     0.173 A 
ATOM     63  F   UNL A   1      45.911  28.154  34.459  1.00  0.00    -0.203 F 
ATOM     64  C   UNL A   1      46.206  26.120  35.609  1.00  0.00     0.198 A 
ATOM     65  C   UNL A   1      44.396  24.547  35.753  1.00  0.00     0.198 A 
ATOM     66  F   UNL A   1      42.342  25.022  34.713  1.00  0.00    -0.203 F 
ATOM     67  F   UNL A   1      47.476  26.453  35.875  1.00  0.00    -0.200 F 
ATOM     68  C   UNL A   1      45.701  24.906  36.054  1.00  0.00     0.200 A 
ATOM     69  F   UNL A   1      43.902  23.380  36.190  1.00  0.00    -0.200 F 
ATOM     70  F   UNL A   1      46.476  24.077  36.766  1.00  0.00    -0.200 F 
ENDBRANCH  37  60
ENDBRANCH  11  12
ENDBRANCH   4   6
ENDBRANCH   3   4
ENDBRANCH   2   3
ENDBRANCH   1   2
BRANCH   1  71
ATOM     71  O   UNL A   1      31.657  30.509  25.813  1.00  0.00    -0.462 OA
BRANCH  71  72
ATOM     72  C   UNL A   1      32.334  29.419  25.354  1.00  0.00     0.310 C 
ATOM     73  O   UNL A   1      33.503  29.193  25.643  1.00  0.00    -0.252 OA
BRANCH  72  74
ATOM     74  C   UNL A   1      31.531  28.525  24.395  1.00  0.00     0.115 C 
ATOM     75  C   UNL A   1      30.775  29.297  23.321  1.00  0.00     0.043 C 
ATOM     76  C   UNL A   1      30.655  27.576  25.222  1.00  0.00     0.097 C 
ATOM     77  C   UNL A   1      29.710  28.508  22.628  1.00  0.00    -0.030 C 
ATOM     78  C   UNL A   1      29.621  26.771  24.407  1.00  0.00     0.041 C 
ATOM     79  C   UNL A   1      29.188  27.383  23.120  1.00  0.00    -0.030 C 
BRANCH  76  80
ATOM     80  C   UNL A   1      31.357  26.535  26.093  1.00  0.00     0.227 C 
ATOM     81  O   UNL A   1      31.530  26.778  27.291  1.00  0.00    -0.275 OA
ATOM     82  N   UNL A   1      31.458  25.248  25.587  1.00  0.00    -0.331 N 
ATOM     83  C   UNL A   1      31.309  24.155  26.543  1.00  0.00     0.181 C 
ATOM     84  C   UNL A   1      32.369  24.924  24.500  1.00  0.00     0.181 C 
ATOM     85  C   UNL A   1      31.068  22.789  25.862  1.00  0.00     0.284 C 
ATOM     86  C   UNL A   1      31.958  23.639  23.777  1.00  0.00     0.284 C 
ATOM     87  N   UNL A   1      31.861  22.471  24.659  1.00  0.00    -0.328 N 
ATOM     88  H   UNL A   1      31.329  21.752  24.168  1.00  0.00     0.348 HD
BRANCH  87  89
ATOM     89  C   UNL A   1      33.134  21.760  24.876  1.00  0.00     0.299 C 
BRANCH  89  90
ATOM     90  C   UNL A   1      33.283  20.399  24.226  1.00  0.00     0.010 A 
ATOM     91  C   UNL A   1      32.296  19.931  23.328  1.00  0.00     0.013 A 
ATOM     92  C   UNL A   1      34.319  19.529  24.626  1.00  0.00     0.060 A 
ATOM     93  C   UNL A   1      32.261  18.591  22.931  1.00  0.00     0.051 A 
ATOM     94  C   UNL A   1      34.241  18.206  24.241  1.00  0.00     0.166 A 
ATOM     95  C   UNL A   1      33.228  17.748  23.431  1.00  0.00     0.165 A 
ATOM     96  O   UNL A   1      35.050  17.202  24.675  1.00  0.00    -0.454 OA
ATOM     97  O   UNL A   1      33.281  16.402  23.245  1.00  0.00    -0.454 OA
ATOM     98  C   UNL A   1      34.353  16.053  24.144  1.00  0.00     0.468 C 
ENDBRANCH  89  90
ENDBRANCH  87  89
ENDBRANCH  76  80
ENDBRANCH  72  74
ENDBRANCH  71  72
ENDBRANCH   1  71
TORSDOF 14
ENDMDL
MODEL 3
REMARK VINA RESULT:     -13.2      4.383     10.805
REMARK SMILES O=C(OCCOC(=O)[C@@H]1CC=CC[C@H]1C(=O)N1CC[NH+](Cc2ccc3c(c2)OCO3)CC1)c1ccc(-c2c3nc(c(-c4c(F)c(F)c(F)c(F)c4F)c4ccc([nH]4)c(-c4c(F)c(F)c(F)c(F)c4F)c4nc(c(-c5c(F)c(F)c(F)c(F)c5F)c5ccc2[nH]5)C=C4)C=C3)cc1
REMARK SMILES IDX 5 1 4 2 3 3 2 4 1 5 33 6 34 7 95 8 35 9 94 10 36 11 37 12
REMARK SMILES IDX 38 13 88 14 39 15 93 16 87 17 89 18 40 19 92 20 86 21 85 22
REMARK SMILES IDX 41 24 73 25 53 26 72 27 54 28 57 29 71 30 90 31 55 32 56 33
REMARK SMILES IDX 70 35 91 36 58 37 42 38 43 39 51 40 44 41 45 42 49 43 52 44
REMARK SMILES IDX 46 45 47 46 50 47 48 48 74 49 75 50 83 51 76 52 77 53 81 54
REMARK SMILES IDX 84 55 78 56 79 57 82 58 80 59 59 60 60 61 68 62 61 63 62 64
REMARK SMILES IDX 66 65 69 66 63 67 64 68 67 69 65 70 6 71 7 72 8 73 9 74
REMARK SMILES IDX 10 75 14 76 11 77 13 78 12 79 15 80 16 81 17 82 18 83 32 84
REMARK SMILES IDX 19 85 31 86 20 87 21 89 22 90 23 91 27 92 24 93 26 94 25 95
REMARK SMILES IDX 28 96 30 97 29 98
REMARK H PARENT 89 23 57 34 20 88
REMARK Flexibility Score: inf
ROOT
ATOM      1  C   UNL A   1      37.831  20.920  25.114  1.00  0.00     0.274 C 
ENDROOT
BRANCH   1   2
ATOM      2  C   UNL A   1      38.682  19.655  24.962  1.00  0.00     0.275 C 
BRANCH   2   3
ATOM      3  O   UNL A   1      39.550  19.376  26.070  1.00  0.00    -0.458 OA
BRANCH   3   4
ATOM      4  C   UNL A   1      40.881  19.639  26.068  1.00  0.00     0.338 C 
ATOM      5  O   UNL A   1      41.721  18.760  25.916  1.00  0.00    -0.246 OA
BRANCH   4   6
ATOM      6  C   UNL A   1      41.314  20.972  26.548  1.00  0.00     0.060 A 
ATOM      7  C   UNL A   1      41.333  21.349  27.894  1.00  0.00     0.016 A 
ATOM      8  C   UNL A   1      41.675  21.902  25.571  1.00  0.00     0.016 A 
ATOM      9  C   UNL A   1      41.812  22.608  28.270  1.00  0.00     0.010 A 
ATOM     10  C   UNL A   1      42.179  23.148  25.943  1.00  0.00     0.010 A 
ATOM     11  C   UNL A   1      42.250  23.513  27.300  1.00  0.00    -0.014 A 
BRANCH  11  12
ATOM     12  C   UNL A   1      42.632  24.895  27.670  1.00  0.00     0.031 A 
ATOM     13  C   UNL A   1      44.090  25.247  27.617  1.00  0.00     0.074 A 
ATOM     14  C   UNL A   1      41.730  25.820  28.060  1.00  0.00     0.049 A 
ATOM     15  N   UNL A   1      44.658  26.413  27.776  1.00  0.00    -0.248 NA
ATOM     16  C   UNL A   1      45.029  24.154  27.310  1.00  0.00     0.031 C 
ATOM     17  C   UNL A   1      40.281  25.641  28.123  1.00  0.00     0.029 A 
ATOM     18  N   UNL A   1      41.916  27.094  28.538  1.00  0.00    -0.354 N 
ATOM     19  C   UNL A   1      45.997  26.205  27.486  1.00  0.00     0.074 A 
ATOM     20  C   UNL A   1      46.190  24.787  27.305  1.00  0.00     0.031 C 
ATOM     21  C   UNL A   1      39.726  26.695  28.747  1.00  0.00     0.029 A 
ATOM     22  C   UNL A   1      40.770  27.669  29.036  1.00  0.00     0.049 A 
ATOM     23  H   UNL A   1      42.786  27.552  28.524  1.00  0.00     0.167 HD
ATOM     24  C   UNL A   1      46.959  27.132  27.283  1.00  0.00     0.037 A 
ATOM     25  C   UNL A   1      40.588  28.862  29.634  1.00  0.00     0.037 A 
ATOM     26  C   UNL A   1      46.768  28.534  27.505  1.00  0.00     0.049 A 
ATOM     27  C   UNL A   1      41.723  29.849  29.604  1.00  0.00     0.074 A 
ATOM     28  C   UNL A   1      47.645  29.579  27.292  1.00  0.00     0.029 A 
ATOM     29  N   UNL A   1      45.606  29.081  28.033  1.00  0.00    -0.354 N 
ATOM     30  N   UNL A   1      42.939  29.691  29.141  1.00  0.00    -0.248 NA
ATOM     31  C   UNL A   1      41.435  31.206  30.087  1.00  0.00     0.031 C 
ATOM     32  C   UNL A   1      47.029  30.755  27.737  1.00  0.00     0.029 A 
ATOM     33  C   UNL A   1      45.754  30.446  28.191  1.00  0.00     0.049 A 
ATOM     34  H   UNL A   1      44.794  28.571  28.261  1.00  0.00     0.167 HD
ATOM     35  C   UNL A   1      43.528  30.945  29.182  1.00  0.00     0.074 A 
ATOM     36  C   UNL A   1      42.549  31.845  29.760  1.00  0.00     0.031 C 
ATOM     37  C   UNL A   1      44.752  31.324  28.739  1.00  0.00     0.037 A 
BRANCH  24  38
ATOM     38  C   UNL A   1      48.262  26.620  26.750  1.00  0.00     0.064 A 
ATOM     39  C   UNL A   1      49.248  26.127  27.624  1.00  0.00     0.173 A 
ATOM     40  C   UNL A   1      48.566  26.693  25.387  1.00  0.00     0.173 A 
ATOM     41  F   UNL A   1      49.009  26.062  28.944  1.00  0.00    -0.203 F 
ATOM     42  C   UNL A   1      50.508  25.771  27.156  1.00  0.00     0.198 A 
ATOM     43  C   UNL A   1      49.821  26.313  24.918  1.00  0.00     0.198 A 
ATOM     44  F   UNL A   1      47.662  27.165  24.517  1.00  0.00    -0.203 F 
ATOM     45  F   UNL A   1      51.455  25.376  28.017  1.00  0.00    -0.200 F 
ATOM     46  C   UNL A   1      50.794  25.867  25.803  1.00  0.00     0.200 A 
ATOM     47  F   UNL A   1      50.101  26.406  23.611  1.00  0.00    -0.200 F 
ATOM     48  F   UNL A   1      52.015  25.546  25.353  1.00  0.00    -0.200 F 
ENDBRANCH  24  38
BRANCH  25  49
ATOM     49  C   UNL A   1      39.265  29.235  30.196  1.00  0.00     0.064 A 
ATOM     50  C   UNL A   1      38.310  29.908  29.422  1.00  0.00     0.173 A 
ATOM     51  C   UNL A   1      38.941  28.953  31.531  1.00  0.00     0.173 A 
ATOM     52  F   UNL A   1      38.581  30.212  28.144  1.00  0.00    -0.203 F 
ATOM     53  C   UNL A   1      37.091  30.308  29.967  1.00  0.00     0.198 A 
ATOM     54  C   UNL A   1      37.716  29.344  32.074  1.00  0.00     0.198 A 
ATOM     55  F   UNL A   1      39.820  28.311  32.315  1.00  0.00    -0.203 F 
ATOM     56  F   UNL A   1      36.213  30.984  29.215  1.00  0.00    -0.200 F 
ATOM     57  C   UNL A   1      36.795  30.027  31.293  1.00  0.00     0.200 A 
ATOM     58  F   UNL A   1      37.431  29.069  33.354  1.00  0.00    -0.200 F 
ATOM     59  F   UNL A   1      35.627  30.421  31.819  1.00  0.00    -0.200 F 
ENDBRANCH  25  49
BRANCH  37  60
ATOM     60  C   UNL A   1      45.071  32.787  28.780  1.00  0.00     0.064 A 
ATOM     61  C   UNL A   1      45.751  33.367  29.859  1.00  0.00     0.173 A 
ATOM     62  C   UNL A   1      44.733  33.606  27.692  1.00  0.00     0.173 A 
ATOM     63  F   UNL A   1      46.076  32.626  30.928  1.00  0.00    -0.203 F 
ATOM     64  C   UNL A   1      46.065  34.722  29.855  1.00  0.00     0.198 A 
ATOM     65  C   UNL A   1      45.075  34.954  27.679  1.00  0.00     0.198 A 
ATOM     66  F   UNL A   1      44.083  33.095  26.635  1.00  0.00    -0.203 F 
ATOM     67  F   UNL A   1      46.678  35.268  30.914  1.00  0.00    -0.200 F 
ATOM     68  C   UNL A   1      45.737  35.512  28.762  1.00  0.00     0.200 A 
ATOM     69  F   UNL A   1      44.767  35.711  26.617  1.00  0.00    -0.200 F 
ATOM     70  F   UNL A   1      46.052  36.814  28.756  1.00  0.00    -0.200 F 
ENDBRANCH  37  60
ENDBRANCH  11  12
ENDBRANCH   4   6
ENDBRANCH   3   4
ENDBRANCH   2   3
ENDBRANCH   1   2
BRANCH   1  71
ATOM     71  O   UNL A   1      36.532  20.866  24.495  1.00  0.00    -0.462 OA
BRANCH  71  72
ATOM     72  C   UNL A   1      35.498  20.712  25.368  1.00  0.00     0.310 C 
ATOM     73  O   UNL A   1      35.382  21.384  26.386  1.00  0.00    -0.252 OA
BRANCH  72  74
ATOM     74  C   UNL A   1      34.518  19.584  25.007  1.00  0.00     0.115 C 
ATOM     75  C   UNL A   1      35.197  18.315  24.505  1.00  0.00     0.043 C 
ATOM     76  C   UNL A   1      33.450  20.142  24.058  1.00  0.00     0.097 C 
ATOM     77  C   UNL A   1      34.283  17.362  23.804  1.00  0.00    -0.030 C 
ATOM     78  C   UNL A   1      32.526  19.083  23.424  1.00  0.00     0.041 C 
ATOM     79  C   UNL A   1      33.092  17.709  23.312  1.00  0.00    -0.030 C 
BRANCH  76  80
ATOM     80  C   UNL A   1      32.500  21.209  24.603  1.00  0.00     0.227 C 
ATOM     81  O   UNL A   1      31.508  20.852  25.246  1.00  0.00    -0.275 OA
ATOM     82  N   UNL A   1      32.969  22.513  24.647  1.00  0.00    -0.331 N 
ATOM     83  C   UNL A   1      32.566  23.315  25.798  1.00  0.00     0.181 C 
ATOM     84  C   UNL A   1      33.135  23.306  23.439  1.00  0.00     0.181 C 
ATOM     85  C   UNL A   1      33.409  24.601  25.959  1.00  0.00     0.284 C 
ATOM     86  C   UNL A   1      34.114  24.463  23.647  1.00  0.00     0.284 C 
ATOM     87  N   UNL A   1      33.737  25.365  24.741  1.00  0.00    -0.328 N 
ATOM     88  H   UNL A   1      34.557  25.921  24.984  1.00  0.00     0.348 HD
BRANCH  87  89
ATOM     89  C   UNL A   1      32.796  26.432  24.357  1.00  0.00     0.299 C 
BRANCH  89  90
ATOM     90  C   UNL A   1      33.013  27.799  24.975  1.00  0.00     0.010 A 
ATOM     91  C   UNL A   1      34.074  28.002  25.887  1.00  0.00     0.013 A 
ATOM     92  C   UNL A   1      32.073  28.831  24.769  1.00  0.00     0.060 A 
ATOM     93  C   UNL A   1      34.136  29.156  26.675  1.00  0.00     0.051 A 
ATOM     94  C   UNL A   1      32.143  29.944  25.582  1.00  0.00     0.166 A 
ATOM     95  C   UNL A   1      33.137  30.092  26.522  1.00  0.00     0.165 A 
ATOM     96  O   UNL A   1      31.225  30.946  25.639  1.00  0.00    -0.454 OA
ATOM     97  O   UNL A   1      32.975  31.210  27.277  1.00  0.00    -0.454 OA
ATOM     98  C   UNL A   1      31.692  31.667  26.801  1.00  0.00     0.468 C 
ENDBRANCH  89  90
ENDBRANCH  87  89
ENDBRANCH  76  80
ENDBRANCH  72  74
ENDBRANCH  71  72
ENDBRANCH   1  71
TORSDOF 14
ENDMDL
