MODEL 1
REMARK VINA RESULT:     -10.9      0.000      0.000
REMARK SMILES CCCCS[C@@H]1CCC[C@]([NH3+])(C(=O)OCCOC(=O)c2ccc(-c3c4nc(c(-c5c(F)c(F)c(F)c(F)c5F)c5ccc([nH]5)c(-c5c(F)c(F)c(F)c(F)c5F)c5nc(c(-c6c(F)c(F)c(F)c(F)c6F)c6ccc3[nH]6)C=C5)C=C4)cc2)C1
REMARK SMILES IDX 15 1 14 2 12 3 13 4 10 5 6 6 7 7 83 8 8 9 9 10 5 11 4 12
REMARK SMILES IDX 3 13 2 14 1 15 11 16 16 20 17 21 18 22 19 23 20 24 21 25
REMARK SMILES IDX 82 26 22 27 81 28 23 29 24 30 25 31 75 32 26 33 80 34 74 35
REMARK SMILES IDX 76 36 27 37 79 38 73 39 72 40 28 42 60 43 40 44 59 45 41 46
REMARK SMILES IDX 44 47 58 48 77 49 42 50 43 51 57 53 78 54 45 55 29 56 30 57
REMARK SMILES IDX 38 58 31 59 32 60 36 61 39 62 33 63 34 64 37 65 35 66 61 67
REMARK SMILES IDX 62 68 70 69 63 70 64 71 68 72 71 73 65 74 66 75 69 76 67 77
REMARK SMILES IDX 46 78 47 79 55 80 48 81 49 82 53 83 56 84 50 85 51 86 54 87
REMARK SMILES IDX 52 88
REMARK H PARENT 11 17 11 18 11 19 76 41 44 52
REMARK Flexibility Score: inf
ROOT
ATOM      1  C   UNL A   1      32.119  28.390  24.885  1.00  0.00     0.274 C 
ENDROOT
BRANCH   1   2
ATOM      2  O   UNL A   1      30.973  27.534  25.082  1.00  0.00    -0.457 OA
BRANCH   2   3
ATOM      3  C   UNL A   1      31.046  26.701  26.162  1.00  0.00     0.368 C 
ATOM      4  O   UNL A   1      31.317  27.068  27.301  1.00  0.00    -0.245 OA
BRANCH   3   5
ATOM      5  C   UNL A   1      30.914  25.206  25.757  1.00  0.00     0.193 C 
ATOM      6  C   UNL A   1      32.000  22.897  25.690  1.00  0.00     0.053 C 
ATOM      7  C   UNL A   1      31.789  22.799  24.176  1.00  0.00     0.015 C 
ATOM      8  C   UNL A   1      32.122  24.347  26.196  1.00  0.00     0.095 C 
ATOM      9  C   UNL A   1      30.653  23.697  23.695  1.00  0.00     0.008 C 
ATOM     10  C   UNL A   1      30.789  25.125  24.217  1.00  0.00     0.081 C 
BRANCH   6  11
ATOM     11  S   UNL A   1      33.328  21.750  26.245  1.00  0.00    -0.158 SA
BRANCH  11  12
ATOM     12  C   UNL A   1      34.109  21.174  24.702  1.00  0.00     0.070 C 
BRANCH  12  13
ATOM     13  C   UNL A   1      35.627  21.353  24.627  1.00  0.00     0.011 C 
BRANCH  13  14
ATOM     14  C   UNL A   1      36.097  22.655  23.972  1.00  0.00    -0.003 C 
ATOM     15  C   UNL A   1      36.554  23.702  24.976  1.00  0.00     0.004 C 
ENDBRANCH  13  14
ENDBRANCH  12  13
ENDBRANCH  11  12
ENDBRANCH   6  11
BRANCH   5  16
ATOM     16  N   UNL A   1      29.672  24.688  26.381  1.00  0.00    -0.343 N 
ATOM     17  H   UNL A   1      28.894  25.307  26.154  1.00  0.00     0.345 HD
ATOM     18  H   UNL A   1      29.791  24.649  27.393  1.00  0.00     0.345 HD
ATOM     19  H   UNL A   1      29.477  23.752  26.026  1.00  0.00     0.345 HD
ENDBRANCH   5  16
ENDBRANCH   3   5
ENDBRANCH   2   3
ENDBRANCH   1   2
BRANCH   1  20
ATOM     20  C   UNL A   1      31.862  29.793  25.431  1.00  0.00     0.275 C 
BRANCH  20  21
ATOM     21  O   UNL A   1      33.115  30.415  25.756  1.00  0.00    -0.458 OA
BRANCH  21  22
ATOM     22  C   UNL A   1      33.111  31.200  26.854  1.00  0.00     0.338 C 
ATOM     23  O   UNL A   1      32.228  31.972  27.201  1.00  0.00    -0.246 OA
BRANCH  22  24
ATOM     24  C   UNL A   1      34.355  30.998  27.629  1.00  0.00     0.060 A 
ATOM     25  C   UNL A   1      35.223  32.060  27.902  1.00  0.00     0.016 A 
ATOM     26  C   UNL A   1      34.708  29.701  28.007  1.00  0.00     0.016 A 
ATOM     27  C   UNL A   1      36.454  31.823  28.516  1.00  0.00     0.010 A 
ATOM     28  C   UNL A   1      35.911  29.473  28.682  1.00  0.00     0.010 A 
ATOM     29  C   UNL A   1      36.801  30.531  28.935  1.00  0.00    -0.014 A 
BRANCH  29  30
ATOM     30  C   UNL A   1      38.061  30.273  29.681  1.00  0.00     0.031 A 
ATOM     31  C   UNL A   1      39.119  29.368  29.113  1.00  0.00     0.074 A 
ATOM     32  C   UNL A   1      38.230  30.810  30.905  1.00  0.00     0.049 A 
ATOM     33  N   UNL A   1      40.162  28.841  29.704  1.00  0.00    -0.248 NA
ATOM     34  C   UNL A   1      38.987  29.006  27.695  1.00  0.00     0.031 C 
ATOM     35  C   UNL A   1      37.302  31.735  31.559  1.00  0.00     0.029 A 
ATOM     36  N   UNL A   1      39.231  30.635  31.827  1.00  0.00    -0.354 N 
ATOM     37  C   UNL A   1      40.789  28.059  28.741  1.00  0.00     0.074 A 
ATOM     38  C   UNL A   1      40.015  28.184  27.524  1.00  0.00     0.031 C 
ATOM     39  C   UNL A   1      37.778  32.048  32.773  1.00  0.00     0.029 A 
ATOM     40  C   UNL A   1      38.994  31.280  33.016  1.00  0.00     0.049 A 
ATOM     41  H   UNL A   1      40.041  30.102  31.653  1.00  0.00     0.167 HD
ATOM     42  C   UNL A   1      41.903  27.302  28.868  1.00  0.00     0.037 A 
ATOM     43  C   UNL A   1      39.640  31.212  34.195  1.00  0.00     0.037 A 
ATOM     44  C   UNL A   1      42.691  27.207  30.070  1.00  0.00     0.049 A 
ATOM     45  C   UNL A   1      40.820  30.297  34.336  1.00  0.00     0.074 A 
ATOM     46  C   UNL A   1      43.869  26.510  30.278  1.00  0.00     0.029 A 
ATOM     47  N   UNL A   1      42.376  27.829  31.268  1.00  0.00    -0.354 N 
ATOM     48  N   UNL A   1      41.386  29.535  33.433  1.00  0.00    -0.248 NA
ATOM     49  C   UNL A   1      41.432  30.208  35.669  1.00  0.00     0.031 C 
ATOM     50  C   UNL A   1      44.247  26.679  31.615  1.00  0.00     0.029 A 
ATOM     51  C   UNL A   1      43.320  27.506  32.229  1.00  0.00     0.049 A 
ATOM     52  H   UNL A   1      41.599  28.414  31.414  1.00  0.00     0.167 HD
ATOM     53  C   UNL A   1      42.417  28.875  34.085  1.00  0.00     0.074 A 
ATOM     54  C   UNL A   1      42.412  29.341  35.457  1.00  0.00     0.031 C 
ATOM     55  C   UNL A   1      43.285  27.959  33.593  1.00  0.00     0.037 A 
BRANCH  42  56
ATOM     56  C   UNL A   1      42.340  26.486  27.690  1.00  0.00     0.064 A 
ATOM     57  C   UNL A   1      43.324  26.942  26.803  1.00  0.00     0.173 A 
ATOM     58  C   UNL A   1      41.828  25.193  27.502  1.00  0.00     0.173 A 
ATOM     59  F   UNL A   1      43.835  28.174  26.937  1.00  0.00    -0.203 F 
ATOM     60  C   UNL A   1      43.781  26.130  25.767  1.00  0.00     0.198 A 
ATOM     61  C   UNL A   1      42.299  24.379  26.477  1.00  0.00     0.198 A 
ATOM     62  F   UNL A   1      40.887  24.713  28.329  1.00  0.00    -0.203 F 
ATOM     63  F   UNL A   1      44.714  26.588  24.921  1.00  0.00    -0.200 F 
ATOM     64  C   UNL A   1      43.275  24.847  25.610  1.00  0.00     0.200 A 
ATOM     65  F   UNL A   1      41.815  23.137  26.332  1.00  0.00    -0.200 F 
ATOM     66  F   UNL A   1      43.729  24.062  24.624  1.00  0.00    -0.200 F 
ENDBRANCH  42  56
BRANCH  43  67
ATOM     67  C   UNL A   1      39.125  31.979  35.356  1.00  0.00     0.064 A 
ATOM     68  C   UNL A   1      38.325  31.366  36.328  1.00  0.00     0.173 A 
ATOM     69  C   UNL A   1      39.442  33.335  35.526  1.00  0.00     0.173 A 
ATOM     70  F   UNL A   1      37.974  30.079  36.190  1.00  0.00    -0.203 F 
ATOM     71  C   UNL A   1      37.862  32.081  37.430  1.00  0.00     0.198 A 
ATOM     72  C   UNL A   1      39.001  34.042  36.642  1.00  0.00     0.198 A 
ATOM     73  F   UNL A   1      40.203  33.966  34.619  1.00  0.00    -0.203 F 
ATOM     74  F   UNL A   1      37.074  31.480  38.332  1.00  0.00    -0.200 F 
ATOM     75  C   UNL A   1      38.208  33.415  37.590  1.00  0.00     0.200 A 
ATOM     76  F   UNL A   1      39.348  35.326  36.799  1.00  0.00    -0.200 F 
ATOM     77  F   UNL A   1      37.773  34.098  38.658  1.00  0.00    -0.200 F 
ENDBRANCH  43  67
BRANCH  55  78
ATOM     78  C   UNL A   1      44.295  27.402  34.547  1.00  0.00     0.064 A 
ATOM     79  C   UNL A   1      45.510  28.061  34.783  1.00  0.00     0.173 A 
ATOM     80  C   UNL A   1      44.040  26.212  35.243  1.00  0.00     0.173 A 
ATOM     81  F   UNL A   1      45.802  29.192  34.125  1.00  0.00    -0.203 F 
ATOM     82  C   UNL A   1      46.444  27.535  35.671  1.00  0.00     0.198 A 
ATOM     83  C   UNL A   1      44.969  25.701  36.145  1.00  0.00     0.198 A 
ATOM     84  F   UNL A   1      42.891  25.548  35.050  1.00  0.00    -0.203 F 
ATOM     85  F   UNL A   1      47.616  28.160  35.854  1.00  0.00    -0.200 F 
ATOM     86  C   UNL A   1      46.171  26.360  36.354  1.00  0.00     0.200 A 
ATOM     87  F   UNL A   1      44.702  24.567  36.808  1.00  0.00    -0.200 F 
ATOM     88  F   UNL A   1      47.073  25.855  37.207  1.00  0.00    -0.200 F 
ENDBRANCH  55  78
ENDBRANCH  29  30
ENDBRANCH  22  24
ENDBRANCH  21  22
ENDBRANCH  20  21
ENDBRANCH   1  20
TORSDOF 16
ENDMDL
MODEL 2
REMARK VINA RESULT:     -10.7      1.084      2.263
REMARK SMILES CCCCS[C@@H]1CCC[C@]([NH3+])(C(=O)OCCOC(=O)c2ccc(-c3c4nc(c(-c5c(F)c(F)c(F)c(F)c5F)c5ccc([nH]5)c(-c5c(F)c(F)c(F)c(F)c5F)c5nc(c(-c6c(F)c(F)c(F)c(F)c6F)c6ccc3[nH]6)C=C5)C=C4)cc2)C1
REMARK SMILES IDX 15 1 14 2 12 3 13 4 10 5 6 6 7 7 83 8 8 9 9 10 5 11 4 12
REMARK SMILES IDX 3 13 2 14 1 15 11 16 16 20 17 21 18 22 19 23 20 24 21 25
REMARK SMILES IDX 82 26 22 27 81 28 23 29 24 30 25 31 75 32 26 33 80 34 74 35
REMARK SMILES IDX 76 36 27 37 79 38 73 39 72 40 28 42 60 43 40 44 59 45 41 46
REMARK SMILES IDX 44 47 58 48 77 49 42 50 43 51 57 53 78 54 45 55 29 56 30 57
REMARK SMILES IDX 38 58 31 59 32 60 36 61 39 62 33 63 34 64 37 65 35 66 61 67
REMARK SMILES IDX 62 68 70 69 63 70 64 71 68 72 71 73 65 74 66 75 69 76 67 77
REMARK SMILES IDX 46 78 47 79 55 80 48 81 49 82 53 83 56 84 50 85 51 86 54 87
REMARK SMILES IDX 52 88
REMARK H PARENT 11 17 11 18 11 19 76 41 44 52
REMARK Flexibility Score: inf
ROOT
ATOM      1  C   UNL A   1      31.464  28.386  25.931  1.00  0.00     0.274 C 
ENDROOT
BRANCH   1   2
ATOM      2  O   UNL A   1      31.919  27.290  25.107  1.00  0.00    -0.457 OA
BRANCH   2   3
ATOM      3  C   UNL A   1      31.938  26.069  25.719  1.00  0.00     0.368 C 
ATOM      4  O   UNL A   1      31.411  25.830  26.801  1.00  0.00    -0.245 OA
BRANCH   3   5
ATOM      5  C   UNL A   1      32.848  25.056  24.971  1.00  0.00     0.193 C 
ATOM      6  C   UNL A   1      33.199  22.646  24.205  1.00  0.00     0.053 C 
ATOM      7  C   UNL A   1      34.565  22.585  24.896  1.00  0.00     0.015 C 
ATOM      8  C   UNL A   1      32.228  23.644  24.862  1.00  0.00     0.095 C 
ATOM      9  C   UNL A   1      35.173  23.971  25.091  1.00  0.00     0.008 C 
ATOM     10  C   UNL A   1      34.189  24.945  25.733  1.00  0.00     0.081 C 
BRANCH   6  11
ATOM     11  S   UNL A   1      32.528  20.956  23.922  1.00  0.00    -0.158 SA
BRANCH  11  12
ATOM     12  C   UNL A   1      33.657  19.857  24.839  1.00  0.00     0.070 C 
BRANCH  12  13
ATOM     13  C   UNL A   1      33.296  18.370  24.806  1.00  0.00     0.011 C 
BRANCH  13  14
ATOM     14  C   UNL A   1      33.108  17.776  23.407  1.00  0.00    -0.003 C 
ATOM     15  C   UNL A   1      34.027  16.598  23.127  1.00  0.00     0.004 C 
ENDBRANCH  13  14
ENDBRANCH  12  13
ENDBRANCH  11  12
ENDBRANCH   6  11
BRANCH   5  16
ATOM     16  N   UNL A   1      33.096  25.604  23.614  1.00  0.00    -0.343 N 
ATOM     17  H   UNL A   1      32.477  26.397  23.450  1.00  0.00     0.345 HD
ATOM     18  H   UNL A   1      32.915  24.881  22.918  1.00  0.00     0.345 HD
ATOM     19  H   UNL A   1      34.067  25.908  23.542  1.00  0.00     0.345 HD
ENDBRANCH   5  16
ENDBRANCH   3   5
ENDBRANCH   2   3
ENDBRANCH   1   2
BRANCH   1  20
ATOM     20  C   UNL A   1      31.865  29.732  25.333  1.00  0.00     0.275 C 
BRANCH  20  21
ATOM     21  O   UNL A   1      33.179  30.086  25.793  1.00  0.00    -0.458 OA
BRANCH  21  22
ATOM     22  C   UNL A   1      33.225  30.986  26.798  1.00  0.00     0.338 C 
ATOM     23  O   UNL A   1      32.384  31.835  27.061  1.00  0.00    -0.246 OA
BRANCH  22  24
ATOM     24  C   UNL A   1      34.464  30.809  27.585  1.00  0.00     0.060 A 
ATOM     25  C   UNL A   1      35.372  31.858  27.759  1.00  0.00     0.016 A 
ATOM     26  C   UNL A   1      34.771  29.539  28.079  1.00  0.00     0.016 A 
ATOM     27  C   UNL A   1      36.598  31.632  28.389  1.00  0.00     0.010 A 
ATOM     28  C   UNL A   1      35.968  29.329  28.769  1.00  0.00     0.010 A 
ATOM     29  C   UNL A   1      36.898  30.371  28.923  1.00  0.00    -0.014 A 
BRANCH  29  30
ATOM     30  C   UNL A   1      38.152  30.134  29.686  1.00  0.00     0.031 A 
ATOM     31  C   UNL A   1      39.217  29.217  29.151  1.00  0.00     0.074 A 
ATOM     32  C   UNL A   1      38.309  30.703  30.897  1.00  0.00     0.049 A 
ATOM     33  N   UNL A   1      40.256  28.707  29.764  1.00  0.00    -0.248 NA
ATOM     34  C   UNL A   1      39.098  28.819  27.741  1.00  0.00     0.031 C 
ATOM     35  C   UNL A   1      37.374  31.642  31.520  1.00  0.00     0.029 A 
ATOM     36  N   UNL A   1      39.303  30.554  31.832  1.00  0.00    -0.354 N 
ATOM     37  C   UNL A   1      40.892  27.902  28.827  1.00  0.00     0.074 A 
ATOM     38  C   UNL A   1      40.129  27.995  27.601  1.00  0.00     0.031 C 
ATOM     39  C   UNL A   1      37.838  31.987  32.729  1.00  0.00     0.029 A 
ATOM     40  C   UNL A   1      39.053  31.228  33.002  1.00  0.00     0.049 A 
ATOM     41  H   UNL A   1      40.114  30.018  31.679  1.00  0.00     0.167 HD
ATOM     42  C   UNL A   1      42.007  27.152  28.984  1.00  0.00     0.037 A 
ATOM     43  C   UNL A   1      39.689  31.191  34.189  1.00  0.00     0.037 A 
ATOM     44  C   UNL A   1      42.784  27.088  30.195  1.00  0.00     0.049 A 
ATOM     45  C   UNL A   1      40.870  30.283  34.363  1.00  0.00     0.074 A 
ATOM     46  C   UNL A   1      43.961  26.399  30.430  1.00  0.00     0.029 A 
ATOM     47  N   UNL A   1      42.457  27.740  31.373  1.00  0.00    -0.354 N 
ATOM     48  N   UNL A   1      41.445  29.499  33.485  1.00  0.00    -0.248 NA
ATOM     49  C   UNL A   1      41.470  30.229  35.704  1.00  0.00     0.031 C 
ATOM     50  C   UNL A   1      44.327  26.603  31.766  1.00  0.00     0.029 A 
ATOM     51  C   UNL A   1      43.393  27.444  32.350  1.00  0.00     0.049 A 
ATOM     52  H   UNL A   1      41.677  28.327  31.497  1.00  0.00     0.167 HD
ATOM     53  C   UNL A   1      42.471  28.858  34.163  1.00  0.00     0.074 A 
ATOM     54  C   UNL A   1      42.454  29.359  35.522  1.00  0.00     0.031 C 
ATOM     55  C   UNL A   1      43.346  27.932  33.703  1.00  0.00     0.037 A 
BRANCH  42  56
ATOM     56  C   UNL A   1      42.456  26.307  27.830  1.00  0.00     0.064 A 
ATOM     57  C   UNL A   1      41.867  25.066  27.554  1.00  0.00     0.173 A 
ATOM     58  C   UNL A   1      43.426  26.791  26.940  1.00  0.00     0.173 A 
ATOM     59  F   UNL A   1      40.942  24.558  28.381  1.00  0.00    -0.203 F 
ATOM     60  C   UNL A   1      42.235  24.338  26.424  1.00  0.00     0.198 A 
ATOM     61  C   UNL A   1      43.780  26.069  25.805  1.00  0.00     0.198 A 
ATOM     62  F   UNL A   1      44.016  27.976  27.163  1.00  0.00    -0.203 F 
ATOM     63  F   UNL A   1      41.670  23.147  26.182  1.00  0.00    -0.200 F 
ATOM     64  C   UNL A   1      43.184  24.844  25.546  1.00  0.00     0.200 A 
ATOM     65  F   UNL A   1      44.691  26.563  24.954  1.00  0.00    -0.200 F 
ATOM     66  F   UNL A   1      43.524  24.150  24.452  1.00  0.00    -0.200 F 
ENDBRANCH  42  56
BRANCH  43  67
ATOM     67  C   UNL A   1      39.163  31.987  35.325  1.00  0.00     0.064 A 
ATOM     68  C   UNL A   1      38.373  31.393  36.316  1.00  0.00     0.173 A 
ATOM     69  C   UNL A   1      39.459  33.352  35.452  1.00  0.00     0.173 A 
ATOM     70  F   UNL A   1      38.041  30.097  36.220  1.00  0.00    -0.203 F 
ATOM     71  C   UNL A   1      37.899  32.135  37.395  1.00  0.00     0.198 A 
ATOM     72  C   UNL A   1      39.007  34.087  36.545  1.00  0.00     0.198 A 
ATOM     73  F   UNL A   1      40.210  33.966  34.525  1.00  0.00    -0.203 F 
ATOM     74  F   UNL A   1      37.120  31.552  38.316  1.00  0.00    -0.200 F 
ATOM     75  C   UNL A   1      38.223  33.479  37.513  1.00  0.00     0.200 A 
ATOM     76  F   UNL A   1      39.335  35.381  36.661  1.00  0.00    -0.200 F 
ATOM     77  F   UNL A   1      37.779  34.189  38.558  1.00  0.00    -0.200 F 
ENDBRANCH  43  67
BRANCH  55  78
ATOM     78  C   UNL A   1      44.348  27.401  34.679  1.00  0.00     0.064 A 
ATOM     79  C   UNL A   1      44.105  26.221  35.397  1.00  0.00     0.173 A 
ATOM     80  C   UNL A   1      45.565  28.065  34.887  1.00  0.00     0.173 A 
ATOM     81  F   UNL A   1      42.945  25.565  35.242  1.00  0.00    -0.203 F 
ATOM     82  C   UNL A   1      45.041  25.734  36.304  1.00  0.00     0.198 A 
ATOM     83  C   UNL A   1      46.507  27.562  35.780  1.00  0.00     0.198 A 
ATOM     84  F   UNL A   1      45.841  29.196  34.221  1.00  0.00    -0.203 F 
ATOM     85  F   UNL A   1      44.774  24.626  37.009  1.00  0.00    -0.200 F 
ATOM     86  C   UNL A   1      46.242  26.401  36.492  1.00  0.00     0.200 A 
ATOM     87  F   UNL A   1      47.669  28.206  35.957  1.00  0.00    -0.200 F 
ATOM     88  F   UNL A   1      47.141  25.932  37.367  1.00  0.00    -0.200 F 
ENDBRANCH  55  78
ENDBRANCH  29  30
ENDBRANCH  22  24
ENDBRANCH  21  22
ENDBRANCH  20  21
ENDBRANCH   1  20
TORSDOF 16
ENDMDL
MODEL 3
REMARK VINA RESULT:     -10.7      0.415      1.706
REMARK SMILES CCCCS[C@@H]1CCC[C@]([NH3+])(C(=O)OCCOC(=O)c2ccc(-c3c4nc(c(-c5c(F)c(F)c(F)c(F)c5F)c5ccc([nH]5)c(-c5c(F)c(F)c(F)c(F)c5F)c5nc(c(-c6c(F)c(F)c(F)c(F)c6F)c6ccc3[nH]6)C=C5)C=C4)cc2)C1
REMARK SMILES IDX 15 1 14 2 12 3 13 4 10 5 6 6 7 7 83 8 8 9 9 10 5 11 4 12
REMARK SMILES IDX 3 13 2 14 1 15 11 16 16 20 17 21 18 22 19 23 20 24 21 25
REMARK SMILES IDX 82 26 22 27 81 28 23 29 24 30 25 31 75 32 26 33 80 34 74 35
REMARK SMILES IDX 76 36 27 37 79 38 73 39 72 40 28 42 60 43 40 44 59 45 41 46
REMARK SMILES IDX 44 47 58 48 77 49 42 50 43 51 57 53 78 54 45 55 29 56 30 57
REMARK SMILES IDX 38 58 31 59 32 60 36 61 39 62 33 63 34 64 37 65 35 66 61 67
REMARK SMILES IDX 62 68 70 69 63 70 64 71 68 72 71 73 65 74 66 75 69 76 67 77
REMARK SMILES IDX 46 78 47 79 55 80 48 81 49 82 53 83 56 84 50 85 51 86 54 87
REMARK SMILES IDX 52 88
REMARK H PARENT 11 17 11 18 11 19 76 41 44 52
REMARK Flexibility Score: inf
ROOT
ATOM      1  C   UNL A   1      32.300  28.670  25.065  1.00  0.00     0.274 C 
ENDROOT
BRANCH   1   2
ATOM      2  O   UNL A   1      31.114  27.855  25.179  1.00  0.00    -0.457 OA
BRANCH   2   3
ATOM      3  C   UNL A   1      31.130  26.942  26.194  1.00  0.00     0.368 C 
ATOM      4  O   UNL A   1      31.426  27.204  27.356  1.00  0.00    -0.245 OA
BRANCH   3   5
ATOM      5  C   UNL A   1      30.894  25.494  25.681  1.00  0.00     0.193 C 
ATOM      6  C   UNL A   1      31.811  23.123  25.452  1.00  0.00     0.053 C 
ATOM      7  C   UNL A   1      31.609  23.150  23.934  1.00  0.00     0.015 C 
ATOM      8  C   UNL A   1      32.032  24.520  26.062  1.00  0.00     0.095 C 
ATOM      9  C   UNL A   1      30.544  24.160  23.514  1.00  0.00     0.008 C 
ATOM     10  C   UNL A   1      30.778  25.533  24.139  1.00  0.00     0.081 C 
BRANCH   6  11
ATOM     11  S   UNL A   1      33.047  21.845  25.928  1.00  0.00    -0.158 SA
BRANCH  11  12
ATOM     12  C   UNL A   1      34.111  21.669  24.459  1.00  0.00     0.070 C 
BRANCH  12  13
ATOM     13  C   UNL A   1      35.253  22.682  24.350  1.00  0.00     0.011 C 
BRANCH  13  14
ATOM     14  C   UNL A   1      35.793  23.201  25.685  1.00  0.00    -0.003 C 
ATOM     15  C   UNL A   1      37.219  23.719  25.596  1.00  0.00     0.004 C 
ENDBRANCH  13  14
ENDBRANCH  12  13
ENDBRANCH  11  12
ENDBRANCH   6  11
BRANCH   5  16
ATOM     16  N   UNL A   1      29.612  25.024  26.260  1.00  0.00    -0.343 N 
ATOM     17  H   UNL A   1      29.189  24.336  25.637  1.00  0.00     0.345 HD
ATOM     18  H   UNL A   1      28.979  25.816  26.373  1.00  0.00     0.345 HD
ATOM     19  H   UNL A   1      29.786  24.597  27.170  1.00  0.00     0.345 HD
ENDBRANCH   5  16
ENDBRANCH   3   5
ENDBRANCH   2   3
ENDBRANCH   1   2
BRANCH   1  20
ATOM     20  C   UNL A   1      32.042  30.095  25.548  1.00  0.00     0.275 C 
BRANCH  20  21
ATOM     21  O   UNL A   1      32.524  30.238  26.893  1.00  0.00    -0.458 OA
BRANCH  21  22
ATOM     22  C   UNL A   1      33.101  31.423  27.186  1.00  0.00     0.338 C 
ATOM     23  O   UNL A   1      32.665  32.535  26.924  1.00  0.00    -0.246 OA
BRANCH  22  24
ATOM     24  C   UNL A   1      34.376  31.206  27.902  1.00  0.00     0.060 A 
ATOM     25  C   UNL A   1      35.314  32.233  28.046  1.00  0.00     0.016 A 
ATOM     26  C   UNL A   1      34.682  29.921  28.356  1.00  0.00     0.016 A 
ATOM     27  C   UNL A   1      36.566  31.971  28.606  1.00  0.00     0.010 A 
ATOM     28  C   UNL A   1      35.909  29.674  28.977  1.00  0.00     0.010 A 
ATOM     29  C   UNL A   1      36.868  30.694  29.101  1.00  0.00    -0.014 A 
BRANCH  29  30
ATOM     30  C   UNL A   1      38.155  30.418  29.792  1.00  0.00     0.031 A 
ATOM     31  C   UNL A   1      39.179  29.506  29.176  1.00  0.00     0.074 A 
ATOM     32  C   UNL A   1      38.381  30.946  31.011  1.00  0.00     0.049 A 
ATOM     33  N   UNL A   1      40.240  28.963  29.719  1.00  0.00    -0.248 NA
ATOM     34  C   UNL A   1      38.984  29.153  27.762  1.00  0.00     0.031 C 
ATOM     35  C   UNL A   1      37.491  31.877  31.709  1.00  0.00     0.029 A 
ATOM     36  N   UNL A   1      39.418  30.755  31.889  1.00  0.00    -0.354 N 
ATOM     37  C   UNL A   1      40.817  28.181  28.727  1.00  0.00     0.074 A 
ATOM     38  C   UNL A   1      39.995  28.322  27.544  1.00  0.00     0.031 C 
ATOM     39  C   UNL A   1      38.020  32.177  32.904  1.00  0.00     0.029 A 
ATOM     40  C   UNL A   1      39.237  31.395  33.091  1.00  0.00     0.049 A 
ATOM     41  H   UNL A   1      40.213  30.214  31.679  1.00  0.00     0.167 HD
ATOM     42  C   UNL A   1      41.928  27.412  28.803  1.00  0.00     0.037 A 
ATOM     43  C   UNL A   1      39.931  31.312  34.242  1.00  0.00     0.037 A 
ATOM     44  C   UNL A   1      42.764  27.301  29.971  1.00  0.00     0.049 A 
ATOM     45  C   UNL A   1      41.106  30.384  34.328  1.00  0.00     0.074 A 
ATOM     46  C   UNL A   1      43.942  26.590  30.125  1.00  0.00     0.029 A 
ATOM     47  N   UNL A   1      42.506  27.918  31.184  1.00  0.00    -0.354 N 
ATOM     48  N   UNL A   1      41.626  29.622  33.398  1.00  0.00    -0.248 NA
ATOM     49  C   UNL A   1      41.772  30.281  35.634  1.00  0.00     0.031 C 
ATOM     50  C   UNL A   1      44.377  26.746  31.446  1.00  0.00     0.029 A 
ATOM     51  C   UNL A   1      43.486  27.580  32.103  1.00  0.00     0.049 A 
ATOM     52  H   UNL A   1      41.741  28.511  31.366  1.00  0.00     0.167 HD
ATOM     53  C   UNL A   1      42.675  28.947  34.003  1.00  0.00     0.074 A 
ATOM     54  C   UNL A   1      42.733  29.404  35.377  1.00  0.00     0.031 C 
ATOM     55  C   UNL A   1      43.512  28.025  33.470  1.00  0.00     0.037 A 
BRANCH  42  56
ATOM     56  C   UNL A   1      42.307  26.599  27.603  1.00  0.00     0.064 A 
ATOM     57  C   UNL A   1      43.292  27.027  26.704  1.00  0.00     0.173 A 
ATOM     58  C   UNL A   1      41.736  25.332  27.404  1.00  0.00     0.173 A 
ATOM     59  F   UNL A   1      43.859  28.234  26.849  1.00  0.00    -0.203 F 
ATOM     60  C   UNL A   1      43.694  26.214  25.646  1.00  0.00     0.198 A 
ATOM     61  C   UNL A   1      42.151  24.517  26.356  1.00  0.00     0.198 A 
ATOM     62  F   UNL A   1      40.790  24.879  28.241  1.00  0.00    -0.203 F 
ATOM     63  F   UNL A   1      44.629  26.646  24.789  1.00  0.00    -0.200 F 
ATOM     64  C   UNL A   1      43.130  24.957  25.478  1.00  0.00     0.200 A 
ATOM     65  F   UNL A   1      41.611  23.299  26.200  1.00  0.00    -0.200 F 
ATOM     66  F   UNL A   1      43.531  24.171  24.470  1.00  0.00    -0.200 F 
ENDBRANCH  42  56
BRANCH  43  67
ATOM     67  C   UNL A   1      39.473  32.078  35.427  1.00  0.00     0.064 A 
ATOM     68  C   UNL A   1      39.917  33.386  35.655  1.00  0.00     0.173 A 
ATOM     69  C   UNL A   1      38.566  31.524  36.343  1.00  0.00     0.173 A 
ATOM     70  F   UNL A   1      40.805  33.946  34.821  1.00  0.00    -0.203 F 
ATOM     71  C   UNL A   1      39.468  34.114  36.755  1.00  0.00     0.198 A 
ATOM     72  C   UNL A   1      38.099  32.261  37.427  1.00  0.00     0.198 A 
ATOM     73  F   UNL A   1      38.116  30.272  36.168  1.00  0.00    -0.203 F 
ATOM     74  F   UNL A   1      39.929  35.353  36.968  1.00  0.00    -0.200 F 
ATOM     75  C   UNL A   1      38.553  33.554  37.635  1.00  0.00     0.200 A 
ATOM     76  F   UNL A   1      37.205  31.720  38.266  1.00  0.00    -0.200 F 
ATOM     77  F   UNL A   1      38.112  34.259  38.685  1.00  0.00    -0.200 F 
ENDBRANCH  43  67
BRANCH  55  78
ATOM     78  C   UNL A   1      44.555  27.451  34.378  1.00  0.00     0.064 A 
ATOM     79  C   UNL A   1      44.328  26.257  35.077  1.00  0.00     0.173 A 
ATOM     80  C   UNL A   1      45.793  28.088  34.537  1.00  0.00     0.173 A 
ATOM     81  F   UNL A   1      43.149  25.626  34.969  1.00  0.00    -0.203 F 
ATOM     82  C   UNL A   1      45.302  25.730  35.921  1.00  0.00     0.198 A 
ATOM     83  C   UNL A   1      46.772  27.546  35.366  1.00  0.00     0.198 A 
ATOM     84  F   UNL A   1      46.055  29.231  33.887  1.00  0.00    -0.203 F 
ATOM     85  F   UNL A   1      45.051  24.608  36.610  1.00  0.00    -0.200 F 
ATOM     86  C   UNL A   1      46.523  26.371  36.060  1.00  0.00     0.200 A 
ATOM     87  F   UNL A   1      47.954  28.164  35.496  1.00  0.00    -0.200 F 
ATOM     88  F   UNL A   1      47.459  25.863  36.874  1.00  0.00    -0.200 F 
ENDBRANCH  55  78
ENDBRANCH  29  30
ENDBRANCH  22  24
ENDBRANCH  21  22
ENDBRANCH  20  21
ENDBRANCH   1  20
TORSDOF 16
ENDMDL
