MODEL 1
REMARK VINA RESULT:     -12.7      0.000      0.000
REMARK SMILES CC[C@@](C)(NC(=O)Nc1ccccc1C#N)C(=O)OCCOC(=O)c1ccc(-c2c3nc(c(-c4c(F)c(F)c(F)c(F)c4F)c4ccc([nH]4)c(-c4c(F)c(F)c(F)c(F)c4F)c4nc(c(-c5c(F)c(F)c(F)c(F)c5F)c5ccc2[nH]5)C=C4)C=C3)cc1
REMARK SMILES IDX 20 1 19 2 17 3 18 4 3 5 4 6 2 7 1 8 5 9 6 10 7 12 8 13 9 15
REMARK SMILES IDX 10 16 14 17 11 18 13 19 12 20 15 21 16 22 21 23 22 24 23 25
REMARK SMILES IDX 24 26 25 27 26 28 87 29 27 30 86 31 28 32 29 33 30 34 80 35
REMARK SMILES IDX 31 36 85 37 79 38 81 39 32 40 84 41 78 42 77 43 33 45 65 46
REMARK SMILES IDX 45 47 64 48 46 49 49 50 63 51 82 52 47 53 48 54 62 56 83 57
REMARK SMILES IDX 50 58 34 59 35 60 43 61 36 62 37 63 41 64 44 65 38 66 39 67
REMARK SMILES IDX 42 68 40 69 66 70 67 71 75 72 68 73 69 74 73 75 76 76 70 77
REMARK SMILES IDX 71 78 74 79 72 80 51 81 52 82 60 83 53 84 54 85 58 86 61 87
REMARK SMILES IDX 55 88 56 89 59 90 57 91
REMARK H PARENT 5 11 8 14 81 44 49 55
REMARK Flexibility Score: inf
ROOT
ATOM      1  C   UNL A   1      31.037  28.951  24.272  1.00  0.00     0.274 C 
ENDROOT
BRANCH   1   2
ATOM      2  O   UNL A   1      30.685  27.373  24.533  1.00  0.00    -0.460 OA
BRANCH   2   3
ATOM      3  C   UNL A   1      30.879  26.328  25.536  1.00  0.00     0.331 C 
ATOM      4  O   UNL A   1      30.818  26.499  26.755  1.00  0.00    -0.249 OA
BRANCH   3   5
ATOM      5  C   UNL A   1      31.492  24.960  25.029  1.00  0.00     0.136 C 
ATOM      6  C   UNL A   1      32.959  25.024  25.464  1.00  0.00     0.047 C 
BRANCH   5   7
ATOM      7  C   UNL A   1      31.070  23.449  25.161  1.00  0.00     0.037 C 
ATOM      8  C   UNL A   1      30.862  22.782  26.492  1.00  0.00     0.007 C 
ENDBRANCH   5   7
BRANCH   5   9
ATOM      9  N   UNL A   1      31.185  25.216  23.689  1.00  0.00    -0.322 N 
ATOM     10  C   UNL A   1      32.134  24.902  22.796  1.00  0.00     0.320 C 
ATOM     11  H   UNL A   1      30.322  25.605  23.419  1.00  0.00     0.166 HD
ATOM     12  O   UNL A   1      31.980  25.471  21.711  1.00  0.00    -0.248 OA
ATOM     13  N   UNL A   1      33.258  24.084  23.047  1.00  0.00    -0.307 N 
ATOM     14  H   UNL A   1      33.881  24.436  22.371  1.00  0.00     0.171 HD
BRANCH  13  15
ATOM     15  C   UNL A   1      34.117  23.033  23.671  1.00  0.00     0.060 A 
ATOM     16  C   UNL A   1      35.492  23.369  23.482  1.00  0.00     0.027 A 
ATOM     17  C   UNL A   1      33.973  21.729  24.241  1.00  0.00     0.076 A 
ATOM     18  C   UNL A   1      36.585  22.642  23.970  1.00  0.00     0.002 A 
ATOM     19  C   UNL A   1      35.070  21.082  24.881  1.00  0.00     0.021 A 
ATOM     20  C   UNL A   1      36.368  21.535  24.751  1.00  0.00     0.002 A 
BRANCH  17  21
ATOM     21  C   UNL A   1      32.972  20.700  23.990  1.00  0.00     0.101 C 
ATOM     22  N   UNL A   1      32.238  19.871  23.656  1.00  0.00    -0.192 NA
ENDBRANCH  17  21
ENDBRANCH  13  15
ENDBRANCH   5   9
ENDBRANCH   3   5
ENDBRANCH   2   3
ENDBRANCH   1   2
BRANCH   1  23
ATOM     23  C   UNL A   1      31.416  30.295  25.311  1.00  0.00     0.275 C 
BRANCH  23  24
ATOM     24  O   UNL A   1      32.436  30.229  26.452  1.00  0.00    -0.458 OA
BRANCH  24  25
ATOM     25  C   UNL A   1      33.028  31.332  27.072  1.00  0.00     0.338 C 
ATOM     26  O   UNL A   1      32.472  32.407  27.227  1.00  0.00    -0.246 OA
BRANCH  25  27
ATOM     27  C   UNL A   1      34.485  31.071  27.598  1.00  0.00     0.060 A 
ATOM     28  C   UNL A   1      34.972  29.799  27.964  1.00  0.00     0.016 A 
ATOM     29  C   UNL A   1      35.370  32.113  27.879  1.00  0.00     0.016 A 
ATOM     30  C   UNL A   1      36.245  29.521  28.489  1.00  0.00     0.010 A 
ATOM     31  C   UNL A   1      36.657  31.859  28.456  1.00  0.00     0.010 A 
ATOM     32  C   UNL A   1      37.105  30.558  28.782  1.00  0.00    -0.014 A 
BRANCH  32  33
ATOM     33  C   UNL A   1      38.301  30.287  29.645  1.00  0.00     0.031 A 
ATOM     34  C   UNL A   1      39.386  29.397  29.091  1.00  0.00     0.074 A 
ATOM     35  C   UNL A   1      38.519  30.874  30.843  1.00  0.00     0.049 A 
ATOM     36  N   UNL A   1      40.393  28.818  29.695  1.00  0.00    -0.248 NA
ATOM     37  C   UNL A   1      39.316  29.130  27.648  1.00  0.00     0.031 C 
ATOM     38  C   UNL A   1      37.689  31.910  31.455  1.00  0.00     0.029 A 
ATOM     39  N   UNL A   1      39.516  30.661  31.774  1.00  0.00    -0.354 N 
ATOM     40  C   UNL A   1      41.028  28.057  28.720  1.00  0.00     0.074 A 
ATOM     41  C   UNL A   1      40.296  28.254  27.488  1.00  0.00     0.031 C 
ATOM     42  C   UNL A   1      38.184  32.211  32.669  1.00  0.00     0.029 A 
ATOM     43  C   UNL A   1      39.324  31.341  32.956  1.00  0.00     0.049 A 
ATOM     44  H   UNL A   1      40.291  30.077  31.609  1.00  0.00     0.167 HD
ATOM     45  C   UNL A   1      42.112  27.254  28.844  1.00  0.00     0.037 A 
ATOM     46  C   UNL A   1      39.951  31.232  34.147  1.00  0.00     0.037 A 
ATOM     47  C   UNL A   1      42.861  27.087  30.064  1.00  0.00     0.049 A 
ATOM     48  C   UNL A   1      41.074  30.235  34.312  1.00  0.00     0.074 A 
ATOM     49  C   UNL A   1      43.965  26.286  30.297  1.00  0.00     0.029 A 
ATOM     50  N   UNL A   1      42.584  27.738  31.257  1.00  0.00    -0.354 N 
ATOM     51  N   UNL A   1      41.618  29.441  33.421  1.00  0.00    -0.248 NA
ATOM     52  C   UNL A   1      41.665  30.110  35.655  1.00  0.00     0.031 C 
ATOM     53  C   UNL A   1      44.308  26.396  31.648  1.00  0.00     0.029 A 
ATOM     54  C   UNL A   1      43.475  27.331  32.238  1.00  0.00     0.049 A 
ATOM     55  H   UNL A   1      41.860  28.394  31.388  1.00  0.00     0.167 HD
ATOM     56  C   UNL A   1      42.632  28.755  34.081  1.00  0.00     0.074 A 
ATOM     57  C   UNL A   1      42.635  29.231  35.448  1.00  0.00     0.031 C 
ATOM     58  C   UNL A   1      43.484  27.818  33.596  1.00  0.00     0.037 A 
BRANCH  45  59
ATOM     59  C   UNL A   1      42.503  26.429  27.649  1.00  0.00     0.064 A 
ATOM     60  C   UNL A   1      41.923  25.182  27.370  1.00  0.00     0.173 A 
ATOM     61  C   UNL A   1      43.489  26.901  26.768  1.00  0.00     0.173 A 
ATOM     62  F   UNL A   1      40.986  24.675  28.185  1.00  0.00    -0.203 F 
ATOM     63  C   UNL A   1      42.348  24.421  26.283  1.00  0.00     0.198 A 
ATOM     64  C   UNL A   1      43.882  26.156  25.658  1.00  0.00     0.198 A 
ATOM     65  F   UNL A   1      44.074  28.089  26.980  1.00  0.00    -0.203 F 
ATOM     66  F   UNL A   1      41.833  23.200  26.080  1.00  0.00    -0.200 F 
ATOM     67  C   UNL A   1      43.322  24.911  25.426  1.00  0.00     0.200 A 
ATOM     68  F   UNL A   1      44.809  26.642  24.823  1.00  0.00    -0.200 F 
ATOM     69  F   UNL A   1      43.729  24.177  24.381  1.00  0.00    -0.200 F 
ENDBRANCH  45  59
BRANCH  46  70
ATOM     70  C   UNL A   1      39.495  32.042  35.316  1.00  0.00     0.064 A 
ATOM     71  C   UNL A   1      38.596  31.519  36.259  1.00  0.00     0.173 A 
ATOM     72  C   UNL A   1      39.917  33.368  35.496  1.00  0.00     0.173 A 
ATOM     73  F   UNL A   1      38.127  30.271  36.113  1.00  0.00    -0.203 F 
ATOM     74  C   UNL A   1      38.135  32.291  37.325  1.00  0.00     0.198 A 
ATOM     75  C   UNL A   1      39.483  34.128  36.582  1.00  0.00     0.198 A 
ATOM     76  F   UNL A   1      40.761  33.930  34.617  1.00  0.00    -0.203 F 
ATOM     77  F   UNL A   1      37.238  31.780  38.180  1.00  0.00    -0.200 F 
ATOM     78  C   UNL A   1      38.586  33.590  37.492  1.00  0.00     0.200 A 
ATOM     79  F   UNL A   1      39.931  35.380  36.743  1.00  0.00    -0.200 F 
ATOM     80  F   UNL A   1      38.151  34.328  38.522  1.00  0.00    -0.200 F 
ENDBRANCH  46  70
BRANCH  58  81
ATOM     81  C   UNL A   1      44.541  27.282  34.524  1.00  0.00     0.064 A 
ATOM     82  C   UNL A   1      44.357  26.107  35.268  1.00  0.00     0.173 A 
ATOM     83  C   UNL A   1      45.781  27.935  34.633  1.00  0.00     0.173 A 
ATOM     84  F   UNL A   1      43.190  25.447  35.212  1.00  0.00    -0.203 F 
ATOM     85  C   UNL A   1      45.359  25.624  36.108  1.00  0.00     0.198 A 
ATOM     86  C   UNL A   1      46.793  27.429  35.443  1.00  0.00     0.198 A 
ATOM     87  F   UNL A   1      46.017  29.058  33.938  1.00  0.00    -0.203 F 
ATOM     88  F   UNL A   1      45.139  24.531  36.851  1.00  0.00    -0.200 F 
ATOM     89  C   UNL A   1      46.578  26.280  36.188  1.00  0.00     0.200 A 
ATOM     90  F   UNL A   1      47.978  28.054  35.502  1.00  0.00    -0.200 F 
ATOM     91  F   UNL A   1      47.545  25.808  36.987  1.00  0.00    -0.200 F 
ENDBRANCH  58  81
ENDBRANCH  32  33
ENDBRANCH  25  27
ENDBRANCH  24  25
ENDBRANCH  23  24
ENDBRANCH   1  23
TORSDOF 15
ENDMDL
MODEL 2
REMARK VINA RESULT:     -12.7      0.953      2.146
REMARK SMILES CC[C@@](C)(NC(=O)Nc1ccccc1C#N)C(=O)OCCOC(=O)c1ccc(-c2c3nc(c(-c4c(F)c(F)c(F)c(F)c4F)c4ccc([nH]4)c(-c4c(F)c(F)c(F)c(F)c4F)c4nc(c(-c5c(F)c(F)c(F)c(F)c5F)c5ccc2[nH]5)C=C4)C=C3)cc1
REMARK SMILES IDX 20 1 19 2 17 3 18 4 3 5 4 6 2 7 1 8 5 9 6 10 7 12 8 13 9 15
REMARK SMILES IDX 10 16 14 17 11 18 13 19 12 20 15 21 16 22 21 23 22 24 23 25
REMARK SMILES IDX 24 26 25 27 26 28 87 29 27 30 86 31 28 32 29 33 30 34 80 35
REMARK SMILES IDX 31 36 85 37 79 38 81 39 32 40 84 41 78 42 77 43 33 45 65 46
REMARK SMILES IDX 45 47 64 48 46 49 49 50 63 51 82 52 47 53 48 54 62 56 83 57
REMARK SMILES IDX 50 58 34 59 35 60 43 61 36 62 37 63 41 64 44 65 38 66 39 67
REMARK SMILES IDX 42 68 40 69 66 70 67 71 75 72 68 73 69 74 73 75 76 76 70 77
REMARK SMILES IDX 71 78 74 79 72 80 51 81 52 82 60 83 53 84 54 85 58 86 61 87
REMARK SMILES IDX 55 88 56 89 59 90 57 91
REMARK H PARENT 5 11 8 14 81 44 49 55
REMARK Flexibility Score: inf
ROOT
ATOM      1  C   UNL A   1      31.824  28.423  24.437  1.00  0.00     0.274 C 
ENDROOT
BRANCH   1   2
ATOM      2  O   UNL A   1      30.760  27.195  24.227  1.00  0.00    -0.460 OA
BRANCH   2   3
ATOM      3  C   UNL A   1      30.218  26.042  24.942  1.00  0.00     0.331 C 
ATOM      4  O   UNL A   1      29.063  25.952  25.362  1.00  0.00    -0.249 OA
BRANCH   3   5
ATOM      5  C   UNL A   1      31.261  24.972  25.462  1.00  0.00     0.136 C 
ATOM      6  C   UNL A   1      31.377  23.970  24.309  1.00  0.00     0.047 C 
BRANCH   5   7
ATOM      7  C   UNL A   1      32.697  25.055  26.103  1.00  0.00     0.037 C 
ATOM      8  C   UNL A   1      33.904  25.500  25.326  1.00  0.00     0.007 C 
ENDBRANCH   5   7
BRANCH   5   9
ATOM      9  N   UNL A   1      30.484  24.622  26.570  1.00  0.00    -0.322 N 
ATOM     10  C   UNL A   1      30.457  23.319  26.884  1.00  0.00     0.320 C 
ATOM     11  H   UNL A   1      29.985  25.294  27.089  1.00  0.00     0.166 HD
ATOM     12  O   UNL A   1      29.500  23.017  27.603  1.00  0.00    -0.248 OA
ATOM     13  N   UNL A   1      31.352  22.340  26.399  1.00  0.00    -0.307 N 
ATOM     14  H   UNL A   1      30.787  21.537  26.474  1.00  0.00     0.171 HD
BRANCH  13  15
ATOM     15  C   UNL A   1      32.597  21.729  25.844  1.00  0.00     0.060 A 
ATOM     16  C   UNL A   1      33.719  22.148  26.621  1.00  0.00     0.027 A 
ATOM     17  C   UNL A   1      33.010  21.000  24.685  1.00  0.00     0.076 A 
ATOM     18  C   UNL A   1      35.045  21.741  26.428  1.00  0.00     0.002 A 
ATOM     19  C   UNL A   1      34.322  20.452  24.590  1.00  0.00     0.021 A 
ATOM     20  C   UNL A   1      35.335  20.816  25.456  1.00  0.00     0.002 A 
BRANCH  17  21
ATOM     21  C   UNL A   1      32.456  20.987  23.337  1.00  0.00     0.101 C 
ATOM     22  N   UNL A   1      31.912  20.885  22.321  1.00  0.00    -0.192 NA
ENDBRANCH  17  21
ENDBRANCH  13  15
ENDBRANCH   5   9
ENDBRANCH   3   5
ENDBRANCH   2   3
ENDBRANCH   1   2
BRANCH   1  23
ATOM     23  C   UNL A   1      31.776  29.930  25.305  1.00  0.00     0.275 C 
BRANCH  23  24
ATOM     24  O   UNL A   1      32.374  30.129  26.702  1.00  0.00    -0.458 OA
BRANCH  24  25
ATOM     25  C   UNL A   1      33.034  31.279  27.142  1.00  0.00     0.338 C 
ATOM     26  O   UNL A   1      32.534  32.391  27.151  1.00  0.00    -0.246 OA
BRANCH  25  27
ATOM     27  C   UNL A   1      34.492  31.022  27.668  1.00  0.00     0.060 A 
ATOM     28  C   UNL A   1      34.975  29.756  28.061  1.00  0.00     0.016 A 
ATOM     29  C   UNL A   1      35.383  32.066  27.923  1.00  0.00     0.016 A 
ATOM     30  C   UNL A   1      36.248  29.484  28.587  1.00  0.00     0.010 A 
ATOM     31  C   UNL A   1      36.671  31.819  28.501  1.00  0.00     0.010 A 
ATOM     32  C   UNL A   1      37.114  30.523  28.854  1.00  0.00    -0.014 A 
BRANCH  32  33
ATOM     33  C   UNL A   1      38.312  30.266  29.719  1.00  0.00     0.031 A 
ATOM     34  C   UNL A   1      39.402  29.380  29.171  1.00  0.00     0.074 A 
ATOM     35  C   UNL A   1      38.526  30.862  30.913  1.00  0.00     0.049 A 
ATOM     36  N   UNL A   1      40.413  28.812  29.778  1.00  0.00    -0.248 NA
ATOM     37  C   UNL A   1      39.334  29.103  27.729  1.00  0.00     0.031 C 
ATOM     38  C   UNL A   1      37.689  31.896  31.519  1.00  0.00     0.029 A 
ATOM     39  N   UNL A   1      39.524  30.661  31.846  1.00  0.00    -0.354 N 
ATOM     40  C   UNL A   1      41.054  28.048  28.808  1.00  0.00     0.074 A 
ATOM     41  C   UNL A   1      40.320  28.233  27.575  1.00  0.00     0.031 C 
ATOM     42  C   UNL A   1      38.182  32.208  32.731  1.00  0.00     0.029 A 
ATOM     43  C   UNL A   1      39.328  31.347  33.023  1.00  0.00     0.049 A 
ATOM     44  H   UNL A   1      40.303  30.082  31.684  1.00  0.00     0.167 HD
ATOM     45  C   UNL A   1      42.144  27.254  28.937  1.00  0.00     0.037 A 
ATOM     46  C   UNL A   1      39.955  31.250  34.215  1.00  0.00     0.037 A 
ATOM     47  C   UNL A   1      42.893  27.099  30.158  1.00  0.00     0.049 A 
ATOM     48  C   UNL A   1      41.085  30.261  34.386  1.00  0.00     0.074 A 
ATOM     49  C   UNL A   1      44.003  26.307  30.396  1.00  0.00     0.029 A 
ATOM     50  N   UNL A   1      42.612  27.756  31.347  1.00  0.00    -0.354 N 
ATOM     51  N   UNL A   1      41.634  29.466  33.500  1.00  0.00    -0.248 NA
ATOM     52  C   UNL A   1      41.677  30.149  35.730  1.00  0.00     0.031 C 
ATOM     53  C   UNL A   1      44.345  26.428  31.746  1.00  0.00     0.029 A 
ATOM     54  C   UNL A   1      43.505  27.361  32.330  1.00  0.00     0.049 A 
ATOM     55  H   UNL A   1      41.883  28.407  31.474  1.00  0.00     0.167 HD
ATOM     56  C   UNL A   1      42.653  28.791  34.164  1.00  0.00     0.074 A 
ATOM     57  C   UNL A   1      42.653  29.275  35.528  1.00  0.00     0.031 C 
ATOM     58  C   UNL A   1      43.512  27.856  33.685  1.00  0.00     0.037 A 
BRANCH  45  59
ATOM     59  C   UNL A   1      42.540  26.424  27.747  1.00  0.00     0.064 A 
ATOM     60  C   UNL A   1      43.526  26.832  26.837  1.00  0.00     0.173 A 
ATOM     61  C   UNL A   1      41.905  25.193  27.512  1.00  0.00     0.173 A 
ATOM     62  F   UNL A   1      44.156  28.004  27.003  1.00  0.00    -0.203 F 
ATOM     63  C   UNL A   1      43.829  26.062  25.715  1.00  0.00     0.198 A 
ATOM     64  C   UNL A   1      42.239  24.407  26.413  1.00  0.00     0.198 A 
ATOM     65  F   UNL A   1      40.958  24.748  28.353  1.00  0.00    -0.203 F 
ATOM     66  F   UNL A   1      44.721  26.508  24.820  1.00  0.00    -0.200 F 
ATOM     67  C   UNL A   1      43.189  24.849  25.508  1.00  0.00     0.200 A 
ATOM     68  F   UNL A   1      41.633  23.226  26.228  1.00  0.00    -0.200 F 
ATOM     69  F   UNL A   1      43.482  24.110  24.429  1.00  0.00    -0.200 F 
ENDBRANCH  45  59
BRANCH  46  70
ATOM     70  C   UNL A   1      39.493  32.065  35.379  1.00  0.00     0.064 A 
ATOM     71  C   UNL A   1      38.572  31.553  36.306  1.00  0.00     0.173 A 
ATOM     72  C   UNL A   1      39.935  33.383  35.569  1.00  0.00     0.173 A 
ATOM     73  F   UNL A   1      38.085  30.313  36.150  1.00  0.00    -0.203 F 
ATOM     74  C   UNL A   1      38.107  32.329  37.367  1.00  0.00     0.198 A 
ATOM     75  C   UNL A   1      39.495  34.147  36.651  1.00  0.00     0.198 A 
ATOM     76  F   UNL A   1      40.801  33.934  34.705  1.00  0.00    -0.203 F 
ATOM     77  F   UNL A   1      37.188  31.831  38.206  1.00  0.00    -0.200 F 
ATOM     78  C   UNL A   1      38.576  33.621  37.544  1.00  0.00     0.200 A 
ATOM     79  F   UNL A   1      39.961  35.391  36.822  1.00  0.00    -0.200 F 
ATOM     80  F   UNL A   1      38.136  34.364  38.570  1.00  0.00    -0.200 F 
ENDBRANCH  46  70
BRANCH  58  81
ATOM     81  C   UNL A   1      44.572  27.333  34.616  1.00  0.00     0.064 A 
ATOM     82  C   UNL A   1      45.802  27.986  34.791  1.00  0.00     0.173 A 
ATOM     83  C   UNL A   1      44.332  26.180  35.381  1.00  0.00     0.173 A 
ATOM     84  F   UNL A   1      46.091  29.085  34.078  1.00  0.00    -0.203 F 
ATOM     85  C   UNL A   1      46.761  27.487  35.671  1.00  0.00     0.198 A 
ATOM     86  C   UNL A   1      45.277  25.706  36.288  1.00  0.00     0.198 A 
ATOM     87  F   UNL A   1      43.170  25.519  35.263  1.00  0.00    -0.203 F 
ATOM     88  F   UNL A   1      47.949  28.097  35.779  1.00  0.00    -0.200 F 
ATOM     89  C   UNL A   1      46.494  26.354  36.425  1.00  0.00     0.200 A 
ATOM     90  F   UNL A   1      45.007  24.623  37.030  1.00  0.00    -0.200 F 
ATOM     91  F   UNL A   1      47.413  25.883  37.279  1.00  0.00    -0.200 F 
ENDBRANCH  58  81
ENDBRANCH  32  33
ENDBRANCH  25  27
ENDBRANCH  24  25
ENDBRANCH  23  24
ENDBRANCH   1  23
TORSDOF 15
ENDMDL
MODEL 3
REMARK VINA RESULT:     -12.6      4.427      9.783
REMARK SMILES CC[C@@](C)(NC(=O)Nc1ccccc1C#N)C(=O)OCCOC(=O)c1ccc(-c2c3nc(c(-c4c(F)c(F)c(F)c(F)c4F)c4ccc([nH]4)c(-c4c(F)c(F)c(F)c(F)c4F)c4nc(c(-c5c(F)c(F)c(F)c(F)c5F)c5ccc2[nH]5)C=C4)C=C3)cc1
REMARK SMILES IDX 20 1 19 2 17 3 18 4 3 5 4 6 2 7 1 8 5 9 6 10 7 12 8 13 9 15
REMARK SMILES IDX 10 16 14 17 11 18 13 19 12 20 15 21 16 22 21 23 22 24 23 25
REMARK SMILES IDX 24 26 25 27 26 28 87 29 27 30 86 31 28 32 29 33 30 34 80 35
REMARK SMILES IDX 31 36 85 37 79 38 81 39 32 40 84 41 78 42 77 43 33 45 65 46
REMARK SMILES IDX 45 47 64 48 46 49 49 50 63 51 82 52 47 53 48 54 62 56 83 57
REMARK SMILES IDX 50 58 34 59 35 60 43 61 36 62 37 63 41 64 44 65 38 66 39 67
REMARK SMILES IDX 42 68 40 69 66 70 67 71 75 72 68 73 69 74 73 75 76 76 70 77
REMARK SMILES IDX 71 78 74 79 72 80 51 81 52 82 60 83 53 84 54 85 58 86 61 87
REMARK SMILES IDX 55 88 56 89 59 90 57 91
REMARK H PARENT 5 11 8 14 81 44 49 55
REMARK Flexibility Score: inf
ROOT
ATOM      1  C   UNL A   1      34.791  20.572  25.033  1.00  0.00     0.274 C 
ENDROOT
BRANCH   1   2
ATOM      2  O   UNL A   1      33.663  21.759  24.989  1.00  0.00    -0.460 OA
BRANCH   2   3
ATOM      3  C   UNL A   1      32.242  21.969  25.253  1.00  0.00     0.331 C 
ATOM      4  O   UNL A   1      31.411  21.072  25.404  1.00  0.00    -0.249 OA
BRANCH   3   5
ATOM      5  C   UNL A   1      31.688  23.437  25.039  1.00  0.00     0.136 C 
ATOM      6  C   UNL A   1      32.742  24.334  25.695  1.00  0.00     0.047 C 
BRANCH   5   7
ATOM      7  C   UNL A   1      31.155  24.241  23.795  1.00  0.00     0.037 C 
ATOM      8  C   UNL A   1      32.057  24.709  22.688  1.00  0.00     0.007 C 
ENDBRANCH   5   7
BRANCH   5   9
ATOM      9  N   UNL A   1      30.503  23.186  25.736  1.00  0.00    -0.322 N 
ATOM     10  C   UNL A   1      30.070  24.171  26.536  1.00  0.00     0.320 C 
ATOM     11  H   UNL A   1      30.015  22.336  25.643  1.00  0.00     0.166 HD
ATOM     12  O   UNL A   1      29.262  23.780  27.385  1.00  0.00    -0.248 OA
ATOM     13  N   UNL A   1      30.523  25.508  26.510  1.00  0.00    -0.307 N 
ATOM     14  H   UNL A   1      30.336  25.771  27.440  1.00  0.00     0.171 HD
BRANCH  13  15
ATOM     15  C   UNL A   1      31.103  26.783  25.991  1.00  0.00     0.060 A 
ATOM     16  C   UNL A   1      31.756  27.476  27.055  1.00  0.00     0.027 A 
ATOM     17  C   UNL A   1      31.052  27.580  24.805  1.00  0.00     0.076 A 
ATOM     18  C   UNL A   1      32.453  28.685  26.936  1.00  0.00     0.002 A 
ATOM     19  C   UNL A   1      31.898  28.715  24.644  1.00  0.00     0.021 A 
ATOM     20  C   UNL A   1      32.598  29.265  25.700  1.00  0.00     0.002 A 
BRANCH  17  21
ATOM     21  C   UNL A   1      30.005  27.696  23.796  1.00  0.00     0.101 C 
ATOM     22  N   UNL A   1      29.179  27.935  23.024  1.00  0.00    -0.192 NA
ENDBRANCH  17  21
ENDBRANCH  13  15
ENDBRANCH   5   9
ENDBRANCH   3   5
ENDBRANCH   2   3
ENDBRANCH   1   2
BRANCH   1  23
ATOM     23  C   UNL A   1      36.529  20.551  24.949  1.00  0.00     0.275 C 
BRANCH  23  24
ATOM     24  O   UNL A   1      37.427  21.628  25.567  1.00  0.00    -0.458 OA
BRANCH  24  25
ATOM     25  C   UNL A   1      38.758  21.450  25.948  1.00  0.00     0.338 C 
ATOM     26  O   UNL A   1      39.391  20.424  25.759  1.00  0.00    -0.246 OA
BRANCH  25  27
ATOM     27  C   UNL A   1      39.408  22.710  26.625  1.00  0.00     0.060 A 
ATOM     28  C   UNL A   1      39.081  24.040  26.290  1.00  0.00     0.016 A 
ATOM     29  C   UNL A   1      40.474  22.604  27.520  1.00  0.00     0.016 A 
ATOM     30  C   UNL A   1      39.669  25.197  26.825  1.00  0.00     0.010 A 
ATOM     31  C   UNL A   1      41.121  23.769  28.046  1.00  0.00     0.010 A 
ATOM     32  C   UNL A   1      40.735  25.083  27.693  1.00  0.00    -0.014 A 
BRANCH  32  33
ATOM     33  C   UNL A   1      41.565  26.297  27.986  1.00  0.00     0.031 A 
ATOM     34  C   UNL A   1      40.949  27.389  28.824  1.00  0.00     0.074 A 
ATOM     35  C   UNL A   1      42.864  26.427  27.639  1.00  0.00     0.049 A 
ATOM     36  N   UNL A   1      41.344  28.620  29.028  1.00  0.00    -0.248 NA
ATOM     37  C   UNL A   1      39.711  27.030  29.530  1.00  0.00     0.031 C 
ATOM     38  C   UNL A   1      43.691  25.402  27.004  1.00  0.00     0.029 A 
ATOM     39  N   UNL A   1      43.719  27.505  27.763  1.00  0.00    -0.354 N 
ATOM     40  C   UNL A   1      40.361  29.204  29.821  1.00  0.00     0.074 A 
ATOM     41  C   UNL A   1      39.359  28.189  30.064  1.00  0.00     0.031 C 
ATOM     42  C   UNL A   1      44.912  25.909  26.758  1.00  0.00     0.029 A 
ATOM     43  C   UNL A   1      44.938  27.318  27.152  1.00  0.00     0.049 A 
ATOM     44  H   UNL A   1      43.479  28.329  28.244  1.00  0.00     0.167 HD
ATOM     45  C   UNL A   1      40.293  30.473  30.290  1.00  0.00     0.037 A 
ATOM     46  C   UNL A   1      45.932  28.191  26.883  1.00  0.00     0.037 A 
ATOM     47  C   UNL A   1      41.310  31.471  30.076  1.00  0.00     0.049 A 
ATOM     48  C   UNL A   1      45.788  29.638  27.294  1.00  0.00     0.074 A 
ATOM     49  C   UNL A   1      41.329  32.790  30.497  1.00  0.00     0.029 A 
ATOM     50  N   UNL A   1      42.494  31.258  29.385  1.00  0.00    -0.354 N 
ATOM     51  N   UNL A   1      44.818  30.219  27.959  1.00  0.00    -0.248 NA
ATOM     52  C   UNL A   1      46.872  30.555  26.905  1.00  0.00     0.031 C 
ATOM     53  C   UNL A   1      42.487  33.392  29.997  1.00  0.00     0.029 A 
ATOM     54  C   UNL A   1      43.234  32.430  29.339  1.00  0.00     0.049 A 
ATOM     55  H   UNL A   1      42.769  30.400  28.986  1.00  0.00     0.167 HD
ATOM     56  C   UNL A   1      45.191  31.552  28.100  1.00  0.00     0.074 A 
ATOM     57  C   UNL A   1      46.480  31.694  27.458  1.00  0.00     0.031 C 
ATOM     58  C   UNL A   1      44.525  32.565  28.710  1.00  0.00     0.037 A 
BRANCH  45  59
ATOM     59  C   UNL A   1      39.036  30.878  31.010  1.00  0.00     0.064 A 
ATOM     60  C   UNL A   1      38.905  30.799  32.404  1.00  0.00     0.173 A 
ATOM     61  C   UNL A   1      37.934  31.348  30.277  1.00  0.00     0.173 A 
ATOM     62  F   UNL A   1      39.920  30.344  33.153  1.00  0.00    -0.203 F 
ATOM     63  C   UNL A   1      37.706  31.132  33.032  1.00  0.00     0.198 A 
ATOM     64  C   UNL A   1      36.751  31.720  30.911  1.00  0.00     0.198 A 
ATOM     65  F   UNL A   1      38.003  31.452  28.941  1.00  0.00    -0.203 F 
ATOM     66  F   UNL A   1      37.581  30.977  34.357  1.00  0.00    -0.200 F 
ATOM     67  C   UNL A   1      36.634  31.597  32.286  1.00  0.00     0.200 A 
ATOM     68  F   UNL A   1      35.724  32.187  30.188  1.00  0.00    -0.200 F 
ATOM     69  F   UNL A   1      35.482  31.917  32.891  1.00  0.00    -0.200 F 
ENDBRANCH  45  59
BRANCH  46  70
ATOM     70  C   UNL A   1      47.142  27.748  26.126  1.00  0.00     0.064 A 
ATOM     71  C   UNL A   1      47.163  27.752  24.723  1.00  0.00     0.173 A 
ATOM     72  C   UNL A   1      48.286  27.277  26.786  1.00  0.00     0.173 A 
ATOM     73  F   UNL A   1      46.081  28.154  24.039  1.00  0.00    -0.203 F 
ATOM     74  C   UNL A   1      48.275  27.296  24.015  1.00  0.00     0.198 A 
ATOM     75  C   UNL A   1      49.411  26.853  26.078  1.00  0.00     0.198 A 
ATOM     76  F   UNL A   1      48.318  27.230  28.127  1.00  0.00    -0.203 F 
ATOM     77  F   UNL A   1      48.246  27.264  22.675  1.00  0.00    -0.200 F 
ATOM     78  C   UNL A   1      49.401  26.857  24.693  1.00  0.00     0.200 A 
ATOM     79  F   UNL A   1      50.499  26.440  26.740  1.00  0.00    -0.200 F 
ATOM     80  F   UNL A   1      50.473  26.428  24.012  1.00  0.00    -0.200 F 
ENDBRANCH  46  70
BRANCH  58  81
ATOM     81  C   UNL A   1      45.198  33.909  28.776  1.00  0.00     0.064 A 
ATOM     82  C   UNL A   1      44.965  34.910  27.820  1.00  0.00     0.173 A 
ATOM     83  C   UNL A   1      46.057  34.216  29.844  1.00  0.00     0.173 A 
ATOM     84  F   UNL A   1      44.162  34.669  26.772  1.00  0.00    -0.203 F 
ATOM     85  C   UNL A   1      45.589  36.152  27.914  1.00  0.00     0.198 A 
ATOM     86  C   UNL A   1      46.650  35.471  29.955  1.00  0.00     0.198 A 
ATOM     87  F   UNL A   1      46.311  33.302  30.793  1.00  0.00    -0.203 F 
ATOM     88  F   UNL A   1      45.395  37.071  26.958  1.00  0.00    -0.200 F 
ATOM     89  C   UNL A   1      46.423  36.434  28.985  1.00  0.00     0.200 A 
ATOM     90  F   UNL A   1      47.439  35.748  31.003  1.00  0.00    -0.200 F 
ATOM     91  F   UNL A   1      47.014  37.633  29.079  1.00  0.00    -0.200 F 
ENDBRANCH  58  81
ENDBRANCH  32  33
ENDBRANCH  25  27
ENDBRANCH  24  25
ENDBRANCH  23  24
ENDBRANCH   1  23
TORSDOF 15
ENDMDL
