MODEL 1
REMARK VINA RESULT:     -12.2      0.000      0.000
REMARK SMILES C[C@@H](C(=O)OCCOC(=O)c1ccc(-c2c3nc(c(-c4c(F)c(F)c(F)c(F)c4F)c4ccc([nH]4)c(-c4c(F)c(F)c(F)c(F)c4F)c4nc(c(-c5c(F)c(F)c(F)c(F)c5F)c5ccc2[nH]5)C=C4)C=C3)cc1)c1cccc(C(=O)c2ccccc2)c1
REMARK SMILES IDX 6 1 5 2 3 3 4 4 2 5 1 6 74 7 75 8 87 9 76 10 78 11 77 12
REMARK SMILES IDX 79 13 80 14 81 15 82 16 86 17 83 18 85 19 84 20 7 21 8 22
REMARK SMILES IDX 9 23 10 24 11 25 12 26 73 27 13 28 72 29 14 30 15 31 16 32
REMARK SMILES IDX 66 33 17 34 71 35 65 36 67 37 18 38 70 39 64 40 63 41 19 43
REMARK SMILES IDX 51 44 31 45 50 46 32 47 35 48 49 49 68 50 33 51 34 52 48 54
REMARK SMILES IDX 69 55 36 56 20 57 21 58 29 59 22 60 23 61 27 62 30 63 24 64
REMARK SMILES IDX 25 65 28 66 26 67 52 68 53 69 61 70 54 71 55 72 59 73 62 74
REMARK SMILES IDX 56 75 57 76 60 77 58 78 37 79 38 80 46 81 39 82 40 83 44 84
REMARK SMILES IDX 47 85 41 86 42 87 45 88 43 89
REMARK H PARENT 67 42 35 53
REMARK Flexibility Score: inf
ROOT
ATOM      1  C   UNL A   1      31.425  30.801  26.403  1.00  0.00     0.274 C 
ENDROOT
BRANCH   1   2
ATOM      2  O   UNL A   1      32.317  29.900  27.090  1.00  0.00    -0.462 OA
BRANCH   2   3
ATOM      3  C   UNL A   1      31.915  28.604  27.185  1.00  0.00     0.313 C 
ATOM      4  O   UNL A   1      31.028  28.241  27.952  1.00  0.00    -0.252 OA
BRANCH   3   5
ATOM      5  C   UNL A   1      32.699  27.638  26.263  1.00  0.00     0.126 C 
ATOM      6  C   UNL A   1      34.199  27.977  26.250  1.00  0.00     0.025 C 
BRANCH   5   7
ATOM      7  C   UNL A   1      32.088  27.504  24.855  1.00  0.00    -0.033 A 
ATOM      8  C   UNL A   1      32.814  27.041  23.744  1.00  0.00     0.004 A 
ATOM      9  C   UNL A   1      30.739  27.828  24.633  1.00  0.00     0.016 A 
ATOM     10  C   UNL A   1      32.243  26.999  22.462  1.00  0.00     0.001 A 
ATOM     11  C   UNL A   1      30.200  27.909  23.344  1.00  0.00     0.023 A 
ATOM     12  C   UNL A   1      30.944  27.460  22.255  1.00  0.00     0.012 A 
BRANCH  11  13
ATOM     13  C   UNL A   1      28.864  28.520  23.127  1.00  0.00     0.193 C 
ATOM     14  O   UNL A   1      27.862  27.831  23.302  1.00  0.00    -0.289 OA
BRANCH  13  15
ATOM     15  C   UNL A   1      28.720  29.930  22.626  1.00  0.00     0.022 A 
ATOM     16  C   UNL A   1      28.989  30.983  23.508  1.00  0.00     0.012 A 
ATOM     17  C   UNL A   1      28.225  30.237  21.350  1.00  0.00     0.012 A 
ATOM     18  C   UNL A   1      28.776  32.310  23.117  1.00  0.00     0.001 A 
ATOM     19  C   UNL A   1      28.029  31.562  20.953  1.00  0.00     0.001 A 
ATOM     20  C   UNL A   1      28.301  32.598  21.839  1.00  0.00     0.000 A 
ENDBRANCH  13  15
ENDBRANCH  11  13
ENDBRANCH   5   7
ENDBRANCH   3   5
ENDBRANCH   2   3
ENDBRANCH   1   2
BRANCH   1  21
ATOM     21  C   UNL A   1      31.631  32.235  26.889  1.00  0.00     0.275 C 
BRANCH  21  22
ATOM     22  O   UNL A   1      33.013  32.636  26.808  1.00  0.00    -0.458 OA
BRANCH  22  23
ATOM     23  C   UNL A   1      33.454  33.376  27.857  1.00  0.00     0.338 C 
ATOM     24  O   UNL A   1      32.885  34.322  28.376  1.00  0.00    -0.246 OA
BRANCH  23  25
ATOM     25  C   UNL A   1      34.715  32.817  28.391  1.00  0.00     0.060 A 
ATOM     26  C   UNL A   1      34.664  31.546  28.970  1.00  0.00     0.016 A 
ATOM     27  C   UNL A   1      35.926  33.518  28.356  1.00  0.00     0.016 A 
ATOM     28  C   UNL A   1      35.820  30.964  29.488  1.00  0.00     0.010 A 
ATOM     29  C   UNL A   1      37.083  32.942  28.901  1.00  0.00     0.010 A 
ATOM     30  C   UNL A   1      37.037  31.662  29.472  1.00  0.00    -0.014 A 
BRANCH  30  31
ATOM     31  C   UNL A   1      38.215  31.051  30.142  1.00  0.00     0.031 A 
ATOM     32  C   UNL A   1      38.447  31.310  31.599  1.00  0.00     0.074 A 
ATOM     33  C   UNL A   1      39.019  30.194  29.489  1.00  0.00     0.049 A 
ATOM     34  N   UNL A   1      39.337  30.786  32.402  1.00  0.00    -0.248 NA
ATOM     35  C   UNL A   1      37.556  32.290  32.235  1.00  0.00     0.031 C 
ATOM     36  C   UNL A   1      38.880  29.836  28.087  1.00  0.00     0.029 A 
ATOM     37  N   UNL A   1      40.074  29.430  29.924  1.00  0.00    -0.354 N 
ATOM     38  C   UNL A   1      39.122  31.379  33.635  1.00  0.00     0.074 A 
ATOM     39  C   UNL A   1      38.006  32.290  33.481  1.00  0.00     0.031 C 
ATOM     40  C   UNL A   1      39.749  28.857  27.789  1.00  0.00     0.029 A 
ATOM     41  C   UNL A   1      40.551  28.560  28.971  1.00  0.00     0.049 A 
ATOM     42  H   UNL A   1      40.453  29.497  30.831  1.00  0.00     0.167 HD
ATOM     43  C   UNL A   1      39.814  31.204  34.785  1.00  0.00     0.037 A 
ATOM     44  C   UNL A   1      41.521  27.627  29.047  1.00  0.00     0.037 A 
ATOM     45  C   UNL A   1      40.954  30.340  34.934  1.00  0.00     0.049 A 
ATOM     46  C   UNL A   1      42.292  27.475  30.332  1.00  0.00     0.074 A 
ATOM     47  C   UNL A   1      41.757  30.154  36.045  1.00  0.00     0.029 A 
ATOM     48  N   UNL A   1      41.461  29.526  33.932  1.00  0.00    -0.354 N 
ATOM     49  N   UNL A   1      42.094  28.053  31.491  1.00  0.00    -0.248 NA
ATOM     50  C   UNL A   1      43.446  26.563  30.307  1.00  0.00     0.031 C 
ATOM     51  C   UNL A   1      42.777  29.258  35.704  1.00  0.00     0.029 A 
ATOM     52  C   UNL A   1      42.583  28.853  34.392  1.00  0.00     0.049 A 
ATOM     53  H   UNL A   1      41.081  29.438  33.028  1.00  0.00     0.167 HD
ATOM     54  C   UNL A   1      43.096  27.583  32.328  1.00  0.00     0.074 A 
ATOM     55  C   UNL A   1      43.878  26.640  31.558  1.00  0.00     0.031 C 
ATOM     56  C   UNL A   1      43.357  27.922  33.614  1.00  0.00     0.037 A 
BRANCH  43  57
ATOM     57  C   UNL A   1      39.395  32.045  35.950  1.00  0.00     0.064 A 
ATOM     58  C   UNL A   1      38.393  31.627  36.837  1.00  0.00     0.173 A 
ATOM     59  C   UNL A   1      39.987  33.299  36.158  1.00  0.00     0.173 A 
ATOM     60  F   UNL A   1      37.780  30.448  36.659  1.00  0.00    -0.203 F 
ATOM     61  C   UNL A   1      37.983  32.450  37.882  1.00  0.00     0.198 A 
ATOM     62  C   UNL A   1      39.588  34.109  37.215  1.00  0.00     0.198 A 
ATOM     63  F   UNL A   1      40.943  33.741  35.328  1.00  0.00    -0.203 F 
ATOM     64  F   UNL A   1      36.989  32.057  38.691  1.00  0.00    -0.200 F 
ATOM     65  C   UNL A   1      38.581  33.689  38.071  1.00  0.00     0.200 A 
ATOM     66  F   UNL A   1      40.165  35.304  37.395  1.00  0.00    -0.200 F 
ATOM     67  F   UNL A   1      38.176  34.484  39.071  1.00  0.00    -0.200 F 
ENDBRANCH  43  57
BRANCH  44  68
ATOM     68  C   UNL A   1      41.833  26.759  27.880  1.00  0.00     0.064 A 
ATOM     69  C   UNL A   1      41.166  25.537  27.701  1.00  0.00     0.173 A 
ATOM     70  C   UNL A   1      42.824  27.101  26.951  1.00  0.00     0.173 A 
ATOM     71  F   UNL A   1      40.238  25.145  28.586  1.00  0.00    -0.203 F 
ATOM     72  C   UNL A   1      41.492  24.685  26.647  1.00  0.00     0.198 A 
ATOM     73  C   UNL A   1      43.131  26.260  25.881  1.00  0.00     0.198 A 
ATOM     74  F   UNL A   1      43.507  28.247  27.085  1.00  0.00    -0.203 F 
ATOM     75  F   UNL A   1      40.884  23.497  26.536  1.00  0.00    -0.200 F 
ATOM     76  C   UNL A   1      42.470  25.050  25.735  1.00  0.00     0.200 A 
ATOM     77  F   UNL A   1      44.079  26.616  25.003  1.00  0.00    -0.200 F 
ATOM     78  F   UNL A   1      42.795  24.226  24.730  1.00  0.00    -0.200 F 
ENDBRANCH  44  68
BRANCH  56  79
ATOM     79  C   UNL A   1      44.548  27.283  34.265  1.00  0.00     0.064 A 
ATOM     80  C   UNL A   1      45.808  27.899  34.242  1.00  0.00     0.173 A 
ATOM     81  C   UNL A   1      44.419  26.071  34.959  1.00  0.00     0.173 A 
ATOM     82  F   UNL A   1      45.983  29.052  33.579  1.00  0.00    -0.203 F 
ATOM     83  C   UNL A   1      46.901  27.315  34.876  1.00  0.00     0.198 A 
ATOM     84  C   UNL A   1      45.510  25.501  35.611  1.00  0.00     0.198 A 
ATOM     85  F   UNL A   1      43.234  25.445  35.014  1.00  0.00    -0.203 F 
ATOM     86  F   UNL A   1      48.104  27.903  34.811  1.00  0.00    -0.200 F 
ATOM     87  C   UNL A   1      46.751  26.121  35.565  1.00  0.00     0.200 A 
ATOM     88  F   UNL A   1      45.361  24.353  36.286  1.00  0.00    -0.200 F 
ATOM     89  F   UNL A   1      47.802  25.565  36.182  1.00  0.00    -0.200 F 
ENDBRANCH  56  79
ENDBRANCH  30  31
ENDBRANCH  23  25
ENDBRANCH  22  23
ENDBRANCH  21  22
ENDBRANCH   1  21
TORSDOF 14
ENDMDL
MODEL 2
REMARK VINA RESULT:     -12.0      3.820      6.718
REMARK SMILES C[C@@H](C(=O)OCCOC(=O)c1ccc(-c2c3nc(c(-c4c(F)c(F)c(F)c(F)c4F)c4ccc([nH]4)c(-c4c(F)c(F)c(F)c(F)c4F)c4nc(c(-c5c(F)c(F)c(F)c(F)c5F)c5ccc2[nH]5)C=C4)C=C3)cc1)c1cccc(C(=O)c2ccccc2)c1
REMARK SMILES IDX 6 1 5 2 3 3 4 4 2 5 1 6 74 7 75 8 87 9 76 10 78 11 77 12
REMARK SMILES IDX 79 13 80 14 81 15 82 16 86 17 83 18 85 19 84 20 7 21 8 22
REMARK SMILES IDX 9 23 10 24 11 25 12 26 73 27 13 28 72 29 14 30 15 31 16 32
REMARK SMILES IDX 66 33 17 34 71 35 65 36 67 37 18 38 70 39 64 40 63 41 19 43
REMARK SMILES IDX 51 44 31 45 50 46 32 47 35 48 49 49 68 50 33 51 34 52 48 54
REMARK SMILES IDX 69 55 36 56 20 57 21 58 29 59 22 60 23 61 27 62 30 63 24 64
REMARK SMILES IDX 25 65 28 66 26 67 52 68 53 69 61 70 54 71 55 72 59 73 62 74
REMARK SMILES IDX 56 75 57 76 60 77 58 78 37 79 38 80 46 81 39 82 40 83 44 84
REMARK SMILES IDX 47 85 41 86 42 87 45 88 43 89
REMARK H PARENT 67 42 35 53
REMARK Flexibility Score: inf
ROOT
ATOM      1  C   UNL A   1      33.499  34.973  28.851  1.00  0.00     0.274 C 
ENDROOT
BRANCH   1   2
ATOM      2  O   UNL A   1      32.747  34.934  30.080  1.00  0.00    -0.462 OA
BRANCH   2   3
ATOM      3  C   UNL A   1      32.930  35.975  30.937  1.00  0.00     0.313 C 
ATOM      4  O   UNL A   1      32.816  37.146  30.589  1.00  0.00    -0.252 OA
BRANCH   3   5
ATOM      5  C   UNL A   1      33.322  35.541  32.371  1.00  0.00     0.126 C 
ATOM      6  C   UNL A   1      33.554  36.761  33.277  1.00  0.00     0.025 C 
BRANCH   5   7
ATOM      7  C   UNL A   1      34.475  34.520  32.409  1.00  0.00    -0.033 A 
ATOM      8  C   UNL A   1      34.273  33.131  32.330  1.00  0.00     0.004 A 
ATOM      9  C   UNL A   1      35.807  34.957  32.502  1.00  0.00     0.016 A 
ATOM     10  C   UNL A   1      35.343  32.228  32.439  1.00  0.00     0.001 A 
ATOM     11  C   UNL A   1      36.862  34.068  32.737  1.00  0.00     0.023 A 
ATOM     12  C   UNL A   1      36.635  32.695  32.671  1.00  0.00     0.012 A 
BRANCH  11  13
ATOM     13  C   UNL A   1      38.206  34.581  33.108  1.00  0.00     0.193 C 
ATOM     14  O   UNL A   1      38.370  35.054  34.230  1.00  0.00    -0.289 OA
BRANCH  13  15
ATOM     15  C   UNL A   1      39.336  34.602  32.117  1.00  0.00     0.022 A 
ATOM     16  C   UNL A   1      39.032  34.514  30.754  1.00  0.00     0.012 A 
ATOM     17  C   UNL A   1      40.685  34.598  32.502  1.00  0.00     0.012 A 
ATOM     18  C   UNL A   1      40.053  34.432  29.801  1.00  0.00     0.001 A 
ATOM     19  C   UNL A   1      41.706  34.535  31.550  1.00  0.00     0.001 A 
ATOM     20  C   UNL A   1      41.388  34.448  30.200  1.00  0.00     0.000 A 
ENDBRANCH  13  15
ENDBRANCH  11  13
ENDBRANCH   5   7
ENDBRANCH   3   5
ENDBRANCH   2   3
ENDBRANCH   1   2
BRANCH   1  21
ATOM     21  C   UNL A   1      33.609  33.575  28.242  1.00  0.00     0.275 C 
BRANCH  21  22
ATOM     22  O   UNL A   1      34.465  32.716  29.022  1.00  0.00    -0.458 OA
BRANCH  22  23
ATOM     23  C   UNL A   1      34.640  31.471  28.511  1.00  0.00     0.338 C 
ATOM     24  O   UNL A   1      33.852  30.846  27.820  1.00  0.00    -0.246 OA
BRANCH  23  25
ATOM     25  C   UNL A   1      35.998  30.972  28.817  1.00  0.00     0.060 A 
ATOM     26  C   UNL A   1      36.106  29.690  29.364  1.00  0.00     0.016 A 
ATOM     27  C   UNL A   1      37.150  31.738  28.604  1.00  0.00     0.016 A 
ATOM     28  C   UNL A   1      37.360  29.163  29.671  1.00  0.00     0.010 A 
ATOM     29  C   UNL A   1      38.408  31.216  28.938  1.00  0.00     0.010 A 
ATOM     30  C   UNL A   1      38.521  29.925  29.475  1.00  0.00    -0.014 A 
BRANCH  30  31
ATOM     31  C   UNL A   1      39.822  29.367  29.928  1.00  0.00     0.031 A 
ATOM     32  C   UNL A   1      40.451  29.895  31.180  1.00  0.00     0.074 A 
ATOM     33  C   UNL A   1      40.394  28.331  29.289  1.00  0.00     0.049 A 
ATOM     34  N   UNL A   1      41.514  29.473  31.815  1.00  0.00    -0.248 NA
ATOM     35  C   UNL A   1      39.794  31.054  31.800  1.00  0.00     0.031 C 
ATOM     36  C   UNL A   1      39.867  27.710  28.085  1.00  0.00     0.029 A 
ATOM     37  N   UNL A   1      41.509  27.587  29.587  1.00  0.00    -0.354 N 
ATOM     38  C   UNL A   1      41.661  30.319  32.902  1.00  0.00     0.074 A 
ATOM     39  C   UNL A   1      40.569  31.269  32.852  1.00  0.00     0.031 C 
ATOM     40  C   UNL A   1      40.596  26.623  27.790  1.00  0.00     0.029 A 
ATOM     41  C   UNL A   1      41.685  26.505  28.755  1.00  0.00     0.049 A 
ATOM     42  H   UNL A   1      42.124  27.805  30.325  1.00  0.00     0.167 HD
ATOM     43  C   UNL A   1      42.638  30.324  33.839  1.00  0.00     0.037 A 
ATOM     44  C   UNL A   1      42.614  25.530  28.773  1.00  0.00     0.037 A 
ATOM     45  C   UNL A   1      43.753  29.416  33.867  1.00  0.00     0.049 A 
ATOM     46  C   UNL A   1      43.705  25.578  29.811  1.00  0.00     0.074 A 
ATOM     47  C   UNL A   1      44.826  29.393  34.741  1.00  0.00     0.029 A 
ATOM     48  N   UNL A   1      43.945  28.377  32.969  1.00  0.00    -0.354 N 
ATOM     49  N   UNL A   1      43.847  26.393  30.827  1.00  0.00    -0.248 NA
ATOM     50  C   UNL A   1      44.785  24.587  29.683  1.00  0.00     0.031 C 
ATOM     51  C   UNL A   1      45.690  28.365  34.346  1.00  0.00     0.029 A 
ATOM     52  C   UNL A   1      45.133  27.720  33.253  1.00  0.00     0.049 A 
ATOM     53  H   UNL A   1      43.329  28.139  32.238  1.00  0.00     0.167 HD
ATOM     54  C   UNL A   1      45.028  26.021  31.454  1.00  0.00     0.074 A 
ATOM     55  C   UNL A   1      45.545  24.879  30.729  1.00  0.00     0.031 C 
ATOM     56  C   UNL A   1      45.641  26.590  32.519  1.00  0.00     0.037 A 
BRANCH  43  57
ATOM     57  C   UNL A   1      42.576  31.415  34.861  1.00  0.00     0.064 A 
ATOM     58  C   UNL A   1      41.902  31.246  36.078  1.00  0.00     0.173 A 
ATOM     59  C   UNL A   1      43.175  32.655  34.599  1.00  0.00     0.173 A 
ATOM     60  F   UNL A   1      41.289  30.085  36.357  1.00  0.00    -0.203 F 
ATOM     61  C   UNL A   1      41.812  32.293  36.990  1.00  0.00     0.198 A 
ATOM     62  C   UNL A   1      43.100  33.692  35.522  1.00  0.00     0.198 A 
ATOM     63  F   UNL A   1      43.822  32.862  33.443  1.00  0.00    -0.203 F 
ATOM     64  F   UNL A   1      41.121  32.131  38.128  1.00  0.00    -0.200 F 
ATOM     65  C   UNL A   1      42.412  33.514  36.713  1.00  0.00     0.200 A 
ATOM     66  F   UNL A   1      43.678  34.870  35.252  1.00  0.00    -0.200 F 
ATOM     67  F   UNL A   1      42.313  34.524  37.588  1.00  0.00    -0.200 F 
ENDBRANCH  43  57
BRANCH  44  68
ATOM     68  C   UNL A   1      42.572  24.421  27.783  1.00  0.00     0.064 A 
ATOM     69  C   UNL A   1      42.094  23.153  28.151  1.00  0.00     0.173 A 
ATOM     70  C   UNL A   1      43.044  24.582  26.474  1.00  0.00     0.173 A 
ATOM     71  F   UNL A   1      41.670  22.936  29.405  1.00  0.00    -0.203 F 
ATOM     72  C   UNL A   1      42.107  22.089  27.252  1.00  0.00     0.198 A 
ATOM     73  C   UNL A   1      43.032  23.524  25.567  1.00  0.00     0.198 A 
ATOM     74  F   UNL A   1      43.531  25.767  26.075  1.00  0.00    -0.203 F 
ATOM     75  F   UNL A   1      41.704  20.874  27.648  1.00  0.00    -0.200 F 
ATOM     76  C   UNL A   1      42.571  22.276  25.959  1.00  0.00     0.200 A 
ATOM     77  F   UNL A   1      43.483  23.709  24.318  1.00  0.00    -0.200 F 
ATOM     78  F   UNL A   1      42.597  21.250  25.098  1.00  0.00    -0.200 F 
ENDBRANCH  44  68
BRANCH  56  79
ATOM     79  C   UNL A   1      46.948  25.999  32.958  1.00  0.00     0.064 A 
ATOM     80  C   UNL A   1      46.998  24.962  33.902  1.00  0.00     0.173 A 
ATOM     81  C   UNL A   1      48.155  26.438  32.396  1.00  0.00     0.173 A 
ATOM     82  F   UNL A   1      45.871  24.518  34.477  1.00  0.00    -0.203 F 
ATOM     83  C   UNL A   1      48.213  24.398  34.279  1.00  0.00     0.198 A 
ATOM     84  C   UNL A   1      49.367  25.855  32.760  1.00  0.00     0.198 A 
ATOM     85  F   UNL A   1      48.160  27.424  31.486  1.00  0.00    -0.203 F 
ATOM     86  F   UNL A   1      48.241  23.432  35.209  1.00  0.00    -0.200 F 
ATOM     87  C   UNL A   1      49.395  24.839  33.704  1.00  0.00     0.200 A 
ATOM     88  F   UNL A   1      50.508  26.275  32.196  1.00  0.00    -0.200 F 
ATOM     89  F   UNL A   1      50.563  24.288  34.063  1.00  0.00    -0.200 F 
ENDBRANCH  56  79
ENDBRANCH  30  31
ENDBRANCH  23  25
ENDBRANCH  22  23
ENDBRANCH  21  22
ENDBRANCH   1  21
TORSDOF 14
ENDMDL
MODEL 3
REMARK VINA RESULT:     -12.0      1.729      3.496
REMARK SMILES C[C@@H](C(=O)OCCOC(=O)c1ccc(-c2c3nc(c(-c4c(F)c(F)c(F)c(F)c4F)c4ccc([nH]4)c(-c4c(F)c(F)c(F)c(F)c4F)c4nc(c(-c5c(F)c(F)c(F)c(F)c5F)c5ccc2[nH]5)C=C4)C=C3)cc1)c1cccc(C(=O)c2ccccc2)c1
REMARK SMILES IDX 6 1 5 2 3 3 4 4 2 5 1 6 74 7 75 8 87 9 76 10 78 11 77 12
REMARK SMILES IDX 79 13 80 14 81 15 82 16 86 17 83 18 85 19 84 20 7 21 8 22
REMARK SMILES IDX 9 23 10 24 11 25 12 26 73 27 13 28 72 29 14 30 15 31 16 32
REMARK SMILES IDX 66 33 17 34 71 35 65 36 67 37 18 38 70 39 64 40 63 41 19 43
REMARK SMILES IDX 51 44 31 45 50 46 32 47 35 48 49 49 68 50 33 51 34 52 48 54
REMARK SMILES IDX 69 55 36 56 20 57 21 58 29 59 22 60 23 61 27 62 30 63 24 64
REMARK SMILES IDX 25 65 28 66 26 67 52 68 53 69 61 70 54 71 55 72 59 73 62 74
REMARK SMILES IDX 56 75 57 76 60 77 58 78 37 79 38 80 46 81 39 82 40 83 44 84
REMARK SMILES IDX 47 85 41 86 42 87 45 88 43 89
REMARK H PARENT 67 42 35 53
REMARK Flexibility Score: inf
ROOT
ATOM      1  C   UNL A   1      31.504  31.115  26.481  1.00  0.00     0.274 C 
ENDROOT
BRANCH   1   2
ATOM      2  O   UNL A   1      32.600  30.366  27.044  1.00  0.00    -0.462 OA
BRANCH   2   3
ATOM      3  C   UNL A   1      32.445  29.015  27.101  1.00  0.00     0.313 C 
ATOM      4  O   UNL A   1      31.406  28.484  27.479  1.00  0.00    -0.252 OA
BRANCH   3   5
ATOM      5  C   UNL A   1      33.707  28.224  26.676  1.00  0.00     0.126 C 
ATOM      6  C   UNL A   1      34.991  28.990  27.036  1.00  0.00     0.025 C 
BRANCH   5   7
ATOM      7  C   UNL A   1      33.667  27.748  25.211  1.00  0.00    -0.033 A 
ATOM      8  C   UNL A   1      33.458  28.618  24.127  1.00  0.00     0.004 A 
ATOM      9  C   UNL A   1      33.866  26.392  24.900  1.00  0.00     0.016 A 
ATOM     10  C   UNL A   1      33.358  28.137  22.812  1.00  0.00     0.001 A 
ATOM     11  C   UNL A   1      33.644  25.889  23.614  1.00  0.00     0.023 A 
ATOM     12  C   UNL A   1      33.422  26.768  22.557  1.00  0.00     0.012 A 
BRANCH  11  13
ATOM     13  C   UNL A   1      33.591  24.422  23.382  1.00  0.00     0.193 C 
ATOM     14  O   UNL A   1      32.692  23.966  22.680  1.00  0.00    -0.289 OA
BRANCH  13  15
ATOM     15  C   UNL A   1      34.561  23.488  24.049  1.00  0.00     0.022 A 
ATOM     16  C   UNL A   1      35.763  23.195  23.395  1.00  0.00     0.012 A 
ATOM     17  C   UNL A   1      34.269  22.815  25.245  1.00  0.00     0.012 A 
ATOM     18  C   UNL A   1      36.653  22.257  23.930  1.00  0.00     0.001 A 
ATOM     19  C   UNL A   1      35.166  21.892  25.789  1.00  0.00     0.001 A 
ATOM     20  C   UNL A   1      36.356  21.610  25.128  1.00  0.00     0.000 A 
ENDBRANCH  13  15
ENDBRANCH  11  13
ENDBRANCH   5   7
ENDBRANCH   3   5
ENDBRANCH   2   3
ENDBRANCH   1   2
BRANCH   1  21
ATOM     21  C   UNL A   1      31.599  32.588  26.880  1.00  0.00     0.275 C 
BRANCH  21  22
ATOM     22  O   UNL A   1      32.961  33.060  26.867  1.00  0.00    -0.458 OA
BRANCH  22  23
ATOM     23  C   UNL A   1      33.354  33.695  28.000  1.00  0.00     0.338 C 
ATOM     24  O   UNL A   1      32.753  34.577  28.591  1.00  0.00    -0.246 OA
BRANCH  23  25
ATOM     25  C   UNL A   1      34.604  33.099  28.520  1.00  0.00     0.060 A 
ATOM     26  C   UNL A   1      34.496  31.926  29.271  1.00  0.00     0.016 A 
ATOM     27  C   UNL A   1      35.861  33.678  28.306  1.00  0.00     0.016 A 
ATOM     28  C   UNL A   1      35.640  31.316  29.786  1.00  0.00     0.010 A 
ATOM     29  C   UNL A   1      37.007  33.076  28.847  1.00  0.00     0.010 A 
ATOM     30  C   UNL A   1      36.904  31.892  29.591  1.00  0.00    -0.014 A 
BRANCH  30  31
ATOM     31  C   UNL A   1      38.078  31.271  30.258  1.00  0.00     0.031 A 
ATOM     32  C   UNL A   1      38.307  31.515  31.718  1.00  0.00     0.074 A 
ATOM     33  C   UNL A   1      38.880  30.417  29.599  1.00  0.00     0.049 A 
ATOM     34  N   UNL A   1      39.193  30.980  32.518  1.00  0.00    -0.248 NA
ATOM     35  C   UNL A   1      37.418  32.491  32.362  1.00  0.00     0.031 C 
ATOM     36  C   UNL A   1      38.744  30.073  28.193  1.00  0.00     0.029 A 
ATOM     37  N   UNL A   1      39.932  29.645  30.030  1.00  0.00    -0.354 N 
ATOM     38  C   UNL A   1      38.978  31.562  33.756  1.00  0.00     0.074 A 
ATOM     39  C   UNL A   1      37.865  32.478  33.609  1.00  0.00     0.031 C 
ATOM     40  C   UNL A   1      39.610  29.094  27.888  1.00  0.00     0.029 A 
ATOM     41  C   UNL A   1      40.409  28.782  29.070  1.00  0.00     0.049 A 
ATOM     42  H   UNL A   1      40.308  29.703  30.938  1.00  0.00     0.167 HD
ATOM     43  C   UNL A   1      39.666  31.373  34.907  1.00  0.00     0.037 A 
ATOM     44  C   UNL A   1      41.375  27.846  29.138  1.00  0.00     0.037 A 
ATOM     45  C   UNL A   1      40.802  30.504  35.050  1.00  0.00     0.049 A 
ATOM     46  C   UNL A   1      42.142  27.679  30.423  1.00  0.00     0.074 A 
ATOM     47  C   UNL A   1      41.602  30.305  36.161  1.00  0.00     0.029 A 
ATOM     48  N   UNL A   1      41.309  29.698  34.042  1.00  0.00    -0.354 N 
ATOM     49  N   UNL A   1      41.943  28.246  31.587  1.00  0.00    -0.248 NA
ATOM     50  C   UNL A   1      43.293  26.763  30.392  1.00  0.00     0.031 C 
ATOM     51  C   UNL A   1      42.620  29.408  35.813  1.00  0.00     0.029 A 
ATOM     52  C   UNL A   1      42.428  29.017  34.498  1.00  0.00     0.049 A 
ATOM     53  H   UNL A   1      40.931  29.620  33.136  1.00  0.00     0.167 HD
ATOM     54  C   UNL A   1      42.942  27.765  32.423  1.00  0.00     0.074 A 
ATOM     55  C   UNL A   1      43.722  26.826  31.645  1.00  0.00     0.031 C 
ATOM     56  C   UNL A   1      43.201  28.091  33.712  1.00  0.00     0.037 A 
BRANCH  43  57
ATOM     57  C   UNL A   1      39.247  32.205  36.078  1.00  0.00     0.064 A 
ATOM     58  C   UNL A   1      39.787  33.478  36.309  1.00  0.00     0.173 A 
ATOM     59  C   UNL A   1      38.313  31.703  36.996  1.00  0.00     0.173 A 
ATOM     60  F   UNL A   1      40.705  33.985  35.472  1.00  0.00    -0.203 F 
ATOM     61  C   UNL A   1      39.422  34.210  37.434  1.00  0.00     0.198 A 
ATOM     62  C   UNL A   1      37.936  32.446  38.109  1.00  0.00     0.198 A 
ATOM     63  F   UNL A   1      37.779  30.486  36.818  1.00  0.00    -0.203 F 
ATOM     64  F   UNL A   1      39.985  35.404  37.666  1.00  0.00    -0.200 F 
ATOM     65  C   UNL A   1      38.496  33.695  38.332  1.00  0.00     0.200 A 
ATOM     66  F   UNL A   1      37.044  31.948  38.974  1.00  0.00    -0.200 F 
ATOM     67  F   UNL A   1      38.155  34.398  39.420  1.00  0.00    -0.200 F 
ENDBRANCH  43  57
BRANCH  44  68
ATOM     68  C   UNL A   1      41.686  26.988  27.964  1.00  0.00     0.064 A 
ATOM     69  C   UNL A   1      41.064  25.740  27.806  1.00  0.00     0.173 A 
ATOM     70  C   UNL A   1      42.635  27.367  27.005  1.00  0.00     0.173 A 
ATOM     71  F   UNL A   1      40.179  25.313  28.720  1.00  0.00    -0.203 F 
ATOM     72  C   UNL A   1      41.392  24.899  26.745  1.00  0.00     0.198 A 
ATOM     73  C   UNL A   1      42.944  26.536  25.928  1.00  0.00     0.198 A 
ATOM     74  F   UNL A   1      43.275  28.540  27.118  1.00  0.00    -0.203 F 
ATOM     75  F   UNL A   1      40.829  23.687  26.653  1.00  0.00    -0.200 F 
ATOM     76  C   UNL A   1      42.328  25.300  25.803  1.00  0.00     0.200 A 
ATOM     77  F   UNL A   1      43.850  26.927  25.021  1.00  0.00    -0.200 F 
ATOM     78  F   UNL A   1      42.655  24.487  24.790  1.00  0.00    -0.200 F 
ENDBRANCH  44  68
BRANCH  56  79
ATOM     79  C   UNL A   1      44.388  27.441  34.360  1.00  0.00     0.064 A 
ATOM     80  C   UNL A   1      45.659  28.033  34.309  1.00  0.00     0.173 A 
ATOM     81  C   UNL A   1      44.246  26.245  35.078  1.00  0.00     0.173 A 
ATOM     82  F   UNL A   1      45.847  29.170  33.624  1.00  0.00    -0.203 F 
ATOM     83  C   UNL A   1      46.749  27.440  34.940  1.00  0.00     0.198 A 
ATOM     84  C   UNL A   1      45.334  25.667  35.726  1.00  0.00     0.198 A 
ATOM     85  F   UNL A   1      43.050  25.642  35.160  1.00  0.00    -0.203 F 
ATOM     86  F   UNL A   1      47.961  28.004  34.849  1.00  0.00    -0.200 F 
ATOM     87  C   UNL A   1      46.585  26.262  35.653  1.00  0.00     0.200 A 
ATOM     88  F   UNL A   1      45.173  24.534  36.425  1.00  0.00    -0.200 F 
ATOM     89  F   UNL A   1      47.634  25.698  36.267  1.00  0.00    -0.200 F 
ENDBRANCH  56  79
ENDBRANCH  30  31
ENDBRANCH  23  25
ENDBRANCH  22  23
ENDBRANCH  21  22
ENDBRANCH   1  21
TORSDOF 14
ENDMDL
