MODEL 1
REMARK VINA RESULT:     -11.4      0.000      0.000
REMARK SMILES CC1(C)CCN(C(=O)CC(C)(C)C(=O)OCCOC(=O)c2ccc(-c3c4nc(c(-c5c(F)c(F)c(F)c(F)c5F)c5ccc([nH]5)c(-c5c(F)c(F)c(F)c(F)c5F)c5nc(c(-c6c(F)c(F)c(F)c(F)c6F)c6ccc3[nH]6)C=C5)C=C4)cc2)C1
REMARK SMILES IDX 16 1 15 2 13 3 14 4 10 5 11 6 12 7 9 8 7 9 8 10 6 11 1 12
REMARK SMILES IDX 2 13 3 14 4 15 84 16 5 17 17 18 18 19 19 20 20 21 21 22
REMARK SMILES IDX 22 23 83 24 23 25 82 26 24 27 25 28 26 29 76 30 27 31 81 32
REMARK SMILES IDX 75 33 77 34 28 35 80 36 74 37 73 38 29 40 61 41 41 42 60 43
REMARK SMILES IDX 42 44 45 45 59 46 78 47 43 48 44 49 58 51 79 52 46 53 30 54
REMARK SMILES IDX 31 55 39 56 32 57 33 58 37 59 40 60 34 61 35 62 38 63 36 64
REMARK SMILES IDX 62 65 63 66 71 67 64 68 65 69 69 70 72 71 66 72 67 73 70 74
REMARK SMILES IDX 68 75 47 76 48 77 56 78 49 79 50 80 54 81 57 82 51 83 52 84
REMARK SMILES IDX 55 85 53 86
REMARK H PARENT 77 39 45 50
REMARK Flexibility Score: inf
ROOT
ATOM      1  C   UNL A   1      31.761  28.797  27.368  1.00  0.00     0.274 C 
ENDROOT
BRANCH   1   2
ATOM      2  O   UNL A   1      31.533  27.664  26.505  1.00  0.00    -0.462 OA
BRANCH   2   3
ATOM      3  C   UNL A   1      32.628  27.089  25.930  1.00  0.00     0.312 C 
ATOM      4  O   UNL A   1      33.722  27.031  26.470  1.00  0.00    -0.252 OA
BRANCH   3   5
ATOM      5  C   UNL A   1      32.353  26.699  24.465  1.00  0.00     0.071 C 
ATOM      6  C   UNL A   1      31.165  25.722  24.534  1.00  0.00     0.024 C 
ATOM      7  C   UNL A   1      33.540  25.927  23.843  1.00  0.00     0.024 C 
BRANCH   5   8
ATOM      8  C   UNL A   1      32.037  27.901  23.522  1.00  0.00     0.118 C 
BRANCH   8   9
ATOM      9  C   UNL A   1      30.807  27.827  22.627  1.00  0.00     0.223 C 
ATOM     10  O   UNL A   1      30.822  27.109  21.625  1.00  0.00    -0.275 OA
BRANCH   9  11
ATOM     11  N   UNL A   1      29.697  28.552  22.976  1.00  0.00    -0.342 N 
ATOM     12  C   UNL A   1      28.028  30.451  21.300  1.00  0.00     0.013 C 
ATOM     13  C   UNL A   1      28.148  30.306  22.829  1.00  0.00    -0.016 C 
ATOM     14  C   UNL A   1      27.656  31.584  23.501  1.00  0.00     0.013 C 
ATOM     15  C   UNL A   1      27.408  29.048  23.322  1.00  0.00     0.030 C 
ATOM     16  C   UNL A   1      29.587  29.974  23.238  1.00  0.00     0.126 C 
ATOM     17  C   UNL A   1      28.393  27.911  23.049  1.00  0.00     0.120 C 
ENDBRANCH   9  11
ENDBRANCH   8   9
ENDBRANCH   5   8
ENDBRANCH   3   5
ENDBRANCH   2   3
ENDBRANCH   1   2
BRANCH   1  18
ATOM     18  C   UNL A   1      31.796  30.082  26.546  1.00  0.00     0.275 C 
BRANCH  18  19
ATOM     19  O   UNL A   1      33.159  30.507  26.364  1.00  0.00    -0.458 OA
BRANCH  19  20
ATOM     20  C   UNL A   1      33.539  31.565  27.113  1.00  0.00     0.338 C 
ATOM     21  O   UNL A   1      32.907  32.581  27.356  1.00  0.00    -0.246 OA
BRANCH  20  22
ATOM     22  C   UNL A   1      34.819  31.252  27.755  1.00  0.00     0.060 A 
ATOM     23  C   UNL A   1      35.040  29.930  28.134  1.00  0.00     0.016 A 
ATOM     24  C   UNL A   1      35.753  32.241  28.057  1.00  0.00     0.016 A 
ATOM     25  C   UNL A   1      36.188  29.580  28.834  1.00  0.00     0.010 A 
ATOM     26  C   UNL A   1      36.918  31.887  28.749  1.00  0.00     0.010 A 
ATOM     27  C   UNL A   1      37.134  30.556  29.153  1.00  0.00    -0.014 A 
BRANCH  27  28
ATOM     28  C   UNL A   1      38.302  30.186  29.986  1.00  0.00     0.031 A 
ATOM     29  C   UNL A   1      39.343  29.266  29.422  1.00  0.00     0.074 A 
ATOM     30  C   UNL A   1      38.470  30.722  31.208  1.00  0.00     0.049 A 
ATOM     31  N   UNL A   1      40.386  28.731  30.005  1.00  0.00    -0.248 NA
ATOM     32  C   UNL A   1      39.195  28.907  28.002  1.00  0.00     0.031 C 
ATOM     33  C   UNL A   1      37.592  31.718  31.823  1.00  0.00     0.029 A 
ATOM     34  N   UNL A   1      39.444  30.504  32.150  1.00  0.00    -0.354 N 
ATOM     35  C   UNL A   1      41.006  27.961  29.033  1.00  0.00     0.074 A 
ATOM     36  C   UNL A   1      40.221  28.088  27.823  1.00  0.00     0.031 C 
ATOM     37  C   UNL A   1      38.066  32.020  33.043  1.00  0.00     0.029 A 
ATOM     38  C   UNL A   1      39.247  31.205  33.313  1.00  0.00     0.049 A 
ATOM     39  H   UNL A   1      40.211  29.903  32.004  1.00  0.00     0.167 HD
ATOM     40  C   UNL A   1      42.129  27.212  29.143  1.00  0.00     0.037 A 
ATOM     41  C   UNL A   1      39.928  31.166  34.475  1.00  0.00     0.037 A 
ATOM     42  C   UNL A   1      42.914  27.096  30.343  1.00  0.00     0.049 A 
ATOM     43  C   UNL A   1      41.113  30.245  34.605  1.00  0.00     0.074 A 
ATOM     44  C   UNL A   1      44.048  26.335  30.564  1.00  0.00     0.029 A 
ATOM     45  N   UNL A   1      42.645  27.768  31.526  1.00  0.00    -0.354 N 
ATOM     46  N   UNL A   1      41.661  29.469  33.703  1.00  0.00    -0.248 NA
ATOM     47  C   UNL A   1      41.763  30.187  35.921  1.00  0.00     0.031 C 
ATOM     48  C   UNL A   1      44.445  26.518  31.895  1.00  0.00     0.029 A 
ATOM     49  C   UNL A   1      43.582  27.426  32.487  1.00  0.00     0.049 A 
ATOM     50  H   UNL A   1      41.899  28.395  31.662  1.00  0.00     0.167 HD
ATOM     51  C   UNL A   1      42.731  28.847  34.334  1.00  0.00     0.074 A 
ATOM     52  C   UNL A   1      42.763  29.347  35.692  1.00  0.00     0.031 C 
ATOM     53  C   UNL A   1      43.605  27.941  33.832  1.00  0.00     0.037 A 
BRANCH  40  54
ATOM     54  C   UNL A   1      42.546  26.425  27.938  1.00  0.00     0.064 A 
ATOM     55  C   UNL A   1      43.480  26.922  27.019  1.00  0.00     0.173 A 
ATOM     56  C   UNL A   1      42.011  25.149  27.711  1.00  0.00     0.173 A 
ATOM     57  F   UNL A   1      44.005  28.145  27.183  1.00  0.00    -0.203 F 
ATOM     58  C   UNL A   1      43.846  26.178  25.900  1.00  0.00     0.198 A 
ATOM     59  C   UNL A   1      42.396  24.398  26.605  1.00  0.00     0.198 A 
ATOM     60  F   UNL A   1      41.114  24.630  28.564  1.00  0.00    -0.203 F 
ATOM     61  F   UNL A   1      44.707  26.688  25.009  1.00  0.00    -0.200 F 
ATOM     62  C   UNL A   1      43.308  24.915  25.698  1.00  0.00     0.200 A 
ATOM     63  F   UNL A   1      41.881  23.175  26.415  1.00  0.00    -0.200 F 
ATOM     64  F   UNL A   1      43.662  24.199  24.621  1.00  0.00    -0.200 F 
ENDBRANCH  40  54
BRANCH  41  65
ATOM     65  C   UNL A   1      39.483  31.993  35.625  1.00  0.00     0.064 A 
ATOM     66  C   UNL A   1      38.515  31.522  36.522  1.00  0.00     0.173 A 
ATOM     67  C   UNL A   1      39.993  33.284  35.831  1.00  0.00     0.173 A 
ATOM     68  F   UNL A   1      37.974  30.308  36.347  1.00  0.00    -0.203 F 
ATOM     69  C   UNL A   1      38.064  32.316  37.575  1.00  0.00     0.198 A 
ATOM     70  C   UNL A   1      39.561  34.067  36.899  1.00  0.00     0.198 A 
ATOM     71  F   UNL A   1      40.912  33.785  34.994  1.00  0.00    -0.203 F 
ATOM     72  F   UNL A   1      37.103  31.862  38.390  1.00  0.00    -0.200 F 
ATOM     73  C   UNL A   1      38.591  33.585  37.766  1.00  0.00     0.200 A 
ATOM     74  F   UNL A   1      40.076  35.290  37.083  1.00  0.00    -0.200 F 
ATOM     75  F   UNL A   1      38.154  34.349  38.776  1.00  0.00    -0.200 F 
ENDBRANCH  41  65
BRANCH  53  76
ATOM     76  C   UNL A   1      44.690  27.455  34.747  1.00  0.00     0.064 A 
ATOM     77  C   UNL A   1      45.909  28.138  34.867  1.00  0.00     0.173 A 
ATOM     78  C   UNL A   1      44.491  26.316  35.541  1.00  0.00     0.173 A 
ATOM     79  F   UNL A   1      46.152  29.223  34.116  1.00  0.00    -0.203 F 
ATOM     80  C   UNL A   1      46.899  27.686  35.735  1.00  0.00     0.198 A 
ATOM     81  C   UNL A   1      45.473  25.881  36.427  1.00  0.00     0.198 A 
ATOM     82  F   UNL A   1      43.340  25.632  35.467  1.00  0.00    -0.203 F 
ATOM     83  F   UNL A   1      48.072  28.330  35.805  1.00  0.00    -0.200 F 
ATOM     84  C   UNL A   1      46.678  26.562  36.519  1.00  0.00     0.200 A 
ATOM     85  F   UNL A   1      45.254  24.802  37.191  1.00  0.00    -0.200 F 
ATOM     86  F   UNL A   1      47.630  26.132  37.359  1.00  0.00    -0.200 F 
ENDBRANCH  53  76
ENDBRANCH  27  28
ENDBRANCH  20  22
ENDBRANCH  19  20
ENDBRANCH  18  19
ENDBRANCH   1  18
TORSDOF 14
ENDMDL
MODEL 2
REMARK VINA RESULT:     -11.2      5.480     10.633
REMARK SMILES CC1(C)CCN(C(=O)CC(C)(C)C(=O)OCCOC(=O)c2ccc(-c3c4nc(c(-c5c(F)c(F)c(F)c(F)c5F)c5ccc([nH]5)c(-c5c(F)c(F)c(F)c(F)c5F)c5nc(c(-c6c(F)c(F)c(F)c(F)c6F)c6ccc3[nH]6)C=C5)C=C4)cc2)C1
REMARK SMILES IDX 16 1 15 2 13 3 14 4 10 5 11 6 12 7 9 8 7 9 8 10 6 11 1 12
REMARK SMILES IDX 2 13 3 14 4 15 84 16 5 17 17 18 18 19 19 20 20 21 21 22
REMARK SMILES IDX 22 23 83 24 23 25 82 26 24 27 25 28 26 29 76 30 27 31 81 32
REMARK SMILES IDX 75 33 77 34 28 35 80 36 74 37 73 38 29 40 61 41 41 42 60 43
REMARK SMILES IDX 42 44 45 45 59 46 78 47 43 48 44 49 58 51 79 52 46 53 30 54
REMARK SMILES IDX 31 55 39 56 32 57 33 58 37 59 40 60 34 61 35 62 38 63 36 64
REMARK SMILES IDX 62 65 63 66 71 67 64 68 65 69 69 70 72 71 66 72 67 73 70 74
REMARK SMILES IDX 68 75 47 76 48 77 56 78 49 79 50 80 54 81 57 82 51 83 52 84
REMARK SMILES IDX 55 85 53 86
REMARK H PARENT 77 39 45 50
REMARK Flexibility Score: inf
ROOT
ATOM      1  C   UNL A   1      35.932  21.160  25.481  1.00  0.00     0.274 C 
ENDROOT
BRANCH   1   2
ATOM      2  O   UNL A   1      35.182  21.807  24.432  1.00  0.00    -0.462 OA
BRANCH   2   3
ATOM      3  C   UNL A   1      34.015  22.418  24.788  1.00  0.00     0.312 C 
ATOM      4  O   UNL A   1      33.790  22.845  25.910  1.00  0.00    -0.252 OA
BRANCH   3   5
ATOM      5  C   UNL A   1      32.971  22.333  23.658  1.00  0.00     0.071 C 
ATOM      6  C   UNL A   1      33.599  23.103  22.483  1.00  0.00     0.024 C 
ATOM      7  C   UNL A   1      31.660  23.064  24.031  1.00  0.00     0.024 C 
BRANCH   5   8
ATOM      8  C   UNL A   1      32.587  20.881  23.238  1.00  0.00     0.118 C 
BRANCH   8   9
ATOM      9  C   UNL A   1      32.486  19.808  24.314  1.00  0.00     0.223 C 
ATOM     10  O   UNL A   1      31.757  19.990  25.292  1.00  0.00    -0.275 OA
BRANCH   9  11
ATOM     11  N   UNL A   1      33.198  18.648  24.155  1.00  0.00    -0.342 N 
ATOM     12  C   UNL A   1      32.871  15.976  25.552  1.00  0.00     0.013 C 
ATOM     13  C   UNL A   1      34.068  16.563  24.782  1.00  0.00    -0.016 C 
ATOM     14  C   UNL A   1      35.340  15.819  25.176  1.00  0.00     0.013 C 
ATOM     15  C   UNL A   1      33.809  16.541  23.264  1.00  0.00     0.030 C 
ATOM     16  C   UNL A   1      34.197  18.069  25.032  1.00  0.00     0.126 C 
ATOM     17  C   UNL A   1      32.938  17.774  23.022  1.00  0.00     0.120 C 
ENDBRANCH   9  11
ENDBRANCH   8   9
ENDBRANCH   5   8
ENDBRANCH   3   5
ENDBRANCH   2   3
ENDBRANCH   1   2
BRANCH   1  18
ATOM     18  C   UNL A   1      37.290  20.708  24.951  1.00  0.00     0.275 C 
BRANCH  18  19
ATOM     19  O   UNL A   1      38.284  21.706  25.245  1.00  0.00    -0.458 OA
BRANCH  19  20
ATOM     20  C   UNL A   1      39.161  21.377  26.219  1.00  0.00     0.338 C 
ATOM     21  O   UNL A   1      39.500  20.261  26.582  1.00  0.00    -0.246 OA
BRANCH  20  22
ATOM     22  C   UNL A   1      39.802  22.601  26.707  1.00  0.00     0.060 A 
ATOM     23  C   UNL A   1      39.394  23.808  26.144  1.00  0.00     0.016 A 
ATOM     24  C   UNL A   1      40.840  22.568  27.637  1.00  0.00     0.016 A 
ATOM     25  C   UNL A   1      40.025  24.996  26.488  1.00  0.00     0.010 A 
ATOM     26  C   UNL A   1      41.468  23.768  27.997  1.00  0.00     0.010 A 
ATOM     27  C   UNL A   1      41.073  24.986  27.413  1.00  0.00    -0.014 A 
BRANCH  27  28
ATOM     28  C   UNL A   1      41.802  26.245  27.694  1.00  0.00     0.031 A 
ATOM     29  C   UNL A   1      41.144  27.302  28.529  1.00  0.00     0.074 A 
ATOM     30  C   UNL A   1      43.066  26.414  27.267  1.00  0.00     0.049 A 
ATOM     31  N   UNL A   1      41.553  28.514  28.812  1.00  0.00    -0.248 NA
ATOM     32  C   UNL A   1      39.855  26.943  29.140  1.00  0.00     0.031 C 
ATOM     33  C   UNL A   1      43.857  25.416  26.547  1.00  0.00     0.029 A 
ATOM     34  N   UNL A   1      43.908  27.492  27.384  1.00  0.00    -0.354 N 
ATOM     35  C   UNL A   1      40.566  29.065  29.614  1.00  0.00     0.074 A 
ATOM     36  C   UNL A   1      39.532  28.063  29.770  1.00  0.00     0.031 C 
ATOM     37  C   UNL A   1      45.069  25.932  26.282  1.00  0.00     0.029 A 
ATOM     38  C   UNL A   1      45.119  27.308  26.767  1.00  0.00     0.049 A 
ATOM     39  H   UNL A   1      43.666  28.316  27.865  1.00  0.00     0.167 HD
ATOM     40  C   UNL A   1      40.526  30.299  30.170  1.00  0.00     0.037 A 
ATOM     41  C   UNL A   1      46.141  28.168  26.588  1.00  0.00     0.037 A 
ATOM     42  C   UNL A   1      41.558  31.290  30.023  1.00  0.00     0.049 A 
ATOM     43  C   UNL A   1      46.027  29.570  27.126  1.00  0.00     0.074 A 
ATOM     44  C   UNL A   1      41.594  32.582  30.518  1.00  0.00     0.029 A 
ATOM     45  N   UNL A   1      42.744  31.093  29.332  1.00  0.00    -0.354 N 
ATOM     46  N   UNL A   1      45.065  30.111  27.832  1.00  0.00    -0.248 NA
ATOM     47  C   UNL A   1      47.139  30.485  26.828  1.00  0.00     0.031 C 
ATOM     48  C   UNL A   1      42.787  33.180  30.095  1.00  0.00     0.029 A 
ATOM     49  C   UNL A   1      43.512  32.246  29.372  1.00  0.00     0.049 A 
ATOM     50  H   UNL A   1      43.002  30.258  28.880  1.00  0.00     0.167 HD
ATOM     51  C   UNL A   1      45.461  31.418  28.081  1.00  0.00     0.074 A 
ATOM     52  C   UNL A   1      46.759  31.586  27.462  1.00  0.00     0.031 C 
ATOM     53  C   UNL A   1      44.807  32.392  28.759  1.00  0.00     0.037 A 
BRANCH  40  54
ATOM     54  C   UNL A   1      39.298  30.658  30.951  1.00  0.00     0.064 A 
ATOM     55  C   UNL A   1      38.191  31.270  30.347  1.00  0.00     0.173 A 
ATOM     56  C   UNL A   1      39.227  30.370  32.322  1.00  0.00     0.173 A 
ATOM     57  F   UNL A   1      38.220  31.581  29.043  1.00  0.00    -0.203 F 
ATOM     58  C   UNL A   1      37.065  31.604  31.094  1.00  0.00     0.198 A 
ATOM     59  C   UNL A   1      38.090  30.683  33.060  1.00  0.00     0.198 A 
ATOM     60  F   UNL A   1      40.261  29.784  32.945  1.00  0.00    -0.203 F 
ATOM     61  F   UNL A   1      36.034  32.228  30.507  1.00  0.00    -0.200 F 
ATOM     62  C   UNL A   1      37.013  31.305  32.448  1.00  0.00     0.200 A 
ATOM     63  F   UNL A   1      38.039  30.389  34.367  1.00  0.00    -0.200 F 
ATOM     64  F   UNL A   1      35.927  31.626  33.165  1.00  0.00    -0.200 F 
ENDBRANCH  40  54
BRANCH  41  65
ATOM     65  C   UNL A   1      47.346  27.744  25.831  1.00  0.00     0.064 A 
ATOM     66  C   UNL A   1      48.522  27.369  26.494  1.00  0.00     0.173 A 
ATOM     67  C   UNL A   1      47.356  27.736  24.428  1.00  0.00     0.173 A 
ATOM     68  F   UNL A   1      48.572  27.392  27.833  1.00  0.00    -0.203 F 
ATOM     69  C   UNL A   1      49.667  27.015  25.783  1.00  0.00     0.198 A 
ATOM     70  C   UNL A   1      48.492  27.357  23.717  1.00  0.00     0.198 A 
ATOM     71  F   UNL A   1      46.260  28.099  23.746  1.00  0.00    -0.203 F 
ATOM     72  F   UNL A   1      50.793  26.707  26.439  1.00  0.00    -0.200 F 
ATOM     73  C   UNL A   1      49.649  27.003  24.396  1.00  0.00     0.200 A 
ATOM     74  F   UNL A   1      48.470  27.343  22.378  1.00  0.00    -0.200 F 
ATOM     75  F   UNL A   1      50.751  26.666  23.712  1.00  0.00    -0.200 F 
ENDBRANCH  41  65
BRANCH  53  76
ATOM     76  C   UNL A   1      45.497  33.717  28.894  1.00  0.00     0.064 A 
ATOM     77  C   UNL A   1      46.378  33.981  29.952  1.00  0.00     0.173 A 
ATOM     78  C   UNL A   1      45.305  34.718  27.931  1.00  0.00     0.173 A 
ATOM     79  F   UNL A   1      46.582  33.059  30.907  1.00  0.00    -0.203 F 
ATOM     80  C   UNL A   1      47.027  35.209  30.053  1.00  0.00     0.198 A 
ATOM     81  C   UNL A   1      45.974  35.936  28.021  1.00  0.00     0.198 A 
ATOM     82  F   UNL A   1      44.476  34.512  26.896  1.00  0.00    -0.203 F 
ATOM     83  F   UNL A   1      47.834  35.455  31.094  1.00  0.00    -0.200 F 
ATOM     84  C   UNL A   1      46.830  36.182  29.085  1.00  0.00     0.200 A 
ATOM     85  F   UNL A   1      45.790  36.871  27.079  1.00  0.00    -0.200 F 
ATOM     86  F   UNL A   1      47.459  37.361  29.180  1.00  0.00    -0.200 F 
ENDBRANCH  53  76
ENDBRANCH  27  28
ENDBRANCH  20  22
ENDBRANCH  19  20
ENDBRANCH  18  19
ENDBRANCH   1  18
TORSDOF 14
ENDMDL
MODEL 3
REMARK VINA RESULT:     -11.2      1.725      3.368
REMARK SMILES CC1(C)CCN(C(=O)CC(C)(C)C(=O)OCCOC(=O)c2ccc(-c3c4nc(c(-c5c(F)c(F)c(F)c(F)c5F)c5ccc([nH]5)c(-c5c(F)c(F)c(F)c(F)c5F)c5nc(c(-c6c(F)c(F)c(F)c(F)c6F)c6ccc3[nH]6)C=C5)C=C4)cc2)C1
REMARK SMILES IDX 16 1 15 2 13 3 14 4 10 5 11 6 12 7 9 8 7 9 8 10 6 11 1 12
REMARK SMILES IDX 2 13 3 14 4 15 84 16 5 17 17 18 18 19 19 20 20 21 21 22
REMARK SMILES IDX 22 23 83 24 23 25 82 26 24 27 25 28 26 29 76 30 27 31 81 32
REMARK SMILES IDX 75 33 77 34 28 35 80 36 74 37 73 38 29 40 61 41 41 42 60 43
REMARK SMILES IDX 42 44 45 45 59 46 78 47 43 48 44 49 58 51 79 52 46 53 30 54
REMARK SMILES IDX 31 55 39 56 32 57 33 58 37 59 40 60 34 61 35 62 38 63 36 64
REMARK SMILES IDX 62 65 63 66 71 67 64 68 65 69 69 70 72 71 66 72 67 73 70 74
REMARK SMILES IDX 68 75 47 76 48 77 56 78 49 79 50 80 54 81 57 82 51 83 52 84
REMARK SMILES IDX 55 85 53 86
REMARK H PARENT 77 39 45 50
REMARK Flexibility Score: inf
ROOT
ATOM      1  C   UNL A   1      31.589  29.243  24.728  1.00  0.00     0.274 C 
ENDROOT
BRANCH   1   2
ATOM      2  O   UNL A   1      31.744  27.858  25.099  1.00  0.00    -0.462 OA
BRANCH   2   3
ATOM      3  C   UNL A   1      32.888  27.231  24.698  1.00  0.00     0.312 C 
ATOM      4  O   UNL A   1      33.853  27.818  24.233  1.00  0.00    -0.252 OA
BRANCH   3   5
ATOM      5  C   UNL A   1      32.730  25.699  24.737  1.00  0.00     0.071 C 
ATOM      6  C   UNL A   1      33.700  25.176  23.662  1.00  0.00     0.024 C 
ATOM      7  C   UNL A   1      31.309  25.256  24.320  1.00  0.00     0.024 C 
BRANCH   5   8
ATOM      8  C   UNL A   1      33.028  25.051  26.125  1.00  0.00     0.118 C 
BRANCH   8   9
ATOM      9  C   UNL A   1      32.316  23.758  26.499  1.00  0.00     0.223 C 
ATOM     10  O   UNL A   1      31.341  23.793  27.254  1.00  0.00    -0.275 OA
BRANCH   9  11
ATOM     11  N   UNL A   1      32.768  22.581  25.963  1.00  0.00    -0.342 N 
ATOM     12  C   UNL A   1      32.789  21.656  23.074  1.00  0.00     0.013 C 
ATOM     13  C   UNL A   1      32.895  20.853  24.383  1.00  0.00    -0.016 C 
ATOM     14  C   UNL A   1      32.545  19.393  24.113  1.00  0.00     0.013 C 
ATOM     15  C   UNL A   1      34.285  21.025  25.023  1.00  0.00     0.030 C 
ATOM     16  C   UNL A   1      31.999  21.453  25.471  1.00  0.00     0.126 C 
ATOM     17  C   UNL A   1      34.191  22.366  25.752  1.00  0.00     0.120 C 
ENDBRANCH   9  11
ENDBRANCH   8   9
ENDBRANCH   5   8
ENDBRANCH   3   5
ENDBRANCH   2   3
ENDBRANCH   1   2
BRANCH   1  18
ATOM     18  C   UNL A   1      31.771  30.136  25.952  1.00  0.00     0.275 C 
BRANCH  18  19
ATOM     19  O   UNL A   1      33.167  30.436  26.132  1.00  0.00    -0.458 OA
BRANCH  19  20
ATOM     20  C   UNL A   1      33.437  31.414  27.024  1.00  0.00     0.338 C 
ATOM     21  O   UNL A   1      32.716  32.337  27.370  1.00  0.00    -0.246 OA
BRANCH  20  22
ATOM     22  C   UNL A   1      34.720  31.120  27.670  1.00  0.00     0.060 A 
ATOM     23  C   UNL A   1      34.954  29.804  28.062  1.00  0.00     0.016 A 
ATOM     24  C   UNL A   1      35.643  32.122  27.962  1.00  0.00     0.016 A 
ATOM     25  C   UNL A   1      36.105  29.473  28.766  1.00  0.00     0.010 A 
ATOM     26  C   UNL A   1      36.811  31.787  28.659  1.00  0.00     0.010 A 
ATOM     27  C   UNL A   1      37.040  30.462  29.076  1.00  0.00    -0.014 A 
BRANCH  27  28
ATOM     28  C   UNL A   1      38.212  30.112  29.913  1.00  0.00     0.031 A 
ATOM     29  C   UNL A   1      39.279  29.223  29.347  1.00  0.00     0.074 A 
ATOM     30  C   UNL A   1      38.358  30.640  31.142  1.00  0.00     0.049 A 
ATOM     31  N   UNL A   1      40.331  28.708  29.932  1.00  0.00    -0.248 NA
ATOM     32  C   UNL A   1      39.149  28.875  27.923  1.00  0.00     0.031 C 
ATOM     33  C   UNL A   1      37.453  31.608  31.760  1.00  0.00     0.029 A 
ATOM     34  N   UNL A   1      39.332  30.436  32.088  1.00  0.00    -0.354 N 
ATOM     35  C   UNL A   1      40.976  27.963  28.956  1.00  0.00     0.074 A 
ATOM     36  C   UNL A   1      40.196  28.083  27.742  1.00  0.00     0.031 C 
ATOM     37  C   UNL A   1      37.912  31.909  32.986  1.00  0.00     0.029 A 
ATOM     38  C   UNL A   1      39.110  31.120  33.256  1.00  0.00     0.049 A 
ATOM     39  H   UNL A   1      40.114  29.855  31.941  1.00  0.00     0.167 HD
ATOM     40  C   UNL A   1      42.116  27.241  29.066  1.00  0.00     0.037 A 
ATOM     41  C   UNL A   1      39.784  31.086  34.422  1.00  0.00     0.037 A 
ATOM     42  C   UNL A   1      42.895  27.132  30.271  1.00  0.00     0.049 A 
ATOM     43  C   UNL A   1      40.990  30.194  34.551  1.00  0.00     0.074 A 
ATOM     44  C   UNL A   1      44.046  26.396  30.492  1.00  0.00     0.029 A 
ATOM     45  N   UNL A   1      42.602  27.786  31.459  1.00  0.00    -0.354 N 
ATOM     46  N   UNL A   1      41.564  29.440  33.646  1.00  0.00    -0.248 NA
ATOM     47  C   UNL A   1      41.634  30.138  35.871  1.00  0.00     0.031 C 
ATOM     48  C   UNL A   1      44.430  26.576  31.827  1.00  0.00     0.029 A 
ATOM     49  C   UNL A   1      43.542  27.456  32.423  1.00  0.00     0.049 A 
ATOM     50  H   UNL A   1      41.840  28.392  31.596  1.00  0.00     0.167 HD
ATOM     51  C   UNL A   1      42.644  28.838  34.277  1.00  0.00     0.074 A 
ATOM     52  C   UNL A   1      42.655  29.325  35.640  1.00  0.00     0.031 C 
ATOM     53  C   UNL A   1      43.544  27.959  33.772  1.00  0.00     0.037 A 
BRANCH  40  54
ATOM     54  C   UNL A   1      42.560  26.476  27.857  1.00  0.00     0.064 A 
ATOM     55  C   UNL A   1      42.044  25.209  27.555  1.00  0.00     0.173 A 
ATOM     56  C   UNL A   1      43.506  27.030  26.982  1.00  0.00     0.173 A 
ATOM     57  F   UNL A   1      41.152  24.630  28.372  1.00  0.00    -0.203 F 
ATOM     58  C   UNL A   1      42.479  24.511  26.431  1.00  0.00     0.198 A 
ATOM     59  C   UNL A   1      43.920  26.341  25.847  1.00  0.00     0.198 A 
ATOM     60  F   UNL A   1      44.028  28.242  27.228  1.00  0.00    -0.203 F 
ATOM     61  F   UNL A   1      42.006  23.281  26.182  1.00  0.00    -0.200 F 
ATOM     62  C   UNL A   1      43.412  25.080  25.576  1.00  0.00     0.200 A 
ATOM     63  F   UNL A   1      44.816  26.894  25.018  1.00  0.00    -0.200 F 
ATOM     64  F   UNL A   1      43.828  24.407  24.493  1.00  0.00    -0.200 F 
ENDBRANCH  40  54
BRANCH  41  65
ATOM     65  C   UNL A   1      39.312  31.891  35.577  1.00  0.00     0.064 A 
ATOM     66  C   UNL A   1      38.412  31.357  36.510  1.00  0.00     0.173 A 
ATOM     67  C   UNL A   1      39.725  33.220  35.754  1.00  0.00     0.173 A 
ATOM     68  F   UNL A   1      37.963  30.103  36.366  1.00  0.00    -0.203 F 
ATOM     69  C   UNL A   1      37.933  32.127  37.568  1.00  0.00     0.198 A 
ATOM     70  C   UNL A   1      39.266  33.981  36.827  1.00  0.00     0.198 A 
ATOM     71  F   UNL A   1      40.574  33.781  34.882  1.00  0.00    -0.203 F 
ATOM     72  F   UNL A   1      37.038  31.610  38.419  1.00  0.00    -0.200 F 
ATOM     73  C   UNL A   1      38.365  33.435  37.729  1.00  0.00     0.200 A 
ATOM     74  F   UNL A   1      39.689  35.243  36.981  1.00  0.00    -0.200 F 
ATOM     75  F   UNL A   1      37.901  34.176  38.745  1.00  0.00    -0.200 F 
ENDBRANCH  41  65
BRANCH  53  76
ATOM     76  C   UNL A   1      44.634  27.490  34.690  1.00  0.00     0.064 A 
ATOM     77  C   UNL A   1      45.835  28.201  34.825  1.00  0.00     0.173 A 
ATOM     78  C   UNL A   1      44.457  26.339  35.472  1.00  0.00     0.173 A 
ATOM     79  F   UNL A   1      46.056  29.299  34.086  1.00  0.00    -0.203 F 
ATOM     80  C   UNL A   1      46.830  27.765  35.695  1.00  0.00     0.198 A 
ATOM     81  C   UNL A   1      45.444  25.919  36.359  1.00  0.00     0.198 A 
ATOM     82  F   UNL A   1      43.324  25.628  35.382  1.00  0.00    -0.203 F 
ATOM     83  F   UNL A   1      47.987  28.436  35.779  1.00  0.00    -0.200 F 
ATOM     84  C   UNL A   1      46.631  26.629  36.466  1.00  0.00     0.200 A 
ATOM     85  F   UNL A   1      45.246  24.827  37.111  1.00  0.00    -0.200 F 
ATOM     86  F   UNL A   1      47.588  26.213  37.308  1.00  0.00    -0.200 F 
ENDBRANCH  53  76
ENDBRANCH  27  28
ENDBRANCH  20  22
ENDBRANCH  19  20
ENDBRANCH  18  19
ENDBRANCH   1  18
TORSDOF 14
ENDMDL
