MODEL 1
REMARK VINA RESULT:     -11.3      0.000      0.000
REMARK SMILES CC(C)[C@H]([NH2+]Cc1ccc(N(C)C)cc1)C(=O)OCCOC(=O)c1ccc(-c2c3nc(c(-c4c(F)c(F)c(F)c(F)c4F)c4ccc([nH]4)c(-c4c(F)c(F)c(F)c(F)c4F)c4nc(c(-c5c(F)c(F)c(F)c(F)c5F)c5ccc2[nH]5)C=C4)C=C3)cc1
REMARK SMILES IDX 19 1 18 2 16 3 17 4 4 5 2 6 1 7 3 8 5 9 6 12 7 13 8 14 15 15
REMARK SMILES IDX 9 16 14 17 10 18 11 19 12 20 13 21 20 22 21 23 22 24 23 25
REMARK SMILES IDX 24 26 25 27 86 28 26 29 85 30 27 31 28 32 29 33 79 34 30 35
REMARK SMILES IDX 84 36 78 37 80 38 31 39 83 40 77 41 76 42 32 44 64 45 44 46
REMARK SMILES IDX 63 47 45 48 48 49 62 50 81 51 46 52 47 53 61 55 82 56 49 57
REMARK SMILES IDX 33 58 34 59 42 60 35 61 36 62 40 63 43 64 37 65 38 66 41 67
REMARK SMILES IDX 39 68 65 69 66 70 74 71 67 72 68 73 72 74 75 75 69 76 70 77
REMARK SMILES IDX 73 78 71 79 50 80 51 81 59 82 52 83 53 84 57 85 60 86 54 87
REMARK SMILES IDX 55 88 58 89 56 90
REMARK H PARENT 5 10 5 11 80 43 48 54
REMARK Flexibility Score: inf
ROOT
ATOM      1  C   UNL A   1      31.725  28.240  25.951  1.00  0.00     0.274 C 
ENDROOT
BRANCH   1   2
ATOM      2  O   UNL A   1      32.891  27.596  25.406  1.00  0.00    -0.458 OA
BRANCH   2   3
ATOM      3  C   UNL A   1      32.684  26.708  24.392  1.00  0.00     0.365 C 
ATOM      4  O   UNL A   1      33.413  26.583  23.413  1.00  0.00    -0.245 OA
BRANCH   3   5
ATOM      5  C   UNL A   1      31.372  25.908  24.552  1.00  0.00     0.296 C 
BRANCH   5   6
ATOM      6  C   UNL A   1      31.703  24.471  25.044  1.00  0.00     0.053 C 
ATOM      7  C   UNL A   1      31.394  24.269  26.533  1.00  0.00     0.014 C 
ATOM      8  C   UNL A   1      31.049  23.358  24.225  1.00  0.00     0.014 C 
ENDBRANCH   5   6
BRANCH   5   9
ATOM      9  N   UNL A   1      30.531  25.974  23.333  1.00  0.00    -0.331 N 
ATOM     10  H   UNL A   1      30.425  25.033  22.955  1.00  0.00     0.347 HD
ATOM     11  H   UNL A   1      30.991  26.591  22.664  1.00  0.00     0.347 HD
BRANCH   9  12
ATOM     12  C   UNL A   1      29.196  26.526  23.617  1.00  0.00     0.298 C 
BRANCH  12  13
ATOM     13  C   UNL A   1      29.046  27.948  23.134  1.00  0.00     0.006 A 
ATOM     14  C   UNL A   1      27.813  28.596  23.165  1.00  0.00     0.012 A 
ATOM     15  C   UNL A   1      30.127  28.635  22.577  1.00  0.00     0.012 A 
ATOM     16  C   UNL A   1      27.681  29.918  22.715  1.00  0.00     0.026 A 
ATOM     17  C   UNL A   1      29.979  29.956  22.119  1.00  0.00     0.026 A 
ATOM     18  C   UNL A   1      28.759  30.652  22.196  1.00  0.00     0.036 A 
BRANCH  18  19
ATOM     19  N   UNL A   1      28.625  31.966  21.755  1.00  0.00    -0.378 N 
ATOM     20  C   UNL A   1      27.990  32.301  20.484  1.00  0.00     0.143 C 
ATOM     21  C   UNL A   1      28.775  33.076  22.691  1.00  0.00     0.143 C 
ENDBRANCH  18  19
ENDBRANCH  12  13
ENDBRANCH   9  12
ENDBRANCH   5   9
ENDBRANCH   3   5
ENDBRANCH   2   3
ENDBRANCH   1   2
BRANCH   1  22
ATOM     22  C   UNL A   1      31.817  29.754  25.778  1.00  0.00     0.275 C 
BRANCH  22  23
ATOM     23  O   UNL A   1      33.173  30.176  25.998  1.00  0.00    -0.458 OA
BRANCH  23  24
ATOM     24  C   UNL A   1      33.342  31.182  26.884  1.00  0.00     0.338 C 
ATOM     25  O   UNL A   1      32.647  32.165  27.057  1.00  0.00    -0.246 OA
BRANCH  24  26
ATOM     26  C   UNL A   1      34.551  30.902  27.669  1.00  0.00     0.060 A 
ATOM     27  C   UNL A   1      35.417  31.946  28.001  1.00  0.00     0.016 A 
ATOM     28  C   UNL A   1      34.851  29.590  28.024  1.00  0.00     0.016 A 
ATOM     29  C   UNL A   1      36.597  31.685  28.687  1.00  0.00     0.010 A 
ATOM     30  C   UNL A   1      36.013  29.332  28.751  1.00  0.00     0.010 A 
ATOM     31  C   UNL A   1      36.894  30.376  29.084  1.00  0.00    -0.014 A 
BRANCH  31  32
ATOM     32  C   UNL A   1      38.125  30.093  29.853  1.00  0.00     0.031 A 
ATOM     33  C   UNL A   1      39.167  29.180  29.285  1.00  0.00     0.074 A 
ATOM     34  C   UNL A   1      38.287  30.645  31.070  1.00  0.00     0.049 A 
ATOM     35  N   UNL A   1      40.225  28.671  29.864  1.00  0.00    -0.248 NA
ATOM     36  C   UNL A   1      38.995  28.782  27.880  1.00  0.00     0.031 C 
ATOM     37  C   UNL A   1      37.363  31.589  31.700  1.00  0.00     0.029 A 
ATOM     38  N   UNL A   1      39.281  30.477  32.001  1.00  0.00    -0.354 N 
ATOM     39  C   UNL A   1      40.828  27.870  28.904  1.00  0.00     0.074 A 
ATOM     40  C   UNL A   1      40.017  27.955  27.707  1.00  0.00     0.031 C 
ATOM     41  C   UNL A   1      37.831  31.914  32.915  1.00  0.00     0.029 A 
ATOM     42  C   UNL A   1      39.048  31.151  33.173  1.00  0.00     0.049 A 
ATOM     43  H   UNL A   1      40.083  29.927  31.843  1.00  0.00     0.167 HD
ATOM     44  C   UNL A   1      41.956  27.131  29.021  1.00  0.00     0.037 A 
ATOM     45  C   UNL A   1      39.714  31.118  34.342  1.00  0.00     0.037 A 
ATOM     46  C   UNL A   1      42.762  27.068  30.212  1.00  0.00     0.049 A 
ATOM     47  C   UNL A   1      40.920  30.229  34.468  1.00  0.00     0.074 A 
ATOM     48  C   UNL A   1      43.936  26.367  30.427  1.00  0.00     0.029 A 
ATOM     49  N   UNL A   1      42.472  27.734  31.395  1.00  0.00    -0.354 N 
ATOM     50  N   UNL A   1      41.477  29.458  33.567  1.00  0.00    -0.248 NA
ATOM     51  C   UNL A   1      41.578  30.191  35.781  1.00  0.00     0.031 C 
ATOM     52  C   UNL A   1      44.332  26.574  31.753  1.00  0.00     0.029 A 
ATOM     53  C   UNL A   1      43.429  27.438  32.351  1.00  0.00     0.049 A 
ATOM     54  H   UNL A   1      41.700  28.328  31.534  1.00  0.00     0.167 HD
ATOM     55  C   UNL A   1      42.553  28.850  34.196  1.00  0.00     0.074 A 
ATOM     56  C   UNL A   1      42.584  29.360  35.553  1.00  0.00     0.031 C 
ATOM     57  C   UNL A   1      43.434  27.949  33.698  1.00  0.00     0.037 A 
BRANCH  44  58
ATOM     58  C   UNL A   1      42.367  26.304  27.839  1.00  0.00     0.064 A 
ATOM     59  C   UNL A   1      41.798  25.050  27.581  1.00  0.00     0.173 A 
ATOM     60  C   UNL A   1      43.320  26.794  26.934  1.00  0.00     0.173 A 
ATOM     61  F   UNL A   1      40.894  24.531  28.426  1.00  0.00    -0.203 F 
ATOM     62  C   UNL A   1      42.185  24.305  26.470  1.00  0.00     0.198 A 
ATOM     63  C   UNL A   1      43.687  26.057  25.811  1.00  0.00     0.198 A 
ATOM     64  F   UNL A   1      43.893  27.991  27.135  1.00  0.00    -0.203 F 
ATOM     65  F   UNL A   1      41.656  23.090  26.262  1.00  0.00    -0.200 F 
ATOM     66  C   UNL A   1      43.122  24.811  25.581  1.00  0.00     0.200 A 
ATOM     67  F   UNL A   1      44.587  26.553  24.949  1.00  0.00    -0.200 F 
ATOM     68  F   UNL A   1      43.488  24.096  24.509  1.00  0.00    -0.200 F 
ENDBRANCH  44  58
BRANCH  45  69
ATOM     69  C   UNL A   1      39.226  31.917  35.494  1.00  0.00     0.064 A 
ATOM     70  C   UNL A   1      39.601  33.258  35.652  1.00  0.00     0.173 A 
ATOM     71  C   UNL A   1      38.370  31.359  36.456  1.00  0.00     0.173 A 
ATOM     72  F   UNL A   1      40.439  33.825  34.772  1.00  0.00    -0.203 F 
ATOM     73  C   UNL A   1      39.145  34.008  36.734  1.00  0.00     0.198 A 
ATOM     74  C   UNL A   1      37.892  32.119  37.521  1.00  0.00     0.198 A 
ATOM     75  F   UNL A   1      37.983  30.079  36.350  1.00  0.00    -0.203 F 
ATOM     76  F   UNL A   1      39.549  35.277  36.883  1.00  0.00    -0.200 F 
ATOM     77  C   UNL A   1      38.285  33.441  37.663  1.00  0.00     0.200 A 
ATOM     78  F   UNL A   1      37.053  31.570  38.411  1.00  0.00    -0.200 F 
ATOM     79  F   UNL A   1      37.843  34.166  38.699  1.00  0.00    -0.200 F 
ENDBRANCH  45  69
BRANCH  57  80
ATOM     80  C   UNL A   1      44.510  27.467  34.626  1.00  0.00     0.064 A 
ATOM     81  C   UNL A   1      44.344  26.306  35.394  1.00  0.00     0.173 A 
ATOM     82  C   UNL A   1      45.726  28.157  34.725  1.00  0.00     0.173 A 
ATOM     83  F   UNL A   1      43.189  25.624  35.346  1.00  0.00    -0.203 F 
ATOM     84  C   UNL A   1      45.353  25.863  36.245  1.00  0.00     0.198 A 
ATOM     85  C   UNL A   1      46.742  27.697  35.558  1.00  0.00     0.198 A 
ATOM     86  F   UNL A   1      45.933  29.271  34.007  1.00  0.00    -0.203 F 
ATOM     87  F   UNL A   1      45.158  24.776  37.003  1.00  0.00    -0.200 F 
ATOM     88  C   UNL A   1      46.553  26.555  36.322  1.00  0.00     0.200 A 
ATOM     89  F   UNL A   1      47.904  28.362  35.623  1.00  0.00    -0.200 F 
ATOM     90  F   UNL A   1      47.523  26.126  37.138  1.00  0.00    -0.200 F 
ENDBRANCH  57  80
ENDBRANCH  31  32
ENDBRANCH  24  26
ENDBRANCH  23  24
ENDBRANCH  22  23
ENDBRANCH   1  22
TORSDOF 16
ENDMDL
MODEL 2
REMARK VINA RESULT:     -11.3      1.574      3.824
REMARK SMILES CC(C)[C@H]([NH2+]Cc1ccc(N(C)C)cc1)C(=O)OCCOC(=O)c1ccc(-c2c3nc(c(-c4c(F)c(F)c(F)c(F)c4F)c4ccc([nH]4)c(-c4c(F)c(F)c(F)c(F)c4F)c4nc(c(-c5c(F)c(F)c(F)c(F)c5F)c5ccc2[nH]5)C=C4)C=C3)cc1
REMARK SMILES IDX 19 1 18 2 16 3 17 4 4 5 2 6 1 7 3 8 5 9 6 12 7 13 8 14 15 15
REMARK SMILES IDX 9 16 14 17 10 18 11 19 12 20 13 21 20 22 21 23 22 24 23 25
REMARK SMILES IDX 24 26 25 27 86 28 26 29 85 30 27 31 28 32 29 33 79 34 30 35
REMARK SMILES IDX 84 36 78 37 80 38 31 39 83 40 77 41 76 42 32 44 64 45 44 46
REMARK SMILES IDX 63 47 45 48 48 49 62 50 81 51 46 52 47 53 61 55 82 56 49 57
REMARK SMILES IDX 33 58 34 59 42 60 35 61 36 62 40 63 43 64 37 65 38 66 41 67
REMARK SMILES IDX 39 68 65 69 66 70 74 71 67 72 68 73 72 74 75 75 69 76 70 77
REMARK SMILES IDX 73 78 71 79 50 80 51 81 59 82 52 83 53 84 57 85 60 86 54 87
REMARK SMILES IDX 55 88 58 89 56 90
REMARK H PARENT 5 10 5 11 80 43 48 54
REMARK Flexibility Score: inf
ROOT
ATOM      1  C   UNL A   1      31.463  29.479  24.334  1.00  0.00     0.274 C 
ENDROOT
BRANCH   1   2
ATOM      2  O   UNL A   1      30.576  28.360  24.150  1.00  0.00    -0.458 OA
BRANCH   2   3
ATOM      3  C   UNL A   1      30.929  27.447  23.202  1.00  0.00     0.365 C 
ATOM      4  O   UNL A   1      30.652  27.533  22.010  1.00  0.00    -0.245 OA
BRANCH   3   5
ATOM      5  C   UNL A   1      31.659  26.220  23.793  1.00  0.00     0.296 C 
BRANCH   5   6
ATOM      6  C   UNL A   1      31.489  25.010  22.831  1.00  0.00     0.053 C 
ATOM      7  C   UNL A   1      32.819  24.542  22.226  1.00  0.00     0.014 C 
ATOM      8  C   UNL A   1      30.754  23.816  23.443  1.00  0.00     0.014 C 
ENDBRANCH   5   6
BRANCH   5   9
ATOM      9  N   UNL A   1      31.265  25.962  25.198  1.00  0.00    -0.331 N 
ATOM     10  H   UNL A   1      30.892  25.016  25.267  1.00  0.00     0.347 HD
ATOM     11  H   UNL A   1      30.565  26.655  25.462  1.00  0.00     0.347 HD
BRANCH   9  12
ATOM     12  C   UNL A   1      32.405  26.093  26.121  1.00  0.00     0.298 C 
BRANCH  12  13
ATOM     13  C   UNL A   1      33.392  24.959  25.980  1.00  0.00     0.006 A 
ATOM     14  C   UNL A   1      33.123  23.698  26.508  1.00  0.00     0.012 A 
ATOM     15  C   UNL A   1      34.635  25.159  25.375  1.00  0.00     0.012 A 
ATOM     16  C   UNL A   1      34.044  22.648  26.374  1.00  0.00     0.026 A 
ATOM     17  C   UNL A   1      35.554  24.101  25.258  1.00  0.00     0.026 A 
ATOM     18  C   UNL A   1      35.280  22.804  25.728  1.00  0.00     0.036 A 
BRANCH  18  19
ATOM     19  N   UNL A   1      36.190  21.759  25.592  1.00  0.00    -0.378 N 
ATOM     20  C   UNL A   1      35.821  20.476  25.001  1.00  0.00     0.143 C 
ATOM     21  C   UNL A   1      37.624  22.013  25.690  1.00  0.00     0.143 C 
ENDBRANCH  18  19
ENDBRANCH  12  13
ENDBRANCH   9  12
ENDBRANCH   5   9
ENDBRANCH   3   5
ENDBRANCH   2   3
ENDBRANCH   1   2
BRANCH   1  22
ATOM     22  C   UNL A   1      31.755  29.697  25.815  1.00  0.00     0.275 C 
BRANCH  22  23
ATOM     23  O   UNL A   1      33.095  30.193  25.968  1.00  0.00    -0.458 OA
BRANCH  23  24
ATOM     24  C   UNL A   1      33.263  31.170  26.886  1.00  0.00     0.338 C 
ATOM     25  O   UNL A   1      32.546  32.126  27.115  1.00  0.00    -0.246 OA
BRANCH  24  26
ATOM     26  C   UNL A   1      34.501  30.895  27.626  1.00  0.00     0.060 A 
ATOM     27  C   UNL A   1      34.791  29.590  28.028  1.00  0.00     0.016 A 
ATOM     28  C   UNL A   1      35.343  31.949  27.970  1.00  0.00     0.016 A 
ATOM     29  C   UNL A   1      35.926  29.328  28.786  1.00  0.00     0.010 A 
ATOM     30  C   UNL A   1      36.506  31.681  28.692  1.00  0.00     0.010 A 
ATOM     31  C   UNL A   1      36.802  30.371  29.107  1.00  0.00    -0.014 A 
BRANCH  31  32
ATOM     32  C   UNL A   1      38.037  30.096  29.874  1.00  0.00     0.031 A 
ATOM     33  C   UNL A   1      39.082  29.186  29.307  1.00  0.00     0.074 A 
ATOM     34  C   UNL A   1      38.199  30.651  31.089  1.00  0.00     0.049 A 
ATOM     35  N   UNL A   1      40.144  28.683  29.884  1.00  0.00    -0.248 NA
ATOM     36  C   UNL A   1      38.909  28.783  27.903  1.00  0.00     0.031 C 
ATOM     37  C   UNL A   1      37.272  31.593  31.719  1.00  0.00     0.029 A 
ATOM     38  N   UNL A   1      39.195  30.491  32.019  1.00  0.00    -0.354 N 
ATOM     39  C   UNL A   1      40.749  27.883  28.925  1.00  0.00     0.074 A 
ATOM     40  C   UNL A   1      39.934  27.961  27.730  1.00  0.00     0.031 C 
ATOM     41  C   UNL A   1      37.740  31.923  32.932  1.00  0.00     0.029 A 
ATOM     42  C   UNL A   1      38.961  31.166  33.190  1.00  0.00     0.049 A 
ATOM     43  H   UNL A   1      39.999  29.944  31.861  1.00  0.00     0.167 HD
ATOM     44  C   UNL A   1      41.880  27.149  29.042  1.00  0.00     0.037 A 
ATOM     45  C   UNL A   1      39.630  31.139  34.358  1.00  0.00     0.037 A 
ATOM     46  C   UNL A   1      42.689  27.093  30.232  1.00  0.00     0.049 A 
ATOM     47  C   UNL A   1      40.840  30.257  34.483  1.00  0.00     0.074 A 
ATOM     48  C   UNL A   1      43.866  26.398  30.446  1.00  0.00     0.029 A 
ATOM     49  N   UNL A   1      42.398  27.761  31.413  1.00  0.00    -0.354 N 
ATOM     50  N   UNL A   1      41.399  29.486  33.583  1.00  0.00    -0.248 NA
ATOM     51  C   UNL A   1      41.501  30.225  35.795  1.00  0.00     0.031 C 
ATOM     52  C   UNL A   1      44.264  26.611  31.770  1.00  0.00     0.029 A 
ATOM     53  C   UNL A   1      43.359  27.472  32.368  1.00  0.00     0.049 A 
ATOM     54  H   UNL A   1      41.623  28.351  31.553  1.00  0.00     0.167 HD
ATOM     55  C   UNL A   1      42.479  28.885  34.211  1.00  0.00     0.074 A 
ATOM     56  C   UNL A   1      42.511  29.398  35.567  1.00  0.00     0.031 C 
ATOM     57  C   UNL A   1      43.363  27.987  33.714  1.00  0.00     0.037 A 
BRANCH  44  58
ATOM     58  C   UNL A   1      42.293  26.322  27.862  1.00  0.00     0.064 A 
ATOM     59  C   UNL A   1      41.705  25.079  27.589  1.00  0.00     0.173 A 
ATOM     60  C   UNL A   1      43.267  26.799  26.972  1.00  0.00     0.173 A 
ATOM     61  F   UNL A   1      40.780  24.572  28.419  1.00  0.00    -0.203 F 
ATOM     62  C   UNL A   1      42.093  24.332  26.479  1.00  0.00     0.198 A 
ATOM     63  C   UNL A   1      43.635  26.062  25.850  1.00  0.00     0.198 A 
ATOM     64  F   UNL A   1      43.858  27.984  27.187  1.00  0.00    -0.203 F 
ATOM     65  F   UNL A   1      41.546  23.129  26.257  1.00  0.00    -0.200 F 
ATOM     66  C   UNL A   1      43.052  24.827  25.606  1.00  0.00     0.200 A 
ATOM     67  F   UNL A   1      44.556  26.545  25.003  1.00  0.00    -0.200 F 
ATOM     68  F   UNL A   1      43.420  24.111  24.535  1.00  0.00    -0.200 F 
ENDBRANCH  44  58
BRANCH  45  69
ATOM     69  C   UNL A   1      39.140  31.940  35.508  1.00  0.00     0.064 A 
ATOM     70  C   UNL A   1      38.317  31.367  36.486  1.00  0.00     0.173 A 
ATOM     71  C   UNL A   1      39.490  33.290  35.656  1.00  0.00     0.173 A 
ATOM     72  F   UNL A   1      37.935  30.087  36.372  1.00  0.00    -0.203 F 
ATOM     73  C   UNL A   1      37.854  32.118  37.565  1.00  0.00     0.198 A 
ATOM     74  C   UNL A   1      39.051  34.032  36.750  1.00  0.00     0.198 A 
ATOM     75  F   UNL A   1      40.275  33.885  34.745  1.00  0.00    -0.203 F 
ATOM     76  F   UNL A   1      37.037  31.557  38.467  1.00  0.00    -0.200 F 
ATOM     77  C   UNL A   1      38.229  33.447  37.700  1.00  0.00     0.200 A 
ATOM     78  F   UNL A   1      39.422  35.313  36.882  1.00  0.00    -0.200 F 
ATOM     79  F   UNL A   1      37.788  34.165  38.742  1.00  0.00    -0.200 F 
ENDBRANCH  45  69
BRANCH  57  80
ATOM     80  C   UNL A   1      44.443  27.512  34.640  1.00  0.00     0.064 A 
ATOM     81  C   UNL A   1      44.289  26.346  35.404  1.00  0.00     0.173 A 
ATOM     82  C   UNL A   1      45.653  28.214  34.744  1.00  0.00     0.173 A 
ATOM     83  F   UNL A   1      43.142  25.652  35.352  1.00  0.00    -0.203 F 
ATOM     84  C   UNL A   1      45.302  25.910  36.254  1.00  0.00     0.198 A 
ATOM     85  C   UNL A   1      46.673  27.762  35.576  1.00  0.00     0.198 A 
ATOM     86  F   UNL A   1      45.848  29.334  34.031  1.00  0.00    -0.203 F 
ATOM     87  F   UNL A   1      45.118  24.818  37.007  1.00  0.00    -0.200 F 
ATOM     88  C   UNL A   1      46.495  26.615  36.335  1.00  0.00     0.200 A 
ATOM     89  F   UNL A   1      47.827  28.438  35.645  1.00  0.00    -0.200 F 
ATOM     90  F   UNL A   1      47.469  26.192  37.150  1.00  0.00    -0.200 F 
ENDBRANCH  57  80
ENDBRANCH  31  32
ENDBRANCH  24  26
ENDBRANCH  23  24
ENDBRANCH  22  23
ENDBRANCH   1  22
TORSDOF 16
ENDMDL
MODEL 3
REMARK VINA RESULT:     -11.0      1.463      4.093
REMARK SMILES CC(C)[C@H]([NH2+]Cc1ccc(N(C)C)cc1)C(=O)OCCOC(=O)c1ccc(-c2c3nc(c(-c4c(F)c(F)c(F)c(F)c4F)c4ccc([nH]4)c(-c4c(F)c(F)c(F)c(F)c4F)c4nc(c(-c5c(F)c(F)c(F)c(F)c5F)c5ccc2[nH]5)C=C4)C=C3)cc1
REMARK SMILES IDX 19 1 18 2 16 3 17 4 4 5 2 6 1 7 3 8 5 9 6 12 7 13 8 14 15 15
REMARK SMILES IDX 9 16 14 17 10 18 11 19 12 20 13 21 20 22 21 23 22 24 23 25
REMARK SMILES IDX 24 26 25 27 86 28 26 29 85 30 27 31 28 32 29 33 79 34 30 35
REMARK SMILES IDX 84 36 78 37 80 38 31 39 83 40 77 41 76 42 32 44 64 45 44 46
REMARK SMILES IDX 63 47 45 48 48 49 62 50 81 51 46 52 47 53 61 55 82 56 49 57
REMARK SMILES IDX 33 58 34 59 42 60 35 61 36 62 40 63 43 64 37 65 38 66 41 67
REMARK SMILES IDX 39 68 65 69 66 70 74 71 67 72 68 73 72 74 75 75 69 76 70 77
REMARK SMILES IDX 73 78 71 79 50 80 51 81 59 82 52 83 53 84 57 85 60 86 54 87
REMARK SMILES IDX 55 88 58 89 56 90
REMARK H PARENT 5 10 5 11 80 43 48 54
REMARK Flexibility Score: inf
ROOT
ATOM      1  C   UNL A   1      31.095  29.822  24.777  1.00  0.00     0.274 C 
ENDROOT
BRANCH   1   2
ATOM      2  O   UNL A   1      31.808  29.295  23.643  1.00  0.00    -0.458 OA
BRANCH   2   3
ATOM      3  C   UNL A   1      31.226  28.255  22.981  1.00  0.00     0.365 C 
ATOM      4  O   UNL A   1      30.417  28.373  22.067  1.00  0.00    -0.245 OA
BRANCH   3   5
ATOM      5  C   UNL A   1      31.628  26.878  23.555  1.00  0.00     0.296 C 
BRANCH   5   6
ATOM      6  C   UNL A   1      33.178  26.765  23.581  1.00  0.00     0.053 C 
ATOM      7  C   UNL A   1      33.703  26.107  24.863  1.00  0.00     0.014 C 
ATOM      8  C   UNL A   1      33.781  26.068  22.360  1.00  0.00     0.014 C 
ENDBRANCH   5   6
BRANCH   5   9
ATOM      9  N   UNL A   1      30.931  25.765  22.866  1.00  0.00    -0.331 N 
ATOM     10  H   UNL A   1      31.614  25.231  22.329  1.00  0.00     0.347 HD
ATOM     11  H   UNL A   1      30.217  26.167  22.258  1.00  0.00     0.347 HD
BRANCH   9  12
ATOM     12  C   UNL A   1      30.263  24.863  23.818  1.00  0.00     0.298 C 
BRANCH  12  13
ATOM     13  C   UNL A   1      31.038  23.587  24.043  1.00  0.00     0.006 A 
ATOM     14  C   UNL A   1      31.777  23.001  23.018  1.00  0.00     0.012 A 
ATOM     15  C   UNL A   1      30.981  22.918  25.268  1.00  0.00     0.012 A 
ATOM     16  C   UNL A   1      32.496  21.815  23.234  1.00  0.00     0.026 A 
ATOM     17  C   UNL A   1      31.695  21.725  25.467  1.00  0.00     0.026 A 
ATOM     18  C   UNL A   1      32.498  21.146  24.467  1.00  0.00     0.036 A 
BRANCH  18  19
ATOM     19  N   UNL A   1      33.216  19.972  24.680  1.00  0.00    -0.378 N 
ATOM     20  C   UNL A   1      32.669  18.656  24.366  1.00  0.00     0.143 C 
ATOM     21  C   UNL A   1      34.663  20.018  24.873  1.00  0.00     0.143 C 
ENDBRANCH  18  19
ENDBRANCH  12  13
ENDBRANCH   9  12
ENDBRANCH   5   9
ENDBRANCH   3   5
ENDBRANCH   2   3
ENDBRANCH   1   2
BRANCH   1  22
ATOM     22  C   UNL A   1      31.845  29.518  26.071  1.00  0.00     0.275 C 
BRANCH  22  23
ATOM     23  O   UNL A   1      33.133  30.155  26.035  1.00  0.00    -0.458 OA
BRANCH  23  24
ATOM     24  C   UNL A   1      33.323  31.156  26.921  1.00  0.00     0.338 C 
ATOM     25  O   UNL A   1      32.615  32.121  27.138  1.00  0.00    -0.246 OA
BRANCH  24  26
ATOM     26  C   UNL A   1      34.576  30.898  27.642  1.00  0.00     0.060 A 
ATOM     27  C   UNL A   1      34.836  29.620  28.140  1.00  0.00     0.016 A 
ATOM     28  C   UNL A   1      35.463  31.945  27.874  1.00  0.00     0.016 A 
ATOM     29  C   UNL A   1      35.987  29.379  28.881  1.00  0.00     0.010 A 
ATOM     30  C   UNL A   1      36.640  31.695  28.579  1.00  0.00     0.010 A 
ATOM     31  C   UNL A   1      36.907  30.413  29.089  1.00  0.00    -0.014 A 
BRANCH  31  32
ATOM     32  C   UNL A   1      38.157  30.156  29.839  1.00  0.00     0.031 A 
ATOM     33  C   UNL A   1      39.199  29.248  29.263  1.00  0.00     0.074 A 
ATOM     34  C   UNL A   1      38.336  30.727  31.044  1.00  0.00     0.049 A 
ATOM     35  N   UNL A   1      40.275  28.760  29.828  1.00  0.00    -0.248 NA
ATOM     36  C   UNL A   1      39.005  28.827  27.868  1.00  0.00     0.031 C 
ATOM     37  C   UNL A   1      37.412  31.669  31.678  1.00  0.00     0.029 A 
ATOM     38  N   UNL A   1      39.349  30.586  31.958  1.00  0.00    -0.354 N 
ATOM     39  C   UNL A   1      40.869  27.953  28.868  1.00  0.00     0.074 A 
ATOM     40  C   UNL A   1      40.034  28.011  27.687  1.00  0.00     0.031 C 
ATOM     41  C   UNL A   1      37.899  32.017  32.879  1.00  0.00     0.029 A 
ATOM     42  C   UNL A   1      39.130  31.274  33.124  1.00  0.00     0.049 A 
ATOM     43  H   UNL A   1      40.155  30.044  31.792  1.00  0.00     0.167 HD
ATOM     44  C   UNL A   1      42.008  27.230  28.974  1.00  0.00     0.037 A 
ATOM     45  C   UNL A   1      39.820  31.266  34.281  1.00  0.00     0.037 A 
ATOM     46  C   UNL A   1      42.838  27.194  30.150  1.00  0.00     0.049 A 
ATOM     47  C   UNL A   1      41.039  30.394  34.396  1.00  0.00     0.074 A 
ATOM     48  C   UNL A   1      44.024  26.511  30.352  1.00  0.00     0.029 A 
ATOM     49  N   UNL A   1      42.562  27.874  31.328  1.00  0.00    -0.354 N 
ATOM     50  N   UNL A   1      41.588  29.617  33.495  1.00  0.00    -0.248 NA
ATOM     51  C   UNL A   1      41.722  30.383  35.696  1.00  0.00     0.031 C 
ATOM     52  C   UNL A   1      44.444  26.742  31.666  1.00  0.00     0.029 A 
ATOM     53  C   UNL A   1      43.542  27.604  32.270  1.00  0.00     0.049 A 
ATOM     54  H   UNL A   1      41.786  28.460  31.474  1.00  0.00     0.167 HD
ATOM     55  C   UNL A   1      42.684  29.032  34.111  1.00  0.00     0.074 A 
ATOM     56  C   UNL A   1      42.735  29.561  35.460  1.00  0.00     0.031 C 
ATOM     57  C   UNL A   1      43.566  28.135  33.609  1.00  0.00     0.037 A 
BRANCH  44  58
ATOM     58  C   UNL A   1      42.407  26.391  27.796  1.00  0.00     0.064 A 
ATOM     59  C   UNL A   1      43.335  26.842  26.848  1.00  0.00     0.173 A 
ATOM     60  C   UNL A   1      41.875  25.103  27.636  1.00  0.00     0.173 A 
ATOM     61  F   UNL A   1      43.861  28.073  26.949  1.00  0.00    -0.203 F 
ATOM     62  C   UNL A   1      43.702  26.041  25.770  1.00  0.00     0.198 A 
ATOM     63  C   UNL A   1      42.262  24.295  26.570  1.00  0.00     0.198 A 
ATOM     64  F   UNL A   1      40.984  24.624  28.518  1.00  0.00    -0.203 F 
ATOM     65  F   UNL A   1      44.563  26.506  24.853  1.00  0.00    -0.200 F 
ATOM     66  C   UNL A   1      43.172  24.766  25.635  1.00  0.00     0.200 A 
ATOM     67  F   UNL A   1      41.754  23.060  26.447  1.00  0.00    -0.200 F 
ATOM     68  F   UNL A   1      43.530  23.994  24.600  1.00  0.00    -0.200 F 
ENDBRANCH  44  58
BRANCH  45  69
ATOM     69  C   UNL A   1      39.344  32.076  35.430  1.00  0.00     0.064 A 
ATOM     70  C   UNL A   1      38.487  31.528  36.393  1.00  0.00     0.173 A 
ATOM     71  C   UNL A   1      39.741  33.412  35.592  1.00  0.00     0.173 A 
ATOM     72  F   UNL A   1      38.060  30.263  36.265  1.00  0.00    -0.203 F 
ATOM     73  C   UNL A   1      38.037  32.288  37.470  1.00  0.00     0.198 A 
ATOM     74  C   UNL A   1      39.314  34.162  36.685  1.00  0.00     0.198 A 
ATOM     75  F   UNL A   1      40.559  33.984  34.696  1.00  0.00    -0.203 F 
ATOM     76  F   UNL A   1      37.188  31.751  38.357  1.00  0.00    -0.200 F 
ATOM     77  C   UNL A   1      38.458  33.601  37.620  1.00  0.00     0.200 A 
ATOM     78  F   UNL A   1      39.730  35.428  36.831  1.00  0.00    -0.200 F 
ATOM     79  F   UNL A   1      38.029  34.329  38.661  1.00  0.00    -0.200 F 
ENDBRANCH  45  69
BRANCH  57  80
ATOM     80  C   UNL A   1      44.666  27.679  34.522  1.00  0.00     0.064 A 
ATOM     81  C   UNL A   1      45.872  28.388  34.621  1.00  0.00     0.173 A 
ATOM     82  C   UNL A   1      44.501  26.542  35.325  1.00  0.00     0.173 A 
ATOM     83  F   UNL A   1      46.083  29.472  33.858  1.00  0.00    -0.203 F 
ATOM     84  C   UNL A   1      46.883  27.961  35.478  1.00  0.00     0.198 A 
ATOM     85  C   UNL A   1      45.503  26.133  36.199  1.00  0.00     0.198 A 
ATOM     86  F   UNL A   1      43.363  25.833  35.267  1.00  0.00    -0.203 F 
ATOM     87  F   UNL A   1      48.044  28.627  35.525  1.00  0.00    -0.200 F 
ATOM     88  C   UNL A   1      46.695  26.838  36.271  1.00  0.00     0.200 A 
ATOM     89  F   UNL A   1      45.316  25.053  36.971  1.00  0.00    -0.200 F 
ATOM     90  F   UNL A   1      47.667  26.431  37.097  1.00  0.00    -0.200 F 
ENDBRANCH  57  80
ENDBRANCH  31  32
ENDBRANCH  24  26
ENDBRANCH  23  24
ENDBRANCH  22  23
ENDBRANCH   1  22
TORSDOF 16
ENDMDL
