MODEL 1
REMARK VINA RESULT:     -11.0      0.000      0.000
REMARK SMILES Cn1cc(C(=O)OCCOC(=O)c2ccc(-c3c4nc(c(-c5c(F)c(F)c(F)c(F)c5F)c5ccc([nH]5)c(-c5c(F)c(F)c(F)c(F)c5F)c5nc(c(-c6c(F)c(F)c(F)c(F)c6F)c6ccc3[nH]6)C=C5)C=C4)cc2)c(C(=O)Nc2ccc(-c3nc4cc(Cl)ccc4o3)cc2)n1
REMARK SMILES IDX 8 1 7 2 5 3 6 4 4 5 1 6 2 7 3 8 96 9 76 10 77 11 78 12 79 13
REMARK SMILES IDX 80 15 81 16 95 17 82 18 94 19 83 20 84 21 85 22 93 23 86 24
REMARK SMILES IDX 92 25 87 26 91 27 88 28 90 29 89 30 9 31 10 32 11 33 12 34
REMARK SMILES IDX 13 35 14 36 75 37 15 38 74 39 16 40 17 41 18 42 68 43 19 44
REMARK SMILES IDX 73 45 67 46 69 47 20 48 72 49 66 50 65 51 21 53 53 54 33 55
REMARK SMILES IDX 52 56 34 57 37 58 51 59 70 60 35 61 36 62 50 64 71 65 38 66
REMARK SMILES IDX 22 67 23 68 31 69 24 70 25 71 29 72 32 73 26 74 27 75 30 76
REMARK SMILES IDX 28 77 54 78 55 79 63 80 56 81 57 82 61 83 64 84 58 85 59 86
REMARK SMILES IDX 62 87 60 88 39 89 40 90 48 91 41 92 42 93 46 94 49 95 43 96
REMARK SMILES IDX 44 97 47 98 45 99
REMARK H PARENT 79 14 69 52 37 63
REMARK Flexibility Score: inf
ROOT
ATOM      1  C   UNL A   1      33.726  33.475  28.624  1.00  0.00     0.275 C 
ENDROOT
BRANCH   1   2
ATOM      2  O   UNL A   1      34.558  34.062  29.632  1.00  0.00    -0.458 OA
BRANCH   2   3
ATOM      3  C   UNL A   1      34.833  33.349  30.762  1.00  0.00     0.342 C 
ATOM      4  O   UNL A   1      34.026  32.705  31.412  1.00  0.00    -0.246 OA
BRANCH   3   5
ATOM      5  C   UNL A   1      36.221  33.536  31.110  1.00  0.00     0.111 A 
ATOM      6  C   UNL A   1      39.521  34.631  30.177  1.00  0.00     0.173 C 
ATOM      7  N   UNL A   1      38.304  34.120  30.762  1.00  0.00    -0.274 N 
ATOM      8  C   UNL A   1      37.070  34.185  30.225  1.00  0.00     0.125 A 
ATOM      9  N   UNL A   1      38.338  33.475  31.928  1.00  0.00    -0.167 NA
ATOM     10  C   UNL A   1      37.054  33.122  32.207  1.00  0.00     0.165 A 
BRANCH  10  11
ATOM     11  C   UNL A   1      36.852  32.431  33.519  1.00  0.00     0.277 C 
ATOM     12  O   UNL A   1      36.161  32.940  34.411  1.00  0.00    -0.267 OA
ATOM     13  N   UNL A   1      37.193  31.114  33.734  1.00  0.00    -0.321 N 
ATOM     14  H   UNL A   1      36.446  30.543  34.023  1.00  0.00     0.170 HD
BRANCH  13  15
ATOM     15  C   UNL A   1      38.410  30.447  33.613  1.00  0.00     0.041 A 
ATOM     16  C   UNL A   1      39.519  30.985  34.267  1.00  0.00     0.027 A 
ATOM     17  C   UNL A   1      38.558  29.296  32.854  1.00  0.00     0.027 A 
ATOM     18  C   UNL A   1      40.691  30.232  34.378  1.00  0.00     0.016 A 
ATOM     19  C   UNL A   1      39.750  28.572  32.914  1.00  0.00     0.016 A 
ATOM     20  C   UNL A   1      40.769  28.965  33.789  1.00  0.00     0.037 A 
BRANCH  20  21
ATOM     21  C   UNL A   1      41.705  27.948  34.271  1.00  0.00     0.227 A 
ATOM     22  N   UNL A   1      42.871  27.597  33.748  1.00  0.00    -0.209 NA
ATOM     23  O   UNL A   1      41.154  27.004  35.107  1.00  0.00    -0.436 OA
ATOM     24  C   UNL A   1      43.029  26.295  34.154  1.00  0.00     0.111 A 
ATOM     25  C   UNL A   1      41.979  25.928  34.978  1.00  0.00     0.155 A 
ATOM     26  C   UNL A   1      43.994  25.338  33.813  1.00  0.00     0.053 A 
ATOM     27  C   UNL A   1      41.786  24.657  35.505  1.00  0.00     0.051 A 
ATOM     28  C   UNL A   1      43.816  24.037  34.302  1.00  0.00     0.043 A 
ATOM     29  C   UNL A   1      42.736  23.701  35.129  1.00  0.00     0.024 A 
ATOM     30  Cl  UNL A   1      44.936  22.811  33.841  1.00  0.00    -0.084 Cl
ENDBRANCH  20  21
ENDBRANCH  13  15
ENDBRANCH  10  11
ENDBRANCH   3   5
ENDBRANCH   2   3
ENDBRANCH   1   2
BRANCH   1  31
ATOM     31  C   UNL A   1      34.516  32.351  27.940  1.00  0.00     0.275 C 
BRANCH  31  32
ATOM     32  O   UNL A   1      34.056  31.053  28.383  1.00  0.00    -0.458 OA
BRANCH  32  33
ATOM     33  C   UNL A   1      34.615  29.987  27.753  1.00  0.00     0.338 C 
ATOM     34  O   UNL A   1      34.104  29.315  26.873  1.00  0.00    -0.246 OA
BRANCH  33  35
ATOM     35  C   UNL A   1      36.025  29.805  28.185  1.00  0.00     0.060 A 
ATOM     36  C   UNL A   1      37.030  30.088  27.251  1.00  0.00     0.016 A 
ATOM     37  C   UNL A   1      36.378  29.381  29.473  1.00  0.00     0.016 A 
ATOM     38  C   UNL A   1      38.375  29.907  27.582  1.00  0.00     0.010 A 
ATOM     39  C   UNL A   1      37.730  29.196  29.803  1.00  0.00     0.010 A 
ATOM     40  C   UNL A   1      38.734  29.420  28.846  1.00  0.00    -0.014 A 
BRANCH  40  41
ATOM     41  C   UNL A   1      40.128  28.944  29.060  1.00  0.00     0.031 A 
ATOM     42  C   UNL A   1      41.052  29.804  29.883  1.00  0.00     0.074 A 
ATOM     43  C   UNL A   1      40.564  27.754  28.611  1.00  0.00     0.049 A 
ATOM     44  N   UNL A   1      42.247  29.537  30.346  1.00  0.00    -0.248 NA
ATOM     45  C   UNL A   1      40.550  31.140  30.244  1.00  0.00     0.031 C 
ATOM     46  C   UNL A   1      39.786  26.801  27.827  1.00  0.00     0.029 A 
ATOM     47  N   UNL A   1      41.787  27.144  28.771  1.00  0.00    -0.354 N 
ATOM     48  C   UNL A   1      42.614  30.645  31.095  1.00  0.00     0.074 A 
ATOM     49  C   UNL A   1      41.547  31.616  30.974  1.00  0.00     0.031 C 
ATOM     50  C   UNL A   1      40.552  25.723  27.570  1.00  0.00     0.029 A 
ATOM     51  C   UNL A   1      41.869  25.908  28.179  1.00  0.00     0.049 A 
ATOM     52  H   UNL A   1      42.533  27.554  29.265  1.00  0.00     0.167 HD
ATOM     53  C   UNL A   1      43.726  30.835  31.842  1.00  0.00     0.037 A 
ATOM     54  C   UNL A   1      42.886  25.024  28.147  1.00  0.00     0.037 A 
ATOM     55  C   UNL A   1      44.816  29.907  31.948  1.00  0.00     0.049 A 
ATOM     56  C   UNL A   1      44.172  25.318  28.881  1.00  0.00     0.074 A 
ATOM     57  C   UNL A   1      45.975  30.017  32.695  1.00  0.00     0.029 A 
ATOM     58  N   UNL A   1      44.892  28.706  31.263  1.00  0.00    -0.354 N 
ATOM     59  N   UNL A   1      44.473  26.327  29.660  1.00  0.00    -0.248 NA
ATOM     60  C   UNL A   1      45.259  24.335  28.736  1.00  0.00     0.031 C 
ATOM     61  C   UNL A   1      46.775  28.901  32.427  1.00  0.00     0.029 A 
ATOM     62  C   UNL A   1      46.098  28.083  31.538  1.00  0.00     0.049 A 
ATOM     63  H   UNL A   1      44.193  28.348  30.669  1.00  0.00     0.167 HD
ATOM     64  C   UNL A   1      45.761  26.083  30.124  1.00  0.00     0.074 A 
ATOM     65  C   UNL A   1      46.188  24.831  29.541  1.00  0.00     0.031 C 
ATOM     66  C   UNL A   1      46.516  26.832  30.964  1.00  0.00     0.037 A 
BRANCH  53  67
ATOM     67  C   UNL A   1      43.811  32.113  32.615  1.00  0.00     0.064 A 
ATOM     68  C   UNL A   1      44.038  33.334  31.963  1.00  0.00     0.173 A 
ATOM     69  C   UNL A   1      43.649  32.121  34.005  1.00  0.00     0.173 A 
ATOM     70  F   UNL A   1      44.214  33.369  30.634  1.00  0.00    -0.203 F 
ATOM     71  C   UNL A   1      44.114  34.522  32.684  1.00  0.00     0.198 A 
ATOM     72  C   UNL A   1      43.711  33.312  34.721  1.00  0.00     0.198 A 
ATOM     73  F   UNL A   1      43.434  30.975  34.667  1.00  0.00    -0.203 F 
ATOM     74  F   UNL A   1      44.362  35.675  32.050  1.00  0.00    -0.200 F 
ATOM     75  C   UNL A   1      43.947  34.510  34.061  1.00  0.00     0.200 A 
ATOM     76  F   UNL A   1      43.548  33.302  36.051  1.00  0.00    -0.200 F 
ATOM     77  F   UNL A   1      44.021  35.654  34.756  1.00  0.00    -0.200 F 
ENDBRANCH  53  67
BRANCH  54  78
ATOM     78  C   UNL A   1      42.747  23.751  27.396  1.00  0.00     0.064 A 
ATOM     79  C   UNL A   1      42.278  22.589  28.025  1.00  0.00     0.173 A 
ATOM     80  C   UNL A   1      43.151  23.654  26.058  1.00  0.00     0.173 A 
ATOM     81  F   UNL A   1      41.918  22.625  29.316  1.00  0.00    -0.203 F 
ATOM     82  C   UNL A   1      42.234  21.373  27.347  1.00  0.00     0.198 A 
ATOM     83  C   UNL A   1      43.091  22.441  25.375  1.00  0.00     0.198 A 
ATOM     84  F   UNL A   1      43.626  24.734  25.420  1.00  0.00    -0.203 F 
ATOM     85  F   UNL A   1      41.832  20.265  27.984  1.00  0.00    -0.200 F 
ATOM     86  C   UNL A   1      42.640  21.300  26.022  1.00  0.00     0.200 A 
ATOM     87  F   UNL A   1      43.490  22.372  24.098  1.00  0.00    -0.200 F 
ATOM     88  F   UNL A   1      42.616  20.127  25.376  1.00  0.00    -0.200 F 
ENDBRANCH  54  78
BRANCH  66  89
ATOM     89  C   UNL A   1      47.876  26.316  31.328  1.00  0.00     0.064 A 
ATOM     90  C   UNL A   1      48.081  25.543  32.480  1.00  0.00     0.173 A 
ATOM     91  C   UNL A   1      48.974  26.542  30.484  1.00  0.00     0.173 A 
ATOM     92  F   UNL A   1      47.065  25.310  33.325  1.00  0.00    -0.203 F 
ATOM     93  C   UNL A   1      49.338  25.025  32.780  1.00  0.00     0.198 A 
ATOM     94  C   UNL A   1      50.226  26.004  30.775  1.00  0.00     0.198 A 
ATOM     95  F   UNL A   1      48.830  27.270  29.367  1.00  0.00    -0.203 F 
ATOM     96  F   UNL A   1      49.518  24.312  33.900  1.00  0.00    -0.200 F 
ATOM     97  C   UNL A   1      50.407  25.249  31.924  1.00  0.00     0.200 A 
ATOM     98  F   UNL A   1      51.254  26.213  29.942  1.00  0.00    -0.200 F 
ATOM     99  F   UNL A   1      51.614  24.739  32.209  1.00  0.00    -0.200 F 
ENDBRANCH  66  89
ENDBRANCH  40  41
ENDBRANCH  33  35
ENDBRANCH  32  33
ENDBRANCH  31  32
ENDBRANCH   1  31
TORSDOF 14
ENDMDL
MODEL 2
REMARK VINA RESULT:     -10.9      5.172      7.925
REMARK SMILES Cn1cc(C(=O)OCCOC(=O)c2ccc(-c3c4nc(c(-c5c(F)c(F)c(F)c(F)c5F)c5ccc([nH]5)c(-c5c(F)c(F)c(F)c(F)c5F)c5nc(c(-c6c(F)c(F)c(F)c(F)c6F)c6ccc3[nH]6)C=C5)C=C4)cc2)c(C(=O)Nc2ccc(-c3nc4cc(Cl)ccc4o3)cc2)n1
REMARK SMILES IDX 8 1 7 2 5 3 6 4 4 5 1 6 2 7 3 8 96 9 76 10 77 11 78 12 79 13
REMARK SMILES IDX 80 15 81 16 95 17 82 18 94 19 83 20 84 21 85 22 93 23 86 24
REMARK SMILES IDX 92 25 87 26 91 27 88 28 90 29 89 30 9 31 10 32 11 33 12 34
REMARK SMILES IDX 13 35 14 36 75 37 15 38 74 39 16 40 17 41 18 42 68 43 19 44
REMARK SMILES IDX 73 45 67 46 69 47 20 48 72 49 66 50 65 51 21 53 53 54 33 55
REMARK SMILES IDX 52 56 34 57 37 58 51 59 70 60 35 61 36 62 50 64 71 65 38 66
REMARK SMILES IDX 22 67 23 68 31 69 24 70 25 71 29 72 32 73 26 74 27 75 30 76
REMARK SMILES IDX 28 77 54 78 55 79 63 80 56 81 57 82 61 83 64 84 58 85 59 86
REMARK SMILES IDX 62 87 60 88 39 89 40 90 48 91 41 92 42 93 46 94 49 95 43 96
REMARK SMILES IDX 44 97 47 98 45 99
REMARK H PARENT 79 14 69 52 37 63
REMARK Flexibility Score: inf
ROOT
ATOM      1  C   UNL A   1      32.163  29.706  25.435  1.00  0.00     0.275 C 
ENDROOT
BRANCH   1   2
ATOM      2  O   UNL A   1      30.967  29.442  24.693  1.00  0.00    -0.458 OA
BRANCH   2   3
ATOM      3  C   UNL A   1      31.066  29.072  23.385  1.00  0.00     0.342 C 
ATOM      4  O   UNL A   1      32.070  28.636  22.842  1.00  0.00    -0.246 OA
BRANCH   3   5
ATOM      5  C   UNL A   1      29.815  29.343  22.721  1.00  0.00     0.111 A 
ATOM      6  C   UNL A   1      27.879  31.414  20.502  1.00  0.00     0.173 C 
ATOM      7  N   UNL A   1      28.445  30.458  21.424  1.00  0.00    -0.274 N 
ATOM      8  C   UNL A   1      29.738  30.374  21.795  1.00  0.00     0.125 A 
ATOM      9  N   UNL A   1      27.662  29.569  22.035  1.00  0.00    -0.167 NA
ATOM     10  C   UNL A   1      28.478  28.824  22.829  1.00  0.00     0.165 A 
BRANCH  10  11
ATOM     11  C   UNL A   1      27.805  27.711  23.569  1.00  0.00     0.277 C 
ATOM     12  O   UNL A   1      26.647  27.830  23.992  1.00  0.00    -0.267 OA
ATOM     13  N   UNL A   1      28.306  26.429  23.612  1.00  0.00    -0.321 N 
ATOM     14  H   UNL A   1      27.691  25.741  23.269  1.00  0.00     0.170 HD
BRANCH  13  15
ATOM     15  C   UNL A   1      29.529  25.933  24.055  1.00  0.00     0.041 A 
ATOM     16  C   UNL A   1      29.767  25.909  25.430  1.00  0.00     0.027 A 
ATOM     17  C   UNL A   1      30.516  25.493  23.185  1.00  0.00     0.027 A 
ATOM     18  C   UNL A   1      30.864  25.203  25.932  1.00  0.00     0.016 A 
ATOM     19  C   UNL A   1      31.644  24.841  23.685  1.00  0.00     0.016 A 
ATOM     20  C   UNL A   1      31.752  24.570  25.054  1.00  0.00     0.037 A 
BRANCH  20  21
ATOM     21  C   UNL A   1      32.576  23.437  25.478  1.00  0.00     0.227 A 
ATOM     22  N   UNL A   1      33.874  23.428  25.747  1.00  0.00    -0.209 NA
ATOM     23  O   UNL A   1      32.049  22.199  25.194  1.00  0.00    -0.436 OA
ATOM     24  C   UNL A   1      34.248  22.131  25.491  1.00  0.00     0.111 A 
ATOM     25  C   UNL A   1      33.137  21.381  25.147  1.00  0.00     0.155 A 
ATOM     26  C   UNL A   1      35.513  21.530  25.461  1.00  0.00     0.053 A 
ATOM     27  C   UNL A   1      33.166  20.048  24.754  1.00  0.00     0.051 A 
ATOM     28  C   UNL A   1      35.584  20.195  25.040  1.00  0.00     0.043 A 
ATOM     29  C   UNL A   1      34.438  19.468  24.692  1.00  0.00     0.024 A 
ATOM     30  Cl  UNL A   1      37.129  19.441  24.911  1.00  0.00    -0.084 Cl
ENDBRANCH  20  21
ENDBRANCH  13  15
ENDBRANCH  10  11
ENDBRANCH   3   5
ENDBRANCH   2   3
ENDBRANCH   1   2
BRANCH   1  31
ATOM     31  C   UNL A   1      31.892  30.881  26.386  1.00  0.00     0.275 C 
BRANCH  31  32
ATOM     32  O   UNL A   1      32.786  30.842  27.523  1.00  0.00    -0.458 OA
BRANCH  32  33
ATOM     33  C   UNL A   1      33.576  31.935  27.684  1.00  0.00     0.338 C 
ATOM     34  O   UNL A   1      33.217  33.100  27.647  1.00  0.00    -0.246 OA
BRANCH  33  35
ATOM     35  C   UNL A   1      34.958  31.533  28.052  1.00  0.00     0.060 A 
ATOM     36  C   UNL A   1      35.211  30.165  28.217  1.00  0.00     0.016 A 
ATOM     37  C   UNL A   1      36.000  32.454  28.223  1.00  0.00     0.016 A 
ATOM     38  C   UNL A   1      36.481  29.721  28.594  1.00  0.00     0.010 A 
ATOM     39  C   UNL A   1      37.275  32.007  28.605  1.00  0.00     0.010 A 
ATOM     40  C   UNL A   1      37.512  30.640  28.831  1.00  0.00    -0.014 A 
BRANCH  40  41
ATOM     41  C   UNL A   1      38.742  30.173  29.525  1.00  0.00     0.031 A 
ATOM     42  C   UNL A   1      39.009  30.686  30.916  1.00  0.00     0.074 A 
ATOM     43  C   UNL A   1      39.577  29.265  28.988  1.00  0.00     0.049 A 
ATOM     44  N   UNL A   1      39.913  30.308  31.785  1.00  0.00    -0.248 NA
ATOM     45  C   UNL A   1      38.124  31.760  31.397  1.00  0.00     0.031 C 
ATOM     46  C   UNL A   1      39.441  28.657  27.669  1.00  0.00     0.029 A 
ATOM     47  N   UNL A   1      40.710  28.688  29.514  1.00  0.00    -0.354 N 
ATOM     48  C   UNL A   1      39.670  31.057  32.927  1.00  0.00     0.074 A 
ATOM     49  C   UNL A   1      38.578  31.957  32.625  1.00  0.00     0.031 C 
ATOM     50  C   UNL A   1      40.456  27.791  27.485  1.00  0.00     0.029 A 
ATOM     51  C   UNL A   1      41.306  27.779  28.675  1.00  0.00     0.049 A 
ATOM     52  H   UNL A   1      41.061  28.906  30.407  1.00  0.00     0.167 HD
ATOM     53  C   UNL A   1      40.279  30.988  34.134  1.00  0.00     0.037 A 
ATOM     54  C   UNL A   1      42.403  27.016  28.857  1.00  0.00     0.037 A 
ATOM     55  C   UNL A   1      41.389  30.134  34.448  1.00  0.00     0.049 A 
ATOM     56  C   UNL A   1      43.147  27.055  30.170  1.00  0.00     0.074 A 
ATOM     57  C   UNL A   1      42.057  29.993  35.652  1.00  0.00     0.029 A 
ATOM     58  N   UNL A   1      42.012  29.292  33.542  1.00  0.00    -0.354 N 
ATOM     59  N   UNL A   1      42.855  27.698  31.272  1.00  0.00    -0.248 NA
ATOM     60  C   UNL A   1      44.374  26.246  30.260  1.00  0.00     0.031 C 
ATOM     61  C   UNL A   1      43.116  29.098  35.462  1.00  0.00     0.029 A 
ATOM     62  C   UNL A   1      43.084  28.659  34.149  1.00  0.00     0.049 A 
ATOM     63  H   UNL A   1      41.735  29.163  32.606  1.00  0.00     0.167 HD
ATOM     64  C   UNL A   1      43.835  27.345  32.193  1.00  0.00     0.074 A 
ATOM     65  C   UNL A   1      44.733  26.430  31.524  1.00  0.00     0.031 C 
ATOM     66  C   UNL A   1      43.970  27.742  33.482  1.00  0.00     0.037 A 
BRANCH  53  67
ATOM     67  C   UNL A   1      39.743  31.873  35.213  1.00  0.00     0.064 A 
ATOM     68  C   UNL A   1      40.196  33.193  35.354  1.00  0.00     0.173 A 
ATOM     69  C   UNL A   1      38.763  31.408  36.099  1.00  0.00     0.173 A 
ATOM     70  F   UNL A   1      41.145  33.672  34.536  1.00  0.00    -0.203 F 
ATOM     71  C   UNL A   1      39.693  34.015  36.357  1.00  0.00     0.198 A 
ATOM     72  C   UNL A   1      38.252  32.238  37.092  1.00  0.00     0.198 A 
ATOM     73  F   UNL A   1      38.304  30.152  36.001  1.00  0.00    -0.203 F 
ATOM     74  F   UNL A   1      40.160  35.263  36.497  1.00  0.00    -0.200 F 
ATOM     75  C   UNL A   1      38.719  33.537  37.222  1.00  0.00     0.200 A 
ATOM     76  F   UNL A   1      37.309  31.779  37.926  1.00  0.00    -0.200 F 
ATOM     77  F   UNL A   1      38.236  34.330  38.190  1.00  0.00    -0.200 F 
ENDBRANCH  53  67
BRANCH  54  78
ATOM     78  C   UNL A   1      42.881  26.124  27.770  1.00  0.00     0.064 A 
ATOM     79  C   UNL A   1      43.812  26.574  26.824  1.00  0.00     0.173 A 
ATOM     80  C   UNL A   1      42.361  24.832  27.616  1.00  0.00     0.173 A 
ATOM     81  F   UNL A   1      44.307  27.817  26.909  1.00  0.00    -0.203 F 
ATOM     82  C   UNL A   1      44.192  25.770  25.751  1.00  0.00     0.198 A 
ATOM     83  C   UNL A   1      42.754  24.022  26.552  1.00  0.00     0.198 A 
ATOM     84  F   UNL A   1      41.452  24.366  28.484  1.00  0.00    -0.203 F 
ATOM     85  F   UNL A   1      45.042  26.241  24.829  1.00  0.00    -0.200 F 
ATOM     86  C   UNL A   1      43.663  24.494  25.617  1.00  0.00     0.200 A 
ATOM     87  F   UNL A   1      42.236  22.793  26.421  1.00  0.00    -0.200 F 
ATOM     88  F   UNL A   1      44.013  23.728  24.575  1.00  0.00    -0.200 F 
ENDBRANCH  54  78
BRANCH  66  89
ATOM     89  C   UNL A   1      45.116  27.179  34.270  1.00  0.00     0.064 A 
ATOM     90  C   UNL A   1      44.990  25.982  34.989  1.00  0.00     0.173 A 
ATOM     91  C   UNL A   1      46.370  27.808  34.254  1.00  0.00     0.173 A 
ATOM     92  F   UNL A   1      43.808  25.350  35.046  1.00  0.00    -0.203 F 
ATOM     93  C   UNL A   1      46.075  25.442  35.674  1.00  0.00     0.198 A 
ATOM     94  C   UNL A   1      47.459  27.253  34.921  1.00  0.00     0.198 A 
ATOM     95  F   UNL A   1      46.544  28.952  33.575  1.00  0.00    -0.203 F 
ATOM     96  F   UNL A   1      45.926  24.311  36.378  1.00  0.00    -0.200 F 
ATOM     97  C   UNL A   1      47.310  26.073  35.633  1.00  0.00     0.200 A 
ATOM     98  F   UNL A   1      48.654  27.859  34.871  1.00  0.00    -0.200 F 
ATOM     99  F   UNL A   1      48.357  25.544  36.283  1.00  0.00    -0.200 F 
ENDBRANCH  66  89
ENDBRANCH  40  41
ENDBRANCH  33  35
ENDBRANCH  32  33
ENDBRANCH  31  32
ENDBRANCH   1  31
TORSDOF 14
ENDMDL
MODEL 3
REMARK VINA RESULT:     -10.8      5.188      8.021
REMARK SMILES Cn1cc(C(=O)OCCOC(=O)c2ccc(-c3c4nc(c(-c5c(F)c(F)c(F)c(F)c5F)c5ccc([nH]5)c(-c5c(F)c(F)c(F)c(F)c5F)c5nc(c(-c6c(F)c(F)c(F)c(F)c6F)c6ccc3[nH]6)C=C5)C=C4)cc2)c(C(=O)Nc2ccc(-c3nc4cc(Cl)ccc4o3)cc2)n1
REMARK SMILES IDX 8 1 7 2 5 3 6 4 4 5 1 6 2 7 3 8 96 9 76 10 77 11 78 12 79 13
REMARK SMILES IDX 80 15 81 16 95 17 82 18 94 19 83 20 84 21 85 22 93 23 86 24
REMARK SMILES IDX 92 25 87 26 91 27 88 28 90 29 89 30 9 31 10 32 11 33 12 34
REMARK SMILES IDX 13 35 14 36 75 37 15 38 74 39 16 40 17 41 18 42 68 43 19 44
REMARK SMILES IDX 73 45 67 46 69 47 20 48 72 49 66 50 65 51 21 53 53 54 33 55
REMARK SMILES IDX 52 56 34 57 37 58 51 59 70 60 35 61 36 62 50 64 71 65 38 66
REMARK SMILES IDX 22 67 23 68 31 69 24 70 25 71 29 72 32 73 26 74 27 75 30 76
REMARK SMILES IDX 28 77 54 78 55 79 63 80 56 81 57 82 61 83 64 84 58 85 59 86
REMARK SMILES IDX 62 87 60 88 39 89 40 90 48 91 41 92 42 93 46 94 49 95 43 96
REMARK SMILES IDX 44 97 47 98 45 99
REMARK H PARENT 79 14 69 52 37 63
REMARK Flexibility Score: inf
ROOT
ATOM      1  C   UNL A   1      32.094  29.583  25.455  1.00  0.00     0.275 C 
ENDROOT
BRANCH   1   2
ATOM      2  O   UNL A   1      30.919  29.391  24.659  1.00  0.00    -0.458 OA
BRANCH   2   3
ATOM      3  C   UNL A   1      31.055  29.129  23.328  1.00  0.00     0.342 C 
ATOM      4  O   UNL A   1      32.079  28.758  22.777  1.00  0.00    -0.246 OA
BRANCH   3   5
ATOM      5  C   UNL A   1      29.813  29.429  22.658  1.00  0.00     0.111 A 
ATOM      6  C   UNL A   1      27.933  31.552  20.441  1.00  0.00     0.173 C 
ATOM      7  N   UNL A   1      28.474  30.580  21.360  1.00  0.00    -0.274 N 
ATOM      8  C   UNL A   1      29.762  30.467  21.738  1.00  0.00     0.125 A 
ATOM      9  N   UNL A   1      27.670  29.703  21.962  1.00  0.00    -0.167 NA
ATOM     10  C   UNL A   1      28.465  28.937  22.756  1.00  0.00     0.165 A 
BRANCH  10  11
ATOM     11  C   UNL A   1      27.766  27.833  23.486  1.00  0.00     0.277 C 
ATOM     12  O   UNL A   1      26.602  27.966  23.885  1.00  0.00    -0.267 OA
ATOM     13  N   UNL A   1      28.252  26.546  23.542  1.00  0.00    -0.321 N 
ATOM     14  H   UNL A   1      27.637  25.864  23.189  1.00  0.00     0.170 HD
BRANCH  13  15
ATOM     15  C   UNL A   1      29.461  26.038  24.011  1.00  0.00     0.041 A 
ATOM     16  C   UNL A   1      29.657  25.983  25.391  1.00  0.00     0.027 A 
ATOM     17  C   UNL A   1      30.474  25.617  23.162  1.00  0.00     0.027 A 
ATOM     18  C   UNL A   1      30.738  25.264  25.910  1.00  0.00     0.016 A 
ATOM     19  C   UNL A   1      31.586  24.953  23.681  1.00  0.00     0.016 A 
ATOM     20  C   UNL A   1      31.651  24.650  25.046  1.00  0.00     0.037 A 
BRANCH  20  21
ATOM     21  C   UNL A   1      32.462  23.507  25.469  1.00  0.00     0.227 A 
ATOM     22  N   UNL A   1      33.742  23.496  25.812  1.00  0.00    -0.209 NA
ATOM     23  O   UNL A   1      31.965  22.278  25.103  1.00  0.00    -0.436 OA
ATOM     24  C   UNL A   1      34.143  22.215  25.524  1.00  0.00     0.111 A 
ATOM     25  C   UNL A   1      33.062  21.471  25.085  1.00  0.00     0.155 A 
ATOM     26  C   UNL A   1      35.414  21.625  25.543  1.00  0.00     0.053 A 
ATOM     27  C   UNL A   1      33.127  20.157  24.639  1.00  0.00     0.051 A 
ATOM     28  C   UNL A   1      35.523  20.310  25.071  1.00  0.00     0.043 A 
ATOM     29  C   UNL A   1      34.407  19.590  24.626  1.00  0.00     0.024 A 
ATOM     30  Cl  UNL A   1      37.081  19.575  25.000  1.00  0.00    -0.084 Cl
ENDBRANCH  20  21
ENDBRANCH  13  15
ENDBRANCH  10  11
ENDBRANCH   3   5
ENDBRANCH   2   3
ENDBRANCH   1   2
BRANCH   1  31
ATOM     31  C   UNL A   1      31.922  30.873  26.269  1.00  0.00     0.275 C 
BRANCH  31  32
ATOM     32  O   UNL A   1      32.740  30.845  27.462  1.00  0.00    -0.458 OA
BRANCH  32  33
ATOM     33  C   UNL A   1      33.544  31.924  27.646  1.00  0.00     0.338 C 
ATOM     34  O   UNL A   1      33.204  33.095  27.615  1.00  0.00    -0.246 OA
BRANCH  33  35
ATOM     35  C   UNL A   1      34.914  31.497  28.029  1.00  0.00     0.060 A 
ATOM     36  C   UNL A   1      35.137  30.126  28.214  1.00  0.00     0.016 A 
ATOM     37  C   UNL A   1      35.974  32.398  28.196  1.00  0.00     0.016 A 
ATOM     38  C   UNL A   1      36.394  29.660  28.606  1.00  0.00     0.010 A 
ATOM     39  C   UNL A   1      37.237  31.928  28.594  1.00  0.00     0.010 A 
ATOM     40  C   UNL A   1      37.442  30.560  28.840  1.00  0.00    -0.014 A 
BRANCH  40  41
ATOM     41  C   UNL A   1      38.657  30.076  29.550  1.00  0.00     0.031 A 
ATOM     42  C   UNL A   1      38.915  30.587  30.943  1.00  0.00     0.074 A 
ATOM     43  C   UNL A   1      39.484  29.154  29.025  1.00  0.00     0.049 A 
ATOM     44  N   UNL A   1      39.802  30.198  31.823  1.00  0.00    -0.248 NA
ATOM     45  C   UNL A   1      38.041  31.676  31.410  1.00  0.00     0.031 C 
ATOM     46  C   UNL A   1      39.355  28.545  27.705  1.00  0.00     0.029 A 
ATOM     47  N   UNL A   1      40.602  28.561  29.565  1.00  0.00    -0.354 N 
ATOM     48  C   UNL A   1      39.558  30.953  32.961  1.00  0.00     0.074 A 
ATOM     49  C   UNL A   1      38.483  31.869  32.643  1.00  0.00     0.031 C 
ATOM     50  C   UNL A   1      40.358  27.662  27.535  1.00  0.00     0.029 A 
ATOM     51  C   UNL A   1      41.194  27.641  28.735  1.00  0.00     0.049 A 
ATOM     52  H   UNL A   1      40.945  28.775  30.462  1.00  0.00     0.167 HD
ATOM     53  C   UNL A   1      40.152  30.878  34.174  1.00  0.00     0.037 A 
ATOM     54  C   UNL A   1      42.276  26.861  28.932  1.00  0.00     0.037 A 
ATOM     55  C   UNL A   1      41.244  30.007  34.503  1.00  0.00     0.049 A 
ATOM     56  C   UNL A   1      43.005  26.892  30.253  1.00  0.00     0.074 A 
ATOM     57  C   UNL A   1      41.896  29.859  35.716  1.00  0.00     0.029 A 
ATOM     58  N   UNL A   1      41.865  29.154  33.607  1.00  0.00    -0.354 N 
ATOM     59  N   UNL A   1      42.710  27.542  31.351  1.00  0.00    -0.248 NA
ATOM     60  C   UNL A   1      44.219  26.064  30.360  1.00  0.00     0.031 C 
ATOM     61  C   UNL A   1      42.943  28.948  35.540  1.00  0.00     0.029 A 
ATOM     62  C   UNL A   1      42.920  28.506  34.228  1.00  0.00     0.049 A 
ATOM     63  H   UNL A   1      41.597  29.027  32.668  1.00  0.00     0.167 HD
ATOM     64  C   UNL A   1      43.673  27.176  32.284  1.00  0.00     0.074 A 
ATOM     65  C   UNL A   1      44.565  26.246  31.627  1.00  0.00     0.031 C 
ATOM     66  C   UNL A   1      43.800  27.574  33.574  1.00  0.00     0.037 A 
BRANCH  53  67
ATOM     67  C   UNL A   1      39.616  31.773  35.245  1.00  0.00     0.064 A 
ATOM     68  C   UNL A   1      38.639  31.317  36.143  1.00  0.00     0.173 A 
ATOM     69  C   UNL A   1      40.091  33.083  35.388  1.00  0.00     0.173 A 
ATOM     70  F   UNL A   1      38.146  30.075  36.031  1.00  0.00    -0.203 F 
ATOM     71  C   UNL A   1      38.145  32.151  37.140  1.00  0.00     0.198 A 
ATOM     72  C   UNL A   1      39.604  33.909  36.396  1.00  0.00     0.198 A 
ATOM     73  F   UNL A   1      41.022  33.559  34.549  1.00  0.00    -0.203 F 
ATOM     74  F   UNL A   1      37.189  31.710  37.969  1.00  0.00    -0.200 F 
ATOM     75  C   UNL A   1      38.630  33.444  37.268  1.00  0.00     0.200 A 
ATOM     76  F   UNL A   1      40.075  35.158  36.522  1.00  0.00    -0.200 F 
ATOM     77  F   UNL A   1      38.153  34.248  38.229  1.00  0.00    -0.200 F 
ENDBRANCH  53  67
BRANCH  54  78
ATOM     78  C   UNL A   1      42.754  25.960  27.853  1.00  0.00     0.064 A 
ATOM     79  C   UNL A   1      42.374  24.611  27.818  1.00  0.00     0.173 A 
ATOM     80  C   UNL A   1      43.657  26.412  26.882  1.00  0.00     0.173 A 
ATOM     81  F   UNL A   1      41.542  24.124  28.750  1.00  0.00    -0.203 F 
ATOM     82  C   UNL A   1      42.894  23.743  26.860  1.00  0.00     0.198 A 
ATOM     83  C   UNL A   1      44.164  25.548  25.914  1.00  0.00     0.198 A 
ATOM     84  F   UNL A   1      44.066  27.690  26.888  1.00  0.00    -0.203 F 
ATOM     85  F   UNL A   1      42.558  22.446  26.878  1.00  0.00    -0.200 F 
ATOM     86  C   UNL A   1      43.789  24.213  25.909  1.00  0.00     0.200 A 
ATOM     87  F   UNL A   1      45.033  26.002  25.001  1.00  0.00    -0.200 F 
ATOM     88  F   UNL A   1      44.304  23.374  25.000  1.00  0.00    -0.200 F 
ENDBRANCH  54  78
BRANCH  66  89
ATOM     89  C   UNL A   1      44.927  26.996  34.376  1.00  0.00     0.064 A 
ATOM     90  C   UNL A   1      46.159  27.656  34.487  1.00  0.00     0.173 A 
ATOM     91  C   UNL A   1      44.753  25.803  35.094  1.00  0.00     0.173 A 
ATOM     92  F   UNL A   1      46.379  28.793  33.809  1.00  0.00    -0.203 F 
ATOM     93  C   UNL A   1      47.181  27.136  35.277  1.00  0.00     0.198 A 
ATOM     94  C   UNL A   1      45.768  25.297  35.902  1.00  0.00     0.198 A 
ATOM     95  F   UNL A   1      43.591  25.137  35.027  1.00  0.00    -0.203 F 
ATOM     96  F   UNL A   1      48.360  27.768  35.346  1.00  0.00    -0.200 F 
ATOM     97  C   UNL A   1      46.982  25.962  35.990  1.00  0.00     0.200 A 
ATOM     98  F   UNL A   1      45.571  24.169  36.598  1.00  0.00    -0.200 F 
ATOM     99  F   UNL A   1      47.963  25.469  36.760  1.00  0.00    -0.200 F 
ENDBRANCH  66  89
ENDBRANCH  40  41
ENDBRANCH  33  35
ENDBRANCH  32  33
ENDBRANCH  31  32
ENDBRANCH   1  31
TORSDOF 14
ENDMDL
