MODEL 1
REMARK VINA RESULT:     -13.3      0.000      0.000
REMARK SMILES Cc1cc(C[N@H+]2CC[C@](C)(C(=O)OCCOC(=O)c3ccc(-c4c5nc(c(-c6c(F)c(F)c(F)c(F)c6F)c6ccc([nH]6)c(-c6c(F)c(F)c(F)c(F)c6F)c6nc(c(-c7c(F)c(F)c(F)c(F)c7F)c7ccc4[nH]7)C=C6)C=C5)cc3)C2)c2ccccc2n1
REMARK SMILES IDX 14 1 13 2 11 3 12 4 9 5 6 6 7 7 82 8 8 10 10 11 5 12 4 13
REMARK SMILES IDX 1 14 2 15 3 16 89 17 88 18 83 19 87 20 84 21 86 22 85 23
REMARK SMILES IDX 15 24 16 25 17 26 18 27 19 28 20 29 81 30 21 31 80 32 22 33
REMARK SMILES IDX 23 34 24 35 74 36 25 37 79 38 73 39 75 40 26 41 78 42 72 43
REMARK SMILES IDX 71 44 27 46 59 47 39 48 58 49 40 50 43 51 57 52 76 53 41 54
REMARK SMILES IDX 42 55 56 57 77 58 44 59 28 60 29 61 37 62 30 63 31 64 35 65
REMARK SMILES IDX 38 66 32 67 33 68 36 69 34 70 60 71 61 72 69 73 62 74 63 75
REMARK SMILES IDX 67 76 70 77 64 78 65 79 68 80 66 81 45 82 46 83 54 84 47 85
REMARK SMILES IDX 48 86 52 87 55 88 49 89 50 90 53 91 51 92
REMARK H PARENT 6 9 75 45 43 56
REMARK Flexibility Score: inf
ROOT
ATOM      1  C   UNL A   1      31.266  28.676  24.765  1.00  0.00     0.274 C 
ENDROOT
BRANCH   1   2
ATOM      2  O   UNL A   1      32.223  27.771  25.355  1.00  0.00    -0.461 OA
BRANCH   2   3
ATOM      3  C   UNL A   1      31.734  26.818  26.199  1.00  0.00     0.317 C 
ATOM      4  O   UNL A   1      31.042  27.044  27.185  1.00  0.00    -0.251 OA
BRANCH   3   5
ATOM      5  C   UNL A   1      32.219  25.430  25.815  1.00  0.00     0.119 C 
ATOM      6  N   UNL A   1      31.420  23.482  24.634  1.00  0.00    -0.330 N 
ATOM      7  C   UNL A   1      31.821  23.062  25.973  1.00  0.00     0.263 C 
ATOM      8  C   UNL A   1      31.572  24.932  24.516  1.00  0.00     0.281 C 
ATOM      9  H   UNL A   1      30.426  23.272  24.542  1.00  0.00     0.348 HD
ATOM     10  C   UNL A   1      31.768  24.342  26.795  1.00  0.00     0.086 C 
ATOM     11  C   UNL A   1      33.748  25.498  25.758  1.00  0.00     0.030 C 
BRANCH   6  12
ATOM     12  C   UNL A   1      31.849  22.660  23.499  1.00  0.00     0.299 C 
BRANCH  12  13
ATOM     13  C   UNL A   1      32.869  21.582  23.826  1.00  0.00     0.017 A 
ATOM     14  C   UNL A   1      32.745  18.032  25.152  1.00  0.00     0.067 C 
ATOM     15  C   UNL A   1      33.239  19.385  24.737  1.00  0.00     0.038 A 
ATOM     16  C   UNL A   1      32.380  20.313  24.174  1.00  0.00     0.033 A 
ATOM     17  N   UNL A   1      34.533  19.667  25.001  1.00  0.00    -0.253 NA
ATOM     18  C   UNL A   1      35.025  20.860  24.627  1.00  0.00     0.071 A 
ATOM     19  C   UNL A   1      34.256  21.836  23.960  1.00  0.00     0.009 A 
ATOM     20  C   UNL A   1      36.343  21.156  24.951  1.00  0.00     0.029 A 
ATOM     21  C   UNL A   1      34.903  23.010  23.507  1.00  0.00     0.011 A 
ATOM     22  C   UNL A   1      36.944  22.362  24.584  1.00  0.00     0.002 A 
ATOM     23  C   UNL A   1      36.231  23.280  23.831  1.00  0.00     0.001 A 
ENDBRANCH  12  13
ENDBRANCH   6  12
ENDBRANCH   3   5
ENDBRANCH   2   3
ENDBRANCH   1   2
BRANCH   1  24
ATOM     24  C   UNL A   1      31.462  30.078  25.340  1.00  0.00     0.275 C 
BRANCH  24  25
ATOM     25  O   UNL A   1      32.799  30.171  25.857  1.00  0.00    -0.458 OA
BRANCH  25  26
ATOM     26  C   UNL A   1      33.021  31.110  26.807  1.00  0.00     0.338 C 
ATOM     27  O   UNL A   1      32.262  32.000  27.147  1.00  0.00    -0.246 OA
BRANCH  26  28
ATOM     28  C   UNL A   1      34.346  30.874  27.431  1.00  0.00     0.060 A 
ATOM     29  C   UNL A   1      34.796  29.576  27.661  1.00  0.00     0.016 A 
ATOM     30  C   UNL A   1      35.112  31.947  27.882  1.00  0.00     0.016 A 
ATOM     31  C   UNL A   1      35.935  29.340  28.428  1.00  0.00     0.010 A 
ATOM     32  C   UNL A   1      36.325  31.709  28.547  1.00  0.00     0.010 A 
ATOM     33  C   UNL A   1      36.738  30.400  28.862  1.00  0.00    -0.014 A 
BRANCH  33  34
ATOM     34  C   UNL A   1      37.968  30.146  29.673  1.00  0.00     0.031 A 
ATOM     35  C   UNL A   1      39.099  29.334  29.094  1.00  0.00     0.074 A 
ATOM     36  C   UNL A   1      38.108  30.651  30.918  1.00  0.00     0.049 A 
ATOM     37  N   UNL A   1      40.113  28.769  29.702  1.00  0.00    -0.248 NA
ATOM     38  C   UNL A   1      39.077  29.113  27.639  1.00  0.00     0.031 C 
ATOM     39  C   UNL A   1      37.144  31.513  31.605  1.00  0.00     0.029 A 
ATOM     40  N   UNL A   1      39.130  30.517  31.829  1.00  0.00    -0.354 N 
ATOM     41  C   UNL A   1      40.798  28.062  28.721  1.00  0.00     0.074 A 
ATOM     42  C   UNL A   1      40.098  28.282  27.474  1.00  0.00     0.031 C 
ATOM     43  C   UNL A   1      37.642  31.874  32.797  1.00  0.00     0.029 A 
ATOM     44  C   UNL A   1      38.905  31.178  33.013  1.00  0.00     0.049 A 
ATOM     45  H   UNL A   1      39.946  29.997  31.650  1.00  0.00     0.167 HD
ATOM     46  C   UNL A   1      41.904  27.292  28.855  1.00  0.00     0.037 A 
ATOM     47  C   UNL A   1      39.600  31.184  34.167  1.00  0.00     0.037 A 
ATOM     48  C   UNL A   1      42.646  27.139  30.080  1.00  0.00     0.049 A 
ATOM     49  C   UNL A   1      40.826  30.325  34.292  1.00  0.00     0.074 A 
ATOM     50  C   UNL A   1      43.759  26.352  30.327  1.00  0.00     0.029 A 
ATOM     51  N   UNL A   1      42.372  27.822  31.255  1.00  0.00    -0.354 N 
ATOM     52  N   UNL A   1      41.384  29.546  33.399  1.00  0.00    -0.248 NA
ATOM     53  C   UNL A   1      41.502  30.321  35.598  1.00  0.00     0.031 C 
ATOM     54  C   UNL A   1      44.154  26.554  31.654  1.00  0.00     0.029 A 
ATOM     55  C   UNL A   1      43.305  27.488  32.223  1.00  0.00     0.049 A 
ATOM     56  H   UNL A   1      41.626  28.451  31.382  1.00  0.00     0.167 HD
ATOM     57  C   UNL A   1      42.468  28.957  34.032  1.00  0.00     0.074 A 
ATOM     58  C   UNL A   1      42.513  29.494  35.376  1.00  0.00     0.031 C 
ATOM     59  C   UNL A   1      43.339  28.039  33.551  1.00  0.00     0.037 A 
BRANCH  46  60
ATOM     60  C   UNL A   1      42.373  26.526  27.654  1.00  0.00     0.064 A 
ATOM     61  C   UNL A   1      43.377  27.016  26.808  1.00  0.00     0.173 A 
ATOM     62  C   UNL A   1      41.849  25.251  27.385  1.00  0.00     0.173 A 
ATOM     63  F   UNL A   1      43.897  28.235  27.014  1.00  0.00    -0.203 F 
ATOM     64  C   UNL A   1      43.832  26.261  25.729  1.00  0.00     0.198 A 
ATOM     65  C   UNL A   1      42.325  24.490  26.321  1.00  0.00     0.198 A 
ATOM     66  F   UNL A   1      40.891  24.735  28.169  1.00  0.00    -0.203 F 
ATOM     67  F   UNL A   1      44.772  26.761  24.915  1.00  0.00    -0.200 F 
ATOM     68  C   UNL A   1      43.313  24.997  25.492  1.00  0.00     0.200 A 
ATOM     69  F   UNL A   1      41.830  23.264  26.102  1.00  0.00    -0.200 F 
ATOM     70  F   UNL A   1      43.765  24.268  24.462  1.00  0.00    -0.200 F 
ENDBRANCH  46  60
BRANCH  47  71
ATOM     71  C   UNL A   1      39.113  31.979  35.326  1.00  0.00     0.064 A 
ATOM     72  C   UNL A   1      39.402  33.346  35.437  1.00  0.00     0.173 A 
ATOM     73  C   UNL A   1      38.358  31.387  36.350  1.00  0.00     0.173 A 
ATOM     74  F   UNL A   1      40.148  33.950  34.500  1.00  0.00    -0.203 F 
ATOM     75  C   UNL A   1      38.966  34.088  36.532  1.00  0.00     0.198 A 
ATOM     76  C   UNL A   1      37.893  32.137  37.428  1.00  0.00     0.198 A 
ATOM     77  F   UNL A   1      38.059  30.081  36.295  1.00  0.00    -0.203 F 
ATOM     78  F   UNL A   1      39.296  35.381  36.638  1.00  0.00    -0.200 F 
ATOM     79  C   UNL A   1      38.204  33.485  37.523  1.00  0.00     0.200 A 
ATOM     80  F   UNL A   1      37.147  31.553  38.376  1.00  0.00    -0.200 F 
ATOM     81  F   UNL A   1      37.778  34.200  38.573  1.00  0.00    -0.200 F 
ENDBRANCH  47  71
BRANCH  59  82
ATOM     82  C   UNL A   1      44.426  27.582  34.475  1.00  0.00     0.064 A 
ATOM     83  C   UNL A   1      45.647  28.264  34.556  1.00  0.00     0.173 A 
ATOM     84  C   UNL A   1      44.237  26.462  35.298  1.00  0.00     0.173 A 
ATOM     85  F   UNL A   1      45.878  29.331  33.776  1.00  0.00    -0.203 F 
ATOM     86  C   UNL A   1      46.654  27.826  35.413  1.00  0.00     0.198 A 
ATOM     87  C   UNL A   1      45.237  26.040  36.168  1.00  0.00     0.198 A 
ATOM     88  F   UNL A   1      43.083  25.779  35.256  1.00  0.00    -0.203 F 
ATOM     89  F   UNL A   1      47.831  28.466  35.444  1.00  0.00    -0.200 F 
ATOM     90  C   UNL A   1      46.446  26.717  36.220  1.00  0.00     0.200 A 
ATOM     91  F   UNL A   1      45.033  24.971  36.951  1.00  0.00    -0.200 F 
ATOM     92  F   UNL A   1      47.416  26.295  37.042  1.00  0.00    -0.200 F 
ENDBRANCH  59  82
ENDBRANCH  33  34
ENDBRANCH  26  28
ENDBRANCH  25  26
ENDBRANCH  24  25
ENDBRANCH   1  24
TORSDOF 13
ENDMDL
MODEL 2
REMARK VINA RESULT:     -13.0      0.947      2.345
REMARK SMILES Cc1cc(C[N@H+]2CC[C@](C)(C(=O)OCCOC(=O)c3ccc(-c4c5nc(c(-c6c(F)c(F)c(F)c(F)c6F)c6ccc([nH]6)c(-c6c(F)c(F)c(F)c(F)c6F)c6nc(c(-c7c(F)c(F)c(F)c(F)c7F)c7ccc4[nH]7)C=C6)C=C5)cc3)C2)c2ccccc2n1
REMARK SMILES IDX 14 1 13 2 11 3 12 4 9 5 6 6 7 7 82 8 8 10 10 11 5 12 4 13
REMARK SMILES IDX 1 14 2 15 3 16 89 17 88 18 83 19 87 20 84 21 86 22 85 23
REMARK SMILES IDX 15 24 16 25 17 26 18 27 19 28 20 29 81 30 21 31 80 32 22 33
REMARK SMILES IDX 23 34 24 35 74 36 25 37 79 38 73 39 75 40 26 41 78 42 72 43
REMARK SMILES IDX 71 44 27 46 59 47 39 48 58 49 40 50 43 51 57 52 76 53 41 54
REMARK SMILES IDX 42 55 56 57 77 58 44 59 28 60 29 61 37 62 30 63 31 64 35 65
REMARK SMILES IDX 38 66 32 67 33 68 36 69 34 70 60 71 61 72 69 73 62 74 63 75
REMARK SMILES IDX 67 76 70 77 64 78 65 79 68 80 66 81 45 82 46 83 54 84 47 85
REMARK SMILES IDX 48 86 52 87 55 88 49 89 50 90 53 91 51 92
REMARK H PARENT 6 9 75 45 43 56
REMARK Flexibility Score: inf
ROOT
ATOM      1  C   UNL A   1      30.924  29.780  24.443  1.00  0.00     0.274 C 
ENDROOT
BRANCH   1   2
ATOM      2  O   UNL A   1      31.013  28.609  23.604  1.00  0.00    -0.461 OA
BRANCH   2   3
ATOM      3  C   UNL A   1      32.258  28.243  23.184  1.00  0.00     0.317 C 
ATOM      4  O   UNL A   1      33.031  28.969  22.571  1.00  0.00    -0.251 OA
BRANCH   3   5
ATOM      5  C   UNL A   1      32.546  26.784  23.498  1.00  0.00     0.119 C 
ATOM      6  N   UNL A   1      32.383  24.624  22.434  1.00  0.00    -0.330 N 
ATOM      7  C   UNL A   1      31.636  24.565  23.687  1.00  0.00     0.263 C 
ATOM      8  C   UNL A   1      32.892  25.980  22.238  1.00  0.00     0.281 C 
ATOM      9  H   UNL A   1      31.718  24.437  21.682  1.00  0.00     0.348 HD
ATOM     10  C   UNL A   1      31.316  26.021  23.996  1.00  0.00     0.086 C 
ATOM     11  C   UNL A   1      33.649  26.773  24.562  1.00  0.00     0.030 C 
BRANCH   6  12
ATOM     12  C   UNL A   1      33.280  23.509  22.117  1.00  0.00     0.299 C 
BRANCH  12  13
ATOM     13  C   UNL A   1      34.014  22.907  23.303  1.00  0.00     0.017 A 
ATOM     14  C   UNL A   1      37.189  23.694  25.221  1.00  0.00     0.067 C 
ATOM     15  C   UNL A   1      35.978  22.986  24.694  1.00  0.00     0.038 A 
ATOM     16  C   UNL A   1      35.121  23.611  23.803  1.00  0.00     0.033 A 
ATOM     17  N   UNL A   1      35.810  21.702  25.075  1.00  0.00    -0.253 NA
ATOM     18  C   UNL A   1      34.727  21.034  24.642  1.00  0.00     0.071 A 
ATOM     19  C   UNL A   1      33.745  21.613  23.812  1.00  0.00     0.009 A 
ATOM     20  C   UNL A   1      34.594  19.699  25.001  1.00  0.00     0.029 A 
ATOM     21  C   UNL A   1      32.587  20.858  23.511  1.00  0.00     0.011 A 
ATOM     22  C   UNL A   1      33.492  18.933  24.615  1.00  0.00     0.002 A 
ATOM     23  C   UNL A   1      32.468  19.524  23.894  1.00  0.00     0.001 A 
ENDBRANCH  12  13
ENDBRANCH   6  12
ENDBRANCH   3   5
ENDBRANCH   2   3
ENDBRANCH   1   2
BRANCH   1  24
ATOM     24  C   UNL A   1      31.629  29.515  25.773  1.00  0.00     0.275 C 
BRANCH  24  25
ATOM     25  O   UNL A   1      32.858  30.259  25.788  1.00  0.00    -0.458 OA
BRANCH  25  26
ATOM     26  C   UNL A   1      33.039  31.114  26.823  1.00  0.00     0.338 C 
ATOM     27  O   UNL A   1      32.248  31.945  27.232  1.00  0.00    -0.246 OA
BRANCH  26  28
ATOM     28  C   UNL A   1      34.365  30.864  27.440  1.00  0.00     0.060 A 
ATOM     29  C   UNL A   1      34.773  29.565  27.731  1.00  0.00     0.016 A 
ATOM     30  C   UNL A   1      35.174  31.931  27.825  1.00  0.00     0.016 A 
ATOM     31  C   UNL A   1      35.915  29.329  28.494  1.00  0.00     0.010 A 
ATOM     32  C   UNL A   1      36.388  31.685  28.485  1.00  0.00     0.010 A 
ATOM     33  C   UNL A   1      36.761  30.380  28.861  1.00  0.00    -0.014 A 
BRANCH  33  34
ATOM     34  C   UNL A   1      37.994  30.125  29.668  1.00  0.00     0.031 A 
ATOM     35  C   UNL A   1      39.119  29.308  29.086  1.00  0.00     0.074 A 
ATOM     36  C   UNL A   1      38.141  30.634  30.910  1.00  0.00     0.049 A 
ATOM     37  N   UNL A   1      40.134  28.741  29.692  1.00  0.00    -0.248 NA
ATOM     38  C   UNL A   1      39.090  29.081  27.632  1.00  0.00     0.031 C 
ATOM     39  C   UNL A   1      37.183  31.502  31.598  1.00  0.00     0.029 A 
ATOM     40  N   UNL A   1      39.167  30.500  31.817  1.00  0.00    -0.354 N 
ATOM     41  C   UNL A   1      40.812  28.028  28.711  1.00  0.00     0.074 A 
ATOM     42  C   UNL A   1      40.107  28.245  27.466  1.00  0.00     0.031 C 
ATOM     43  C   UNL A   1      37.688  31.865  32.787  1.00  0.00     0.029 A 
ATOM     44  C   UNL A   1      38.949  31.166  32.999  1.00  0.00     0.049 A 
ATOM     45  H   UNL A   1      39.980  29.976  31.636  1.00  0.00     0.167 HD
ATOM     46  C   UNL A   1      41.917  27.255  28.842  1.00  0.00     0.037 A 
ATOM     47  C   UNL A   1      39.650  31.175  34.150  1.00  0.00     0.037 A 
ATOM     48  C   UNL A   1      42.663  27.103  30.064  1.00  0.00     0.049 A 
ATOM     49  C   UNL A   1      40.874  30.312  34.273  1.00  0.00     0.074 A 
ATOM     50  C   UNL A   1      43.774  26.314  30.309  1.00  0.00     0.029 A 
ATOM     51  N   UNL A   1      42.397  27.792  31.238  1.00  0.00    -0.354 N 
ATOM     52  N   UNL A   1      41.424  29.527  33.380  1.00  0.00    -0.248 NA
ATOM     53  C   UNL A   1      41.555  30.310  35.576  1.00  0.00     0.031 C 
ATOM     54  C   UNL A   1      44.176  26.519  31.633  1.00  0.00     0.029 A 
ATOM     55  C   UNL A   1      43.333  27.458  32.203  1.00  0.00     0.049 A 
ATOM     56  H   UNL A   1      41.653  28.424  31.366  1.00  0.00     0.167 HD
ATOM     57  C   UNL A   1      42.509  28.937  34.011  1.00  0.00     0.074 A 
ATOM     58  C   UNL A   1      42.562  29.479  35.352  1.00  0.00     0.031 C 
ATOM     59  C   UNL A   1      43.375  28.014  33.529  1.00  0.00     0.037 A 
BRANCH  46  60
ATOM     60  C   UNL A   1      42.377  26.483  27.642  1.00  0.00     0.064 A 
ATOM     61  C   UNL A   1      43.387  26.961  26.796  1.00  0.00     0.173 A 
ATOM     62  C   UNL A   1      41.840  25.213  27.374  1.00  0.00     0.173 A 
ATOM     63  F   UNL A   1      43.920  28.175  27.001  1.00  0.00    -0.203 F 
ATOM     64  C   UNL A   1      43.834  26.201  25.718  1.00  0.00     0.198 A 
ATOM     65  C   UNL A   1      42.307  24.447  26.311  1.00  0.00     0.198 A 
ATOM     66  F   UNL A   1      40.875  24.709  28.158  1.00  0.00    -0.203 F 
ATOM     67  F   UNL A   1      44.780  26.690  24.904  1.00  0.00    -0.200 F 
ATOM     68  C   UNL A   1      43.301  24.942  25.481  1.00  0.00     0.200 A 
ATOM     69  F   UNL A   1      41.799  23.226  26.092  1.00  0.00    -0.200 F 
ATOM     70  F   UNL A   1      43.745  24.207  24.452  1.00  0.00    -0.200 F 
ENDBRANCH  46  60
BRANCH  47  71
ATOM     71  C   UNL A   1      39.170  31.975  35.309  1.00  0.00     0.064 A 
ATOM     72  C   UNL A   1      38.428  31.381  36.338  1.00  0.00     0.173 A 
ATOM     73  C   UNL A   1      39.434  33.350  35.405  1.00  0.00     0.173 A 
ATOM     74  F   UNL A   1      38.121  30.077  36.276  1.00  0.00    -0.203 F 
ATOM     75  C   UNL A   1      37.959  32.132  37.413  1.00  0.00     0.198 A 
ATOM     76  C   UNL A   1      38.993  34.093  36.497  1.00  0.00     0.198 A 
ATOM     77  F   UNL A   1      40.135  33.968  34.443  1.00  0.00    -0.203 F 
ATOM     78  F   UNL A   1      37.211  31.550  38.360  1.00  0.00    -0.200 F 
ATOM     79  C   UNL A   1      38.249  33.487  37.497  1.00  0.00     0.200 A 
ATOM     80  F   UNL A   1      39.288  35.398  36.579  1.00  0.00    -0.200 F 
ATOM     81  F   UNL A   1      37.805  34.208  38.534  1.00  0.00    -0.200 F 
ENDBRANCH  47  71
BRANCH  59  82
ATOM     82  C   UNL A   1      44.464  27.557  34.450  1.00  0.00     0.064 A 
ATOM     83  C   UNL A   1      44.298  26.433  35.272  1.00  0.00     0.173 A 
ATOM     84  C   UNL A   1      45.689  28.238  34.498  1.00  0.00     0.173 A 
ATOM     85  F   UNL A   1      43.138  25.760  35.271  1.00  0.00    -0.203 F 
ATOM     86  C   UNL A   1      45.315  26.022  36.130  1.00  0.00     0.198 A 
ATOM     87  C   UNL A   1      46.709  27.811  35.342  1.00  0.00     0.198 A 
ATOM     88  F   UNL A   1      45.893  29.317  33.728  1.00  0.00    -0.203 F 
ATOM     89  F   UNL A   1      45.121  24.971  36.940  1.00  0.00    -0.200 F 
ATOM     90  C   UNL A   1      46.519  26.709  36.162  1.00  0.00     0.200 A 
ATOM     91  F   UNL A   1      47.874  28.473  35.369  1.00  0.00    -0.200 F 
ATOM     92  F   UNL A   1      47.495  26.313  36.991  1.00  0.00    -0.200 F 
ENDBRANCH  59  82
ENDBRANCH  33  34
ENDBRANCH  26  28
ENDBRANCH  25  26
ENDBRANCH  24  25
ENDBRANCH   1  24
TORSDOF 13
ENDMDL
MODEL 3
REMARK VINA RESULT:     -13.0      4.240      9.728
REMARK SMILES Cc1cc(C[N@H+]2CC[C@](C)(C(=O)OCCOC(=O)c3ccc(-c4c5nc(c(-c6c(F)c(F)c(F)c(F)c6F)c6ccc([nH]6)c(-c6c(F)c(F)c(F)c(F)c6F)c6nc(c(-c7c(F)c(F)c(F)c(F)c7F)c7ccc4[nH]7)C=C6)C=C5)cc3)C2)c2ccccc2n1
REMARK SMILES IDX 14 1 13 2 11 3 12 4 9 5 6 6 7 7 82 8 8 10 10 11 5 12 4 13
REMARK SMILES IDX 1 14 2 15 3 16 89 17 88 18 83 19 87 20 84 21 86 22 85 23
REMARK SMILES IDX 15 24 16 25 17 26 18 27 19 28 20 29 81 30 21 31 80 32 22 33
REMARK SMILES IDX 23 34 24 35 74 36 25 37 79 38 73 39 75 40 26 41 78 42 72 43
REMARK SMILES IDX 71 44 27 46 59 47 39 48 58 49 40 50 43 51 57 52 76 53 41 54
REMARK SMILES IDX 42 55 56 57 77 58 44 59 28 60 29 61 37 62 30 63 31 64 35 65
REMARK SMILES IDX 38 66 32 67 33 68 36 69 34 70 60 71 61 72 69 73 62 74 63 75
REMARK SMILES IDX 67 76 70 77 64 78 65 79 68 80 66 81 45 82 46 83 54 84 47 85
REMARK SMILES IDX 48 86 52 87 55 88 49 89 50 90 53 91 51 92
REMARK H PARENT 6 9 75 45 43 56
REMARK Flexibility Score: inf
ROOT
ATOM      1  C   UNL A   1      34.724  21.352  24.796  1.00  0.00     0.274 C 
ENDROOT
BRANCH   1   2
ATOM      2  O   UNL A   1      34.850  22.789  24.834  1.00  0.00    -0.461 OA
BRANCH   2   3
ATOM      3  C   UNL A   1      34.761  23.449  23.644  1.00  0.00     0.317 C 
ATOM      4  O   UNL A   1      35.427  23.190  22.649  1.00  0.00    -0.251 OA
BRANCH   3   5
ATOM      5  C   UNL A   1      33.784  24.610  23.721  1.00  0.00     0.119 C 
ATOM      6  N   UNL A   1      31.492  25.104  23.147  1.00  0.00    -0.330 N 
ATOM      7  C   UNL A   1      32.342  26.091  22.488  1.00  0.00     0.263 C 
ATOM      8  C   UNL A   1      32.332  24.134  23.849  1.00  0.00     0.281 C 
ATOM      9  H   UNL A   1      30.995  24.601  22.412  1.00  0.00     0.348 HD
ATOM     10  C   UNL A   1      33.707  25.420  22.423  1.00  0.00     0.086 C 
ATOM     11  C   UNL A   1      34.248  25.500  24.879  1.00  0.00     0.030 C 
BRANCH   6  12
ATOM     12  C   UNL A   1      30.289  25.584  23.834  1.00  0.00     0.299 C 
BRANCH  12  13
ATOM     13  C   UNL A   1      30.207  27.089  24.026  1.00  0.00     0.017 A 
ATOM     14  C   UNL A   1      29.122  30.046  21.915  1.00  0.00     0.067 C 
ATOM     15  C   UNL A   1      29.733  29.217  23.004  1.00  0.00     0.038 A 
ATOM     16  C   UNL A   1      29.595  27.838  23.010  1.00  0.00     0.033 A 
ATOM     17  N   UNL A   1      30.471  29.871  23.925  1.00  0.00    -0.253 NA
ATOM     18  C   UNL A   1      31.021  29.170  24.931  1.00  0.00     0.071 A 
ATOM     19  C   UNL A   1      30.857  27.778  25.080  1.00  0.00     0.009 A 
ATOM     20  C   UNL A   1      31.819  29.849  25.843  1.00  0.00     0.029 A 
ATOM     21  C   UNL A   1      31.380  27.158  26.240  1.00  0.00     0.011 A 
ATOM     22  C   UNL A   1      32.413  29.207  26.931  1.00  0.00     0.002 A 
ATOM     23  C   UNL A   1      32.167  27.862  27.149  1.00  0.00     0.001 A 
ENDBRANCH  12  13
ENDBRANCH   6  12
ENDBRANCH   3   5
ENDBRANCH   2   3
ENDBRANCH   1   2
BRANCH   1  24
ATOM     24  C   UNL A   1      36.091  20.709  25.027  1.00  0.00     0.275 C 
BRANCH  24  25
ATOM     25  O   UNL A   1      36.898  21.624  25.786  1.00  0.00    -0.458 OA
BRANCH  25  26
ATOM     26  C   UNL A   1      38.228  21.378  25.822  1.00  0.00     0.338 C 
ATOM     27  O   UNL A   1      38.799  20.382  25.414  1.00  0.00    -0.246 OA
BRANCH  26  28
ATOM     28  C   UNL A   1      38.929  22.546  26.411  1.00  0.00     0.060 A 
ATOM     29  C   UNL A   1      38.480  23.839  26.155  1.00  0.00     0.016 A 
ATOM     30  C   UNL A   1      40.099  22.368  27.146  1.00  0.00     0.016 A 
ATOM     31  C   UNL A   1      39.241  24.946  26.525  1.00  0.00     0.010 A 
ATOM     32  C   UNL A   1      40.800  23.485  27.626  1.00  0.00     0.010 A 
ATOM     33  C   UNL A   1      40.400  24.793  27.292  1.00  0.00    -0.014 A 
BRANCH  33  34
ATOM     34  C   UNL A   1      41.209  25.982  27.702  1.00  0.00     0.031 A 
ATOM     35  C   UNL A   1      40.601  27.038  28.590  1.00  0.00     0.074 A 
ATOM     36  C   UNL A   1      42.495  26.127  27.313  1.00  0.00     0.049 A 
ATOM     37  N   UNL A   1      41.015  28.258  28.834  1.00  0.00    -0.248 NA
ATOM     38  C   UNL A   1      39.353  26.682  29.283  1.00  0.00     0.031 C 
ATOM     39  C   UNL A   1      43.260  25.171  26.511  1.00  0.00     0.029 A 
ATOM     40  N   UNL A   1      43.393  27.141  27.552  1.00  0.00    -0.354 N 
ATOM     41  C   UNL A   1      40.039  28.836  29.636  1.00  0.00     0.074 A 
ATOM     42  C   UNL A   1      39.021  27.832  29.855  1.00  0.00     0.031 C 
ATOM     43  C   UNL A   1      44.519  25.612  26.374  1.00  0.00     0.029 A 
ATOM     44  C   UNL A   1      44.623  26.937  26.974  1.00  0.00     0.049 A 
ATOM     45  H   UNL A   1      43.176  27.939  28.087  1.00  0.00     0.167 HD
ATOM     46  C   UNL A   1      39.995  30.095  30.135  1.00  0.00     0.037 A 
ATOM     47  C   UNL A   1      45.701  27.741  26.882  1.00  0.00     0.037 A 
ATOM     48  C   UNL A   1      41.046  31.067  29.984  1.00  0.00     0.049 A 
ATOM     49  C   UNL A   1      45.631  29.132  27.445  1.00  0.00     0.074 A 
ATOM     50  C   UNL A   1      41.081  32.382  30.420  1.00  0.00     0.029 A 
ATOM     51  N   UNL A   1      42.269  30.815  29.381  1.00  0.00    -0.354 N 
ATOM     52  N   UNL A   1      44.645  29.719  28.077  1.00  0.00    -0.248 NA
ATOM     53  C   UNL A   1      46.813  29.985  27.252  1.00  0.00     0.031 C 
ATOM     54  C   UNL A   1      42.323  32.926  30.075  1.00  0.00     0.029 A 
ATOM     55  C   UNL A   1      43.071  31.943  29.450  1.00  0.00     0.049 A 
ATOM     56  H   UNL A   1      42.529  29.961  28.966  1.00  0.00     0.167 HD
ATOM     57  C   UNL A   1      45.084  31.005  28.353  1.00  0.00     0.074 A 
ATOM     58  C   UNL A   1      46.437  31.106  27.850  1.00  0.00     0.031 C 
ATOM     59  C   UNL A   1      44.418  32.021  28.952  1.00  0.00     0.037 A 
BRANCH  46  60
ATOM     60  C   UNL A   1      38.758  30.513  30.872  1.00  0.00     0.064 A 
ATOM     61  C   UNL A   1      38.681  30.480  32.270  1.00  0.00     0.173 A 
ATOM     62  C   UNL A   1      37.654  31.014  30.163  1.00  0.00     0.173 A 
ATOM     63  F   UNL A   1      39.703  29.995  32.991  1.00  0.00    -0.203 F 
ATOM     64  C   UNL A   1      37.539  30.924  32.932  1.00  0.00     0.198 A 
ATOM     65  C   UNL A   1      36.525  31.479  30.830  1.00  0.00     0.198 A 
ATOM     66  F   UNL A   1      37.681  31.071  28.823  1.00  0.00    -0.203 F 
ATOM     67  F   UNL A   1      37.474  30.857  34.270  1.00  0.00    -0.200 F 
ATOM     68  C   UNL A   1      36.466  31.432  32.214  1.00  0.00     0.200 A 
ATOM     69  F   UNL A   1      35.495  31.981  30.133  1.00  0.00    -0.200 F 
ATOM     70  F   UNL A   1      35.375  31.872  32.855  1.00  0.00    -0.200 F 
ENDBRANCH  46  60
BRANCH  47  71
ATOM     71  C   UNL A   1      46.918  27.276  26.164  1.00  0.00     0.064 A 
ATOM     72  C   UNL A   1      47.078  27.507  24.791  1.00  0.00     0.173 A 
ATOM     73  C   UNL A   1      47.939  26.584  26.832  1.00  0.00     0.173 A 
ATOM     74  F   UNL A   1      46.115  28.136  24.101  1.00  0.00    -0.203 F 
ATOM     75  C   UNL A   1      48.206  27.054  24.112  1.00  0.00     0.198 A 
ATOM     76  C   UNL A   1      49.083  26.161  26.159  1.00  0.00     0.198 A 
ATOM     77  F   UNL A   1      47.832  26.332  28.145  1.00  0.00    -0.203 F 
ATOM     78  F   UNL A   1      48.313  27.246  22.791  1.00  0.00    -0.200 F 
ATOM     79  C   UNL A   1      49.213  26.389  24.798  1.00  0.00     0.200 A 
ATOM     80  F   UNL A   1      50.057  25.530  26.829  1.00  0.00    -0.200 F 
ATOM     81  F   UNL A   1      50.301  25.959  24.146  1.00  0.00    -0.200 F 
ENDBRANCH  47  71
BRANCH  59  82
ATOM     82  C   UNL A   1      45.156  33.314  29.119  1.00  0.00     0.064 A 
ATOM     83  C   UNL A   1      45.948  33.559  30.250  1.00  0.00     0.173 A 
ATOM     84  C   UNL A   1      45.084  34.307  28.133  1.00  0.00     0.173 A 
ATOM     85  F   UNL A   1      46.033  32.644  31.226  1.00  0.00    -0.203 F 
ATOM     86  C   UNL A   1      46.624  34.767  30.398  1.00  0.00     0.198 A 
ATOM     87  C   UNL A   1      45.777  35.505  28.275  1.00  0.00     0.198 A 
ATOM     88  F   UNL A   1      44.340  34.115  27.033  1.00  0.00    -0.203 F 
ATOM     89  F   UNL A   1      47.341  35.001  31.506  1.00  0.00    -0.200 F 
ATOM     90  C   UNL A   1      46.541  35.737  29.409  1.00  0.00     0.200 A 
ATOM     91  F   UNL A   1      45.700  36.439  27.317  1.00  0.00    -0.200 F 
ATOM     92  F   UNL A   1      47.189  36.900  29.555  1.00  0.00    -0.200 F 
ENDBRANCH  59  82
ENDBRANCH  33  34
ENDBRANCH  26  28
ENDBRANCH  25  26
ENDBRANCH  24  25
ENDBRANCH   1  24
TORSDOF 13
ENDMDL
