MODEL 1
REMARK VINA RESULT:     -10.4      0.000      0.000
REMARK SMILES COc1ccc([C@H](C)NC(=O)[C@@H](C)n2cc(C(=O)OCCOC(=O)c3ccc(-c4c5nc(c(-c6c(F)c(F)c(F)c(F)c6F)c6ccc([nH]6)c(-c6c(F)c(F)c(F)c(F)c6F)c6nc(c(-c7c(F)c(F)c(F)c(F)c7F)c7ccc4[nH]7)C=C6)C=C5)cc3)cn2)cc1
REMARK SMILES IDX 19 1 17 2 18 3 16 4 14 5 15 6 89 7 88 8 12 9 13 10 10 11
REMARK SMILES IDX 9 12 11 14 7 15 8 16 6 17 3 18 4 19 91 20 5 21 90 22 2 23
REMARK SMILES IDX 1 24 20 25 21 26 22 27 23 28 24 29 25 30 26 31 87 32 27 33
REMARK SMILES IDX 86 34 28 35 29 36 30 37 80 38 31 39 85 40 79 41 81 42 32 43
REMARK SMILES IDX 84 44 78 45 77 46 33 48 65 49 45 50 64 51 46 52 49 53 63 54
REMARK SMILES IDX 82 55 47 56 48 57 62 59 83 60 50 61 34 62 35 63 43 64 36 65
REMARK SMILES IDX 37 66 41 67 44 68 38 69 39 70 42 71 40 72 66 73 67 74 75 75
REMARK SMILES IDX 68 76 69 77 73 78 76 79 70 80 71 81 74 82 72 83 51 84 52 85
REMARK SMILES IDX 60 86 53 87 54 88 58 89 61 90 55 91 56 92 59 93 57 94
REMARK H PARENT 9 13 81 47 49 58
REMARK Flexibility Score: inf
ROOT
ATOM      1  O   UNL A   1      43.340  19.862  24.923  1.00  0.00    -0.458 OA
ENDROOT
BRANCH   1   2
ATOM      2  C   UNL A   1      44.638  20.271  25.065  1.00  0.00     0.341 C 
ATOM      3  O   UNL A   1      45.606  19.516  25.080  1.00  0.00    -0.246 OA
BRANCH   2   4
ATOM      4  C   UNL A   1      44.771  21.712  25.080  1.00  0.00     0.098 A 
ATOM      5  N   UNL A   1      45.247  23.798  25.623  1.00  0.00    -0.260 N 
ATOM      6  C   UNL A   1      45.575  22.493  25.884  1.00  0.00     0.125 A 
ATOM      7  N   UNL A   1      44.366  23.909  24.604  1.00  0.00    -0.180 NA
ATOM      8  C   UNL A   1      44.064  22.646  24.298  1.00  0.00     0.150 A 
BRANCH   5   9
ATOM      9  C   UNL A   1      45.850  25.011  26.168  1.00  0.00     0.193 C 
ATOM     10  C   UNL A   1      46.319  26.023  25.124  1.00  0.00     0.044 C 
BRANCH   9  11
ATOM     11  C   UNL A   1      46.895  24.753  27.253  1.00  0.00     0.245 C 
ATOM     12  N   UNL A   1      46.598  24.516  28.559  1.00  0.00    -0.348 N 
ATOM     13  H   UNL A   1      47.366  24.220  29.098  1.00  0.00     0.164 HD
ATOM     14  O   UNL A   1      48.090  24.642  26.949  1.00  0.00    -0.273 OA
BRANCH  12  15
ATOM     15  C   UNL A   1      45.354  24.620  29.304  1.00  0.00     0.109 C 
ATOM     16  C   UNL A   1      44.560  23.311  29.253  1.00  0.00     0.036 C 
BRANCH  15  17
ATOM     17  C   UNL A   1      45.565  25.091  30.730  1.00  0.00    -0.026 A 
ATOM     18  C   UNL A   1      45.831  25.997  33.391  1.00  0.00     0.118 A 
ATOM     19  C   UNL A   1      44.633  25.447  32.947  1.00  0.00     0.047 A 
ATOM     20  C   UNL A   1      46.927  26.016  32.532  1.00  0.00     0.047 A 
ATOM     21  C   UNL A   1      44.487  25.027  31.625  1.00  0.00     0.009 A 
ATOM     22  C   UNL A   1      46.798  25.553  31.215  1.00  0.00     0.009 A 
BRANCH  18  23
ATOM     23  O   UNL A   1      45.828  26.458  34.679  1.00  0.00    -0.497 OA
ATOM     24  C   UNL A   1      46.578  27.654  34.883  1.00  0.00     0.278 C 
ENDBRANCH  18  23
ENDBRANCH  15  17
ENDBRANCH  12  15
ENDBRANCH   9  11
ENDBRANCH   5   9
ENDBRANCH   2   4
ENDBRANCH   1   2
BRANCH   1  25
ATOM     25  C   UNL A   1      42.662  19.514  26.142  1.00  0.00     0.275 C 
BRANCH  25  26
ATOM     26  C   UNL A   1      41.250  20.086  26.248  1.00  0.00     0.275 C 
BRANCH  26  27
ATOM     27  O   UNL A   1      41.178  21.495  26.043  1.00  0.00    -0.458 OA
BRANCH  27  28
ATOM     28  C   UNL A   1      39.965  22.021  26.329  1.00  0.00     0.338 C 
ATOM     29  O   UNL A   1      38.884  21.684  25.884  1.00  0.00    -0.246 OA
BRANCH  28  30
ATOM     30  C   UNL A   1      40.127  23.241  27.108  1.00  0.00     0.060 A 
ATOM     31  C   UNL A   1      39.309  24.331  26.795  1.00  0.00     0.016 A 
ATOM     32  C   UNL A   1      41.234  23.355  27.957  1.00  0.00     0.016 A 
ATOM     33  C   UNL A   1      39.648  25.572  27.291  1.00  0.00     0.010 A 
ATOM     34  C   UNL A   1      41.577  24.592  28.442  1.00  0.00     0.010 A 
ATOM     35  C   UNL A   1      40.801  25.692  28.074  1.00  0.00    -0.014 A 
BRANCH  35  36
ATOM     36  C   UNL A   1      41.098  26.980  28.666  1.00  0.00     0.031 A 
ATOM     37  C   UNL A   1      42.305  27.619  28.085  1.00  0.00     0.074 A 
ATOM     38  C   UNL A   1      40.236  27.588  29.504  1.00  0.00     0.049 A 
ATOM     39  N   UNL A   1      43.358  28.035  28.702  1.00  0.00    -0.248 NA
ATOM     40  C   UNL A   1      42.408  27.689  26.615  1.00  0.00     0.031 C 
ATOM     41  C   UNL A   1      38.885  27.130  29.848  1.00  0.00     0.029 A 
ATOM     42  N   UNL A   1      40.321  28.802  30.117  1.00  0.00    -0.354 N 
ATOM     43  C   UNL A   1      44.170  28.598  27.718  1.00  0.00     0.074 A 
ATOM     44  C   UNL A   1      43.625  28.203  26.451  1.00  0.00     0.031 C 
ATOM     45  C   UNL A   1      38.201  28.152  30.407  1.00  0.00     0.029 A 
ATOM     46  C   UNL A   1      39.102  29.280  30.575  1.00  0.00     0.049 A 
ATOM     47  H   UNL A   1      41.167  29.293  30.225  1.00  0.00     0.167 HD
ATOM     48  C   UNL A   1      45.039  29.593  28.036  1.00  0.00     0.037 A 
ATOM     49  C   UNL A   1      38.830  30.535  31.001  1.00  0.00     0.037 A 
ATOM     50  C   UNL A   1      45.278  29.632  29.454  1.00  0.00     0.049 A 
ATOM     51  C   UNL A   1      40.110  31.193  31.352  1.00  0.00     0.074 A 
ATOM     52  C   UNL A   1      46.035  28.925  30.359  1.00  0.00     0.029 A 
ATOM     53  N   UNL A   1      44.340  30.335  30.158  1.00  0.00    -0.354 N 
ATOM     54  N   UNL A   1      40.854  30.829  32.358  1.00  0.00    -0.248 NA
ATOM     55  C   UNL A   1      40.761  32.066  30.379  1.00  0.00     0.031 C 
ATOM     56  C   UNL A   1      45.419  29.120  31.632  1.00  0.00     0.029 A 
ATOM     57  C   UNL A   1      44.315  29.953  31.472  1.00  0.00     0.049 A 
ATOM     58  H   UNL A   1      43.756  31.026  29.771  1.00  0.00     0.167 HD
ATOM     59  C   UNL A   1      42.145  31.062  31.927  1.00  0.00     0.074 A 
ATOM     60  C   UNL A   1      42.023  31.985  30.809  1.00  0.00     0.031 C 
ATOM     61  C   UNL A   1      43.160  30.229  32.293  1.00  0.00     0.037 A 
BRANCH  48  62
ATOM     62  C   UNL A   1      45.263  30.827  27.186  1.00  0.00     0.064 A 
ATOM     63  C   UNL A   1      46.588  31.234  26.924  1.00  0.00     0.173 A 
ATOM     64  C   UNL A   1      44.269  31.797  26.922  1.00  0.00     0.173 A 
ATOM     65  F   UNL A   1      47.615  30.401  27.148  1.00  0.00    -0.203 F 
ATOM     66  C   UNL A   1      46.895  32.535  26.517  1.00  0.00     0.198 A 
ATOM     67  C   UNL A   1      44.577  33.077  26.468  1.00  0.00     0.198 A 
ATOM     68  F   UNL A   1      42.977  31.593  27.202  1.00  0.00    -0.203 F 
ATOM     69  F   UNL A   1      48.176  32.913  26.406  1.00  0.00    -0.200 F 
ATOM     70  C   UNL A   1      45.890  33.459  26.298  1.00  0.00     0.200 A 
ATOM     71  F   UNL A   1      43.588  33.964  26.282  1.00  0.00    -0.200 F 
ATOM     72  F   UNL A   1      46.184  34.724  25.974  1.00  0.00    -0.200 F 
ENDBRANCH  48  62
BRANCH  49  73
ATOM     73  C   UNL A   1      37.551  31.273  30.915  1.00  0.00     0.064 A 
ATOM     74  C   UNL A   1      36.761  31.497  32.051  1.00  0.00     0.173 A 
ATOM     75  C   UNL A   1      37.200  31.988  29.753  1.00  0.00     0.173 A 
ATOM     76  F   UNL A   1      37.053  30.885  33.208  1.00  0.00    -0.203 F 
ATOM     77  C   UNL A   1      35.694  32.401  32.033  1.00  0.00     0.198 A 
ATOM     78  C   UNL A   1      36.131  32.882  29.732  1.00  0.00     0.198 A 
ATOM     79  F   UNL A   1      37.947  31.900  28.641  1.00  0.00    -0.203 F 
ATOM     80  F   UNL A   1      34.995  32.634  33.153  1.00  0.00    -0.200 F 
ATOM     81  C   UNL A   1      35.386  33.099  30.876  1.00  0.00     0.200 A 
ATOM     82  F   UNL A   1      35.866  33.575  28.615  1.00  0.00    -0.200 F 
ATOM     83  F   UNL A   1      34.400  34.007  30.873  1.00  0.00    -0.200 F 
ENDBRANCH  49  73
BRANCH  61  84
ATOM     84  C   UNL A   1      42.965  29.426  33.539  1.00  0.00     0.064 A 
ATOM     85  C   UNL A   1      42.385  28.148  33.573  1.00  0.00     0.173 A 
ATOM     86  C   UNL A   1      43.448  29.954  34.743  1.00  0.00     0.173 A 
ATOM     87  F   UNL A   1      41.975  27.546  32.449  1.00  0.00    -0.203 F 
ATOM     88  C   UNL A   1      42.252  27.453  34.773  1.00  0.00     0.198 A 
ATOM     89  C   UNL A   1      43.348  29.242  35.932  1.00  0.00     0.198 A 
ATOM     90  F   UNL A   1      44.051  31.154  34.757  1.00  0.00    -0.203 F 
ATOM     91  F   UNL A   1      41.668  26.244  34.788  1.00  0.00    -0.200 F 
ATOM     92  C   UNL A   1      42.738  27.999  35.950  1.00  0.00     0.200 A 
ATOM     93  F   UNL A   1      43.857  29.757  37.060  1.00  0.00    -0.200 F 
ATOM     94  F   UNL A   1      42.636  27.318  37.100  1.00  0.00    -0.200 F 
ENDBRANCH  61  84
ENDBRANCH  35  36
ENDBRANCH  28  30
ENDBRANCH  27  28
ENDBRANCH  26  27
ENDBRANCH  25  26
ENDBRANCH   1  25
TORSDOF 16
ENDMDL
MODEL 2
REMARK VINA RESULT:     -10.4      5.945     11.180
REMARK SMILES COc1ccc([C@H](C)NC(=O)[C@@H](C)n2cc(C(=O)OCCOC(=O)c3ccc(-c4c5nc(c(-c6c(F)c(F)c(F)c(F)c6F)c6ccc([nH]6)c(-c6c(F)c(F)c(F)c(F)c6F)c6nc(c(-c7c(F)c(F)c(F)c(F)c7F)c7ccc4[nH]7)C=C6)C=C5)cc3)cn2)cc1
REMARK SMILES IDX 19 1 17 2 18 3 16 4 14 5 15 6 89 7 88 8 12 9 13 10 10 11
REMARK SMILES IDX 9 12 11 14 7 15 8 16 6 17 3 18 4 19 91 20 5 21 90 22 2 23
REMARK SMILES IDX 1 24 20 25 21 26 22 27 23 28 24 29 25 30 26 31 87 32 27 33
REMARK SMILES IDX 86 34 28 35 29 36 30 37 80 38 31 39 85 40 79 41 81 42 32 43
REMARK SMILES IDX 84 44 78 45 77 46 33 48 65 49 45 50 64 51 46 52 49 53 63 54
REMARK SMILES IDX 82 55 47 56 48 57 62 59 83 60 50 61 34 62 35 63 43 64 36 65
REMARK SMILES IDX 37 66 41 67 44 68 38 69 39 70 42 71 40 72 66 73 67 74 75 75
REMARK SMILES IDX 68 76 69 77 73 78 76 79 70 80 71 81 74 82 72 83 51 84 52 85
REMARK SMILES IDX 60 86 53 87 54 88 58 89 61 90 55 91 56 92 59 93 57 94
REMARK H PARENT 9 13 81 47 49 58
REMARK Flexibility Score: inf
ROOT
ATOM      1  O   UNL A   1      32.525  31.248  26.172  1.00  0.00    -0.458 OA
ENDROOT
BRANCH   1   2
ATOM      2  C   UNL A   1      33.226  30.418  27.003  1.00  0.00     0.341 C 
ATOM      3  O   UNL A   1      33.803  30.784  28.023  1.00  0.00    -0.246 OA
BRANCH   2   4
ATOM      4  C   UNL A   1      33.123  29.027  26.619  1.00  0.00     0.098 A 
ATOM      5  N   UNL A   1      32.547  26.901  26.463  1.00  0.00    -0.260 N 
ATOM      6  C   UNL A   1      32.132  28.120  26.932  1.00  0.00     0.125 A 
ATOM      7  N   UNL A   1      33.694  26.992  25.751  1.00  0.00    -0.180 NA
ATOM      8  C   UNL A   1      34.048  28.273  25.871  1.00  0.00     0.150 A 
BRANCH   5   9
ATOM      9  C   UNL A   1      31.833  25.627  26.488  1.00  0.00     0.193 C 
ATOM     10  C   UNL A   1      32.604  24.446  25.901  1.00  0.00     0.044 C 
BRANCH   9  11
ATOM     11  C   UNL A   1      30.396  25.710  25.976  1.00  0.00     0.245 C 
ATOM     12  N   UNL A   1      30.050  26.166  24.742  1.00  0.00    -0.348 N 
ATOM     13  H   UNL A   1      29.106  26.015  24.509  1.00  0.00     0.164 HD
ATOM     14  O   UNL A   1      29.469  25.247  26.654  1.00  0.00    -0.273 OA
BRANCH  12  15
ATOM     15  C   UNL A   1      30.818  26.835  23.705  1.00  0.00     0.109 C 
ATOM     16  C   UNL A   1      31.316  25.843  22.650  1.00  0.00     0.036 C 
BRANCH  15  17
ATOM     17  C   UNL A   1      30.066  27.992  23.075  1.00  0.00    -0.026 A 
ATOM     18  C   UNL A   1      28.560  30.069  21.897  1.00  0.00     0.118 A 
ATOM     19  C   UNL A   1      27.943  29.114  22.698  1.00  0.00     0.047 A 
ATOM     20  C   UNL A   1      29.945  30.040  21.753  1.00  0.00     0.047 A 
ATOM     21  C   UNL A   1      28.677  28.068  23.255  1.00  0.00     0.009 A 
ATOM     22  C   UNL A   1      30.694  29.016  22.349  1.00  0.00     0.009 A 
BRANCH  18  23
ATOM     23  O   UNL A   1      27.726  30.992  21.328  1.00  0.00    -0.497 OA
ATOM     24  C   UNL A   1      28.145  32.346  21.483  1.00  0.00     0.278 C 
ENDBRANCH  18  23
ENDBRANCH  15  17
ENDBRANCH  12  15
ENDBRANCH   9  11
ENDBRANCH   5   9
ENDBRANCH   2   4
ENDBRANCH   1   2
BRANCH   1  25
ATOM     25  C   UNL A   1      31.517  32.054  26.805  1.00  0.00     0.275 C 
BRANCH  25  26
ATOM     26  C   UNL A   1      31.971  33.479  27.117  1.00  0.00     0.275 C 
BRANCH  26  27
ATOM     27  O   UNL A   1      32.057  33.768  28.509  1.00  0.00    -0.458 OA
BRANCH  27  28
ATOM     28  C   UNL A   1      32.826  34.845  28.790  1.00  0.00     0.338 C 
ATOM     29  O   UNL A   1      32.536  36.020  28.665  1.00  0.00    -0.246 OA
BRANCH  28  30
ATOM     30  C   UNL A   1      34.190  34.419  29.071  1.00  0.00     0.060 A 
ATOM     31  C   UNL A   1      35.096  34.377  28.006  1.00  0.00     0.016 A 
ATOM     32  C   UNL A   1      34.473  33.847  30.317  1.00  0.00     0.016 A 
ATOM     33  C   UNL A   1      36.280  33.691  28.175  1.00  0.00     0.010 A 
ATOM     34  C   UNL A   1      35.647  33.156  30.481  1.00  0.00     0.010 A 
ATOM     35  C   UNL A   1      36.521  33.056  29.398  1.00  0.00    -0.014 A 
BRANCH  35  36
ATOM     36  C   UNL A   1      37.805  32.416  29.599  1.00  0.00     0.031 A 
ATOM     37  C   UNL A   1      37.818  30.997  29.166  1.00  0.00     0.074 A 
ATOM     38  C   UNL A   1      38.897  33.122  29.952  1.00  0.00     0.049 A 
ATOM     39  N   UNL A   1      38.138  29.958  29.860  1.00  0.00    -0.248 NA
ATOM     40  C   UNL A   1      37.286  30.679  27.827  1.00  0.00     0.031 C 
ATOM     41  C   UNL A   1      38.992  34.581  30.074  1.00  0.00     0.029 A 
ATOM     42  N   UNL A   1      40.181  32.709  30.141  1.00  0.00    -0.354 N 
ATOM     43  C   UNL A   1      38.037  28.878  28.985  1.00  0.00     0.074 A 
ATOM     44  C   UNL A   1      37.347  29.349  27.818  1.00  0.00     0.031 C 
ATOM     45  C   UNL A   1      40.293  34.941  30.083  1.00  0.00     0.029 A 
ATOM     46  C   UNL A   1      41.109  33.738  30.100  1.00  0.00     0.049 A 
ATOM     47  H   UNL A   1      40.427  31.768  30.295  1.00  0.00     0.167 HD
ATOM     48  C   UNL A   1      38.802  27.771  29.173  1.00  0.00     0.037 A 
ATOM     49  C   UNL A   1      42.454  33.617  30.016  1.00  0.00     0.037 A 
ATOM     50  C   UNL A   1      39.318  27.726  30.515  1.00  0.00     0.049 A 
ATOM     51  C   UNL A   1      42.824  32.249  30.447  1.00  0.00     0.074 A 
ATOM     52  C   UNL A   1      38.838  27.388  31.760  1.00  0.00     0.029 A 
ATOM     53  N   UNL A   1      40.463  28.452  30.697  1.00  0.00    -0.354 N 
ATOM     54  N   UNL A   1      42.690  31.818  31.670  1.00  0.00    -0.248 NA
ATOM     55  C   UNL A   1      43.043  31.213  29.442  1.00  0.00     0.031 C 
ATOM     56  C   UNL A   1      39.667  28.065  32.704  1.00  0.00     0.029 A 
ATOM     57  C   UNL A   1      40.639  28.784  32.013  1.00  0.00     0.049 A 
ATOM     58  H   UNL A   1      41.082  28.704  29.974  1.00  0.00     0.167 HD
ATOM     59  C   UNL A   1      42.380  30.480  31.526  1.00  0.00     0.074 A 
ATOM     60  C   UNL A   1      42.796  30.126  30.177  1.00  0.00     0.031 C 
ATOM     61  C   UNL A   1      41.511  29.873  32.383  1.00  0.00     0.037 A 
BRANCH  48  62
ATOM     62  C   UNL A   1      39.503  27.024  28.057  1.00  0.00     0.064 A 
ATOM     63  C   UNL A   1      39.545  25.615  28.111  1.00  0.00     0.173 A 
ATOM     64  C   UNL A   1      40.409  27.623  27.153  1.00  0.00     0.173 A 
ATOM     65  F   UNL A   1      38.737  24.939  28.942  1.00  0.00    -0.203 F 
ATOM     66  C   UNL A   1      40.481  24.876  27.384  1.00  0.00     0.198 A 
ATOM     67  C   UNL A   1      41.307  26.876  26.392  1.00  0.00     0.198 A 
ATOM     68  F   UNL A   1      40.551  28.949  27.051  1.00  0.00    -0.203 F 
ATOM     69  F   UNL A   1      40.570  23.550  27.566  1.00  0.00    -0.200 F 
ATOM     70  C   UNL A   1      41.368  25.507  26.532  1.00  0.00     0.200 A 
ATOM     71  F   UNL A   1      42.173  27.510  25.588  1.00  0.00    -0.200 F 
ATOM     72  F   UNL A   1      42.310  24.809  25.887  1.00  0.00    -0.200 F 
ENDBRANCH  48  62
BRANCH  49  73
ATOM     73  C   UNL A   1      43.418  34.541  29.379  1.00  0.00     0.064 A 
ATOM     74  C   UNL A   1      43.751  34.425  28.023  1.00  0.00     0.173 A 
ATOM     75  C   UNL A   1      43.846  35.711  30.036  1.00  0.00     0.173 A 
ATOM     76  F   UNL A   1      43.347  33.359  27.317  1.00  0.00    -0.203 F 
ATOM     77  C   UNL A   1      44.453  35.434  27.354  1.00  0.00     0.198 A 
ATOM     78  C   UNL A   1      44.553  36.712  29.371  1.00  0.00     0.198 A 
ATOM     79  F   UNL A   1      43.505  35.947  31.312  1.00  0.00    -0.203 F 
ATOM     80  F   UNL A   1      44.704  35.317  26.042  1.00  0.00    -0.200 F 
ATOM     81  C   UNL A   1      44.845  36.580  28.027  1.00  0.00     0.200 A 
ATOM     82  F   UNL A   1      44.897  37.831  30.027  1.00  0.00    -0.200 F 
ATOM     83  F   UNL A   1      45.466  37.571  27.374  1.00  0.00    -0.200 F 
ENDBRANCH  49  73
BRANCH  61  84
ATOM     84  C   UNL A   1      41.335  30.497  33.730  1.00  0.00     0.064 A 
ATOM     85  C   UNL A   1      42.204  30.295  34.814  1.00  0.00     0.173 A 
ATOM     86  C   UNL A   1      40.271  31.389  33.906  1.00  0.00     0.173 A 
ATOM     87  F   UNL A   1      43.289  29.519  34.693  1.00  0.00    -0.203 F 
ATOM     88  C   UNL A   1      41.984  30.925  36.036  1.00  0.00     0.198 A 
ATOM     89  C   UNL A   1      40.074  32.046  35.115  1.00  0.00     0.198 A 
ATOM     90  F   UNL A   1      39.437  31.650  32.887  1.00  0.00    -0.203 F 
ATOM     91  F   UNL A   1      42.809  30.697  37.069  1.00  0.00    -0.200 F 
ATOM     92  C   UNL A   1      40.921  31.804  36.184  1.00  0.00     0.200 A 
ATOM     93  F   UNL A   1      39.071  32.926  35.239  1.00  0.00    -0.200 F 
ATOM     94  F   UNL A   1      40.726  32.432  37.351  1.00  0.00    -0.200 F 
ENDBRANCH  61  84
ENDBRANCH  35  36
ENDBRANCH  28  30
ENDBRANCH  27  28
ENDBRANCH  26  27
ENDBRANCH  25  26
ENDBRANCH   1  25
TORSDOF 16
ENDMDL
MODEL 3
REMARK VINA RESULT:     -10.4      1.406      2.654
REMARK SMILES COc1ccc([C@H](C)NC(=O)[C@@H](C)n2cc(C(=O)OCCOC(=O)c3ccc(-c4c5nc(c(-c6c(F)c(F)c(F)c(F)c6F)c6ccc([nH]6)c(-c6c(F)c(F)c(F)c(F)c6F)c6nc(c(-c7c(F)c(F)c(F)c(F)c7F)c7ccc4[nH]7)C=C6)C=C5)cc3)cn2)cc1
REMARK SMILES IDX 19 1 17 2 18 3 16 4 14 5 15 6 89 7 88 8 12 9 13 10 10 11
REMARK SMILES IDX 9 12 11 14 7 15 8 16 6 17 3 18 4 19 91 20 5 21 90 22 2 23
REMARK SMILES IDX 1 24 20 25 21 26 22 27 23 28 24 29 25 30 26 31 87 32 27 33
REMARK SMILES IDX 86 34 28 35 29 36 30 37 80 38 31 39 85 40 79 41 81 42 32 43
REMARK SMILES IDX 84 44 78 45 77 46 33 48 65 49 45 50 64 51 46 52 49 53 63 54
REMARK SMILES IDX 82 55 47 56 48 57 62 59 83 60 50 61 34 62 35 63 43 64 36 65
REMARK SMILES IDX 37 66 41 67 44 68 38 69 39 70 42 71 40 72 66 73 67 74 75 75
REMARK SMILES IDX 68 76 69 77 73 78 76 79 70 80 71 81 74 82 72 83 51 84 52 85
REMARK SMILES IDX 60 86 53 87 54 88 58 89 61 90 55 91 56 92 59 93 57 94
REMARK H PARENT 9 13 81 47 49 58
REMARK Flexibility Score: inf
ROOT
ATOM      1  O   UNL A   1      42.543  19.593  25.058  1.00  0.00    -0.458 OA
ENDROOT
BRANCH   1   2
ATOM      2  C   UNL A   1      43.867  19.248  25.092  1.00  0.00     0.341 C 
ATOM      3  O   UNL A   1      44.290  18.106  24.940  1.00  0.00    -0.246 OA
BRANCH   2   4
ATOM      4  C   UNL A   1      44.739  20.396  25.211  1.00  0.00     0.098 A 
ATOM      5  N   UNL A   1      45.590  22.383  25.662  1.00  0.00    -0.260 N 
ATOM      6  C   UNL A   1      44.581  21.519  25.997  1.00  0.00     0.125 A 
ATOM      7  N   UNL A   1      46.467  21.832  24.793  1.00  0.00    -0.180 NA
ATOM      8  C   UNL A   1      45.934  20.642  24.508  1.00  0.00     0.150 A 
BRANCH   5   9
ATOM      9  C   UNL A   1      45.902  23.685  26.246  1.00  0.00     0.193 C 
ATOM     10  C   UNL A   1      45.403  23.886  27.676  1.00  0.00     0.044 C 
BRANCH   9  11
ATOM     11  C   UNL A   1      45.580  24.869  25.335  1.00  0.00     0.245 C 
ATOM     12  N   UNL A   1      46.519  25.661  24.751  1.00  0.00    -0.348 N 
ATOM     13  H   UNL A   1      46.159  26.281  24.078  1.00  0.00     0.164 HD
ATOM     14  O   UNL A   1      44.409  25.091  24.998  1.00  0.00    -0.273 OA
BRANCH  12  15
ATOM     15  C   UNL A   1      47.957  25.761  24.941  1.00  0.00     0.109 C 
ATOM     16  C   UNL A   1      48.550  26.914  24.126  1.00  0.00     0.036 C 
BRANCH  15  17
ATOM     17  C   UNL A   1      48.349  25.848  26.403  1.00  0.00    -0.026 A 
ATOM     18  C   UNL A   1      49.116  25.888  29.119  1.00  0.00     0.118 A 
ATOM     19  C   UNL A   1      49.766  25.057  28.212  1.00  0.00     0.047 A 
ATOM     20  C   UNL A   1      48.140  26.765  28.656  1.00  0.00     0.047 A 
ATOM     21  C   UNL A   1      49.369  25.011  26.877  1.00  0.00     0.009 A 
ATOM     22  C   UNL A   1      47.769  26.755  27.304  1.00  0.00     0.009 A 
BRANCH  18  23
ATOM     23  O   UNL A   1      49.529  25.780  30.420  1.00  0.00    -0.497 OA
ATOM     24  C   UNL A   1      48.494  25.945  31.386  1.00  0.00     0.278 C 
ENDBRANCH  18  23
ENDBRANCH  15  17
ENDBRANCH  12  15
ENDBRANCH   9  11
ENDBRANCH   5   9
ENDBRANCH   2   4
ENDBRANCH   1   2
BRANCH   1  25
ATOM     25  C   UNL A   1      41.736  19.062  26.122  1.00  0.00     0.275 C 
BRANCH  25  26
ATOM     26  C   UNL A   1      40.542  19.942  26.489  1.00  0.00     0.275 C 
BRANCH  26  27
ATOM     27  O   UNL A   1      40.821  21.339  26.465  1.00  0.00    -0.458 OA
BRANCH  27  28
ATOM     28  C   UNL A   1      39.711  22.112  26.462  1.00  0.00     0.338 C 
ATOM     29  O   UNL A   1      38.705  21.968  25.793  1.00  0.00    -0.246 OA
BRANCH  28  30
ATOM     30  C   UNL A   1      39.951  23.323  27.235  1.00  0.00     0.060 A 
ATOM     31  C   UNL A   1      39.105  24.415  27.020  1.00  0.00     0.016 A 
ATOM     32  C   UNL A   1      41.140  23.429  27.967  1.00  0.00     0.016 A 
ATOM     33  C   UNL A   1      39.492  25.651  27.494  1.00  0.00     0.010 A 
ATOM     34  C   UNL A   1      41.529  24.661  28.428  1.00  0.00     0.010 A 
ATOM     35  C   UNL A   1      40.718  25.764  28.156  1.00  0.00    -0.014 A 
BRANCH  35  36
ATOM     36  C   UNL A   1      41.074  27.046  28.730  1.00  0.00     0.031 A 
ATOM     37  C   UNL A   1      42.353  27.581  28.201  1.00  0.00     0.074 A 
ATOM     38  C   UNL A   1      40.213  27.737  29.501  1.00  0.00     0.049 A 
ATOM     39  N   UNL A   1      43.398  27.942  28.865  1.00  0.00    -0.248 NA
ATOM     40  C   UNL A   1      42.540  27.600  26.737  1.00  0.00     0.031 C 
ATOM     41  C   UNL A   1      38.816  27.385  29.781  1.00  0.00     0.029 A 
ATOM     42  N   UNL A   1      40.350  28.960  30.085  1.00  0.00    -0.354 N 
ATOM     43  C   UNL A   1      44.300  28.417  27.915  1.00  0.00     0.074 A 
ATOM     44  C   UNL A   1      43.798  28.023  26.629  1.00  0.00     0.031 C 
ATOM     45  C   UNL A   1      38.177  28.468  30.272  1.00  0.00     0.029 A 
ATOM     46  C   UNL A   1      39.145  29.535  30.461  1.00  0.00     0.049 A 
ATOM     47  H   UNL A   1      41.221  29.394  30.228  1.00  0.00     0.167 HD
ATOM     48  C   UNL A   1      45.219  29.359  28.254  1.00  0.00     0.037 A 
ATOM     49  C   UNL A   1      38.940  30.819  30.838  1.00  0.00     0.037 A 
ATOM     50  C   UNL A   1      45.383  29.424  29.682  1.00  0.00     0.049 A 
ATOM     51  C   UNL A   1      40.242  31.396  31.243  1.00  0.00     0.074 A 
ATOM     52  C   UNL A   1      46.037  28.694  30.647  1.00  0.00     0.029 A 
ATOM     53  N   UNL A   1      44.459  30.211  30.314  1.00  0.00    -0.354 N 
ATOM     54  N   UNL A   1      40.903  31.012  32.299  1.00  0.00    -0.248 NA
ATOM     55  C   UNL A   1      41.006  32.192  30.286  1.00  0.00     0.031 C 
ATOM     56  C   UNL A   1      45.368  28.969  31.877  1.00  0.00     0.029 A 
ATOM     57  C   UNL A   1      44.335  29.871  31.634  1.00  0.00     0.049 A 
ATOM     58  H   UNL A   1      43.948  30.929  29.876  1.00  0.00     0.167 HD
ATOM     59  C   UNL A   1      42.228  31.142  31.936  1.00  0.00     0.074 A 
ATOM     60  C   UNL A   1      42.233  32.037  30.789  1.00  0.00     0.031 C 
ATOM     61  C   UNL A   1      43.160  30.252  32.380  1.00  0.00     0.037 A 
BRANCH  48  62
ATOM     62  C   UNL A   1      45.576  30.548  27.386  1.00  0.00     0.064 A 
ATOM     63  C   UNL A   1      46.928  30.941  27.304  1.00  0.00     0.173 A 
ATOM     64  C   UNL A   1      44.639  31.503  26.929  1.00  0.00     0.173 A 
ATOM     65  F   UNL A   1      47.904  30.120  27.720  1.00  0.00    -0.203 F 
ATOM     66  C   UNL A   1      47.301  32.220  26.882  1.00  0.00     0.198 A 
ATOM     67  C   UNL A   1      45.021  32.758  26.462  1.00  0.00     0.198 A 
ATOM     68  F   UNL A   1      43.318  31.314  27.024  1.00  0.00    -0.203 F 
ATOM     69  F   UNL A   1      48.588  32.592  26.944  1.00  0.00    -0.200 F 
ATOM     70  C   UNL A   1      46.347  33.131  26.470  1.00  0.00     0.200 A 
ATOM     71  F   UNL A   1      44.078  33.635  26.087  1.00  0.00    -0.200 F 
ATOM     72  F   UNL A   1      46.696  34.378  26.131  1.00  0.00    -0.200 F 
ENDBRANCH  48  62
BRANCH  49  73
ATOM     73  C   UNL A   1      37.723  31.641  30.661  1.00  0.00     0.064 A 
ATOM     74  C   UNL A   1      37.367  32.156  29.406  1.00  0.00     0.173 A 
ATOM     75  C   UNL A   1      36.752  31.730  31.677  1.00  0.00     0.173 A 
ATOM     76  F   UNL A   1      38.222  32.074  28.376  1.00  0.00    -0.203 F 
ATOM     77  C   UNL A   1      36.104  32.710  29.176  1.00  0.00     0.198 A 
ATOM     78  C   UNL A   1      35.496  32.290  31.449  1.00  0.00     0.198 A 
ATOM     79  F   UNL A   1      36.972  31.192  32.886  1.00  0.00    -0.203 F 
ATOM     80  F   UNL A   1      35.777  33.141  27.949  1.00  0.00    -0.200 F 
ATOM     81  C   UNL A   1      35.167  32.768  30.195  1.00  0.00     0.200 A 
ATOM     82  F   UNL A   1      34.588  32.310  32.436  1.00  0.00    -0.200 F 
ATOM     83  F   UNL A   1      33.937  33.246  29.959  1.00  0.00    -0.200 F 
ENDBRANCH  49  73
BRANCH  61  84
ATOM     84  C   UNL A   1      42.841  29.502  33.634  1.00  0.00     0.064 A 
ATOM     85  C   UNL A   1      43.055  30.001  34.929  1.00  0.00     0.173 A 
ATOM     86  C   UNL A   1      42.235  28.246  33.512  1.00  0.00     0.173 A 
ATOM     87  F   UNL A   1      43.556  31.228  35.122  1.00  0.00    -0.203 F 
ATOM     88  C   UNL A   1      42.718  29.249  36.051  1.00  0.00     0.198 A 
ATOM     89  C   UNL A   1      41.864  27.514  34.633  1.00  0.00     0.198 A 
ATOM     90  F   UNL A   1      41.969  27.743  32.296  1.00  0.00    -0.203 F 
ATOM     91  F   UNL A   1      42.956  29.732  37.281  1.00  0.00    -0.200 F 
ATOM     92  C   UNL A   1      42.118  28.008  35.902  1.00  0.00     0.200 A 
ATOM     93  F   UNL A   1      41.247  26.334  34.484  1.00  0.00    -0.200 F 
ATOM     94  F   UNL A   1      41.768  27.297  36.983  1.00  0.00    -0.200 F 
ENDBRANCH  61  84
ENDBRANCH  35  36
ENDBRANCH  28  30
ENDBRANCH  27  28
ENDBRANCH  26  27
ENDBRANCH  25  26
ENDBRANCH   1  25
TORSDOF 16
ENDMDL
