MODEL 1
REMARK VINA RESULT:     -12.1      0.000      0.000
REMARK SMILES O=C(OCCOC(=O)c1cccnc1C[N@@H+]1CCC[C@H]1c1ccccn1)c1ccc(-c2c3nc(c(-c4c(F)c(F)c(F)c(F)c4F)c4ccc([nH]4)c(-c4c(F)c(F)c(F)c(F)c4F)c4nc(c(-c5c(F)c(F)c(F)c(F)c5F)c5ccc2[nH]5)C=C4)C=C3)cc1
REMARK SMILES IDX 5 1 4 2 3 3 2 4 1 5 27 6 28 7 89 8 29 9 88 10 30 11 31 12
REMARK SMILES IDX 32 13 82 14 33 15 87 16 81 17 83 18 34 19 86 20 80 21 79 22
REMARK SMILES IDX 35 24 67 25 47 26 66 27 48 28 51 29 65 30 84 31 49 32 50 33
REMARK SMILES IDX 64 35 85 36 52 37 36 38 37 39 45 40 38 41 39 42 43 43 46 44
REMARK SMILES IDX 40 45 41 46 44 47 42 48 68 49 69 50 77 51 70 52 71 53 75 54
REMARK SMILES IDX 78 55 72 56 73 57 76 58 74 59 53 60 54 61 62 62 55 63 56 64
REMARK SMILES IDX 60 65 63 66 57 67 58 68 61 69 59 70 6 71 7 72 8 73 9 74
REMARK SMILES IDX 10 75 14 76 11 77 13 78 12 79 15 80 16 81 17 82 20 83 18 85
REMARK SMILES IDX 19 86 21 87 22 88 26 89 23 90 25 91 24 92
REMARK H PARENT 83 23 51 34 16 84
REMARK Flexibility Score: inf
ROOT
ATOM      1  C   UNL A   1      33.217  28.782  25.656  1.00  0.00     0.275 C 
ENDROOT
BRANCH   1   2
ATOM      2  C   UNL A   1      32.621  29.786  26.635  1.00  0.00     0.275 C 
BRANCH   2   3
ATOM      3  O   UNL A   1      33.255  31.076  26.605  1.00  0.00    -0.458 OA
BRANCH   3   4
ATOM      4  C   UNL A   1      33.964  31.685  27.580  1.00  0.00     0.338 C 
ATOM      5  O   UNL A   1      33.621  32.788  27.998  1.00  0.00    -0.246 OA
BRANCH   4   6
ATOM      6  C   UNL A   1      35.215  31.093  28.118  1.00  0.00     0.060 A 
ATOM      7  C   UNL A   1      35.318  29.825  28.693  1.00  0.00     0.016 A 
ATOM      8  C   UNL A   1      36.335  31.927  28.132  1.00  0.00     0.016 A 
ATOM      9  C   UNL A   1      36.538  29.391  29.236  1.00  0.00     0.010 A 
ATOM     10  C   UNL A   1      37.561  31.478  28.628  1.00  0.00     0.010 A 
ATOM     11  C   UNL A   1      37.664  30.224  29.229  1.00  0.00    -0.014 A 
BRANCH  11  12
ATOM     12  C   UNL A   1      38.901  29.867  29.970  1.00  0.00     0.031 A 
ATOM     13  C   UNL A   1      39.161  30.487  31.319  1.00  0.00     0.074 A 
ATOM     14  C   UNL A   1      39.802  29.017  29.445  1.00  0.00     0.049 A 
ATOM     15  N   UNL A   1      40.063  30.167  32.214  1.00  0.00    -0.248 NA
ATOM     16  C   UNL A   1      38.304  31.619  31.714  1.00  0.00     0.031 C 
ATOM     17  C   UNL A   1      39.733  28.430  28.109  1.00  0.00     0.029 A 
ATOM     18  N   UNL A   1      40.965  28.512  29.973  1.00  0.00    -0.354 N 
ATOM     19  C   UNL A   1      39.833  31.008  33.295  1.00  0.00     0.074 A 
ATOM     20  C   UNL A   1      38.795  31.932  32.904  1.00  0.00     0.031 C 
ATOM     21  C   UNL A   1      40.813  27.654  27.914  1.00  0.00     0.029 A 
ATOM     22  C   UNL A   1      41.631  27.661  29.126  1.00  0.00     0.049 A 
ATOM     23  H   UNL A   1      41.290  28.737  30.874  1.00  0.00     0.167 HD
ATOM     24  C   UNL A   1      40.390  30.970  34.528  1.00  0.00     0.037 A 
ATOM     25  C   UNL A   1      42.753  26.943  29.322  1.00  0.00     0.037 A 
ATOM     26  C   UNL A   1      41.450  30.078  34.904  1.00  0.00     0.049 A 
ATOM     27  C   UNL A   1      43.386  26.932  30.691  1.00  0.00     0.074 A 
ATOM     28  C   UNL A   1      42.058  29.918  36.137  1.00  0.00     0.029 A 
ATOM     29  N   UNL A   1      42.079  29.205  34.029  1.00  0.00    -0.354 N 
ATOM     30  N   UNL A   1      43.040  27.592  31.768  1.00  0.00    -0.248 NA
ATOM     31  C   UNL A   1      44.533  26.033  30.884  1.00  0.00     0.031 C 
ATOM     32  C   UNL A   1      43.079  28.970  35.997  1.00  0.00     0.029 A 
ATOM     33  C   UNL A   1      43.081  28.513  34.689  1.00  0.00     0.049 A 
ATOM     34  H   UNL A   1      41.848  29.093  33.079  1.00  0.00     0.167 HD
ATOM     35  C   UNL A   1      43.888  27.153  32.777  1.00  0.00     0.074 A 
ATOM     36  C   UNL A   1      44.766  26.167  32.182  1.00  0.00     0.031 C 
ATOM     37  C   UNL A   1      43.929  27.522  34.082  1.00  0.00     0.037 A 
BRANCH  24  38
ATOM     38  C   UNL A   1      39.807  31.886  35.565  1.00  0.00     0.064 A 
ATOM     39  C   UNL A   1      40.324  33.181  35.749  1.00  0.00     0.173 A 
ATOM     40  C   UNL A   1      38.728  31.493  36.367  1.00  0.00     0.173 A 
ATOM     41  F   UNL A   1      41.360  33.604  35.009  1.00  0.00    -0.203 F 
ATOM     42  C   UNL A   1      39.805  34.030  36.720  1.00  0.00     0.198 A 
ATOM     43  C   UNL A   1      38.194  32.356  37.320  1.00  0.00     0.198 A 
ATOM     44  F   UNL A   1      38.191  30.271  36.227  1.00  0.00    -0.203 F 
ATOM     45  F   UNL A   1      40.349  35.241  36.908  1.00  0.00    -0.200 F 
ATOM     46  C   UNL A   1      38.738  33.620  37.503  1.00  0.00     0.200 A 
ATOM     47  F   UNL A   1      37.154  31.965  38.070  1.00  0.00    -0.200 F 
ATOM     48  F   UNL A   1      38.237  34.440  38.437  1.00  0.00    -0.200 F 
ENDBRANCH  24  38
BRANCH  25  49
ATOM     49  C   UNL A   1      43.303  26.105  28.225  1.00  0.00     0.064 A 
ATOM     50  C   UNL A   1      42.857  24.792  28.020  1.00  0.00     0.173 A 
ATOM     51  C   UNL A   1      44.299  26.597  27.369  1.00  0.00     0.173 A 
ATOM     52  F   UNL A   1      41.914  24.273  28.820  1.00  0.00    -0.203 F 
ATOM     53  C   UNL A   1      43.408  23.991  27.021  1.00  0.00     0.198 A 
ATOM     54  C   UNL A   1      44.834  25.802  26.356  1.00  0.00     0.198 A 
ATOM     55  F   UNL A   1      44.751  27.851  27.514  1.00  0.00    -0.203 F 
ATOM     56  F   UNL A   1      42.995  22.724  26.877  1.00  0.00    -0.200 F 
ATOM     57  C   UNL A   1      44.395  24.497  26.188  1.00  0.00     0.200 A 
ATOM     58  F   UNL A   1      45.775  26.300  25.543  1.00  0.00    -0.200 F 
ATOM     59  F   UNL A   1      44.925  23.727  25.229  1.00  0.00    -0.200 F 
ENDBRANCH  25  49
BRANCH  37  60
ATOM     60  C   UNL A   1      44.922  26.824  34.964  1.00  0.00     0.064 A 
ATOM     61  C   UNL A   1      46.208  27.339  35.178  1.00  0.00     0.173 A 
ATOM     62  C   UNL A   1      44.565  25.645  35.634  1.00  0.00     0.173 A 
ATOM     63  F   UNL A   1      46.601  28.457  34.547  1.00  0.00    -0.203 F 
ATOM     64  C   UNL A   1      47.110  26.685  36.012  1.00  0.00     0.198 A 
ATOM     65  C   UNL A   1      45.459  25.008  36.490  1.00  0.00     0.198 A 
ATOM     66  F   UNL A   1      43.343  25.115  35.467  1.00  0.00    -0.203 F 
ATOM     67  F   UNL A   1      48.350  27.169  36.166  1.00  0.00    -0.200 F 
ATOM     68  C   UNL A   1      46.733  25.525  36.673  1.00  0.00     0.200 A 
ATOM     69  F   UNL A   1      45.089  23.893  37.136  1.00  0.00    -0.200 F 
ATOM     70  F   UNL A   1      47.600  24.900  37.480  1.00  0.00    -0.200 F 
ENDBRANCH  37  60
ENDBRANCH  11  12
ENDBRANCH   4   6
ENDBRANCH   3   4
ENDBRANCH   2   3
ENDBRANCH   1   2
BRANCH   1  71
ATOM     71  O   UNL A   1      33.378  27.475  26.230  1.00  0.00    -0.458 OA
BRANCH  71  72
ATOM     72  C   UNL A   1      33.546  26.431  25.374  1.00  0.00     0.340 C 
ATOM     73  O   UNL A   1      34.062  26.479  24.268  1.00  0.00    -0.246 OA
BRANCH  72  74
ATOM     74  C   UNL A   1      32.938  25.214  25.960  1.00  0.00     0.087 A 
ATOM     75  C   UNL A   1      33.820  24.194  26.384  1.00  0.00     0.019 A 
ATOM     76  C   UNL A   1      31.561  25.058  26.196  1.00  0.00     0.109 A 
ATOM     77  C   UNL A   1      33.340  23.069  27.035  1.00  0.00     0.021 A 
ATOM     78  N   UNL A   1      31.122  23.955  26.862  1.00  0.00    -0.254 NA
ATOM     79  C   UNL A   1      31.988  22.997  27.255  1.00  0.00     0.111 A 
BRANCH  76  80
ATOM     80  C   UNL A   1      30.500  26.128  25.860  1.00  0.00     0.321 C 
BRANCH  80  81
ATOM     81  N   UNL A   1      29.993  26.316  24.461  1.00  0.00    -0.322 N 
ATOM     82  C   UNL A   1      30.110  25.158  23.573  1.00  0.00     0.263 C 
ATOM     83  C   UNL A   1      30.520  27.485  23.730  1.00  0.00     0.234 C 
ATOM     84  H   UNL A   1      29.009  26.472  24.677  1.00  0.00     0.349 HD
ATOM     85  C   UNL A   1      31.227  25.478  22.588  1.00  0.00     0.068 C 
ATOM     86  C   UNL A   1      31.151  26.977  22.426  1.00  0.00     0.078 C 
BRANCH  83  87
ATOM     87  C   UNL A   1      29.518  28.585  23.384  1.00  0.00     0.098 A 
ATOM     88  C   UNL A   1      29.856  29.935  23.504  1.00  0.00     0.030 A 
ATOM     89  N   UNL A   1      28.237  28.186  23.153  1.00  0.00    -0.255 NA
ATOM     90  C   UNL A   1      28.853  30.899  23.422  1.00  0.00     0.004 A 
ATOM     91  C   UNL A   1      27.292  29.149  23.040  1.00  0.00     0.111 A 
ATOM     92  C   UNL A   1      27.544  30.501  23.186  1.00  0.00     0.020 A 
ENDBRANCH  83  87
ENDBRANCH  80  81
ENDBRANCH  76  80
ENDBRANCH  72  74
ENDBRANCH  71  72
ENDBRANCH   1  71
TORSDOF 14
ENDMDL
MODEL 2
REMARK VINA RESULT:     -12.1      1.368      3.443
REMARK SMILES O=C(OCCOC(=O)c1cccnc1C[N@@H+]1CCC[C@H]1c1ccccn1)c1ccc(-c2c3nc(c(-c4c(F)c(F)c(F)c(F)c4F)c4ccc([nH]4)c(-c4c(F)c(F)c(F)c(F)c4F)c4nc(c(-c5c(F)c(F)c(F)c(F)c5F)c5ccc2[nH]5)C=C4)C=C3)cc1
REMARK SMILES IDX 5 1 4 2 3 3 2 4 1 5 27 6 28 7 89 8 29 9 88 10 30 11 31 12
REMARK SMILES IDX 32 13 82 14 33 15 87 16 81 17 83 18 34 19 86 20 80 21 79 22
REMARK SMILES IDX 35 24 67 25 47 26 66 27 48 28 51 29 65 30 84 31 49 32 50 33
REMARK SMILES IDX 64 35 85 36 52 37 36 38 37 39 45 40 38 41 39 42 43 43 46 44
REMARK SMILES IDX 40 45 41 46 44 47 42 48 68 49 69 50 77 51 70 52 71 53 75 54
REMARK SMILES IDX 78 55 72 56 73 57 76 58 74 59 53 60 54 61 62 62 55 63 56 64
REMARK SMILES IDX 60 65 63 66 57 67 58 68 61 69 59 70 6 71 7 72 8 73 9 74
REMARK SMILES IDX 10 75 14 76 11 77 13 78 12 79 15 80 16 81 17 82 20 83 18 85
REMARK SMILES IDX 19 86 21 87 22 88 26 89 23 90 25 91 24 92
REMARK H PARENT 83 23 51 34 16 84
REMARK Flexibility Score: inf
ROOT
ATOM      1  C   UNL A   1      32.336  30.626  26.681  1.00  0.00     0.275 C 
ENDROOT
BRANCH   1   2
ATOM      2  C   UNL A   1      31.786  32.005  27.021  1.00  0.00     0.275 C 
BRANCH   2   3
ATOM      3  O   UNL A   1      32.776  33.049  27.001  1.00  0.00    -0.458 OA
BRANCH   3   4
ATOM      4  C   UNL A   1      33.562  33.478  28.012  1.00  0.00     0.338 C 
ATOM      5  O   UNL A   1      33.352  34.565  28.541  1.00  0.00    -0.246 OA
BRANCH   4   6
ATOM      6  C   UNL A   1      34.747  32.702  28.459  1.00  0.00     0.060 A 
ATOM      7  C   UNL A   1      34.699  31.440  29.055  1.00  0.00     0.016 A 
ATOM      8  C   UNL A   1      35.981  33.348  28.357  1.00  0.00     0.016 A 
ATOM      9  C   UNL A   1      35.879  30.826  29.505  1.00  0.00     0.010 A 
ATOM     10  C   UNL A   1      37.160  32.717  28.760  1.00  0.00     0.010 A 
ATOM     11  C   UNL A   1      37.116  31.470  29.382  1.00  0.00    -0.014 A 
BRANCH  11  12
ATOM     12  C   UNL A   1      38.341  30.931  30.028  1.00  0.00     0.031 A 
ATOM     13  C   UNL A   1      38.716  31.396  31.411  1.00  0.00     0.074 A 
ATOM     14  C   UNL A   1      39.134  30.053  29.385  1.00  0.00     0.049 A 
ATOM     15  N   UNL A   1      39.618  30.910  32.229  1.00  0.00    -0.248 NA
ATOM     16  C   UNL A   1      37.991  32.561  31.948  1.00  0.00     0.031 C 
ATOM     17  C   UNL A   1      38.953  29.603  28.007  1.00  0.00     0.029 A 
ATOM     18  N   UNL A   1      40.261  29.394  29.807  1.00  0.00    -0.354 N 
ATOM     19  C   UNL A   1      39.515  31.665  33.390  1.00  0.00     0.074 A 
ATOM     20  C   UNL A   1      38.558  32.715  33.134  1.00  0.00     0.031 C 
ATOM     21  C   UNL A   1      39.943  28.749  27.691  1.00  0.00     0.029 A 
ATOM     22  C   UNL A   1      40.806  28.568  28.856  1.00  0.00     0.049 A 
ATOM     23  H   UNL A   1      40.644  29.503  30.708  1.00  0.00     0.167 HD
ATOM     24  C   UNL A   1      40.116  31.460  34.586  1.00  0.00     0.037 A 
ATOM     25  C   UNL A   1      41.860  27.732  28.932  1.00  0.00     0.037 A 
ATOM     26  C   UNL A   1      41.098  30.441  34.828  1.00  0.00     0.049 A 
ATOM     27  C   UNL A   1      42.544  27.534  30.261  1.00  0.00     0.074 A 
ATOM     28  C   UNL A   1      41.737  30.111  36.010  1.00  0.00     0.029 A 
ATOM     29  N   UNL A   1      41.602  29.598  33.849  1.00  0.00    -0.354 N 
ATOM     30  N   UNL A   1      42.308  28.121  31.409  1.00  0.00    -0.248 NA
ATOM     31  C   UNL A   1      43.604  26.517  30.316  1.00  0.00     0.031 C 
ATOM     32  C   UNL A   1      42.654  29.088  35.736  1.00  0.00     0.029 A 
ATOM     33  C   UNL A   1      42.558  28.757  34.394  1.00  0.00     0.049 A 
ATOM     34  H   UNL A   1      41.323  29.598  32.905  1.00  0.00     0.167 HD
ATOM     35  C   UNL A   1      43.150  27.511  32.332  1.00  0.00     0.074 A 
ATOM     36  C   UNL A   1      43.902  26.508  31.609  1.00  0.00     0.031 C 
ATOM     37  C   UNL A   1      43.280  27.752  33.660  1.00  0.00     0.037 A 
BRANCH  24  38
ATOM     38  C   UNL A   1      39.668  32.325  35.728  1.00  0.00     0.064 A 
ATOM     39  C   UNL A   1      38.578  31.944  36.531  1.00  0.00     0.173 A 
ATOM     40  C   UNL A   1      40.324  33.523  36.041  1.00  0.00     0.173 A 
ATOM     41  F   UNL A   1      37.913  30.808  36.270  1.00  0.00    -0.203 F 
ATOM     42  C   UNL A   1      38.142  32.748  37.579  1.00  0.00     0.198 A 
ATOM     43  C   UNL A   1      39.900  34.311  37.108  1.00  0.00     0.198 A 
ATOM     44  F   UNL A   1      41.375  33.929  35.314  1.00  0.00    -0.203 F 
ATOM     45  F   UNL A   1      37.070  32.385  38.297  1.00  0.00    -0.200 F 
ATOM     46  C   UNL A   1      38.805  33.929  37.870  1.00  0.00     0.200 A 
ATOM     47  F   UNL A   1      40.548  35.448  37.399  1.00  0.00    -0.200 F 
ATOM     48  F   UNL A   1      38.386  34.701  38.881  1.00  0.00    -0.200 F 
ENDBRANCH  24  38
BRANCH  25  49
ATOM     49  C   UNL A   1      42.279  26.952  27.739  1.00  0.00     0.064 A 
ATOM     50  C   UNL A   1      41.713  25.702  27.451  1.00  0.00     0.173 A 
ATOM     51  C   UNL A   1      43.269  27.435  26.870  1.00  0.00     0.173 A 
ATOM     52  F   UNL A   1      40.772  25.192  28.259  1.00  0.00    -0.203 F 
ATOM     53  C   UNL A   1      42.143  24.950  26.359  1.00  0.00     0.198 A 
ATOM     54  C   UNL A   1      43.682  26.693  25.765  1.00  0.00     0.198 A 
ATOM     55  F   UNL A   1      43.833  28.631  27.093  1.00  0.00    -0.203 F 
ATOM     56  F   UNL A   1      41.617  23.739  26.134  1.00  0.00    -0.200 F 
ATOM     57  C   UNL A   1      43.126  25.446  25.515  1.00  0.00     0.200 A 
ATOM     58  F   UNL A   1      44.620  27.182  24.944  1.00  0.00    -0.200 F 
ATOM     59  F   UNL A   1      43.539  24.723  24.466  1.00  0.00    -0.200 F 
ENDBRANCH  25  49
BRANCH  37  60
ATOM     60  C   UNL A   1      44.235  26.885  34.427  1.00  0.00     0.064 A 
ATOM     61  C   UNL A   1      45.556  27.283  34.673  1.00  0.00     0.173 A 
ATOM     62  C   UNL A   1      43.806  25.657  34.954  1.00  0.00     0.173 A 
ATOM     63  F   UNL A   1      46.016  28.441  34.177  1.00  0.00    -0.203 F 
ATOM     64  C   UNL A   1      46.422  26.470  35.400  1.00  0.00     0.198 A 
ATOM     65  C   UNL A   1      44.667  24.860  35.704  1.00  0.00     0.198 A 
ATOM     66  F   UNL A   1      42.549  25.234  34.749  1.00  0.00    -0.203 F 
ATOM     67  F   UNL A   1      47.694  26.848  35.585  1.00  0.00    -0.200 F 
ATOM     68  C   UNL A   1      45.975  25.265  35.920  1.00  0.00     0.200 A 
ATOM     69  F   UNL A   1      44.230  23.701  36.215  1.00  0.00    -0.200 F 
ATOM     70  F   UNL A   1      46.809  24.488  36.624  1.00  0.00    -0.200 F 
ENDBRANCH  37  60
ENDBRANCH  11  12
ENDBRANCH   4   6
ENDBRANCH   3   4
ENDBRANCH   2   3
ENDBRANCH   1   2
BRANCH   1  71
ATOM     71  O   UNL A   1      31.403  29.823  25.940  1.00  0.00    -0.458 OA
BRANCH  71  72
ATOM     72  C   UNL A   1      31.724  29.518  24.654  1.00  0.00     0.340 C 
ATOM     73  O   UNL A   1      32.850  29.374  24.204  1.00  0.00    -0.246 OA
BRANCH  72  74
ATOM     74  C   UNL A   1      30.485  29.449  23.844  1.00  0.00     0.087 A 
ATOM     75  C   UNL A   1      29.594  30.543  23.938  1.00  0.00     0.019 A 
ATOM     76  C   UNL A   1      30.195  28.417  22.937  1.00  0.00     0.109 A 
ATOM     77  C   UNL A   1      28.463  30.605  23.138  1.00  0.00     0.021 A 
ATOM     78  N   UNL A   1      29.092  28.519  22.144  1.00  0.00    -0.254 NA
ATOM     79  C   UNL A   1      28.258  29.575  22.257  1.00  0.00     0.111 A 
BRANCH  76  80
ATOM     80  C   UNL A   1      31.120  27.210  22.675  1.00  0.00     0.321 C 
BRANCH  80  81
ATOM     81  N   UNL A   1      31.197  26.059  23.634  1.00  0.00    -0.322 N 
ATOM     82  C   UNL A   1      30.024  25.851  24.485  1.00  0.00     0.263 C 
ATOM     83  C   UNL A   1      32.386  26.019  24.508  1.00  0.00     0.234 C 
ATOM     84  H   UNL A   1      31.255  25.300  22.955  1.00  0.00     0.349 HD
ATOM     85  C   UNL A   1      30.423  26.290  25.888  1.00  0.00     0.068 C 
ATOM     86  C   UNL A   1      31.898  25.975  25.962  1.00  0.00     0.078 C 
BRANCH  83  87
ATOM     87  C   UNL A   1      33.357  24.860  24.290  1.00  0.00     0.098 A 
ATOM     88  C   UNL A   1      34.401  24.614  25.186  1.00  0.00     0.030 A 
ATOM     89  N   UNL A   1      33.276  24.219  23.093  1.00  0.00    -0.255 NA
ATOM     90  C   UNL A   1      35.407  23.716  24.831  1.00  0.00     0.004 A 
ATOM     91  C   UNL A   1      34.248  23.324  22.793  1.00  0.00     0.111 A 
ATOM     92  C   UNL A   1      35.332  23.058  23.611  1.00  0.00     0.020 A 
ENDBRANCH  83  87
ENDBRANCH  80  81
ENDBRANCH  76  80
ENDBRANCH  72  74
ENDBRANCH  71  72
ENDBRANCH   1  71
TORSDOF 14
ENDMDL
MODEL 3
REMARK VINA RESULT:     -12.1      4.657     10.106
REMARK SMILES O=C(OCCOC(=O)c1cccnc1C[N@@H+]1CCC[C@H]1c1ccccn1)c1ccc(-c2c3nc(c(-c4c(F)c(F)c(F)c(F)c4F)c4ccc([nH]4)c(-c4c(F)c(F)c(F)c(F)c4F)c4nc(c(-c5c(F)c(F)c(F)c(F)c5F)c5ccc2[nH]5)C=C4)C=C3)cc1
REMARK SMILES IDX 5 1 4 2 3 3 2 4 1 5 27 6 28 7 89 8 29 9 88 10 30 11 31 12
REMARK SMILES IDX 32 13 82 14 33 15 87 16 81 17 83 18 34 19 86 20 80 21 79 22
REMARK SMILES IDX 35 24 67 25 47 26 66 27 48 28 51 29 65 30 84 31 49 32 50 33
REMARK SMILES IDX 64 35 85 36 52 37 36 38 37 39 45 40 38 41 39 42 43 43 46 44
REMARK SMILES IDX 40 45 41 46 44 47 42 48 68 49 69 50 77 51 70 52 71 53 75 54
REMARK SMILES IDX 78 55 72 56 73 57 76 58 74 59 53 60 54 61 62 62 55 63 56 64
REMARK SMILES IDX 60 65 63 66 57 67 58 68 61 69 59 70 6 71 7 72 8 73 9 74
REMARK SMILES IDX 10 75 14 76 11 77 13 78 12 79 15 80 16 81 17 82 20 83 18 85
REMARK SMILES IDX 19 86 21 87 22 88 26 89 23 90 25 91 24 92
REMARK H PARENT 83 23 51 34 16 84
REMARK Flexibility Score: inf
ROOT
ATOM      1  C   UNL A   1      36.430  22.490  24.442  1.00  0.00     0.275 C 
ENDROOT
BRANCH   1   2
ATOM      2  C   UNL A   1      37.007  21.661  25.582  1.00  0.00     0.275 C 
BRANCH   2   3
ATOM      3  O   UNL A   1      38.402  21.348  25.427  1.00  0.00    -0.458 OA
BRANCH   3   4
ATOM      4  C   UNL A   1      39.408  21.540  26.308  1.00  0.00     0.338 C 
ATOM      5  O   UNL A   1      40.023  20.580  26.763  1.00  0.00    -0.246 OA
BRANCH   4   6
ATOM      6  C   UNL A   1      39.746  22.892  26.820  1.00  0.00     0.060 A 
ATOM      7  C   UNL A   1      39.191  24.086  26.356  1.00  0.00     0.016 A 
ATOM      8  C   UNL A   1      40.773  22.954  27.764  1.00  0.00     0.016 A 
ATOM      9  C   UNL A   1      39.636  25.318  26.862  1.00  0.00     0.010 A 
ATOM     10  C   UNL A   1      41.183  24.176  28.303  1.00  0.00     0.010 A 
ATOM     11  C   UNL A   1      40.653  25.373  27.824  1.00  0.00    -0.014 A 
BRANCH  11  12
ATOM     12  C   UNL A   1      41.276  26.661  28.224  1.00  0.00     0.031 A 
ATOM     13  C   UNL A   1      42.719  26.925  27.881  1.00  0.00     0.074 A 
ATOM     14  C   UNL A   1      40.576  27.585  28.909  1.00  0.00     0.049 A 
ATOM     15  N   UNL A   1      43.394  28.046  27.956  1.00  0.00    -0.248 NA
ATOM     16  C   UNL A   1      43.515  25.782  27.400  1.00  0.00     0.031 C 
ATOM     17  C   UNL A   1      39.211  27.419  29.400  1.00  0.00     0.029 A 
ATOM     18  N   UNL A   1      40.929  28.846  29.321  1.00  0.00    -0.354 N 
ATOM     19  C   UNL A   1      44.660  27.755  27.467  1.00  0.00     0.074 A 
ATOM     20  C   UNL A   1      44.704  26.334  27.216  1.00  0.00     0.031 C 
ATOM     21  C   UNL A   1      38.843  28.531  30.060  1.00  0.00     0.029 A 
ATOM     22  C   UNL A   1      39.936  29.500  30.007  1.00  0.00     0.049 A 
ATOM     23  H   UNL A   1      41.811  29.244  29.143  1.00  0.00     0.167 HD
ATOM     24  C   UNL A   1      45.675  28.607  27.189  1.00  0.00     0.037 A 
ATOM     25  C   UNL A   1      39.901  30.753  30.501  1.00  0.00     0.037 A 
ATOM     26  C   UNL A   1      45.645  30.013  27.477  1.00  0.00     0.049 A 
ATOM     27  C   UNL A   1      41.051  31.686  30.214  1.00  0.00     0.074 A 
ATOM     28  C   UNL A   1      46.594  30.980  27.196  1.00  0.00     0.029 A 
ATOM     29  N   UNL A   1      44.608  30.649  28.142  1.00  0.00    -0.354 N 
ATOM     30  N   UNL A   1      42.171  31.447  29.577  1.00  0.00    -0.248 NA
ATOM     31  C   UNL A   1      40.905  33.077  30.667  1.00  0.00     0.031 C 
ATOM     32  C   UNL A   1      46.144  32.197  27.722  1.00  0.00     0.029 A 
ATOM     33  C   UNL A   1      44.899  31.994  28.296  1.00  0.00     0.049 A 
ATOM     34  H   UNL A   1      43.786  30.210  28.458  1.00  0.00     0.167 HD
ATOM     35  C   UNL A   1      42.839  32.664  29.507  1.00  0.00     0.074 A 
ATOM     36  C   UNL A   1      41.996  33.640  30.166  1.00  0.00     0.031 C 
ATOM     37  C   UNL A   1      44.036  32.951  28.937  1.00  0.00     0.037 A 
BRANCH  24  38
ATOM     38  C   UNL A   1      46.869  28.033  26.483  1.00  0.00     0.064 A 
ATOM     39  C   UNL A   1      46.865  27.869  25.086  1.00  0.00     0.173 A 
ATOM     40  C   UNL A   1      48.024  27.660  27.182  1.00  0.00     0.173 A 
ATOM     41  F   UNL A   1      45.781  28.208  24.371  1.00  0.00    -0.203 F 
ATOM     42  C   UNL A   1      47.958  27.321  24.424  1.00  0.00     0.198 A 
ATOM     43  C   UNL A   1      49.127  27.136  26.511  1.00  0.00     0.198 A 
ATOM     44  F   UNL A   1      48.085  27.803  28.514  1.00  0.00    -0.203 F 
ATOM     45  F   UNL A   1      47.908  27.130  23.098  1.00  0.00    -0.200 F 
ATOM     46  C   UNL A   1      49.090  26.957  25.135  1.00  0.00     0.200 A 
ATOM     47  F   UNL A   1      50.227  26.795  27.197  1.00  0.00    -0.200 F 
ATOM     48  F   UNL A   1      50.143  26.431  24.496  1.00  0.00    -0.200 F 
ENDBRANCH  24  38
BRANCH  25  49
ATOM     49  C   UNL A   1      38.704  31.229  31.242  1.00  0.00     0.064 A 
ATOM     50  C   UNL A   1      38.620  31.113  32.637  1.00  0.00     0.173 A 
ATOM     51  C   UNL A   1      37.613  31.793  30.567  1.00  0.00     0.173 A 
ATOM     52  F   UNL A   1      39.634  30.569  33.325  1.00  0.00    -0.203 F 
ATOM     53  C   UNL A   1      37.476  31.515  33.325  1.00  0.00     0.198 A 
ATOM     54  C   UNL A   1      36.478  32.215  31.259  1.00  0.00     0.198 A 
ATOM     55  F   UNL A   1      37.648  31.938  29.234  1.00  0.00    -0.203 F 
ATOM     56  F   UNL A   1      37.405  31.351  34.653  1.00  0.00    -0.200 F 
ATOM     57  C   UNL A   1      36.407  32.067  32.636  1.00  0.00     0.200 A 
ATOM     58  F   UNL A   1      35.454  32.763  30.592  1.00  0.00    -0.200 F 
ATOM     59  F   UNL A   1      35.308  32.453  33.298  1.00  0.00    -0.200 F 
ENDBRANCH  25  49
BRANCH  37  60
ATOM     60  C   UNL A   1      44.483  34.383  28.959  1.00  0.00     0.064 A 
ATOM     61  C   UNL A   1      44.136  35.279  27.938  1.00  0.00     0.173 A 
ATOM     62  C   UNL A   1      45.235  34.872  30.038  1.00  0.00     0.173 A 
ATOM     63  F   UNL A   1      43.430  34.855  26.878  1.00  0.00    -0.203 F 
ATOM     64  C   UNL A   1      44.548  36.608  27.985  1.00  0.00     0.198 A 
ATOM     65  C   UNL A   1      45.622  36.208  30.094  1.00  0.00     0.198 A 
ATOM     66  F   UNL A   1      45.588  34.055  31.042  1.00  0.00    -0.203 F 
ATOM     67  F   UNL A   1      44.245  37.436  26.976  1.00  0.00    -0.200 F 
ATOM     68  C   UNL A   1      45.283  37.073  29.065  1.00  0.00     0.200 A 
ATOM     69  F   UNL A   1      46.323  36.657  31.145  1.00  0.00    -0.200 F 
ATOM     70  F   UNL A   1      45.674  38.353  29.110  1.00  0.00    -0.200 F 
ENDBRANCH  37  60
ENDBRANCH  11  12
ENDBRANCH   4   6
ENDBRANCH   3   4
ENDBRANCH   2   3
ENDBRANCH   1   2
BRANCH   1  71
ATOM     71  O   UNL A   1      36.129  23.839  24.834  1.00  0.00    -0.458 OA
BRANCH  71  72
ATOM     72  C   UNL A   1      34.868  24.095  25.277  1.00  0.00     0.340 C 
ATOM     73  O   UNL A   1      34.347  23.637  26.282  1.00  0.00    -0.246 OA
BRANCH  72  74
ATOM     74  C   UNL A   1      34.178  24.976  24.305  1.00  0.00     0.087 A 
ATOM     75  C   UNL A   1      34.185  26.363  24.577  1.00  0.00     0.019 A 
ATOM     76  C   UNL A   1      33.604  24.525  23.104  1.00  0.00     0.109 A 
ATOM     77  C   UNL A   1      33.651  27.265  23.670  1.00  0.00     0.021 A 
ATOM     78  N   UNL A   1      33.114  25.436  22.219  1.00  0.00    -0.254 NA
ATOM     79  C   UNL A   1      33.133  26.755  22.507  1.00  0.00     0.111 A 
BRANCH  76  80
ATOM     80  C   UNL A   1      33.603  23.051  22.647  1.00  0.00     0.321 C 
BRANCH  80  81
ATOM     81  N   UNL A   1      32.564  22.083  23.126  1.00  0.00    -0.322 N 
ATOM     82  C   UNL A   1      31.244  22.645  23.415  1.00  0.00     0.263 C 
ATOM     83  C   UNL A   1      32.943  21.239  24.276  1.00  0.00     0.234 C 
ATOM     84  H   UNL A   1      32.503  21.501  22.291  1.00  0.00     0.349 HD
ATOM     85  C   UNL A   1      31.098  22.654  24.930  1.00  0.00     0.068 C 
ATOM     86  C   UNL A   1      31.897  21.454  25.380  1.00  0.00     0.078 C 
BRANCH  83  87
ATOM     87  C   UNL A   1      33.066  19.739  24.015  1.00  0.00     0.098 A 
ATOM     88  C   UNL A   1      34.068  18.979  24.625  1.00  0.00     0.030 A 
ATOM     89  N   UNL A   1      32.292  19.233  23.018  1.00  0.00    -0.255 NA
ATOM     90  C   UNL A   1      34.305  17.680  24.178  1.00  0.00     0.004 A 
ATOM     91  C   UNL A   1      32.522  17.955  22.632  1.00  0.00     0.111 A 
ATOM     92  C   UNL A   1      33.520  17.156  23.161  1.00  0.00     0.020 A 
ENDBRANCH  83  87
ENDBRANCH  80  81
ENDBRANCH  76  80
ENDBRANCH  72  74
ENDBRANCH  71  72
ENDBRANCH   1  71
TORSDOF 14
ENDMDL
