MODEL 1
REMARK VINA RESULT:     -11.2      0.000      0.000
REMARK SMILES COc1ncccc1C[N@@H+](CC(=O)OCCOC(=O)c1ccc(-c2c3nc(c(-c4c(F)c(F)c(F)c(F)c4F)c4ccc([nH]4)c(-c4c(F)c(F)c(F)c(F)c4F)c4nc(c(-c5c(F)c(F)c(F)c(F)c5F)c5ccc2[nH]5)C=C4)C=C3)cc1)C1CCCC1
REMARK SMILES IDX 15 1 14 2 12 3 13 4 11 5 10 6 9 8 8 9 3 10 4 11 5 12 7 13
REMARK SMILES IDX 6 14 2 15 1 16 83 17 84 18 87 19 85 20 86 21 16 22 17 23
REMARK SMILES IDX 18 24 19 25 20 26 21 27 82 28 22 29 81 30 23 31 24 32 25 33
REMARK SMILES IDX 75 34 26 35 80 36 74 37 76 38 27 39 79 40 73 41 72 42 28 44
REMARK SMILES IDX 60 45 40 46 59 47 41 48 44 49 58 50 77 51 42 52 43 53 57 55
REMARK SMILES IDX 78 56 45 57 29 58 30 59 38 60 31 61 32 62 36 63 39 64 33 65
REMARK SMILES IDX 34 66 37 67 35 68 61 69 62 70 70 71 63 72 64 73 68 74 71 75
REMARK SMILES IDX 65 76 66 77 69 78 67 79 46 80 47 81 55 82 48 83 49 84 53 85
REMARK SMILES IDX 56 86 50 87 51 88 54 89 52 90
REMARK H PARENT 10 7 76 43 44 54
REMARK Flexibility Score: inf
ROOT
ATOM      1  C   UNL A   1      31.429  29.488  25.507  1.00  0.00     0.274 C 
ENDROOT
BRANCH   1   2
ATOM      2  O   UNL A   1      32.140  28.333  25.993  1.00  0.00    -0.458 OA
BRANCH   2   3
ATOM      3  C   UNL A   1      31.446  27.525  26.836  1.00  0.00     0.361 C 
ATOM      4  O   UNL A   1      31.044  27.867  27.946  1.00  0.00    -0.245 OA
BRANCH   3   5
ATOM      5  C   UNL A   1      31.187  26.122  26.302  1.00  0.00     0.387 C 
BRANCH   5   6
ATOM      6  N   UNL A   1      31.653  25.812  24.942  1.00  0.00    -0.319 N 
ATOM      7  H   UNL A   1      32.073  26.664  24.570  1.00  0.00     0.349 HD
BRANCH   6   8
ATOM      8  C   UNL A   1      30.569  25.637  23.971  1.00  0.00     0.305 C 
BRANCH   8   9
ATOM      9  C   UNL A   1      30.075  26.943  23.406  1.00  0.00     0.068 A 
ATOM     10  C   UNL A   1      30.828  27.669  22.482  1.00  0.00     0.221 A 
ATOM     11  N   UNL A   1      30.394  28.779  21.846  1.00  0.00    -0.222 NA
ATOM     12  C   UNL A   1      29.143  29.192  22.149  1.00  0.00     0.115 A 
ATOM     13  C   UNL A   1      28.811  27.444  23.730  1.00  0.00     0.017 A 
ATOM     14  C   UNL A   1      28.329  28.576  23.083  1.00  0.00     0.021 A 
BRANCH  10  15
ATOM     15  O   UNL A   1      32.130  27.289  22.255  1.00  0.00    -0.481 OA
ATOM     16  C   UNL A   1      33.023  28.358  22.543  1.00  0.00     0.280 C 
ENDBRANCH  10  15
ENDBRANCH   8   9
ENDBRANCH   6   8
BRANCH   6  17
ATOM     17  C   UNL A   1      32.858  24.989  24.859  1.00  0.00     0.184 C 
ATOM     18  C   UNL A   1      34.241  25.627  25.004  1.00  0.00     0.065 C 
ATOM     19  C   UNL A   1      32.873  23.882  25.932  1.00  0.00     0.065 C 
ATOM     20  C   UNL A   1      35.144  24.419  25.221  1.00  0.00     0.006 C 
ATOM     21  C   UNL A   1      34.340  23.499  26.131  1.00  0.00     0.006 C 
ENDBRANCH   6  17
ENDBRANCH   5   6
ENDBRANCH   3   5
ENDBRANCH   2   3
ENDBRANCH   1   2
BRANCH   1  22
ATOM     22  C   UNL A   1      31.725  30.705  26.379  1.00  0.00     0.275 C 
BRANCH  22  23
ATOM     23  O   UNL A   1      33.145  30.839  26.564  1.00  0.00    -0.458 OA
BRANCH  23  24
ATOM     24  C   UNL A   1      33.531  31.875  27.342  1.00  0.00     0.338 C 
ATOM     25  O   UNL A   1      32.951  32.934  27.508  1.00  0.00    -0.246 OA
BRANCH  24  26
ATOM     26  C   UNL A   1      34.844  31.596  27.946  1.00  0.00     0.060 A 
ATOM     27  C   UNL A   1      35.851  32.565  28.021  1.00  0.00     0.016 A 
ATOM     28  C   UNL A   1      35.077  30.297  28.397  1.00  0.00     0.016 A 
ATOM     29  C   UNL A   1      37.102  32.225  28.540  1.00  0.00     0.010 A 
ATOM     30  C   UNL A   1      36.306  29.974  28.966  1.00  0.00     0.010 A 
ATOM     31  C   UNL A   1      37.326  30.935  29.043  1.00  0.00    -0.014 A 
BRANCH  31  32
ATOM     32  C   UNL A   1      38.572  30.579  29.760  1.00  0.00     0.031 A 
ATOM     33  C   UNL A   1      39.519  29.570  29.186  1.00  0.00     0.074 A 
ATOM     34  C   UNL A   1      38.763  31.078  30.994  1.00  0.00     0.049 A 
ATOM     35  N   UNL A   1      40.507  28.939  29.769  1.00  0.00    -0.248 NA
ATOM     36  C   UNL A   1      39.322  29.211  27.774  1.00  0.00     0.031 C 
ATOM     37  C   UNL A   1      37.903  32.067  31.644  1.00  0.00     0.029 A 
ATOM     38  N   UNL A   1      39.712  30.787  31.941  1.00  0.00    -0.354 N 
ATOM     39  C   UNL A   1      41.036  28.092  28.806  1.00  0.00     0.074 A 
ATOM     40  C   UNL A   1      40.257  28.284  27.599  1.00  0.00     0.031 C 
ATOM     41  C   UNL A   1      38.347  32.285  32.891  1.00  0.00     0.029 A 
ATOM     42  C   UNL A   1      39.481  31.404  33.145  1.00  0.00     0.049 A 
ATOM     43  H   UNL A   1      40.480  30.194  31.774  1.00  0.00     0.167 HD
ATOM     44  C   UNL A   1      42.074  27.231  28.929  1.00  0.00     0.037 A 
ATOM     45  C   UNL A   1      40.077  31.238  34.339  1.00  0.00     0.037 A 
ATOM     46  C   UNL A   1      42.840  27.057  30.137  1.00  0.00     0.049 A 
ATOM     47  C   UNL A   1      41.189  30.239  34.465  1.00  0.00     0.074 A 
ATOM     48  C   UNL A   1      43.939  26.245  30.356  1.00  0.00     0.029 A 
ATOM     49  N   UNL A   1      42.579  27.707  31.335  1.00  0.00    -0.354 N 
ATOM     50  N   UNL A   1      41.688  29.445  33.550  1.00  0.00    -0.248 NA
ATOM     51  C   UNL A   1      41.810  30.103  35.788  1.00  0.00     0.031 C 
ATOM     52  C   UNL A   1      44.318  26.373  31.698  1.00  0.00     0.029 A 
ATOM     53  C   UNL A   1      43.478  27.294  32.305  1.00  0.00     0.049 A 
ATOM     54  H   UNL A   1      41.859  28.364  31.476  1.00  0.00     0.167 HD
ATOM     55  C   UNL A   1      42.686  28.718  34.180  1.00  0.00     0.074 A 
ATOM     56  C   UNL A   1      42.731  29.178  35.555  1.00  0.00     0.031 C 
ATOM     57  C   UNL A   1      43.491  27.756  33.669  1.00  0.00     0.037 A 
BRANCH  44  58
ATOM     58  C   UNL A   1      42.435  26.393  27.739  1.00  0.00     0.064 A 
ATOM     59  C   UNL A   1      43.433  26.787  26.836  1.00  0.00     0.173 A 
ATOM     60  C   UNL A   1      41.812  25.153  27.531  1.00  0.00     0.173 A 
ATOM     61  F   UNL A   1      44.050  27.968  26.986  1.00  0.00    -0.203 F 
ATOM     62  C   UNL A   1      43.786  25.975  25.761  1.00  0.00     0.198 A 
ATOM     63  C   UNL A   1      42.181  24.334  26.465  1.00  0.00     0.198 A 
ATOM     64  F   UNL A   1      40.854  24.729  28.367  1.00  0.00    -0.203 F 
ATOM     65  F   UNL A   1      44.724  26.383  24.895  1.00  0.00    -0.200 F 
ATOM     66  C   UNL A   1      43.165  24.748  25.580  1.00  0.00     0.200 A 
ATOM     67  F   UNL A   1      41.587  23.146  26.297  1.00  0.00    -0.200 F 
ATOM     68  F   UNL A   1      43.513  23.964  24.549  1.00  0.00    -0.200 F 
ENDBRANCH  44  58
BRANCH  45  69
ATOM     69  C   UNL A   1      39.597  32.019  35.505  1.00  0.00     0.064 A 
ATOM     70  C   UNL A   1      38.621  31.499  36.363  1.00  0.00     0.173 A 
ATOM     71  C   UNL A   1      40.147  33.272  35.816  1.00  0.00     0.173 A 
ATOM     72  F   UNL A   1      38.056  30.314  36.093  1.00  0.00    -0.203 F 
ATOM     73  C   UNL A   1      38.214  32.203  37.495  1.00  0.00     0.198 A 
ATOM     74  C   UNL A   1      39.755  33.963  36.960  1.00  0.00     0.198 A 
ATOM     75  F   UNL A   1      41.089  33.808  35.027  1.00  0.00    -0.203 F 
ATOM     76  F   UNL A   1      37.264  31.693  38.291  1.00  0.00    -0.200 F 
ATOM     77  C   UNL A   1      38.788  33.429  37.798  1.00  0.00     0.200 A 
ATOM     78  F   UNL A   1      40.325  35.140  37.258  1.00  0.00    -0.200 F 
ATOM     79  F   UNL A   1      38.409  34.096  38.896  1.00  0.00    -0.200 F 
ENDBRANCH  45  69
BRANCH  57  80
ATOM     80  C   UNL A   1      44.489  27.146  34.604  1.00  0.00     0.064 A 
ATOM     81  C   UNL A   1      44.200  25.970  35.310  1.00  0.00     0.173 A 
ATOM     82  C   UNL A   1      45.751  27.732  34.779  1.00  0.00     0.173 A 
ATOM     83  F   UNL A   1      42.998  25.387  35.187  1.00  0.00    -0.203 F 
ATOM     84  C   UNL A   1      45.136  25.410  36.174  1.00  0.00     0.198 A 
ATOM     85  C   UNL A   1      46.692  27.158  35.629  1.00  0.00     0.198 A 
ATOM     86  F   UNL A   1      46.071  28.858  34.125  1.00  0.00    -0.203 F 
ATOM     87  F   UNL A   1      44.827  24.307  36.870  1.00  0.00    -0.200 F 
ATOM     88  C   UNL A   1      46.381  26.001  36.329  1.00  0.00     0.200 A 
ATOM     89  F   UNL A   1      47.897  27.726  35.774  1.00  0.00    -0.200 F 
ATOM     90  F   UNL A   1      47.282  25.460  37.162  1.00  0.00    -0.200 F 
ENDBRANCH  57  80
ENDBRANCH  31  32
ENDBRANCH  24  26
ENDBRANCH  23  24
ENDBRANCH  22  23
ENDBRANCH   1  22
TORSDOF 16
ENDMDL
MODEL 2
REMARK VINA RESULT:     -11.0      4.677      9.975
REMARK SMILES COc1ncccc1C[N@@H+](CC(=O)OCCOC(=O)c1ccc(-c2c3nc(c(-c4c(F)c(F)c(F)c(F)c4F)c4ccc([nH]4)c(-c4c(F)c(F)c(F)c(F)c4F)c4nc(c(-c5c(F)c(F)c(F)c(F)c5F)c5ccc2[nH]5)C=C4)C=C3)cc1)C1CCCC1
REMARK SMILES IDX 15 1 14 2 12 3 13 4 11 5 10 6 9 8 8 9 3 10 4 11 5 12 7 13
REMARK SMILES IDX 6 14 2 15 1 16 83 17 84 18 87 19 85 20 86 21 16 22 17 23
REMARK SMILES IDX 18 24 19 25 20 26 21 27 82 28 22 29 81 30 23 31 24 32 25 33
REMARK SMILES IDX 75 34 26 35 80 36 74 37 76 38 27 39 79 40 73 41 72 42 28 44
REMARK SMILES IDX 60 45 40 46 59 47 41 48 44 49 58 50 77 51 42 52 43 53 57 55
REMARK SMILES IDX 78 56 45 57 29 58 30 59 38 60 31 61 32 62 36 63 39 64 33 65
REMARK SMILES IDX 34 66 37 67 35 68 61 69 62 70 70 71 63 72 64 73 68 74 71 75
REMARK SMILES IDX 65 76 66 77 69 78 67 79 46 80 47 81 55 82 48 83 49 84 53 85
REMARK SMILES IDX 56 86 50 87 51 88 54 89 52 90
REMARK H PARENT 10 7 76 43 44 54
REMARK Flexibility Score: inf
ROOT
ATOM      1  C   UNL A   1      36.026  21.274  24.694  1.00  0.00     0.274 C 
ENDROOT
BRANCH   1   2
ATOM      2  O   UNL A   1      35.787  22.689  24.827  1.00  0.00    -0.458 OA
BRANCH   2   3
ATOM      3  C   UNL A   1      35.520  23.352  23.672  1.00  0.00     0.361 C 
ATOM      4  O   UNL A   1      36.095  23.143  22.606  1.00  0.00    -0.245 OA
BRANCH   3   5
ATOM      5  C   UNL A   1      34.428  24.408  23.784  1.00  0.00     0.387 C 
BRANCH   5   6
ATOM      6  N   UNL A   1      33.379  24.200  24.794  1.00  0.00    -0.319 N 
ATOM      7  H   UNL A   1      33.727  23.495  25.443  1.00  0.00     0.349 HD
BRANCH   6   8
ATOM      8  C   UNL A   1      32.199  23.495  24.285  1.00  0.00     0.305 C 
BRANCH   8   9
ATOM      9  C   UNL A   1      32.357  21.997  24.313  1.00  0.00     0.068 A 
ATOM     10  C   UNL A   1      32.437  21.295  25.516  1.00  0.00     0.221 A 
ATOM     11  N   UNL A   1      32.455  19.947  25.615  1.00  0.00    -0.222 NA
ATOM     12  C   UNL A   1      32.396  19.261  24.452  1.00  0.00     0.115 A 
ATOM     13  C   UNL A   1      32.358  21.244  23.135  1.00  0.00     0.017 A 
ATOM     14  C   UNL A   1      32.363  19.856  23.202  1.00  0.00     0.021 A 
BRANCH  10  15
ATOM     15  O   UNL A   1      32.589  22.008  26.682  1.00  0.00    -0.481 OA
ATOM     16  C   UNL A   1      33.717  21.541  27.413  1.00  0.00     0.280 C 
ENDBRANCH  10  15
ENDBRANCH   8   9
ENDBRANCH   6   8
BRANCH   6  17
ATOM     17  C   UNL A   1      33.231  25.269  25.780  1.00  0.00     0.184 C 
ATOM     18  C   UNL A   1      33.855  26.643  25.528  1.00  0.00     0.065 C 
ATOM     19  C   UNL A   1      31.752  25.605  26.047  1.00  0.00     0.065 C 
ATOM     20  C   UNL A   1      33.174  27.516  26.574  1.00  0.00     0.006 C 
ATOM     21  C   UNL A   1      31.728  27.035  26.590  1.00  0.00     0.006 C 
ENDBRANCH   6  17
ENDBRANCH   5   6
ENDBRANCH   3   5
ENDBRANCH   2   3
ENDBRANCH   1   2
BRANCH   1  22
ATOM     22  C   UNL A   1      37.516  20.968  24.810  1.00  0.00     0.275 C 
BRANCH  22  23
ATOM     23  O   UNL A   1      38.054  21.603  25.983  1.00  0.00    -0.458 OA
BRANCH  23  24
ATOM     24  C   UNL A   1      39.358  21.347  26.232  1.00  0.00     0.338 C 
ATOM     25  O   UNL A   1      39.943  20.286  26.102  1.00  0.00    -0.246 OA
BRANCH  24  26
ATOM     26  C   UNL A   1      40.016  22.544  26.781  1.00  0.00     0.060 A 
ATOM     27  C   UNL A   1      40.993  22.466  27.779  1.00  0.00     0.016 A 
ATOM     28  C   UNL A   1      39.586  23.783  26.308  1.00  0.00     0.016 A 
ATOM     29  C   UNL A   1      41.534  23.637  28.313  1.00  0.00     0.010 A 
ATOM     30  C   UNL A   1      40.165  24.949  26.801  1.00  0.00     0.010 A 
ATOM     31  C   UNL A   1      41.143  24.885  27.805  1.00  0.00    -0.014 A 
BRANCH  31  32
ATOM     32  C   UNL A   1      41.812  26.141  28.215  1.00  0.00     0.031 A 
ATOM     33  C   UNL A   1      41.046  27.215  28.927  1.00  0.00     0.074 A 
ATOM     34  C   UNL A   1      43.078  26.351  27.813  1.00  0.00     0.049 A 
ATOM     35  N   UNL A   1      41.372  28.466  29.129  1.00  0.00    -0.248 NA
ATOM     36  C   UNL A   1      39.734  26.836  29.471  1.00  0.00     0.031 C 
ATOM     37  C   UNL A   1      43.913  25.371  27.117  1.00  0.00     0.029 A 
ATOM     38  N   UNL A   1      43.868  27.470  27.889  1.00  0.00    -0.354 N 
ATOM     39  C   UNL A   1      40.299  29.032  29.802  1.00  0.00     0.074 A 
ATOM     40  C   UNL A   1      39.307  27.990  29.972  1.00  0.00     0.031 C 
ATOM     41  C   UNL A   1      45.088  25.936  26.807  1.00  0.00     0.029 A 
ATOM     42  C   UNL A   1      45.063  27.333  27.226  1.00  0.00     0.049 A 
ATOM     43  H   UNL A   1      43.605  28.288  28.369  1.00  0.00     0.167 HD
ATOM     44  C   UNL A   1      40.162  30.310  30.232  1.00  0.00     0.037 A 
ATOM     45  C   UNL A   1      46.008  28.244  26.935  1.00  0.00     0.037 A 
ATOM     46  C   UNL A   1      41.162  31.332  30.057  1.00  0.00     0.049 A 
ATOM     47  C   UNL A   1      45.809  29.665  27.373  1.00  0.00     0.074 A 
ATOM     48  C   UNL A   1      41.142  32.646  30.493  1.00  0.00     0.029 A 
ATOM     49  N   UNL A   1      42.363  31.152  29.386  1.00  0.00    -0.354 N 
ATOM     50  N   UNL A   1      44.795  30.193  28.014  1.00  0.00    -0.248 NA
ATOM     51  C   UNL A   1      46.875  30.616  27.037  1.00  0.00     0.031 C 
ATOM     52  C   UNL A   1      42.314  33.271  30.051  1.00  0.00     0.029 A 
ATOM     53  C   UNL A   1      43.080  32.337  29.371  1.00  0.00     0.049 A 
ATOM     54  H   UNL A   1      42.662  30.307  28.979  1.00  0.00     0.167 HD
ATOM     55  C   UNL A   1      45.100  31.537  28.165  1.00  0.00     0.074 A 
ATOM     56  C   UNL A   1      46.403  31.739  27.561  1.00  0.00     0.031 C 
ATOM     57  C   UNL A   1      44.368  32.515  28.750  1.00  0.00     0.037 A 
BRANCH  44  58
ATOM     58  C   UNL A   1      38.879  30.686  30.912  1.00  0.00     0.064 A 
ATOM     59  C   UNL A   1      38.752  30.663  32.308  1.00  0.00     0.173 A 
ATOM     60  C   UNL A   1      37.782  31.131  30.158  1.00  0.00     0.173 A 
ATOM     61  F   UNL A   1      39.769  30.237  33.071  1.00  0.00    -0.203 F 
ATOM     62  C   UNL A   1      37.567  31.059  32.925  1.00  0.00     0.198 A 
ATOM     63  C   UNL A   1      36.605  31.544  30.780  1.00  0.00     0.198 A 
ATOM     64  F   UNL A   1      37.853  31.175  28.821  1.00  0.00    -0.203 F 
ATOM     65  F   UNL A   1      37.458  31.003  34.260  1.00  0.00    -0.200 F 
ATOM     66  C   UNL A   1      36.498  31.505  32.162  1.00  0.00     0.200 A 
ATOM     67  F   UNL A   1      35.577  31.983  30.042  1.00  0.00    -0.200 F 
ATOM     68  F   UNL A   1      35.362  31.893  32.758  1.00  0.00    -0.200 F 
ENDBRANCH  44  58
BRANCH  45  69
ATOM     69  C   UNL A   1      47.203  27.829  26.160  1.00  0.00     0.064 A 
ATOM     70  C   UNL A   1      48.368  27.408  26.811  1.00  0.00     0.173 A 
ATOM     71  C   UNL A   1      47.181  27.790  24.757  1.00  0.00     0.173 A 
ATOM     72  F   UNL A   1      48.438  27.447  28.149  1.00  0.00    -0.203 F 
ATOM     73  C   UNL A   1      49.470  26.958  26.086  1.00  0.00     0.198 A 
ATOM     74  C   UNL A   1      48.275  27.318  24.036  1.00  0.00     0.198 A 
ATOM     75  F   UNL A   1      46.085  28.179  24.090  1.00  0.00    -0.203 F 
ATOM     76  F   UNL A   1      50.582  26.577  26.731  1.00  0.00    -0.200 F 
ATOM     77  C   UNL A   1      49.419  26.903  24.701  1.00  0.00     0.200 A 
ATOM     78  F   UNL A   1      48.216  27.252  22.699  1.00  0.00    -0.200 F 
ATOM     79  F   UNL A   1      50.473  26.452  24.007  1.00  0.00    -0.200 F 
ENDBRANCH  45  69
BRANCH  57  80
ATOM     80  C   UNL A   1      44.967  33.887  28.765  1.00  0.00     0.064 A 
ATOM     81  C   UNL A   1      45.830  34.293  29.793  1.00  0.00     0.173 A 
ATOM     82  C   UNL A   1      44.693  34.796  27.733  1.00  0.00     0.173 A 
ATOM     83  F   UNL A   1      46.104  33.463  30.811  1.00  0.00    -0.203 F 
ATOM     84  C   UNL A   1      46.383  35.570  29.796  1.00  0.00     0.198 A 
ATOM     85  C   UNL A   1      45.265  36.064  27.728  1.00  0.00     0.198 A 
ATOM     86  F   UNL A   1      43.874  34.451  26.729  1.00  0.00    -0.203 F 
ATOM     87  F   UNL A   1      47.175  35.953  30.808  1.00  0.00    -0.200 F 
ATOM     88  C   UNL A   1      46.105  36.451  28.762  1.00  0.00     0.200 A 
ATOM     89  F   UNL A   1      45.000  36.914  26.727  1.00  0.00    -0.200 F 
ATOM     90  F   UNL A   1      46.640  37.681  28.766  1.00  0.00    -0.200 F 
ENDBRANCH  57  80
ENDBRANCH  31  32
ENDBRANCH  24  26
ENDBRANCH  23  24
ENDBRANCH  22  23
ENDBRANCH   1  22
TORSDOF 16
ENDMDL
MODEL 3
REMARK VINA RESULT:     -11.0      1.244      2.822
REMARK SMILES COc1ncccc1C[N@@H+](CC(=O)OCCOC(=O)c1ccc(-c2c3nc(c(-c4c(F)c(F)c(F)c(F)c4F)c4ccc([nH]4)c(-c4c(F)c(F)c(F)c(F)c4F)c4nc(c(-c5c(F)c(F)c(F)c(F)c5F)c5ccc2[nH]5)C=C4)C=C3)cc1)C1CCCC1
REMARK SMILES IDX 15 1 14 2 12 3 13 4 11 5 10 6 9 8 8 9 3 10 4 11 5 12 7 13
REMARK SMILES IDX 6 14 2 15 1 16 83 17 84 18 87 19 85 20 86 21 16 22 17 23
REMARK SMILES IDX 18 24 19 25 20 26 21 27 82 28 22 29 81 30 23 31 24 32 25 33
REMARK SMILES IDX 75 34 26 35 80 36 74 37 76 38 27 39 79 40 73 41 72 42 28 44
REMARK SMILES IDX 60 45 40 46 59 47 41 48 44 49 58 50 77 51 42 52 43 53 57 55
REMARK SMILES IDX 78 56 45 57 29 58 30 59 38 60 31 61 32 62 36 63 39 64 33 65
REMARK SMILES IDX 34 66 37 67 35 68 61 69 62 70 70 71 63 72 64 73 68 74 71 75
REMARK SMILES IDX 65 76 66 77 69 78 67 79 46 80 47 81 55 82 48 83 49 84 53 85
REMARK SMILES IDX 56 86 50 87 51 88 54 89 52 90
REMARK H PARENT 10 7 76 43 44 54
REMARK Flexibility Score: inf
ROOT
ATOM      1  C   UNL A   1      31.631  28.873  24.749  1.00  0.00     0.274 C 
ENDROOT
BRANCH   1   2
ATOM      2  O   UNL A   1      30.827  27.851  25.368  1.00  0.00    -0.458 OA
BRANCH   2   3
ATOM      3  C   UNL A   1      31.367  27.260  26.465  1.00  0.00     0.361 C 
ATOM      4  O   UNL A   1      31.027  27.505  27.621  1.00  0.00    -0.245 OA
BRANCH   3   5
ATOM      5  C   UNL A   1      32.458  26.240  26.165  1.00  0.00     0.387 C 
BRANCH   5   6
ATOM      6  N   UNL A   1      32.066  25.008  25.464  1.00  0.00    -0.319 N 
ATOM      7  H   UNL A   1      31.061  25.063  25.306  1.00  0.00     0.349 HD
BRANCH   6   8
ATOM      8  C   UNL A   1      32.111  23.809  26.306  1.00  0.00     0.305 C 
BRANCH   8   9
ATOM      9  C   UNL A   1      32.778  22.642  25.625  1.00  0.00     0.068 A 
ATOM     10  C   UNL A   1      34.163  22.476  25.652  1.00  0.00     0.221 A 
ATOM     11  N   UNL A   1      34.813  21.393  25.170  1.00  0.00    -0.222 NA
ATOM     12  C   UNL A   1      34.041  20.426  24.627  1.00  0.00     0.115 A 
ATOM     13  C   UNL A   1      32.029  21.641  25.000  1.00  0.00     0.017 A 
ATOM     14  C   UNL A   1      32.665  20.508  24.506  1.00  0.00     0.021 A 
BRANCH  10  15
ATOM     15  O   UNL A   1      34.937  23.509  26.124  1.00  0.00    -0.481 OA
ATOM     16  C   UNL A   1      36.266  23.410  25.625  1.00  0.00     0.280 C 
ENDBRANCH  10  15
ENDBRANCH   8   9
ENDBRANCH   6   8
BRANCH   6  17
ATOM     17  C   UNL A   1      32.448  24.934  24.055  1.00  0.00     0.184 C 
ATOM     18  C   UNL A   1      31.441  25.299  22.962  1.00  0.00     0.065 C 
ATOM     19  C   UNL A   1      33.649  25.845  23.736  1.00  0.00     0.065 C 
ATOM     20  C   UNL A   1      32.324  25.439  21.728  1.00  0.00     0.006 C 
ATOM     21  C   UNL A   1      33.581  26.134  22.235  1.00  0.00     0.006 C 
ENDBRANCH   6  17
ENDBRANCH   5   6
ENDBRANCH   3   5
ENDBRANCH   2   3
ENDBRANCH   1   2
BRANCH   1  22
ATOM     22  C   UNL A   1      31.760  30.085  25.668  1.00  0.00     0.275 C 
BRANCH  22  23
ATOM     23  O   UNL A   1      33.098  30.158  26.192  1.00  0.00    -0.458 OA
BRANCH  23  24
ATOM     24  C   UNL A   1      33.328  31.179  27.048  1.00  0.00     0.338 C 
ATOM     25  O   UNL A   1      32.619  32.149  27.252  1.00  0.00    -0.246 OA
BRANCH  24  26
ATOM     26  C   UNL A   1      34.641  31.018  27.693  1.00  0.00     0.060 A 
ATOM     27  C   UNL A   1      35.491  32.102  27.935  1.00  0.00     0.016 A 
ATOM     28  C   UNL A   1      35.044  29.719  28.006  1.00  0.00     0.016 A 
ATOM     29  C   UNL A   1      36.755  31.882  28.485  1.00  0.00     0.010 A 
ATOM     30  C   UNL A   1      36.282  29.507  28.605  1.00  0.00     0.010 A 
ATOM     31  C   UNL A   1      37.146  30.586  28.850  1.00  0.00    -0.014 A 
BRANCH  31  32
ATOM     32  C   UNL A   1      38.400  30.325  29.594  1.00  0.00     0.031 A 
ATOM     33  C   UNL A   1      39.416  29.362  29.060  1.00  0.00     0.074 A 
ATOM     34  C   UNL A   1      38.540  30.865  30.818  1.00  0.00     0.049 A 
ATOM     35  N   UNL A   1      40.432  28.809  29.672  1.00  0.00    -0.248 NA
ATOM     36  C   UNL A   1      39.264  28.957  27.655  1.00  0.00     0.031 C 
ATOM     37  C   UNL A   1      37.611  31.816  31.430  1.00  0.00     0.029 A 
ATOM     38  N   UNL A   1      39.491  30.657  31.785  1.00  0.00    -0.354 N 
ATOM     39  C   UNL A   1      41.026  27.972  28.739  1.00  0.00     0.074 A 
ATOM     40  C   UNL A   1      40.257  28.086  27.517  1.00  0.00     0.031 C 
ATOM     41  C   UNL A   1      38.021  32.091  32.676  1.00  0.00     0.029 A 
ATOM     42  C   UNL A   1      39.203  31.288  32.969  1.00  0.00     0.049 A 
ATOM     43  H   UNL A   1      40.296  30.109  31.644  1.00  0.00     0.167 HD
ATOM     44  C   UNL A   1      42.114  27.180  28.899  1.00  0.00     0.037 A 
ATOM     45  C   UNL A   1      39.789  31.189  34.175  1.00  0.00     0.037 A 
ATOM     46  C   UNL A   1      42.869  27.084  30.122  1.00  0.00     0.049 A 
ATOM     47  C   UNL A   1      40.959  30.265  34.343  1.00  0.00     0.074 A 
ATOM     48  C   UNL A   1      44.012  26.347  30.378  1.00  0.00     0.029 A 
ATOM     49  N   UNL A   1      42.550  27.746  31.299  1.00  0.00    -0.354 N 
ATOM     50  N   UNL A   1      41.520  29.480  33.455  1.00  0.00    -0.248 NA
ATOM     51  C   UNL A   1      41.566  30.201  35.677  1.00  0.00     0.031 C 
ATOM     52  C   UNL A   1      44.362  26.532  31.721  1.00  0.00     0.029 A 
ATOM     53  C   UNL A   1      43.457  27.414  32.292  1.00  0.00     0.049 A 
ATOM     54  H   UNL A   1      41.790  28.361  31.413  1.00  0.00     0.167 HD
ATOM     55  C   UNL A   1      42.550  28.833  34.118  1.00  0.00     0.074 A 
ATOM     56  C   UNL A   1      42.546  29.328  35.481  1.00  0.00     0.031 C 
ATOM     57  C   UNL A   1      43.421  27.910  33.644  1.00  0.00     0.037 A 
BRANCH  44  58
ATOM     58  C   UNL A   1      42.543  26.337  27.736  1.00  0.00     0.064 A 
ATOM     59  C   UNL A   1      43.540  26.763  26.846  1.00  0.00     0.173 A 
ATOM     60  C   UNL A   1      41.991  25.061  27.544  1.00  0.00     0.173 A 
ATOM     61  F   UNL A   1      44.091  27.978  26.982  1.00  0.00    -0.203 F 
ATOM     62  C   UNL A   1      43.958  25.947  25.797  1.00  0.00     0.198 A 
ATOM     63  C   UNL A   1      42.426  24.240  26.505  1.00  0.00     0.198 A 
ATOM     64  F   UNL A   1      41.038  24.605  28.369  1.00  0.00    -0.203 F 
ATOM     65  F   UNL A   1      44.893  26.385  24.942  1.00  0.00    -0.200 F 
ATOM     66  C   UNL A   1      43.406  24.685  25.632  1.00  0.00     0.200 A 
ATOM     67  F   UNL A   1      41.898  23.019  26.352  1.00  0.00    -0.200 F 
ATOM     68  F   UNL A   1      43.817  23.899  24.626  1.00  0.00    -0.200 F 
ENDBRANCH  44  58
BRANCH  45  69
ATOM     69  C   UNL A   1      39.244  31.968  35.314  1.00  0.00     0.064 A 
ATOM     70  C   UNL A   1      38.420  31.361  36.269  1.00  0.00     0.173 A 
ATOM     71  C   UNL A   1      39.584  33.317  35.501  1.00  0.00     0.173 A 
ATOM     72  F   UNL A   1      38.055  30.079  36.119  1.00  0.00    -0.203 F 
ATOM     73  C   UNL A   1      37.958  32.074  37.373  1.00  0.00     0.198 A 
ATOM     74  C   UNL A   1      39.140  34.020  36.617  1.00  0.00     0.198 A 
ATOM     75  F   UNL A   1      40.375  33.940  34.615  1.00  0.00    -0.203 F 
ATOM     76  F   UNL A   1      37.155  31.475  38.264  1.00  0.00    -0.200 F 
ATOM     77  C   UNL A   1      38.326  33.399  37.552  1.00  0.00     0.200 A 
ATOM     78  F   UNL A   1      39.512  35.296  36.795  1.00  0.00    -0.200 F 
ATOM     79  F   UNL A   1      37.896  34.077  38.625  1.00  0.00    -0.200 F 
ENDBRANCH  45  69
BRANCH  57  80
ATOM     80  C   UNL A   1      44.439  27.386  34.608  1.00  0.00     0.064 A 
ATOM     81  C   UNL A   1      45.655  28.054  34.816  1.00  0.00     0.173 A 
ATOM     82  C   UNL A   1      44.190  26.219  35.344  1.00  0.00     0.173 A 
ATOM     83  F   UNL A   1      45.944  29.163  34.119  1.00  0.00    -0.203 F 
ATOM     84  C   UNL A   1      46.593  27.559  35.717  1.00  0.00     0.198 A 
ATOM     85  C   UNL A   1      45.122  25.740  36.259  1.00  0.00     0.198 A 
ATOM     86  F   UNL A   1      43.041  25.548  35.178  1.00  0.00    -0.203 F 
ATOM     87  F   UNL A   1      47.766  28.190  35.874  1.00  0.00    -0.200 F 
ATOM     88  C   UNL A   1      46.325  26.407  36.441  1.00  0.00     0.200 A 
ATOM     89  F   UNL A   1      44.860  24.630  36.962  1.00  0.00    -0.200 F 
ATOM     90  F   UNL A   1      47.230  25.933  37.308  1.00  0.00    -0.200 F 
ENDBRANCH  57  80
ENDBRANCH  31  32
ENDBRANCH  24  26
ENDBRANCH  23  24
ENDBRANCH  22  23
ENDBRANCH   1  22
TORSDOF 16
ENDMDL
