MODEL 1
REMARK VINA RESULT:      -9.9      0.000      0.000
REMARK SMILES COC[C@H](O)CC1(C(=O)OCCOC(=O)c2ccc(-c3c4nc(c(-c5c(F)c(F)c(F)c(F)c5F)c5ccc([nH]5)c(-c5c(F)c(F)c(F)c(F)c5F)c5nc(c(-c6c(F)c(F)c(F)c(F)c6F)c6ccc3[nH]6)C=C5)C=C4)cc2)CC1
REMARK SMILES IDX 11 1 10 2 8 3 9 4 7 5 79 6 80 7 6 8 4 9 3 10 2 11 1 12 5 13
REMARK SMILES IDX 12 15 13 16 14 17 15 18 16 19 17 20 78 21 18 22 77 23 19 24
REMARK SMILES IDX 20 25 21 26 71 27 22 28 76 29 70 30 72 31 23 32 75 33 69 34
REMARK SMILES IDX 68 35 24 37 56 38 36 39 55 40 37 41 40 42 54 43 73 44 38 45
REMARK SMILES IDX 39 46 53 48 74 49 41 50 25 51 26 52 34 53 27 54 28 55 32 56
REMARK SMILES IDX 35 57 29 58 30 59 33 60 31 61 57 62 58 63 66 64 59 65 60 66
REMARK SMILES IDX 64 67 67 68 61 69 62 70 65 71 63 72 42 73 43 74 51 75 44 76
REMARK SMILES IDX 45 77 49 78 52 79 46 80 47 81 50 82 48 83
REMARK H PARENT 5 14 72 36 40 47
REMARK Flexibility Score: inf
ROOT
ATOM      1  C   UNL A   1      32.791  35.494  29.487  1.00  0.00     0.274 C 
ENDROOT
BRANCH   1   2
ATOM      2  O   UNL A   1      32.973  34.882  30.785  1.00  0.00    -0.462 OA
BRANCH   2   3
ATOM      3  C   UNL A   1      32.573  35.586  31.894  1.00  0.00     0.312 C 
ATOM      4  O   UNL A   1      31.470  35.605  32.384  1.00  0.00    -0.252 OA
BRANCH   3   5
ATOM      5  C   UNL A   1      33.805  36.123  32.620  1.00  0.00     0.071 C 
ATOM      6  C   UNL A   1      33.682  37.081  33.795  1.00  0.00     0.020 C 
ATOM      7  C   UNL A   1      33.974  37.646  32.446  1.00  0.00     0.020 C 
BRANCH   5   8
ATOM      8  C   UNL A   1      35.081  35.177  32.616  1.00  0.00     0.053 C 
BRANCH   8   9
ATOM      9  C   UNL A   1      35.232  34.509  33.996  1.00  0.00     0.141 C 
BRANCH   9  10
ATOM     10  C   UNL A   1      36.409  33.676  34.506  1.00  0.00     0.191 C 
BRANCH  10  11
ATOM     11  O   UNL A   1      37.545  34.578  34.682  1.00  0.00    -0.382 OA
ATOM     12  C   UNL A   1      38.517  34.574  33.637  1.00  0.00     0.195 C 
ENDBRANCH  10  11
ENDBRANCH   9  10
BRANCH   9  13
ATOM     13  O   UNL A   1      34.224  33.536  34.002  1.00  0.00    -0.391 OA
ATOM     14  H   UNL A   1      33.551  33.771  34.658  1.00  0.00     0.211 HD
ENDBRANCH   9  13
ENDBRANCH   8   9
ENDBRANCH   5   8
ENDBRANCH   3   5
ENDBRANCH   2   3
ENDBRANCH   1   2
BRANCH   1  15
ATOM     15  C   UNL A   1      33.168  34.461  28.356  1.00  0.00     0.275 C 
BRANCH  15  16
ATOM     16  O   UNL A   1      33.792  33.232  28.899  1.00  0.00    -0.458 OA
BRANCH  16  17
ATOM     17  C   UNL A   1      33.949  32.146  28.076  1.00  0.00     0.338 C 
ATOM     18  O   UNL A   1      33.095  31.759  27.292  1.00  0.00    -0.246 OA
BRANCH  17  19
ATOM     19  C   UNL A   1      35.261  31.381  28.253  1.00  0.00     0.060 A 
ATOM     20  C   UNL A   1      35.350  29.982  28.298  1.00  0.00     0.016 A 
ATOM     21  C   UNL A   1      36.464  32.099  28.391  1.00  0.00     0.016 A 
ATOM     22  C   UNL A   1      36.592  29.324  28.534  1.00  0.00     0.010 A 
ATOM     23  C   UNL A   1      37.708  31.445  28.583  1.00  0.00     0.010 A 
ATOM     24  C   UNL A   1      37.785  30.046  28.725  1.00  0.00    -0.014 A 
BRANCH  24  25
ATOM     25  C   UNL A   1      38.991  29.409  29.391  1.00  0.00     0.031 A 
ATOM     26  C   UNL A   1      39.293  29.836  30.819  1.00  0.00     0.074 A 
ATOM     27  C   UNL A   1      39.805  28.480  28.838  1.00  0.00     0.049 A 
ATOM     28  N   UNL A   1      40.259  29.474  31.631  1.00  0.00    -0.248 NA
ATOM     29  C   UNL A   1      38.369  30.821  31.400  1.00  0.00     0.031 C 
ATOM     30  C   UNL A   1      39.681  27.924  27.495  1.00  0.00     0.029 A 
ATOM     31  N   UNL A   1      40.918  27.835  29.356  1.00  0.00    -0.354 N 
ATOM     32  C   UNL A   1      40.061  30.199  32.803  1.00  0.00     0.074 A 
ATOM     33  C   UNL A   1      38.920  31.058  32.577  1.00  0.00     0.031 C 
ATOM     34  C   UNL A   1      40.663  27.021  27.297  1.00  0.00     0.029 A 
ATOM     35  C   UNL A   1      41.511  26.940  28.490  1.00  0.00     0.049 A 
ATOM     36  H   UNL A   1      41.256  28.001  30.265  1.00  0.00     0.167 HD
ATOM     37  C   UNL A   1      40.739  30.156  33.978  1.00  0.00     0.037 A 
ATOM     38  C   UNL A   1      42.603  26.150  28.632  1.00  0.00     0.037 A 
ATOM     39  C   UNL A   1      41.872  29.313  34.243  1.00  0.00     0.049 A 
ATOM     40  C   UNL A   1      43.388  26.150  29.929  1.00  0.00     0.074 A 
ATOM     41  C   UNL A   1      42.607  29.193  35.410  1.00  0.00     0.029 A 
ATOM     42  N   UNL A   1      42.443  28.448  33.322  1.00  0.00    -0.354 N 
ATOM     43  N   UNL A   1      43.161  26.815  31.036  1.00  0.00    -0.248 NA
ATOM     44  C   UNL A   1      44.581  25.286  29.995  1.00  0.00     0.031 C 
ATOM     45  C   UNL A   1      43.654  28.295  35.179  1.00  0.00     0.029 A 
ATOM     46  C   UNL A   1      43.537  27.811  33.887  1.00  0.00     0.049 A 
ATOM     47  H   UNL A   1      42.120  28.308  32.403  1.00  0.00     0.167 HD
ATOM     48  C   UNL A   1      44.157  26.431  31.931  1.00  0.00     0.074 A 
ATOM     49  C   UNL A   1      44.987  25.465  31.246  1.00  0.00     0.031 C 
ATOM     50  C   UNL A   1      44.359  26.842  33.208  1.00  0.00     0.037 A 
BRANCH  37  51
ATOM     51  C   UNL A   1      40.271  31.088  35.065  1.00  0.00     0.064 A 
ATOM     52  C   UNL A   1      39.125  30.816  35.829  1.00  0.00     0.173 A 
ATOM     53  C   UNL A   1      40.961  32.282  35.320  1.00  0.00     0.173 A 
ATOM     54  F   UNL A   1      38.422  29.694  35.615  1.00  0.00    -0.203 F 
ATOM     55  C   UNL A   1      38.655  31.732  36.766  1.00  0.00     0.198 A 
ATOM     56  C   UNL A   1      40.509  33.179  36.286  1.00  0.00     0.198 A 
ATOM     57  F   UNL A   1      42.068  32.588  34.627  1.00  0.00    -0.203 F 
ATOM     58  F   UNL A   1      37.514  31.488  37.425  1.00  0.00    -0.200 F 
ATOM     59  C   UNL A   1      39.348  32.911  36.995  1.00  0.00     0.200 A 
ATOM     60  F   UNL A   1      41.188  34.310  36.516  1.00  0.00    -0.200 F 
ATOM     61  F   UNL A   1      38.889  33.797  37.890  1.00  0.00    -0.200 F 
ENDBRANCH  37  51
BRANCH  38  62
ATOM     62  C   UNL A   1      43.039  25.255  27.515  1.00  0.00     0.064 A 
ATOM     63  C   UNL A   1      42.510  23.962  27.370  1.00  0.00     0.173 A 
ATOM     64  C   UNL A   1      44.017  25.656  26.593  1.00  0.00     0.173 A 
ATOM     65  F   UNL A   1      41.611  23.503  28.253  1.00  0.00    -0.203 F 
ATOM     66  C   UNL A   1      42.937  23.112  26.346  1.00  0.00     0.198 A 
ATOM     67  C   UNL A   1      44.424  24.816  25.554  1.00  0.00     0.198 A 
ATOM     68  F   UNL A   1      44.579  26.869  26.698  1.00  0.00    -0.203 F 
ATOM     69  F   UNL A   1      42.440  21.871  26.257  1.00  0.00    -0.200 F 
ATOM     70  C   UNL A   1      43.885  23.545  25.432  1.00  0.00     0.200 A 
ATOM     71  F   UNL A   1      45.340  25.240  24.672  1.00  0.00    -0.200 F 
ATOM     72  F   UNL A   1      44.283  22.735  24.442  1.00  0.00    -0.200 F 
ENDBRANCH  38  62
BRANCH  50  73
ATOM     73  C   UNL A   1      45.499  26.233  33.976  1.00  0.00     0.064 A 
ATOM     74  C   UNL A   1      45.350  25.047  34.709  1.00  0.00     0.173 A 
ATOM     75  C   UNL A   1      46.778  26.812  33.926  1.00  0.00     0.173 A 
ATOM     76  F   UNL A   1      44.148  24.455  34.797  1.00  0.00    -0.203 F 
ATOM     77  C   UNL A   1      46.430  24.474  35.378  1.00  0.00     0.198 A 
ATOM     78  C   UNL A   1      47.862  26.223  34.574  1.00  0.00     0.198 A 
ATOM     79  F   UNL A   1      46.982  27.941  33.231  1.00  0.00    -0.203 F 
ATOM     80  F   UNL A   1      46.253  23.360  36.103  1.00  0.00    -0.200 F 
ATOM     81  C   UNL A   1      47.685  25.058  35.304  1.00  0.00     0.200 A 
ATOM     82  F   UNL A   1      49.077  26.780  34.488  1.00  0.00    -0.200 F 
ATOM     83  F   UNL A   1      48.725  24.501  35.941  1.00  0.00    -0.200 F 
ENDBRANCH  50  73
ENDBRANCH  24  25
ENDBRANCH  17  19
ENDBRANCH  16  17
ENDBRANCH  15  16
ENDBRANCH   1  15
TORSDOF 16
ENDMDL
MODEL 2
REMARK VINA RESULT:      -9.8      6.034     12.558
REMARK SMILES COC[C@H](O)CC1(C(=O)OCCOC(=O)c2ccc(-c3c4nc(c(-c5c(F)c(F)c(F)c(F)c5F)c5ccc([nH]5)c(-c5c(F)c(F)c(F)c(F)c5F)c5nc(c(-c6c(F)c(F)c(F)c(F)c6F)c6ccc3[nH]6)C=C5)C=C4)cc2)CC1
REMARK SMILES IDX 11 1 10 2 8 3 9 4 7 5 79 6 80 7 6 8 4 9 3 10 2 11 1 12 5 13
REMARK SMILES IDX 12 15 13 16 14 17 15 18 16 19 17 20 78 21 18 22 77 23 19 24
REMARK SMILES IDX 20 25 21 26 71 27 22 28 76 29 70 30 72 31 23 32 75 33 69 34
REMARK SMILES IDX 68 35 24 37 56 38 36 39 55 40 37 41 40 42 54 43 73 44 38 45
REMARK SMILES IDX 39 46 53 48 74 49 41 50 25 51 26 52 34 53 27 54 28 55 32 56
REMARK SMILES IDX 35 57 29 58 30 59 33 60 31 61 57 62 58 63 66 64 59 65 60 66
REMARK SMILES IDX 64 67 67 68 61 69 62 70 65 71 63 72 42 73 43 74 51 75 44 76
REMARK SMILES IDX 45 77 49 78 52 79 46 80 47 81 50 82 48 83
REMARK H PARENT 5 14 72 36 40 47
REMARK Flexibility Score: inf
ROOT
ATOM      1  C   UNL A   1      42.059  18.820  26.058  1.00  0.00     0.274 C 
ENDROOT
BRANCH   1   2
ATOM      2  O   UNL A   1      42.785  19.493  25.003  1.00  0.00    -0.462 OA
BRANCH   2   3
ATOM      3  C   UNL A   1      44.058  19.066  24.719  1.00  0.00     0.312 C 
ATOM      4  O   UNL A   1      44.373  18.086  24.088  1.00  0.00    -0.252 OA
BRANCH   3   5
ATOM      5  C   UNL A   1      45.050  20.177  25.061  1.00  0.00     0.071 C 
ATOM      6  C   UNL A   1      46.332  20.371  24.268  1.00  0.00     0.020 C 
ATOM      7  C   UNL A   1      46.403  19.626  25.557  1.00  0.00     0.020 C 
BRANCH   5   8
ATOM      8  C   UNL A   1      44.430  21.479  25.726  1.00  0.00     0.053 C 
BRANCH   8   9
ATOM      9  C   UNL A   1      44.125  22.521  24.632  1.00  0.00     0.141 C 
BRANCH   9  10
ATOM     10  C   UNL A   1      44.480  24.009  24.635  1.00  0.00     0.191 C 
BRANCH  10  11
ATOM     11  O   UNL A   1      45.919  24.120  24.403  1.00  0.00    -0.382 OA
ATOM     12  C   UNL A   1      46.738  24.187  25.570  1.00  0.00     0.195 C 
ENDBRANCH  10  11
ENDBRANCH   9  10
BRANCH   9  13
ATOM     13  O   UNL A   1      42.727  22.604  24.640  1.00  0.00    -0.391 OA
ATOM     14  H   UNL A   1      42.425  22.894  25.514  1.00  0.00     0.211 HD
ENDBRANCH   9  13
ENDBRANCH   8   9
ENDBRANCH   5   8
ENDBRANCH   3   5
ENDBRANCH   2   3
ENDBRANCH   1   2
BRANCH   1  15
ATOM     15  C   UNL A   1      40.673  19.537  26.288  1.00  0.00     0.275 C 
BRANCH  15  16
ATOM     16  O   UNL A   1      40.739  20.994  26.026  1.00  0.00    -0.458 OA
BRANCH  16  17
ATOM     17  C   UNL A   1      39.606  21.751  26.183  1.00  0.00     0.338 C 
ATOM     18  O   UNL A   1      38.504  21.415  25.776  1.00  0.00    -0.246 OA
BRANCH  17  19
ATOM     19  C   UNL A   1      39.821  23.110  26.849  1.00  0.00     0.060 A 
ATOM     20  C   UNL A   1      39.013  24.233  26.611  1.00  0.00     0.016 A 
ATOM     21  C   UNL A   1      40.890  23.275  27.749  1.00  0.00     0.016 A 
ATOM     22  C   UNL A   1      39.301  25.494  27.208  1.00  0.00     0.010 A 
ATOM     23  C   UNL A   1      41.152  24.520  28.379  1.00  0.00     0.010 A 
ATOM     24  C   UNL A   1      40.402  25.670  28.067  1.00  0.00    -0.014 A 
BRANCH  24  25
ATOM     25  C   UNL A   1      40.964  27.051  28.352  1.00  0.00     0.031 A 
ATOM     26  C   UNL A   1      42.405  27.306  27.936  1.00  0.00     0.074 A 
ATOM     27  C   UNL A   1      40.292  28.080  28.918  1.00  0.00     0.049 A 
ATOM     28  N   UNL A   1      43.152  28.378  28.064  1.00  0.00    -0.248 NA
ATOM     29  C   UNL A   1      43.094  26.177  27.294  1.00  0.00     0.031 C 
ATOM     30  C   UNL A   1      38.905  28.052  29.369  1.00  0.00     0.029 A 
ATOM     31  N   UNL A   1      40.704  29.371  29.213  1.00  0.00    -0.354 N 
ATOM     32  C   UNL A   1      44.394  28.040  27.533  1.00  0.00     0.074 A 
ATOM     33  C   UNL A   1      44.315  26.653  27.133  1.00  0.00     0.031 C 
ATOM     34  C   UNL A   1      38.578  29.260  29.872  1.00  0.00     0.029 A 
ATOM     35  C   UNL A   1      39.736  30.156  29.804  1.00  0.00     0.049 A 
ATOM     36  H   UNL A   1      41.611  29.699  29.018  1.00  0.00     0.167 HD
ATOM     37  C   UNL A   1      45.504  28.802  27.363  1.00  0.00     0.037 A 
ATOM     38  C   UNL A   1      39.771  31.439  30.240  1.00  0.00     0.037 A 
ATOM     39  C   UNL A   1      45.618  30.184  27.741  1.00  0.00     0.049 A 
ATOM     40  C   UNL A   1      41.034  32.266  30.097  1.00  0.00     0.074 A 
ATOM     41  C   UNL A   1      46.700  31.035  27.588  1.00  0.00     0.029 A 
ATOM     42  N   UNL A   1      44.617  30.917  28.357  1.00  0.00    -0.354 N 
ATOM     43  N   UNL A   1      42.183  31.938  29.558  1.00  0.00    -0.248 NA
ATOM     44  C   UNL A   1      41.001  33.643  30.622  1.00  0.00     0.031 C 
ATOM     45  C   UNL A   1      46.370  32.269  28.159  1.00  0.00     0.029 A 
ATOM     46  C   UNL A   1      45.064  32.204  28.615  1.00  0.00     0.049 A 
ATOM     47  H   UNL A   1      43.721  30.576  28.578  1.00  0.00     0.167 HD
ATOM     48  C   UNL A   1      42.993  33.068  29.653  1.00  0.00     0.074 A 
ATOM     49  C   UNL A   1      42.203  34.098  30.291  1.00  0.00     0.031 C 
ATOM     50  C   UNL A   1      44.275  33.233  29.243  1.00  0.00     0.037 A 
BRANCH  37  51
ATOM     51  C   UNL A   1      46.704  28.125  26.756  1.00  0.00     0.064 A 
ATOM     52  C   UNL A   1      47.736  27.598  27.549  1.00  0.00     0.173 A 
ATOM     53  C   UNL A   1      46.837  28.032  25.363  1.00  0.00     0.173 A 
ATOM     54  F   UNL A   1      47.664  27.673  28.887  1.00  0.00    -0.203 F 
ATOM     55  C   UNL A   1      48.881  27.058  26.970  1.00  0.00     0.198 A 
ATOM     56  C   UNL A   1      47.967  27.456  24.787  1.00  0.00     0.198 A 
ATOM     57  F   UNL A   1      45.877  28.509  24.556  1.00  0.00    -0.203 F 
ATOM     58  F   UNL A   1      49.888  26.636  27.748  1.00  0.00    -0.200 F 
ATOM     59  C   UNL A   1      48.995  26.985  25.590  1.00  0.00     0.200 A 
ATOM     60  F   UNL A   1      48.069  27.373  23.453  1.00  0.00    -0.200 F 
ATOM     61  F   UNL A   1      50.102  26.475  25.034  1.00  0.00    -0.200 F 
ENDBRANCH  37  51
BRANCH  38  62
ATOM     62  C   UNL A   1      38.557  32.062  30.854  1.00  0.00     0.064 A 
ATOM     63  C   UNL A   1      38.266  31.898  32.219  1.00  0.00     0.173 A 
ATOM     64  C   UNL A   1      37.644  32.801  30.087  1.00  0.00     0.173 A 
ATOM     65  F   UNL A   1      39.074  31.158  32.992  1.00  0.00    -0.203 F 
ATOM     66  C   UNL A   1      37.117  32.452  32.789  1.00  0.00     0.198 A 
ATOM     67  C   UNL A   1      36.510  33.377  30.663  1.00  0.00     0.198 A 
ATOM     68  F   UNL A   1      37.853  32.966  28.773  1.00  0.00    -0.203 F 
ATOM     69  F   UNL A   1      36.849  32.247  34.085  1.00  0.00    -0.200 F 
ATOM     70  C   UNL A   1      36.246  33.201  32.013  1.00  0.00     0.200 A 
ATOM     71  F   UNL A   1      35.671  34.100  29.908  1.00  0.00    -0.200 F 
ATOM     72  F   UNL A   1      35.152  33.745  32.563  1.00  0.00    -0.200 F 
ENDBRANCH  38  62
BRANCH  50  73
ATOM     73  C   UNL A   1      44.910  34.583  29.431  1.00  0.00     0.064 A 
ATOM     74  C   UNL A   1      45.714  34.875  30.543  1.00  0.00     0.173 A 
ATOM     75  C   UNL A   1      44.764  35.579  28.452  1.00  0.00     0.173 A 
ATOM     76  F   UNL A   1      45.881  33.963  31.513  1.00  0.00    -0.203 F 
ATOM     77  C   UNL A   1      46.331  36.118  30.678  1.00  0.00     0.198 A 
ATOM     78  C   UNL A   1      45.404  36.811  28.576  1.00  0.00     0.198 A 
ATOM     79  F   UNL A   1      44.016  35.351  27.362  1.00  0.00    -0.203 F 
ATOM     80  F   UNL A   1      47.063  36.386  31.768  1.00  0.00    -0.200 F 
ATOM     81  C   UNL A   1      46.181  37.081  29.691  1.00  0.00     0.200 A 
ATOM     82  F   UNL A   1      45.270  37.734  27.614  1.00  0.00    -0.200 F 
ATOM     83  F   UNL A   1      46.782  38.273  29.818  1.00  0.00    -0.200 F 
ENDBRANCH  50  73
ENDBRANCH  24  25
ENDBRANCH  17  19
ENDBRANCH  16  17
ENDBRANCH  15  16
ENDBRANCH   1  15
TORSDOF 16
ENDMDL
MODEL 3
REMARK VINA RESULT:      -9.7      6.042     12.009
REMARK SMILES COC[C@H](O)CC1(C(=O)OCCOC(=O)c2ccc(-c3c4nc(c(-c5c(F)c(F)c(F)c(F)c5F)c5ccc([nH]5)c(-c5c(F)c(F)c(F)c(F)c5F)c5nc(c(-c6c(F)c(F)c(F)c(F)c6F)c6ccc3[nH]6)C=C5)C=C4)cc2)CC1
REMARK SMILES IDX 11 1 10 2 8 3 9 4 7 5 79 6 80 7 6 8 4 9 3 10 2 11 1 12 5 13
REMARK SMILES IDX 12 15 13 16 14 17 15 18 16 19 17 20 78 21 18 22 77 23 19 24
REMARK SMILES IDX 20 25 21 26 71 27 22 28 76 29 70 30 72 31 23 32 75 33 69 34
REMARK SMILES IDX 68 35 24 37 56 38 36 39 55 40 37 41 40 42 54 43 73 44 38 45
REMARK SMILES IDX 39 46 53 48 74 49 41 50 25 51 26 52 34 53 27 54 28 55 32 56
REMARK SMILES IDX 35 57 29 58 30 59 33 60 31 61 57 62 58 63 66 64 59 65 60 66
REMARK SMILES IDX 64 67 67 68 61 69 62 70 65 71 63 72 42 73 43 74 51 75 44 76
REMARK SMILES IDX 45 77 49 78 52 79 46 80 47 81 50 82 48 83
REMARK H PARENT 5 14 72 36 40 47
REMARK Flexibility Score: inf
ROOT
ATOM      1  C   UNL A   1      37.946  19.832  24.809  1.00  0.00     0.274 C 
ENDROOT
BRANCH   1   2
ATOM      2  O   UNL A   1      37.433  21.009  25.476  1.00  0.00    -0.462 OA
BRANCH   2   3
ATOM      3  C   UNL A   1      36.778  21.948  24.719  1.00  0.00     0.312 C 
ATOM      4  O   UNL A   1      36.744  22.016  23.514  1.00  0.00    -0.252 OA
BRANCH   3   5
ATOM      5  C   UNL A   1      35.831  22.745  25.615  1.00  0.00     0.071 C 
ATOM      6  C   UNL A   1      35.306  24.111  25.202  1.00  0.00     0.020 C 
ATOM      7  C   UNL A   1      36.470  24.051  26.133  1.00  0.00     0.020 C 
BRANCH   5   8
ATOM      8  C   UNL A   1      34.891  21.889  26.565  1.00  0.00     0.053 C 
BRANCH   8   9
ATOM      9  C   UNL A   1      34.162  20.813  25.737  1.00  0.00     0.141 C 
BRANCH   9  10
ATOM     10  C   UNL A   1      33.123  21.027  24.636  1.00  0.00     0.191 C 
BRANCH  10  11
ATOM     11  O   UNL A   1      32.226  19.873  24.643  1.00  0.00    -0.382 OA
ATOM     12  C   UNL A   1      32.393  18.943  23.574  1.00  0.00     0.195 C 
ENDBRANCH  10  11
ENDBRANCH   9  10
BRANCH   9  13
ATOM     13  O   UNL A   1      33.378  20.144  26.686  1.00  0.00    -0.391 OA
ATOM     14  H   UNL A   1      33.951  19.763  27.368  1.00  0.00     0.211 HD
ENDBRANCH   9  13
ENDBRANCH   8   9
ENDBRANCH   5   8
ENDBRANCH   3   5
ENDBRANCH   2   3
ENDBRANCH   1   2
BRANCH   1  15
ATOM     15  C   UNL A   1      39.093  19.187  25.679  1.00  0.00     0.275 C 
BRANCH  15  16
ATOM     16  O   UNL A   1      40.385  19.897  25.530  1.00  0.00    -0.458 OA
BRANCH  16  17
ATOM     17  C   UNL A   1      41.143  20.144  26.646  1.00  0.00     0.338 C 
ATOM     18  O   UNL A   1      41.751  19.278  27.257  1.00  0.00    -0.246 OA
BRANCH  17  19
ATOM     19  C   UNL A   1      41.124  21.592  27.137  1.00  0.00     0.060 A 
ATOM     20  C   UNL A   1      40.331  22.599  26.567  1.00  0.00     0.016 A 
ATOM     21  C   UNL A   1      41.947  21.964  28.215  1.00  0.00     0.016 A 
ATOM     22  C   UNL A   1      40.404  23.947  27.022  1.00  0.00     0.010 A 
ATOM     23  C   UNL A   1      41.989  23.298  28.699  1.00  0.00     0.010 A 
ATOM     24  C   UNL A   1      41.267  24.328  28.066  1.00  0.00    -0.014 A 
BRANCH  24  25
ATOM     25  C   UNL A   1      41.671  25.778  28.262  1.00  0.00     0.031 A 
ATOM     26  C   UNL A   1      43.016  26.201  27.691  1.00  0.00     0.074 A 
ATOM     27  C   UNL A   1      40.933  26.732  28.877  1.00  0.00     0.049 A 
ATOM     28  N   UNL A   1      43.627  27.362  27.717  1.00  0.00    -0.248 NA
ATOM     29  C   UNL A   1      43.775  25.148  27.001  1.00  0.00     0.031 C 
ATOM     30  C   UNL A   1      39.616  26.542  29.474  1.00  0.00     0.029 A 
ATOM     31  N   UNL A   1      41.203  28.074  29.101  1.00  0.00    -0.354 N 
ATOM     32  C   UNL A   1      44.841  27.168  27.063  1.00  0.00     0.074 A 
ATOM     33  C   UNL A   1      44.901  25.770  26.701  1.00  0.00     0.031 C 
ATOM     34  C   UNL A   1      39.188  27.715  29.985  1.00  0.00     0.029 A 
ATOM     35  C   UNL A   1      40.207  28.748  29.777  1.00  0.00     0.049 A 
ATOM     36  H   UNL A   1      42.034  28.508  28.804  1.00  0.00     0.167 HD
ATOM     37  C   UNL A   1      45.818  28.059  26.761  1.00  0.00     0.037 A 
ATOM     38  C   UNL A   1      40.119  30.039  30.182  1.00  0.00     0.037 A 
ATOM     39  C   UNL A   1      45.791  29.456  27.098  1.00  0.00     0.049 A 
ATOM     40  C   UNL A   1      41.243  31.014  29.889  1.00  0.00     0.074 A 
ATOM     41  C   UNL A   1      46.731  30.432  26.815  1.00  0.00     0.029 A 
ATOM     42  N   UNL A   1      44.771  30.076  27.803  1.00  0.00    -0.354 N 
ATOM     43  N   UNL A   1      42.363  30.818  29.237  1.00  0.00    -0.248 NA
ATOM     44  C   UNL A   1      41.085  32.393  30.388  1.00  0.00     0.031 C 
ATOM     45  C   UNL A   1      46.305  31.632  27.393  1.00  0.00     0.029 A 
ATOM     46  C   UNL A   1      45.072  31.417  27.987  1.00  0.00     0.049 A 
ATOM     47  H   UNL A   1      43.955  29.630  28.125  1.00  0.00     0.167 HD
ATOM     48  C   UNL A   1      43.024  32.044  29.223  1.00  0.00     0.074 A 
ATOM     49  C   UNL A   1      42.178  32.985  29.922  1.00  0.00     0.031 C 
ATOM     50  C   UNL A   1      44.225  32.357  28.675  1.00  0.00     0.037 A 
BRANCH  37  51
ATOM     51  C   UNL A   1      47.027  27.520  26.043  1.00  0.00     0.064 A 
ATOM     52  C   UNL A   1      48.111  26.958  26.737  1.00  0.00     0.173 A 
ATOM     53  C   UNL A   1      47.115  27.598  24.645  1.00  0.00     0.173 A 
ATOM     54  F   UNL A   1      48.083  26.872  28.076  1.00  0.00    -0.203 F 
ATOM     55  C   UNL A   1      49.259  26.549  26.064  1.00  0.00     0.198 A 
ATOM     56  C   UNL A   1      48.250  27.153  23.972  1.00  0.00     0.198 A 
ATOM     57  F   UNL A   1      46.105  28.116  23.930  1.00  0.00    -0.203 F 
ATOM     58  F   UNL A   1      50.312  26.092  26.757  1.00  0.00    -0.200 F 
ATOM     59  C   UNL A   1      49.327  26.645  24.683  1.00  0.00     0.200 A 
ATOM     60  F   UNL A   1      48.309  27.232  22.636  1.00  0.00    -0.200 F 
ATOM     61  F   UNL A   1      50.437  26.261  24.037  1.00  0.00    -0.200 F 
ENDBRANCH  37  51
BRANCH  38  62
ATOM     62  C   UNL A   1      38.904  30.522  30.910  1.00  0.00     0.064 A 
ATOM     63  C   UNL A   1      37.820  31.089  30.219  1.00  0.00     0.173 A 
ATOM     64  C   UNL A   1      38.815  30.461  32.308  1.00  0.00     0.173 A 
ATOM     65  F   UNL A   1      37.871  31.223  28.886  1.00  0.00    -0.203 F 
ATOM     66  C   UNL A   1      36.697  31.569  30.898  1.00  0.00     0.198 A 
ATOM     67  C   UNL A   1      37.681  30.916  32.984  1.00  0.00     0.198 A 
ATOM     68  F   UNL A   1      39.831  29.955  33.023  1.00  0.00    -0.203 F 
ATOM     69  F   UNL A   1      35.695  32.138  30.214  1.00  0.00    -0.200 F 
ATOM     70  C   UNL A   1      36.624  31.471  32.279  1.00  0.00     0.200 A 
ATOM     71  F   UNL A   1      37.614  30.818  34.318  1.00  0.00    -0.200 F 
ATOM     72  F   UNL A   1      35.540  31.918  32.928  1.00  0.00    -0.200 F 
ENDBRANCH  38  62
BRANCH  50  73
ATOM     73  C   UNL A   1      44.696  33.782  28.769  1.00  0.00     0.064 A 
ATOM     74  C   UNL A   1      45.598  34.201  29.757  1.00  0.00     0.173 A 
ATOM     75  C   UNL A   1      44.287  34.729  27.815  1.00  0.00     0.173 A 
ATOM     76  F   UNL A   1      46.015  33.341  30.699  1.00  0.00    -0.203 F 
ATOM     77  C   UNL A   1      46.057  35.517  29.801  1.00  0.00     0.198 A 
ATOM     78  C   UNL A   1      44.768  36.036  27.845  1.00  0.00     0.198 A 
ATOM     79  F   UNL A   1      43.433  34.381  26.841  1.00  0.00    -0.203 F 
ATOM     80  F   UNL A   1      46.889  35.903  30.778  1.00  0.00    -0.200 F 
ATOM     81  C   UNL A   1      45.648  36.430  28.841  1.00  0.00     0.200 A 
ATOM     82  F   UNL A   1      44.383  36.913  26.907  1.00  0.00    -0.200 F 
ATOM     83  F   UNL A   1      46.097  37.693  28.879  1.00  0.00    -0.200 F 
ENDBRANCH  50  73
ENDBRANCH  24  25
ENDBRANCH  17  19
ENDBRANCH  16  17
ENDBRANCH  15  16
ENDBRANCH   1  15
TORSDOF 16
ENDMDL
