MODEL 1
REMARK VINA RESULT:     -11.6      0.000      0.000
REMARK SMILES COC(=O)c1nccc(N2CCO[C@H](CC(=O)OCCOC(=O)c3ccc(-c4c5nc(c(-c6c(F)c(F)c(F)c(F)c6F)c6ccc([nH]6)c(-c6c(F)c(F)c(F)c(F)c6F)c6nc(c(-c7c(F)c(F)c(F)c(F)c7F)c7ccc4[nH]7)C=C6)C=C5)cc3)C2)n1
REMARK SMILES IDX 19 1 18 2 16 3 17 4 15 5 14 6 10 7 11 8 87 9 12 10 13 11
REMARK SMILES IDX 9 12 5 13 6 14 88 15 7 16 8 17 3 18 4 19 2 20 1 21 20 22
REMARK SMILES IDX 21 23 22 24 23 25 24 26 25 27 86 28 26 29 85 30 27 31 28 32
REMARK SMILES IDX 29 33 79 34 30 35 84 36 78 37 80 38 31 39 83 40 77 41 76 42
REMARK SMILES IDX 32 44 64 45 44 46 63 47 45 48 48 49 62 50 81 51 46 52 47 53
REMARK SMILES IDX 61 55 82 56 49 57 33 58 34 59 42 60 35 61 36 62 40 63 43 64
REMARK SMILES IDX 37 65 38 66 41 67 39 68 65 69 66 70 74 71 67 72 68 73 72 74
REMARK SMILES IDX 75 75 69 76 70 77 73 78 71 79 50 80 51 81 59 82 52 83 53 84
REMARK SMILES IDX 57 85 60 86 54 87 55 88 58 89 56 90
REMARK H PARENT 80 43 48 54
REMARK Flexibility Score: inf
ROOT
ATOM      1  C   UNL A   1      31.543  31.088  26.302  1.00  0.00     0.274 C 
ENDROOT
BRANCH   1   2
ATOM      2  O   UNL A   1      32.158  30.110  27.160  1.00  0.00    -0.462 OA
BRANCH   2   3
ATOM      3  C   UNL A   1      32.917  29.174  26.543  1.00  0.00     0.308 C 
ATOM      4  O   UNL A   1      34.089  28.932  26.813  1.00  0.00    -0.252 OA
BRANCH   3   5
ATOM      5  C   UNL A   1      32.213  28.472  25.413  1.00  0.00     0.156 C 
BRANCH   5   6
ATOM      6  C   UNL A   1      33.011  28.352  24.105  1.00  0.00     0.148 C 
ATOM      7  N   UNL A   1      31.040  28.149  22.711  1.00  0.00    -0.352 N 
ATOM      8  C   UNL A   1      31.288  26.746  22.416  1.00  0.00     0.146 C 
ATOM      9  C   UNL A   1      32.226  28.970  22.918  1.00  0.00     0.150 C 
ATOM     10  C   UNL A   1      32.226  26.145  23.479  1.00  0.00     0.182 C 
ATOM     11  O   UNL A   1      33.354  26.977  23.803  1.00  0.00    -0.374 OA
BRANCH   7  12
ATOM     12  C   UNL A   1      29.794  28.715  22.669  1.00  0.00     0.133 A 
ATOM     13  C   UNL A   1      28.421  30.506  22.266  1.00  0.00     0.241 A 
ATOM     14  N   UNL A   1      27.317  29.891  22.742  1.00  0.00    -0.231 NA
ATOM     15  N   UNL A   1      29.668  29.981  22.245  1.00  0.00    -0.205 NA
ATOM     16  C   UNL A   1      27.494  28.635  23.168  1.00  0.00     0.117 A 
ATOM     17  C   UNL A   1      28.707  27.993  23.127  1.00  0.00     0.067 A 
BRANCH  13  18
ATOM     18  C   UNL A   1      28.199  31.859  21.652  1.00  0.00     0.376 C 
ATOM     19  O   UNL A   1      28.331  32.115  20.463  1.00  0.00    -0.242 OA
BRANCH  18  20
ATOM     20  O   UNL A   1      27.925  32.774  22.624  1.00  0.00    -0.463 OA
ATOM     21  C   UNL A   1      29.078  33.451  23.124  1.00  0.00     0.282 C 
ENDBRANCH  18  20
ENDBRANCH  13  18
ENDBRANCH   7  12
ENDBRANCH   5   6
ENDBRANCH   3   5
ENDBRANCH   2   3
ENDBRANCH   1   2
BRANCH   1  22
ATOM     22  C   UNL A   1      31.573  32.490  26.916  1.00  0.00     0.275 C 
BRANCH  22  23
ATOM     23  O   UNL A   1      32.879  33.093  26.824  1.00  0.00    -0.458 OA
BRANCH  23  24
ATOM     24  C   UNL A   1      33.291  33.740  27.938  1.00  0.00     0.338 C 
ATOM     25  O   UNL A   1      32.713  34.628  28.539  1.00  0.00    -0.246 OA
BRANCH  24  26
ATOM     26  C   UNL A   1      34.516  33.116  28.459  1.00  0.00     0.060 A 
ATOM     27  C   UNL A   1      34.409  31.827  28.985  1.00  0.00     0.016 A 
ATOM     28  C   UNL A   1      35.723  33.812  28.528  1.00  0.00     0.016 A 
ATOM     29  C   UNL A   1      35.506  31.223  29.587  1.00  0.00     0.010 A 
ATOM     30  C   UNL A   1      36.831  33.204  29.134  1.00  0.00     0.010 A 
ATOM     31  C   UNL A   1      36.724  31.910  29.675  1.00  0.00    -0.014 A 
BRANCH  31  32
ATOM     32  C   UNL A   1      37.864  31.266  30.372  1.00  0.00     0.031 A 
ATOM     33  C   UNL A   1      38.140  31.580  31.813  1.00  0.00     0.074 A 
ATOM     34  C   UNL A   1      38.612  30.356  29.722  1.00  0.00     0.049 A 
ATOM     35  N   UNL A   1      39.098  31.138  32.587  1.00  0.00    -0.248 NA
ATOM     36  C   UNL A   1      37.215  32.513  32.472  1.00  0.00     0.031 C 
ATOM     37  C   UNL A   1      38.410  29.937  28.335  1.00  0.00     0.029 A 
ATOM     38  N   UNL A   1      39.682  29.611  30.147  1.00  0.00    -0.354 N 
ATOM     39  C   UNL A   1      38.903  31.749  33.818  1.00  0.00     0.074 A 
ATOM     40  C   UNL A   1      37.743  32.607  33.684  1.00  0.00     0.031 C 
ATOM     41  C   UNL A   1      39.318  28.997  28.026  1.00  0.00     0.029 A 
ATOM     42  C   UNL A   1      40.188  28.779  29.179  1.00  0.00     0.049 A 
ATOM     43  H   UNL A   1      40.051  29.666  31.057  1.00  0.00     0.167 HD
ATOM     44  C   UNL A   1      39.624  31.604  34.955  1.00  0.00     0.037 A 
ATOM     45  C   UNL A   1      41.246  27.946  29.214  1.00  0.00     0.037 A 
ATOM     46  C   UNL A   1      40.765  30.735  35.092  1.00  0.00     0.049 A 
ATOM     47  C   UNL A   1      42.054  27.837  30.477  1.00  0.00     0.074 A 
ATOM     48  C   UNL A   1      41.555  30.513  36.207  1.00  0.00     0.029 A 
ATOM     49  N   UNL A   1      41.275  29.939  34.077  1.00  0.00    -0.354 N 
ATOM     50  N   UNL A   1      41.872  28.433  31.630  1.00  0.00    -0.248 NA
ATOM     51  C   UNL A   1      43.220  26.943  30.441  1.00  0.00     0.031 C 
ATOM     52  C   UNL A   1      42.565  29.610  35.856  1.00  0.00     0.029 A 
ATOM     53  C   UNL A   1      42.381  29.240  34.533  1.00  0.00     0.049 A 
ATOM     54  H   UNL A   1      40.906  29.878  33.166  1.00  0.00     0.167 HD
ATOM     55  C   UNL A   1      42.890  27.981  32.457  1.00  0.00     0.074 A 
ATOM     56  C   UNL A   1      43.676  27.043  31.681  1.00  0.00     0.031 C 
ATOM     57  C   UNL A   1      43.156  28.318  33.744  1.00  0.00     0.037 A 
BRANCH  44  58
ATOM     58  C   UNL A   1      39.218  32.427  36.140  1.00  0.00     0.064 A 
ATOM     59  C   UNL A   1      38.327  31.939  37.108  1.00  0.00     0.173 A 
ATOM     60  C   UNL A   1      39.757  33.709  36.329  1.00  0.00     0.173 A 
ATOM     61  F   UNL A   1      37.773  30.725  36.964  1.00  0.00    -0.203 F 
ATOM     62  C   UNL A   1      37.975  32.713  38.210  1.00  0.00     0.198 A 
ATOM     63  C   UNL A   1      39.421  34.471  37.445  1.00  0.00     0.198 A 
ATOM     64  F   UNL A   1      40.616  34.219  35.435  1.00  0.00    -0.203 F 
ATOM     65  F   UNL A   1      37.092  32.244  39.103  1.00  0.00    -0.200 F 
ATOM     66  C   UNL A   1      38.526  33.975  38.381  1.00  0.00     0.200 A 
ATOM     67  F   UNL A   1      39.961  35.685  37.613  1.00  0.00    -0.200 F 
ATOM     68  F   UNL A   1      38.190  34.717  39.446  1.00  0.00    -0.200 F 
ENDBRANCH  44  58
BRANCH  45  69
ATOM     69  C   UNL A   1      41.611  27.166  28.005  1.00  0.00     0.064 A 
ATOM     70  C   UNL A   1      42.494  27.683  27.049  1.00  0.00     0.173 A 
ATOM     71  C   UNL A   1      41.082  25.885  27.783  1.00  0.00     0.173 A 
ATOM     72  F   UNL A   1      43.002  28.914  27.204  1.00  0.00    -0.203 F 
ATOM     73  C   UNL A   1      42.830  26.952  25.911  1.00  0.00     0.198 A 
ATOM     74  C   UNL A   1      41.438  25.145  26.658  1.00  0.00     0.198 A 
ATOM     75  F   UNL A   1      40.229  25.348  28.667  1.00  0.00    -0.203 F 
ATOM     76  F   UNL A   1      43.648  27.485  24.992  1.00  0.00    -0.200 F 
ATOM     77  C   UNL A   1      42.307  25.682  25.720  1.00  0.00     0.200 A 
ATOM     78  F   UNL A   1      40.940  23.914  26.483  1.00  0.00    -0.200 F 
ATOM     79  F   UNL A   1      42.636  24.977  24.629  1.00  0.00    -0.200 F 
ENDBRANCH  45  69
BRANCH  57  80
ATOM     80  C   UNL A   1      44.340  27.661  34.388  1.00  0.00     0.064 A 
ATOM     81  C   UNL A   1      45.601  28.275  34.394  1.00  0.00     0.173 A 
ATOM     82  C   UNL A   1      44.208  26.419  35.025  1.00  0.00     0.173 A 
ATOM     83  F   UNL A   1      45.778  29.457  33.783  1.00  0.00    -0.203 F 
ATOM     84  C   UNL A   1      46.694  27.656  34.993  1.00  0.00     0.198 A 
ATOM     85  C   UNL A   1      45.298  25.814  35.644  1.00  0.00     0.198 A 
ATOM     86  F   UNL A   1      43.021  25.794  35.051  1.00  0.00    -0.203 F 
ATOM     87  F   UNL A   1      47.900  28.240  34.949  1.00  0.00    -0.200 F 
ATOM     88  C   UNL A   1      46.541  26.429  35.622  1.00  0.00     0.200 A 
ATOM     89  F   UNL A   1      45.149  24.632  36.258  1.00  0.00    -0.200 F 
ATOM     90  F   UNL A   1      47.595  25.835  36.198  1.00  0.00    -0.200 F 
ENDBRANCH  57  80
ENDBRANCH  31  32
ENDBRANCH  24  26
ENDBRANCH  23  24
ENDBRANCH  22  23
ENDBRANCH   1  22
TORSDOF 15
ENDMDL
MODEL 2
REMARK VINA RESULT:     -11.2      5.971     11.374
REMARK SMILES COC(=O)c1nccc(N2CCO[C@H](CC(=O)OCCOC(=O)c3ccc(-c4c5nc(c(-c6c(F)c(F)c(F)c(F)c6F)c6ccc([nH]6)c(-c6c(F)c(F)c(F)c(F)c6F)c6nc(c(-c7c(F)c(F)c(F)c(F)c7F)c7ccc4[nH]7)C=C6)C=C5)cc3)C2)n1
REMARK SMILES IDX 19 1 18 2 16 3 17 4 15 5 14 6 10 7 11 8 87 9 12 10 13 11
REMARK SMILES IDX 9 12 5 13 6 14 88 15 7 16 8 17 3 18 4 19 2 20 1 21 20 22
REMARK SMILES IDX 21 23 22 24 23 25 24 26 25 27 86 28 26 29 85 30 27 31 28 32
REMARK SMILES IDX 29 33 79 34 30 35 84 36 78 37 80 38 31 39 83 40 77 41 76 42
REMARK SMILES IDX 32 44 64 45 44 46 63 47 45 48 48 49 62 50 81 51 46 52 47 53
REMARK SMILES IDX 61 55 82 56 49 57 33 58 34 59 42 60 35 61 36 62 40 63 43 64
REMARK SMILES IDX 37 65 38 66 41 67 39 68 65 69 66 70 74 71 67 72 68 73 72 74
REMARK SMILES IDX 75 75 69 76 70 77 73 78 71 79 50 80 51 81 59 82 52 83 53 84
REMARK SMILES IDX 57 85 60 86 54 87 55 88 58 89 56 90
REMARK H PARENT 80 43 48 54
REMARK Flexibility Score: inf
ROOT
ATOM      1  C   UNL A   1      37.488  20.348  25.385  1.00  0.00     0.274 C 
ENDROOT
BRANCH   1   2
ATOM      2  O   UNL A   1      37.418  21.230  24.250  1.00  0.00    -0.462 OA
BRANCH   2   3
ATOM      3  C   UNL A   1      36.776  22.405  24.451  1.00  0.00     0.308 C 
ATOM      4  O   UNL A   1      37.321  23.454  24.779  1.00  0.00    -0.252 OA
BRANCH   3   5
ATOM      5  C   UNL A   1      35.282  22.310  24.305  1.00  0.00     0.156 C 
BRANCH   5   6
ATOM      6  C   UNL A   1      34.477  22.431  25.609  1.00  0.00     0.148 C 
ATOM      7  N   UNL A   1      32.863  20.737  24.981  1.00  0.00    -0.352 N 
ATOM      8  C   UNL A   1      31.789  21.703  24.806  1.00  0.00     0.146 C 
ATOM      9  C   UNL A   1      33.849  21.067  26.001  1.00  0.00     0.150 C 
ATOM     10  C   UNL A   1      32.378  23.111  24.603  1.00  0.00     0.182 C 
ATOM     11  O   UNL A   1      33.440  23.439  25.517  1.00  0.00    -0.374 OA
BRANCH   7  12
ATOM     12  C   UNL A   1      32.896  19.528  24.339  1.00  0.00     0.133 A 
ATOM     13  C   UNL A   1      33.606  17.353  24.202  1.00  0.00     0.241 A 
ATOM     14  N   UNL A   1      33.089  17.159  22.970  1.00  0.00    -0.231 NA
ATOM     15  N   UNL A   1      33.568  18.511  24.899  1.00  0.00    -0.205 NA
ATOM     16  C   UNL A   1      32.440  18.205  22.445  1.00  0.00     0.117 A 
ATOM     17  C   UNL A   1      32.292  19.402  23.100  1.00  0.00     0.067 A 
BRANCH  13  18
ATOM     18  C   UNL A   1      34.205  16.140  24.854  1.00  0.00     0.376 C 
ATOM     19  O   UNL A   1      35.328  16.091  25.338  1.00  0.00    -0.242 OA
BRANCH  18  20
ATOM     20  O   UNL A   1      33.357  15.079  24.739  1.00  0.00    -0.463 OA
ATOM     21  C   UNL A   1      32.467  14.927  25.845  1.00  0.00     0.282 C 
ENDBRANCH  18  20
ENDBRANCH  13  18
ENDBRANCH   7  12
ENDBRANCH   5   6
ENDBRANCH   3   5
ENDBRANCH   2   3
ENDBRANCH   1   2
BRANCH   1  22
ATOM     22  C   UNL A   1      38.847  19.650  25.487  1.00  0.00     0.275 C 
BRANCH  22  23
ATOM     23  O   UNL A   1      39.921  20.588  25.697  1.00  0.00    -0.458 OA
BRANCH  23  24
ATOM     24  C   UNL A   1      40.425  20.611  26.953  1.00  0.00     0.338 C 
ATOM     25  O   UNL A   1      40.654  19.660  27.680  1.00  0.00    -0.246 OA
BRANCH  24  26
ATOM     26  C   UNL A   1      40.828  21.979  27.309  1.00  0.00     0.060 A 
ATOM     27  C   UNL A   1      40.379  23.017  26.490  1.00  0.00     0.016 A 
ATOM     28  C   UNL A   1      41.711  22.235  28.358  1.00  0.00     0.016 A 
ATOM     29  C   UNL A   1      40.810  24.319  26.710  1.00  0.00     0.010 A 
ATOM     30  C   UNL A   1      42.145  23.548  28.582  1.00  0.00     0.010 A 
ATOM     31  C   UNL A   1      41.704  24.595  27.753  1.00  0.00    -0.014 A 
BRANCH  31  32
ATOM     32  C   UNL A   1      42.193  25.983  27.934  1.00  0.00     0.031 A 
ATOM     33  C   UNL A   1      43.504  26.404  27.338  1.00  0.00     0.074 A 
ATOM     34  C   UNL A   1      41.426  26.879  28.582  1.00  0.00     0.049 A 
ATOM     35  N   UNL A   1      44.110  27.562  27.404  1.00  0.00    -0.248 NA
ATOM     36  C   UNL A   1      44.231  25.387  26.564  1.00  0.00     0.031 C 
ATOM     37  C   UNL A   1      40.113  26.598  29.163  1.00  0.00     0.029 A 
ATOM     38  N   UNL A   1      41.635  28.208  28.848  1.00  0.00    -0.354 N 
ATOM     39  C   UNL A   1      45.295  27.411  26.696  1.00  0.00     0.074 A 
ATOM     40  C   UNL A   1      45.331  26.043  26.221  1.00  0.00     0.031 C 
ATOM     41  C   UNL A   1      39.626  27.725  29.705  1.00  0.00     0.029 A 
ATOM     42  C   UNL A   1      40.608  28.794  29.545  1.00  0.00     0.049 A 
ATOM     43  H   UNL A   1      42.442  28.694  28.566  1.00  0.00     0.167 HD
ATOM     44  C   UNL A   1      46.259  28.332  26.462  1.00  0.00     0.037 A 
ATOM     45  C   UNL A   1      40.482  30.049  30.017  1.00  0.00     0.037 A 
ATOM     46  C   UNL A   1      46.212  29.697  26.918  1.00  0.00     0.049 A 
ATOM     47  C   UNL A   1      41.588  31.039  29.778  1.00  0.00     0.074 A 
ATOM     48  C   UNL A   1      47.137  30.708  26.722  1.00  0.00     0.029 A 
ATOM     49  N   UNL A   1      45.175  30.244  27.659  1.00  0.00    -0.354 N 
ATOM     50  N   UNL A   1      42.713  30.882  29.123  1.00  0.00    -0.248 NA
ATOM     51  C   UNL A   1      41.411  32.381  30.352  1.00  0.00     0.031 C 
ATOM     52  C   UNL A   1      46.678  31.856  27.376  1.00  0.00     0.029 A 
ATOM     53  C   UNL A   1      45.447  31.572  27.946  1.00  0.00     0.049 A 
ATOM     54  H   UNL A   1      44.364  29.762  27.939  1.00  0.00     0.167 HD
ATOM     55  C   UNL A   1      43.371  32.101  29.197  1.00  0.00     0.074 A 
ATOM     56  C   UNL A   1      42.510  32.997  29.941  1.00  0.00     0.031 C 
ATOM     57  C   UNL A   1      44.583  32.447  28.697  1.00  0.00     0.037 A 
BRANCH  44  58
ATOM     58  C   UNL A   1      47.470  27.884  25.699  1.00  0.00     0.064 A 
ATOM     59  C   UNL A   1      47.478  27.823  24.297  1.00  0.00     0.173 A 
ATOM     60  C   UNL A   1      48.650  27.547  26.379  1.00  0.00     0.173 A 
ATOM     61  F   UNL A   1      46.370  28.121  23.602  1.00  0.00    -0.203 F 
ATOM     62  C   UNL A   1      48.618  27.421  23.606  1.00  0.00     0.198 A 
ATOM     63  C   UNL A   1      49.795  27.168  25.684  1.00  0.00     0.198 A 
ATOM     64  F   UNL A   1      48.695  27.593  27.719  1.00  0.00    -0.203 F 
ATOM     65  F   UNL A   1      48.593  27.332  22.269  1.00  0.00    -0.200 F 
ATOM     66  C   UNL A   1      49.777  27.100  24.299  1.00  0.00     0.200 A 
ATOM     67  F   UNL A   1      50.916  26.867  26.354  1.00  0.00    -0.200 F 
ATOM     68  F   UNL A   1      50.874  26.717  23.631  1.00  0.00    -0.200 F 
ENDBRANCH  44  58
BRANCH  45  69
ATOM     69  C   UNL A   1      39.267  30.433  30.779  1.00  0.00     0.064 A 
ATOM     70  C   UNL A   1      39.181  30.219  32.160  1.00  0.00     0.173 A 
ATOM     71  C   UNL A   1      38.166  31.022  30.138  1.00  0.00     0.173 A 
ATOM     72  F   UNL A   1      40.197  29.634  32.810  1.00  0.00    -0.203 F 
ATOM     73  C   UNL A   1      38.038  30.574  32.873  1.00  0.00     0.198 A 
ATOM     74  C   UNL A   1      37.033  31.399  30.855  1.00  0.00     0.198 A 
ATOM     75  F   UNL A   1      38.198  31.243  28.815  1.00  0.00    -0.203 F 
ATOM     76  F   UNL A   1      37.966  30.324  34.188  1.00  0.00    -0.200 F 
ATOM     77  C   UNL A   1      36.968  31.169  32.221  1.00  0.00     0.200 A 
ATOM     78  F   UNL A   1      36.006  31.983  30.224  1.00  0.00    -0.200 F 
ATOM     79  F   UNL A   1      35.871  31.514  32.908  1.00  0.00    -0.200 F 
ENDBRANCH  45  69
BRANCH  57  80
ATOM     80  C   UNL A   1      45.041  33.854  28.937  1.00  0.00     0.064 A 
ATOM     81  C   UNL A   1      44.731  34.885  28.038  1.00  0.00     0.173 A 
ATOM     82  C   UNL A   1      45.778  34.178  30.085  1.00  0.00     0.173 A 
ATOM     83  F   UNL A   1      44.042  34.620  26.918  1.00  0.00    -0.203 F 
ATOM     84  C   UNL A   1      45.164  36.188  28.270  1.00  0.00     0.198 A 
ATOM     85  C   UNL A   1      46.189  35.486  30.324  1.00  0.00     0.198 A 
ATOM     86  F   UNL A   1      46.095  33.227  30.977  1.00  0.00    -0.203 F 
ATOM     87  F   UNL A   1      44.894  37.150  27.377  1.00  0.00    -0.200 F 
ATOM     88  C   UNL A   1      45.888  36.488  29.415  1.00  0.00     0.200 A 
ATOM     89  F   UNL A   1      46.881  35.778  31.435  1.00  0.00    -0.200 F 
ATOM     90  F   UNL A   1      46.304  37.743  29.636  1.00  0.00    -0.200 F 
ENDBRANCH  57  80
ENDBRANCH  31  32
ENDBRANCH  24  26
ENDBRANCH  23  24
ENDBRANCH  22  23
ENDBRANCH   1  22
TORSDOF 15
ENDMDL
MODEL 3
REMARK VINA RESULT:     -11.2      0.342      1.637
REMARK SMILES COC(=O)c1nccc(N2CCO[C@H](CC(=O)OCCOC(=O)c3ccc(-c4c5nc(c(-c6c(F)c(F)c(F)c(F)c6F)c6ccc([nH]6)c(-c6c(F)c(F)c(F)c(F)c6F)c6nc(c(-c7c(F)c(F)c(F)c(F)c7F)c7ccc4[nH]7)C=C6)C=C5)cc3)C2)n1
REMARK SMILES IDX 19 1 18 2 16 3 17 4 15 5 14 6 10 7 11 8 87 9 12 10 13 11
REMARK SMILES IDX 9 12 5 13 6 14 88 15 7 16 8 17 3 18 4 19 2 20 1 21 20 22
REMARK SMILES IDX 21 23 22 24 23 25 24 26 25 27 86 28 26 29 85 30 27 31 28 32
REMARK SMILES IDX 29 33 79 34 30 35 84 36 78 37 80 38 31 39 83 40 77 41 76 42
REMARK SMILES IDX 32 44 64 45 44 46 63 47 45 48 48 49 62 50 81 51 46 52 47 53
REMARK SMILES IDX 61 55 82 56 49 57 33 58 34 59 42 60 35 61 36 62 40 63 43 64
REMARK SMILES IDX 37 65 38 66 41 67 39 68 65 69 66 70 74 71 67 72 68 73 72 74
REMARK SMILES IDX 75 75 69 76 70 77 73 78 71 79 50 80 51 81 59 82 52 83 53 84
REMARK SMILES IDX 57 85 60 86 54 87 55 88 58 89 56 90
REMARK H PARENT 80 43 48 54
REMARK Flexibility Score: inf
ROOT
ATOM      1  C   UNL A   1      31.411  31.349  26.100  1.00  0.00     0.274 C 
ENDROOT
BRANCH   1   2
ATOM      2  O   UNL A   1      31.696  30.168  26.874  1.00  0.00    -0.462 OA
BRANCH   2   3
ATOM      3  C   UNL A   1      32.640  29.342  26.367  1.00  0.00     0.308 C 
ATOM      4  O   UNL A   1      33.848  29.554  26.402  1.00  0.00    -0.252 OA
BRANCH   3   5
ATOM      5  C   UNL A   1      32.077  28.132  25.672  1.00  0.00     0.156 C 
BRANCH   5   6
ATOM      6  C   UNL A   1      32.773  27.736  24.360  1.00  0.00     0.148 C 
ATOM      7  N   UNL A   1      30.705  27.561  23.108  1.00  0.00    -0.352 N 
ATOM      8  C   UNL A   1      30.785  26.111  23.014  1.00  0.00     0.146 C 
ATOM      9  C   UNL A   1      31.982  28.262  23.133  1.00  0.00     0.150 C 
ATOM     10  C   UNL A   1      31.721  25.565  24.108  1.00  0.00     0.182 C 
ATOM     11  O   UNL A   1      32.949  26.302  24.250  1.00  0.00    -0.374 OA
BRANCH   7  12
ATOM     12  C   UNL A   1      29.525  28.253  23.043  1.00  0.00     0.133 A 
ATOM     13  C   UNL A   1      28.362  30.196  22.694  1.00  0.00     0.241 A 
ATOM     14  N   UNL A   1      27.177  29.669  23.072  1.00  0.00    -0.231 NA
ATOM     15  N   UNL A   1      29.549  29.549  22.699  1.00  0.00    -0.205 NA
ATOM     16  C   UNL A   1      27.204  28.378  23.420  1.00  0.00     0.117 A 
ATOM     17  C   UNL A   1      28.348  27.618  23.396  1.00  0.00     0.067 A 
BRANCH  13  18
ATOM     18  C   UNL A   1      28.309  31.600  22.163  1.00  0.00     0.376 C 
ATOM     19  O   UNL A   1      28.462  31.908  20.989  1.00  0.00    -0.242 OA
BRANCH  18  20
ATOM     20  O   UNL A   1      28.164  32.484  23.191  1.00  0.00    -0.463 OA
ATOM     21  C   UNL A   1      29.054  33.598  23.125  1.00  0.00     0.282 C 
ENDBRANCH  18  20
ENDBRANCH  13  18
ENDBRANCH   7  12
ENDBRANCH   5   6
ENDBRANCH   3   5
ENDBRANCH   2   3
ENDBRANCH   1   2
BRANCH   1  22
ATOM     22  C   UNL A   1      31.565  32.628  26.928  1.00  0.00     0.275 C 
BRANCH  22  23
ATOM     23  O   UNL A   1      32.893  33.178  26.831  1.00  0.00    -0.458 OA
BRANCH  23  24
ATOM     24  C   UNL A   1      33.326  33.828  27.936  1.00  0.00     0.338 C 
ATOM     25  O   UNL A   1      32.764  34.725  28.540  1.00  0.00    -0.246 OA
BRANCH  24  26
ATOM     26  C   UNL A   1      34.552  33.195  28.444  1.00  0.00     0.060 A 
ATOM     27  C   UNL A   1      34.432  31.930  29.023  1.00  0.00     0.016 A 
ATOM     28  C   UNL A   1      35.776  33.865  28.452  1.00  0.00     0.016 A 
ATOM     29  C   UNL A   1      35.533  31.323  29.615  1.00  0.00     0.010 A 
ATOM     30  C   UNL A   1      36.887  33.254  29.048  1.00  0.00     0.010 A 
ATOM     31  C   UNL A   1      36.768  31.984  29.641  1.00  0.00    -0.014 A 
BRANCH  31  32
ATOM     32  C   UNL A   1      37.914  31.341  30.328  1.00  0.00     0.031 A 
ATOM     33  C   UNL A   1      38.204  31.657  31.766  1.00  0.00     0.074 A 
ATOM     34  C   UNL A   1      38.655  30.428  29.673  1.00  0.00     0.049 A 
ATOM     35  N   UNL A   1      39.169  31.215  32.532  1.00  0.00    -0.248 NA
ATOM     36  C   UNL A   1      37.286  32.593  32.432  1.00  0.00     0.031 C 
ATOM     37  C   UNL A   1      38.439  30.007  28.289  1.00  0.00     0.029 A 
ATOM     38  N   UNL A   1      39.727  29.682  30.089  1.00  0.00    -0.354 N 
ATOM     39  C   UNL A   1      38.985  31.830  33.764  1.00  0.00     0.074 A 
ATOM     40  C   UNL A   1      37.826  32.689  33.639  1.00  0.00     0.031 C 
ATOM     41  C   UNL A   1      39.343  29.065  27.974  1.00  0.00     0.029 A 
ATOM     42  C   UNL A   1      40.223  28.848  29.119  1.00  0.00     0.049 A 
ATOM     43  H   UNL A   1      40.105  29.740  30.996  1.00  0.00     0.167 HD
ATOM     44  C   UNL A   1      39.718  31.686  34.894  1.00  0.00     0.037 A 
ATOM     45  C   UNL A   1      41.281  28.015  29.145  1.00  0.00     0.037 A 
ATOM     46  C   UNL A   1      40.858  30.816  35.022  1.00  0.00     0.049 A 
ATOM     47  C   UNL A   1      42.101  27.907  30.401  1.00  0.00     0.074 A 
ATOM     48  C   UNL A   1      41.659  30.595  36.130  1.00  0.00     0.029 A 
ATOM     49  N   UNL A   1      41.358  30.017  34.003  1.00  0.00    -0.354 N 
ATOM     50  N   UNL A   1      41.930  28.505  31.555  1.00  0.00    -0.248 NA
ATOM     51  C   UNL A   1      43.265  27.011  30.356  1.00  0.00     0.031 C 
ATOM     52  C   UNL A   1      42.664  29.691  35.771  1.00  0.00     0.029 A 
ATOM     53  C   UNL A   1      42.468  29.318  34.451  1.00  0.00     0.049 A 
ATOM     54  H   UNL A   1      40.980  29.955  33.096  1.00  0.00     0.167 HD
ATOM     55  C   UNL A   1      42.956  28.054  32.373  1.00  0.00     0.074 A 
ATOM     56  C   UNL A   1      43.733  27.114  31.592  1.00  0.00     0.031 C 
ATOM     57  C   UNL A   1      43.234  28.393  33.656  1.00  0.00     0.037 A 
BRANCH  44  58
ATOM     58  C   UNL A   1      39.324  32.512  36.081  1.00  0.00     0.064 A 
ATOM     59  C   UNL A   1      38.456  32.020  37.068  1.00  0.00     0.173 A 
ATOM     60  C   UNL A   1      39.850  33.801  36.252  1.00  0.00     0.173 A 
ATOM     61  F   UNL A   1      37.915  30.799  36.943  1.00  0.00    -0.203 F 
ATOM     62  C   UNL A   1      38.116  32.797  38.172  1.00  0.00     0.198 A 
ATOM     63  C   UNL A   1      39.526  34.567  37.369  1.00  0.00     0.198 A 
ATOM     64  F   UNL A   1      40.686  34.316  35.338  1.00  0.00    -0.203 F 
ATOM     65  F   UNL A   1      37.256  32.323  39.084  1.00  0.00    -0.200 F 
ATOM     66  C   UNL A   1      38.655  34.067  38.325  1.00  0.00     0.200 A 
ATOM     67  F   UNL A   1      40.055  35.789  37.519  1.00  0.00    -0.200 F 
ATOM     68  F   UNL A   1      38.329  34.811  39.391  1.00  0.00    -0.200 F 
ENDBRANCH  44  58
BRANCH  45  69
ATOM     69  C   UNL A   1      41.633  27.231  27.934  1.00  0.00     0.064 A 
ATOM     70  C   UNL A   1      41.126  25.941  27.734  1.00  0.00     0.173 A 
ATOM     71  C   UNL A   1      42.484  27.760  26.952  1.00  0.00     0.173 A 
ATOM     72  F   UNL A   1      40.331  25.384  28.659  1.00  0.00    -0.203 F 
ATOM     73  C   UNL A   1      41.462  25.204  26.601  1.00  0.00     0.198 A 
ATOM     74  C   UNL A   1      42.800  27.032  25.807  1.00  0.00     0.198 A 
ATOM     75  F   UNL A   1      42.999  28.989  27.100  1.00  0.00    -0.203 F 
ATOM     76  F   UNL A   1      40.994  23.957  26.451  1.00  0.00    -0.200 F 
ATOM     77  C   UNL A   1      42.294  25.753  25.636  1.00  0.00     0.200 A 
ATOM     78  F   UNL A   1      43.595  27.570  24.872  1.00  0.00    -0.200 F 
ATOM     79  F   UNL A   1      42.612  25.045  24.543  1.00  0.00    -0.200 F 
ENDBRANCH  45  69
BRANCH  57  80
ATOM     80  C   UNL A   1      44.423  27.737  34.291  1.00  0.00     0.064 A 
ATOM     81  C   UNL A   1      44.313  26.497  34.937  1.00  0.00     0.173 A 
ATOM     82  C   UNL A   1      45.687  28.342  34.233  1.00  0.00     0.173 A 
ATOM     83  F   UNL A   1      43.121  25.888  35.031  1.00  0.00    -0.203 F 
ATOM     84  C   UNL A   1      45.424  25.897  35.525  1.00  0.00     0.198 A 
ATOM     85  C   UNL A   1      46.799  27.727  34.802  1.00  0.00     0.198 A 
ATOM     86  F   UNL A   1      45.844  29.525  33.622  1.00  0.00    -0.203 F 
ATOM     87  F   UNL A   1      45.288  24.733  36.176  1.00  0.00    -0.200 F 
ATOM     88  C   UNL A   1      46.666  26.511  35.453  1.00  0.00     0.200 A 
ATOM     89  F   UNL A   1      48.001  28.316  34.725  1.00  0.00    -0.200 F 
ATOM     90  F   UNL A   1      47.734  25.931  36.019  1.00  0.00    -0.200 F 
ENDBRANCH  57  80
ENDBRANCH  31  32
ENDBRANCH  24  26
ENDBRANCH  23  24
ENDBRANCH  22  23
ENDBRANCH   1  22
TORSDOF 15
ENDMDL
