MODEL 1
REMARK VINA RESULT:     -11.6      0.000      0.000
REMARK SMILES O=C(C[C@H]1CN(S(=O)(=O)N2CCCCC2)CCO1)OCCOC(=O)c1ccc(-c2c3nc(c(-c4c(F)c(F)c(F)c(F)c4F)c4ccc([nH]4)c(-c4c(F)c(F)c(F)c(F)c4F)c4nc(c(-c5c(F)c(F)c(F)c(F)c5F)c5ccc2[nH]5)C=C4)C=C3)cc1
REMARK SMILES IDX 20 1 19 2 2 3 1 4 3 5 4 6 5 7 18 8 6 9 17 10 16 11 7 12 8 13
REMARK SMILES IDX 9 14 10 15 11 16 15 17 12 18 14 19 13 20 21 21 22 22 23 23
REMARK SMILES IDX 24 24 25 25 26 26 87 27 27 28 86 29 28 30 29 31 30 32 80 33
REMARK SMILES IDX 31 34 85 35 79 36 81 37 32 38 84 39 78 40 77 41 33 43 65 44
REMARK SMILES IDX 45 45 64 46 46 47 49 48 63 49 82 50 47 51 48 52 62 54 83 55
REMARK SMILES IDX 50 56 34 57 35 58 43 59 36 60 37 61 41 62 44 63 38 64 39 65
REMARK SMILES IDX 42 66 40 67 66 68 67 69 75 70 68 71 69 72 73 73 76 74 70 75
REMARK SMILES IDX 71 76 74 77 72 78 51 79 52 80 60 81 53 82 54 83 58 84 61 85
REMARK SMILES IDX 55 86 56 87 59 88 57 89
REMARK H PARENT 81 42 49 53
REMARK Flexibility Score: inf
ROOT
ATOM      1  C   UNL A   1      31.461  29.306  24.495  1.00  0.00     0.274 C 
ENDROOT
BRANCH   1   2
ATOM      2  O   UNL A   1      30.169  29.381  23.875  1.00  0.00    -0.462 OA
BRANCH   2   3
ATOM      3  C   UNL A   1      29.577  28.352  23.230  1.00  0.00     0.308 C 
ATOM      4  O   UNL A   1      28.432  28.498  22.817  1.00  0.00    -0.252 OA
BRANCH   3   5
ATOM      5  C   UNL A   1      30.383  27.097  22.984  1.00  0.00     0.156 C 
BRANCH   5   6
ATOM      6  C   UNL A   1      29.968  25.827  23.723  1.00  0.00     0.144 C 
ATOM      7  C   UNL A   1      30.895  24.625  23.498  1.00  0.00     0.136 C 
ATOM      8  O   UNL A   1      29.629  25.990  25.098  1.00  0.00    -0.375 OA
ATOM      9  N   UNL A   1      32.124  24.678  24.308  1.00  0.00    -0.184 NA
ATOM     10  C   UNL A   1      30.767  26.038  25.969  1.00  0.00     0.177 C 
ATOM     11  C   UNL A   1      31.798  24.922  25.746  1.00  0.00     0.132 C 
BRANCH   9  12
ATOM     12  S   UNL A   1      33.581  25.281  23.714  1.00  0.00     0.282 S 
ATOM     13  O   UNL A   1      33.559  25.242  22.273  1.00  0.00    -0.195 OA
ATOM     14  O   UNL A   1      33.876  26.493  24.434  1.00  0.00    -0.195 OA
BRANCH  12  15
ATOM     15  N   UNL A   1      34.681  24.110  24.172  1.00  0.00    -0.189 NA
ATOM     16  C   UNL A   1      35.338  24.151  25.491  1.00  0.00     0.103 C 
ATOM     17  C   UNL A   1      35.046  23.028  23.254  1.00  0.00     0.103 C 
ATOM     18  C   UNL A   1      36.834  23.818  25.406  1.00  0.00     0.017 C 
ATOM     19  C   UNL A   1      36.551  22.899  23.166  1.00  0.00     0.017 C 
ATOM     20  C   UNL A   1      37.110  22.602  24.539  1.00  0.00     0.003 C 
ENDBRANCH  12  15
ENDBRANCH   9  12
ENDBRANCH   5   6
ENDBRANCH   3   5
ENDBRANCH   2   3
ENDBRANCH   1   2
BRANCH   1  21
ATOM     21  C   UNL A   1      31.602  30.369  25.591  1.00  0.00     0.275 C 
BRANCH  21  22
ATOM     22  O   UNL A   1      32.959  30.444  26.093  1.00  0.00    -0.458 OA
BRANCH  22  23
ATOM     23  C   UNL A   1      33.249  31.443  26.970  1.00  0.00     0.338 C 
ATOM     24  O   UNL A   1      32.560  32.421  27.199  1.00  0.00    -0.246 OA
BRANCH  23  25
ATOM     25  C   UNL A   1      34.493  31.116  27.730  1.00  0.00     0.060 A 
ATOM     26  C   UNL A   1      34.806  29.772  27.966  1.00  0.00     0.016 A 
ATOM     27  C   UNL A   1      35.357  32.106  28.214  1.00  0.00     0.016 A 
ATOM     28  C   UNL A   1      35.965  29.428  28.683  1.00  0.00     0.010 A 
ATOM     29  C   UNL A   1      36.517  31.758  28.933  1.00  0.00     0.010 A 
ATOM     30  C   UNL A   1      36.838  30.414  29.179  1.00  0.00    -0.014 A 
BRANCH  30  31
ATOM     31  C   UNL A   1      38.008  30.036  30.037  1.00  0.00     0.031 A 
ATOM     32  C   UNL A   1      39.128  29.230  29.435  1.00  0.00     0.074 A 
ATOM     33  C   UNL A   1      38.124  30.434  31.324  1.00  0.00     0.049 A 
ATOM     34  N   UNL A   1      40.246  28.818  29.982  1.00  0.00    -0.248 NA
ATOM     35  C   UNL A   1      38.951  28.810  28.037  1.00  0.00     0.031 C 
ATOM     36  C   UNL A   1      37.148  31.244  32.047  1.00  0.00     0.029 A 
ATOM     37  N   UNL A   1      39.156  30.278  32.228  1.00  0.00    -0.354 N 
ATOM     38  C   UNL A   1      40.886  28.060  29.010  1.00  0.00     0.074 A 
ATOM     39  C   UNL A   1      40.048  28.096  27.830  1.00  0.00     0.031 C 
ATOM     40  C   UNL A   1      37.670  31.603  33.236  1.00  0.00     0.029 A 
ATOM     41  C   UNL A   1      38.980  30.971  33.408  1.00  0.00     0.049 A 
ATOM     42  H   UNL A   1      39.947  29.720  32.048  1.00  0.00     0.167 HD
ATOM     43  C   UNL A   1      42.043  27.361  29.101  1.00  0.00     0.037 A 
ATOM     44  C   UNL A   1      39.771  31.078  34.500  1.00  0.00     0.037 A 
ATOM     45  C   UNL A   1      42.879  27.289  30.271  1.00  0.00     0.049 A 
ATOM     46  C   UNL A   1      41.054  30.275  34.574  1.00  0.00     0.074 A 
ATOM     47  C   UNL A   1      44.050  26.569  30.446  1.00  0.00     0.029 A 
ATOM     48  N   UNL A   1      42.635  27.946  31.466  1.00  0.00    -0.354 N 
ATOM     49  N   UNL A   1      41.641  29.553  33.651  1.00  0.00    -0.248 NA
ATOM     50  C   UNL A   1      41.765  30.269  35.865  1.00  0.00     0.031 C 
ATOM     51  C   UNL A   1      44.477  26.736  31.767  1.00  0.00     0.029 A 
ATOM     52  C   UNL A   1      43.616  27.621  32.391  1.00  0.00     0.049 A 
ATOM     53  H   UNL A   1      41.877  28.552  31.633  1.00  0.00     0.167 HD
ATOM     54  C   UNL A   1      42.776  29.012  34.248  1.00  0.00     0.074 A 
ATOM     55  C   UNL A   1      42.830  29.530  35.596  1.00  0.00     0.031 C 
ATOM     56  C   UNL A   1      43.678  28.142  33.733  1.00  0.00     0.037 A 
BRANCH  43  57
ATOM     57  C   UNL A   1      42.435  26.531  27.915  1.00  0.00     0.064 A 
ATOM     58  C   UNL A   1      41.955  25.228  27.723  1.00  0.00     0.173 A 
ATOM     59  C   UNL A   1      43.285  27.072  26.936  1.00  0.00     0.173 A 
ATOM     60  F   UNL A   1      41.158  24.663  28.640  1.00  0.00    -0.203 F 
ATOM     61  C   UNL A   1      42.329  24.490  26.604  1.00  0.00     0.198 A 
ATOM     62  C   UNL A   1      43.629  26.342  25.802  1.00  0.00     0.198 A 
ATOM     63  F   UNL A   1      43.768  28.317  27.072  1.00  0.00    -0.203 F 
ATOM     64  F   UNL A   1      41.898  23.228  26.463  1.00  0.00    -0.200 F 
ATOM     65  C   UNL A   1      43.157  25.049  25.641  1.00  0.00     0.200 A 
ATOM     66  F   UNL A   1      44.416  26.892  24.868  1.00  0.00    -0.200 F 
ATOM     67  F   UNL A   1      43.507  24.339  24.560  1.00  0.00    -0.200 F 
ENDBRANCH  43  57
BRANCH  44  68
ATOM     68  C   UNL A   1      39.379  31.926  35.670  1.00  0.00     0.064 A 
ATOM     69  C   UNL A   1      38.479  31.453  36.642  1.00  0.00     0.173 A 
ATOM     70  C   UNL A   1      39.803  33.257  35.789  1.00  0.00     0.173 A 
ATOM     71  F   UNL A   1      38.004  30.200  36.562  1.00  0.00    -0.203 F 
ATOM     72  C   UNL A   1      37.999  32.283  37.655  1.00  0.00     0.198 A 
ATOM     73  C   UNL A   1      39.362  34.072  36.831  1.00  0.00     0.198 A 
ATOM     74  F   UNL A   1      40.643  33.780  34.883  1.00  0.00    -0.203 F 
ATOM     75  F   UNL A   1      37.074  31.828  38.511  1.00  0.00    -0.200 F 
ATOM     76  C   UNL A   1      38.446  33.591  37.754  1.00  0.00     0.200 A 
ATOM     77  F   UNL A   1      39.812  35.331  36.928  1.00  0.00    -0.200 F 
ATOM     78  F   UNL A   1      37.983  34.392  38.723  1.00  0.00    -0.200 F 
ENDBRANCH  44  68
BRANCH  56  79
ATOM     79  C   UNL A   1      44.817  27.696  34.612  1.00  0.00     0.064 A 
ATOM     80  C   UNL A   1      44.735  26.537  35.400  1.00  0.00     0.173 A 
ATOM     81  C   UNL A   1      46.028  28.406  34.626  1.00  0.00     0.173 A 
ATOM     82  F   UNL A   1      43.600  25.822  35.433  1.00  0.00    -0.203 F 
ATOM     83  C   UNL A   1      45.808  26.124  36.188  1.00  0.00     0.198 A 
ATOM     84  C   UNL A   1      47.111  27.971  35.388  1.00  0.00     0.198 A 
ATOM     85  F   UNL A   1      46.169  29.516  33.886  1.00  0.00    -0.203 F 
ATOM     86  F   UNL A   1      45.686  25.040  36.968  1.00  0.00    -0.200 F 
ATOM     87  C   UNL A   1      46.998  26.835  36.174  1.00  0.00     0.200 A 
ATOM     88  F   UNL A   1      48.266  28.650  35.359  1.00  0.00    -0.200 F 
ATOM     89  F   UNL A   1      48.032  26.430  36.924  1.00  0.00    -0.200 F 
ENDBRANCH  56  79
ENDBRANCH  30  31
ENDBRANCH  23  25
ENDBRANCH  22  23
ENDBRANCH  21  22
ENDBRANCH   1  21
TORSDOF 14
ENDMDL
MODEL 2
REMARK VINA RESULT:     -11.6      4.260      7.004
REMARK SMILES O=C(C[C@H]1CN(S(=O)(=O)N2CCCCC2)CCO1)OCCOC(=O)c1ccc(-c2c3nc(c(-c4c(F)c(F)c(F)c(F)c4F)c4ccc([nH]4)c(-c4c(F)c(F)c(F)c(F)c4F)c4nc(c(-c5c(F)c(F)c(F)c(F)c5F)c5ccc2[nH]5)C=C4)C=C3)cc1
REMARK SMILES IDX 20 1 19 2 2 3 1 4 3 5 4 6 5 7 18 8 6 9 17 10 16 11 7 12 8 13
REMARK SMILES IDX 9 14 10 15 11 16 15 17 12 18 14 19 13 20 21 21 22 22 23 23
REMARK SMILES IDX 24 24 25 25 26 26 87 27 27 28 86 29 28 30 29 31 30 32 80 33
REMARK SMILES IDX 31 34 85 35 79 36 81 37 32 38 84 39 78 40 77 41 33 43 65 44
REMARK SMILES IDX 45 45 64 46 46 47 49 48 63 49 82 50 47 51 48 52 62 54 83 55
REMARK SMILES IDX 50 56 34 57 35 58 43 59 36 60 37 61 41 62 44 63 38 64 39 65
REMARK SMILES IDX 42 66 40 67 66 68 67 69 75 70 68 71 69 72 73 73 76 74 70 75
REMARK SMILES IDX 71 76 74 77 72 78 51 79 52 80 60 81 53 82 54 83 58 84 61 85
REMARK SMILES IDX 55 86 56 87 59 88 57 89
REMARK H PARENT 81 42 49 53
REMARK Flexibility Score: inf
ROOT
ATOM      1  C   UNL A   1      35.158  20.804  24.956  1.00  0.00     0.274 C 
ENDROOT
BRANCH   1   2
ATOM      2  O   UNL A   1      34.235  19.714  24.812  1.00  0.00    -0.462 OA
BRANCH   2   3
ATOM      3  C   UNL A   1      32.895  19.860  24.732  1.00  0.00     0.308 C 
ATOM      4  O   UNL A   1      32.211  18.877  24.469  1.00  0.00    -0.252 OA
BRANCH   3   5
ATOM      5  C   UNL A   1      32.299  21.214  25.043  1.00  0.00     0.156 C 
BRANCH   5   6
ATOM      6  C   UNL A   1      31.734  22.028  23.881  1.00  0.00     0.144 C 
ATOM      7  C   UNL A   1      31.036  23.331  24.294  1.00  0.00     0.136 C 
ATOM      8  O   UNL A   1      32.608  22.218  22.771  1.00  0.00    -0.375 OA
ATOM      9  N   UNL A   1      31.976  24.427  24.587  1.00  0.00    -0.184 NA
ATOM     10  C   UNL A   1      33.553  23.279  22.960  1.00  0.00     0.177 C 
ATOM     11  C   UNL A   1      32.952  24.598  23.467  1.00  0.00     0.132 C 
BRANCH   9  12
ATOM     12  S   UNL A   1      32.493  24.791  26.148  1.00  0.00     0.282 S 
ATOM     13  O   UNL A   1      31.496  24.354  27.093  1.00  0.00    -0.195 OA
ATOM     14  O   UNL A   1      33.870  24.382  26.257  1.00  0.00    -0.195 OA
BRANCH  12  15
ATOM     15  N   UNL A   1      32.431  26.460  26.180  1.00  0.00    -0.189 NA
ATOM     16  C   UNL A   1      33.633  27.276  25.926  1.00  0.00     0.103 C 
ATOM     17  C   UNL A   1      31.181  27.156  26.495  1.00  0.00     0.103 C 
ATOM     18  C   UNL A   1      33.749  28.458  26.898  1.00  0.00     0.017 C 
ATOM     19  C   UNL A   1      31.418  28.203  27.562  1.00  0.00     0.017 C 
ATOM     20  C   UNL A   1      32.436  29.204  27.065  1.00  0.00     0.003 C 
ENDBRANCH  12  15
ENDBRANCH   9  12
ENDBRANCH   5   6
ENDBRANCH   3   5
ENDBRANCH   2   3
ENDBRANCH   1   2
BRANCH   1  21
ATOM     21  C   UNL A   1      36.601  20.291  25.033  1.00  0.00     0.275 C 
BRANCH  21  22
ATOM     22  O   UNL A   1      37.548  21.377  25.180  1.00  0.00    -0.458 OA
BRANCH  22  23
ATOM     23  C   UNL A   1      38.722  21.104  25.812  1.00  0.00     0.338 C 
ATOM     24  O   UNL A   1      39.281  20.023  25.851  1.00  0.00    -0.246 OA
BRANCH  23  25
ATOM     25  C   UNL A   1      39.316  22.360  26.360  1.00  0.00     0.060 A 
ATOM     26  C   UNL A   1      38.746  23.588  26.002  1.00  0.00     0.016 A 
ATOM     27  C   UNL A   1      40.422  22.354  27.219  1.00  0.00     0.016 A 
ATOM     28  C   UNL A   1      39.283  24.790  26.494  1.00  0.00     0.010 A 
ATOM     29  C   UNL A   1      40.958  23.560  27.709  1.00  0.00     0.010 A 
ATOM     30  C   UNL A   1      40.398  24.796  27.354  1.00  0.00    -0.014 A 
BRANCH  30  31
ATOM     31  C   UNL A   1      41.027  26.089  27.779  1.00  0.00     0.031 A 
ATOM     32  C   UNL A   1      42.411  26.426  27.290  1.00  0.00     0.074 A 
ATOM     33  C   UNL A   1      40.381  26.994  28.548  1.00  0.00     0.049 A 
ATOM     34  N   UNL A   1      43.133  27.498  27.506  1.00  0.00    -0.248 NA
ATOM     35  C   UNL A   1      43.078  25.406  26.467  1.00  0.00     0.031 C 
ATOM     36  C   UNL A   1      39.029  26.838  29.078  1.00  0.00     0.029 A 
ATOM     37  N   UNL A   1      40.747  28.262  28.951  1.00  0.00    -0.354 N 
ATOM     38  C   UNL A   1      44.351  27.265  26.882  1.00  0.00     0.074 A 
ATOM     39  C   UNL A   1      44.258  25.966  26.250  1.00  0.00     0.031 C 
ATOM     40  C   UNL A   1      38.641  27.999  29.638  1.00  0.00     0.029 A 
ATOM     41  C   UNL A   1      39.747  28.958  29.598  1.00  0.00     0.049 A 
ATOM     42  H   UNL A   1      41.643  28.638  28.792  1.00  0.00     0.167 HD
ATOM     43  C   UNL A   1      45.462  28.041  26.868  1.00  0.00     0.037 A 
ATOM     44  C   UNL A   1      39.725  30.211  30.107  1.00  0.00     0.037 A 
ATOM     45  C   UNL A   1      45.587  29.323  27.510  1.00  0.00     0.049 A 
ATOM     46  C   UNL A   1      40.988  31.048  30.085  1.00  0.00     0.074 A 
ATOM     47  C   UNL A   1      46.698  30.150  27.569  1.00  0.00     0.029 A 
ATOM     48  N   UNL A   1      44.580  29.963  28.213  1.00  0.00    -0.354 N 
ATOM     49  N   UNL A   1      42.137  30.810  29.501  1.00  0.00    -0.248 NA
ATOM     50  C   UNL A   1      40.961  32.316  30.837  1.00  0.00     0.031 C 
ATOM     51  C   UNL A   1      46.383  31.256  28.363  1.00  0.00     0.029 A 
ATOM     52  C   UNL A   1      45.054  31.158  28.734  1.00  0.00     0.049 A 
ATOM     53  H   UNL A   1      43.663  29.621  28.326  1.00  0.00     0.167 HD
ATOM     54  C   UNL A   1      42.959  31.889  29.815  1.00  0.00     0.074 A 
ATOM     55  C   UNL A   1      42.166  32.811  30.595  1.00  0.00     0.031 C 
ATOM     56  C   UNL A   1      44.264  32.083  29.506  1.00  0.00     0.037 A 
BRANCH  43  57
ATOM     57  C   UNL A   1      46.682  27.476  26.203  1.00  0.00     0.064 A 
ATOM     58  C   UNL A   1      46.931  27.644  24.833  1.00  0.00     0.173 A 
ATOM     59  C   UNL A   1      47.634  26.781  26.966  1.00  0.00     0.173 A 
ATOM     60  F   UNL A   1      46.042  28.283  24.060  1.00  0.00    -0.203 F 
ATOM     61  C   UNL A   1      48.080  27.117  24.249  1.00  0.00     0.198 A 
ATOM     62  C   UNL A   1      48.797  26.285  26.384  1.00  0.00     0.198 A 
ATOM     63  F   UNL A   1      47.443  26.596  28.281  1.00  0.00    -0.203 F 
ATOM     64  F   UNL A   1      48.276  27.247  22.929  1.00  0.00    -0.200 F 
ATOM     65  C   UNL A   1      49.015  26.447  25.025  1.00  0.00     0.200 A 
ATOM     66  F   UNL A   1      49.704  25.652  27.140  1.00  0.00    -0.200 F 
ATOM     67  F   UNL A   1      50.124  25.950  24.462  1.00  0.00    -0.200 F 
ENDBRANCH  43  57
BRANCH  44  68
ATOM     68  C   UNL A   1      38.495  30.772  30.751  1.00  0.00     0.064 A 
ATOM     69  C   UNL A   1      37.537  31.477  30.000  1.00  0.00     0.173 A 
ATOM     70  C   UNL A   1      38.299  30.712  32.138  1.00  0.00     0.173 A 
ATOM     71  F   UNL A   1      37.689  31.605  28.673  1.00  0.00    -0.203 F 
ATOM     72  C   UNL A   1      36.463  32.122  30.613  1.00  0.00     0.198 A 
ATOM     73  C   UNL A   1      37.197  31.315  32.745  1.00  0.00     0.198 A 
ATOM     74  F   UNL A   1      39.186  30.075  32.918  1.00  0.00    -0.203 F 
ATOM     75  F   UNL A   1      35.619  32.861  29.879  1.00  0.00    -0.200 F 
ATOM     76  C   UNL A   1      36.289  32.035  31.985  1.00  0.00     0.200 A 
ATOM     77  F   UNL A   1      37.028  31.212  34.070  1.00  0.00    -0.200 F 
ATOM     78  F   UNL A   1      35.261  32.658  32.576  1.00  0.00    -0.200 F 
ENDBRANCH  44  68
BRANCH  56  79
ATOM     79  C   UNL A   1      44.929  33.345  29.992  1.00  0.00     0.064 A 
ATOM     80  C   UNL A   1      45.601  33.400  31.223  1.00  0.00     0.173 A 
ATOM     81  C   UNL A   1      44.941  34.499  29.193  1.00  0.00     0.173 A 
ATOM     82  F   UNL A   1      45.616  32.330  32.034  1.00  0.00    -0.203 F 
ATOM     83  C   UNL A   1      46.234  34.568  31.647  1.00  0.00     0.198 A 
ATOM     84  C   UNL A   1      45.604  35.654  29.604  1.00  0.00     0.198 A 
ATOM     85  F   UNL A   1      44.323  34.503  28.003  1.00  0.00    -0.203 F 
ATOM     86  F   UNL A   1      46.827  34.608  32.848  1.00  0.00    -0.200 F 
ATOM     87  C   UNL A   1      46.242  35.691  30.833  1.00  0.00     0.200 A 
ATOM     88  F   UNL A   1      45.626  36.732  28.807  1.00  0.00    -0.200 F 
ATOM     89  F   UNL A   1      46.860  36.809  31.237  1.00  0.00    -0.200 F 
ENDBRANCH  56  79
ENDBRANCH  30  31
ENDBRANCH  23  25
ENDBRANCH  22  23
ENDBRANCH  21  22
ENDBRANCH   1  21
TORSDOF 14
ENDMDL
MODEL 3
REMARK VINA RESULT:     -11.5      0.582      7.381
REMARK SMILES O=C(C[C@H]1CN(S(=O)(=O)N2CCCCC2)CCO1)OCCOC(=O)c1ccc(-c2c3nc(c(-c4c(F)c(F)c(F)c(F)c4F)c4ccc([nH]4)c(-c4c(F)c(F)c(F)c(F)c4F)c4nc(c(-c5c(F)c(F)c(F)c(F)c5F)c5ccc2[nH]5)C=C4)C=C3)cc1
REMARK SMILES IDX 20 1 19 2 2 3 1 4 3 5 4 6 5 7 18 8 6 9 17 10 16 11 7 12 8 13
REMARK SMILES IDX 9 14 10 15 11 16 15 17 12 18 14 19 13 20 21 21 22 22 23 23
REMARK SMILES IDX 24 24 25 25 26 26 87 27 27 28 86 29 28 30 29 31 30 32 80 33
REMARK SMILES IDX 31 34 85 35 79 36 81 37 32 38 84 39 78 40 77 41 33 43 65 44
REMARK SMILES IDX 45 45 64 46 46 47 49 48 63 49 82 50 47 51 48 52 62 54 83 55
REMARK SMILES IDX 50 56 34 57 35 58 43 59 36 60 37 61 41 62 44 63 38 64 39 65
REMARK SMILES IDX 42 66 40 67 66 68 67 69 75 70 68 71 69 72 73 73 76 74 70 75
REMARK SMILES IDX 71 76 74 77 72 78 51 79 52 80 60 81 53 82 54 83 58 84 61 85
REMARK SMILES IDX 55 86 56 87 59 88 57 89
REMARK H PARENT 81 42 49 53
REMARK Flexibility Score: inf
ROOT
ATOM      1  C   UNL A   1      31.549  29.296  24.571  1.00  0.00     0.274 C 
ENDROOT
BRANCH   1   2
ATOM      2  O   UNL A   1      30.273  29.452  23.930  1.00  0.00    -0.462 OA
BRANCH   2   3
ATOM      3  C   UNL A   1      29.711  28.525  23.126  1.00  0.00     0.308 C 
ATOM      4  O   UNL A   1      28.625  28.772  22.614  1.00  0.00    -0.252 OA
BRANCH   3   5
ATOM      5  C   UNL A   1      30.483  27.258  22.839  1.00  0.00     0.156 C 
BRANCH   5   6
ATOM      6  C   UNL A   1      30.006  25.967  23.501  1.00  0.00     0.144 C 
ATOM      7  C   UNL A   1      30.925  24.758  23.279  1.00  0.00     0.136 C 
ATOM      8  O   UNL A   1      29.592  26.081  24.860  1.00  0.00    -0.375 OA
ATOM      9  N   UNL A   1      32.107  24.756  24.157  1.00  0.00    -0.184 NA
ATOM     10  C   UNL A   1      30.680  26.073  25.794  1.00  0.00     0.177 C 
ATOM     11  C   UNL A   1      31.704  24.949  25.584  1.00  0.00     0.132 C 
BRANCH   9  12
ATOM     12  S   UNL A   1      33.604  25.355  23.671  1.00  0.00     0.282 S 
ATOM     13  O   UNL A   1      33.652  25.405  22.231  1.00  0.00    -0.195 OA
ATOM     14  O   UNL A   1      33.893  26.513  24.478  1.00  0.00    -0.195 OA
BRANCH  12  15
ATOM     15  N   UNL A   1      34.654  24.131  24.106  1.00  0.00    -0.189 NA
ATOM     16  C   UNL A   1      35.231  24.062  25.461  1.00  0.00     0.103 C 
ATOM     17  C   UNL A   1      35.053  23.109  23.135  1.00  0.00     0.103 C 
ATOM     18  C   UNL A   1      36.724  23.703  25.439  1.00  0.00     0.017 C 
ATOM     19  C   UNL A   1      36.559  22.953  23.126  1.00  0.00     0.017 C 
ATOM     20  C   UNL A   1      37.029  22.545  24.504  1.00  0.00     0.003 C 
ENDBRANCH  12  15
ENDBRANCH   9  12
ENDBRANCH   5   6
ENDBRANCH   3   5
ENDBRANCH   2   3
ENDBRANCH   1   2
BRANCH   1  21
ATOM     21  C   UNL A   1      31.718  30.314  25.706  1.00  0.00     0.275 C 
BRANCH  21  22
ATOM     22  O   UNL A   1      33.114  30.543  26.016  1.00  0.00    -0.458 OA
BRANCH  22  23
ATOM     23  C   UNL A   1      33.397  31.403  27.032  1.00  0.00     0.338 C 
ATOM     24  O   UNL A   1      32.665  32.277  27.458  1.00  0.00    -0.246 OA
BRANCH  23  25
ATOM     25  C   UNL A   1      34.706  31.046  27.657  1.00  0.00     0.060 A 
ATOM     26  C   UNL A   1      34.990  29.698  27.908  1.00  0.00     0.016 A 
ATOM     27  C   UNL A   1      35.660  32.012  28.003  1.00  0.00     0.016 A 
ATOM     28  C   UNL A   1      36.208  29.328  28.501  1.00  0.00     0.010 A 
ATOM     29  C   UNL A   1      36.879  31.637  28.598  1.00  0.00     0.010 A 
ATOM     30  C   UNL A   1      37.172  30.290  28.857  1.00  0.00    -0.014 A 
BRANCH  30  31
ATOM     31  C   UNL A   1      38.416  29.889  29.591  1.00  0.00     0.031 A 
ATOM     32  C   UNL A   1      38.595  30.323  31.022  1.00  0.00     0.074 A 
ATOM     33  C   UNL A   1      39.369  29.108  29.034  1.00  0.00     0.049 A 
ATOM     34  N   UNL A   1      39.574  30.066  31.854  1.00  0.00    -0.248 NA
ATOM     35  C   UNL A   1      37.540  31.181  31.580  1.00  0.00     0.031 C 
ATOM     36  C   UNL A   1      39.336  28.577  27.674  1.00  0.00     0.029 A 
ATOM     37  N   UNL A   1      40.515  28.556  29.573  1.00  0.00    -0.354 N 
ATOM     38  C   UNL A   1      39.274  30.762  33.018  1.00  0.00     0.074 A 
ATOM     39  C   UNL A   1      38.006  31.423  32.796  1.00  0.00     0.031 C 
ATOM     40  C   UNL A   1      40.343  27.697  27.522  1.00  0.00     0.029 A 
ATOM     41  C   UNL A   1      41.159  27.668  28.737  1.00  0.00     0.049 A 
ATOM     42  H   UNL A   1      40.843  28.778  30.475  1.00  0.00     0.167 HD
ATOM     43  C   UNL A   1      40.004  30.877  34.154  1.00  0.00     0.037 A 
ATOM     44  C   UNL A   1      42.276  26.928  28.922  1.00  0.00     0.037 A 
ATOM     45  C   UNL A   1      41.279  30.250  34.388  1.00  0.00     0.049 A 
ATOM     46  C   UNL A   1      43.075  27.088  30.200  1.00  0.00     0.074 A 
ATOM     47  C   UNL A   1      42.094  30.352  35.503  1.00  0.00     0.029 A 
ATOM     48  N   UNL A   1      41.932  29.416  33.495  1.00  0.00    -0.354 N 
ATOM     49  N   UNL A   1      42.784  27.759  31.287  1.00  0.00    -0.248 NA
ATOM     50  C   UNL A   1      44.387  26.417  30.255  1.00  0.00     0.031 C 
ATOM     51  C   UNL A   1      43.269  29.636  35.258  1.00  0.00     0.029 A 
ATOM     52  C   UNL A   1      43.153  29.024  34.023  1.00  0.00     0.049 A 
ATOM     53  H   UNL A   1      41.582  29.143  32.616  1.00  0.00     0.167 HD
ATOM     54  C   UNL A   1      43.868  27.592  32.145  1.00  0.00     0.074 A 
ATOM     55  C   UNL A   1      44.801  26.713  31.478  1.00  0.00     0.031 C 
ATOM     56  C   UNL A   1      44.083  28.142  33.364  1.00  0.00     0.037 A 
BRANCH  43  57
ATOM     57  C   UNL A   1      39.479  31.798  35.214  1.00  0.00     0.064 A 
ATOM     58  C   UNL A   1      38.627  31.353  36.235  1.00  0.00     0.173 A 
ATOM     59  C   UNL A   1      39.867  33.148  35.220  1.00  0.00     0.173 A 
ATOM     60  F   UNL A   1      38.214  30.078  36.260  1.00  0.00    -0.203 F 
ATOM     61  C   UNL A   1      38.167  32.232  37.212  1.00  0.00     0.198 A 
ATOM     62  C   UNL A   1      39.431  34.015  36.217  1.00  0.00     0.198 A 
ATOM     63  F   UNL A   1      40.683  33.621  34.266  1.00  0.00    -0.203 F 
ATOM     64  F   UNL A   1      37.315  31.799  38.152  1.00  0.00    -0.200 F 
ATOM     65  C   UNL A   1      38.576  33.559  37.208  1.00  0.00     0.200 A 
ATOM     66  F   UNL A   1      39.840  35.291  36.218  1.00  0.00    -0.200 F 
ATOM     67  F   UNL A   1      38.139  34.400  38.154  1.00  0.00    -0.200 F 
ENDBRANCH  43  57
BRANCH  44  68
ATOM     68  C   UNL A   1      42.780  25.996  27.864  1.00  0.00     0.064 A 
ATOM     69  C   UNL A   1      43.725  26.418  26.913  1.00  0.00     0.173 A 
ATOM     70  C   UNL A   1      42.255  24.705  27.711  1.00  0.00     0.173 A 
ATOM     71  F   UNL A   1      44.236  27.657  26.980  1.00  0.00    -0.203 F 
ATOM     72  C   UNL A   1      44.093  25.604  25.841  1.00  0.00     0.198 A 
ATOM     73  C   UNL A   1      42.661  23.872  26.668  1.00  0.00     0.198 A 
ATOM     74  F   UNL A   1      41.332  24.246  28.570  1.00  0.00    -0.203 F 
ATOM     75  F   UNL A   1      44.929  26.071  24.902  1.00  0.00    -0.200 F 
ATOM     76  C   UNL A   1      43.567  24.328  25.723  1.00  0.00     0.200 A 
ATOM     77  F   UNL A   1      42.158  22.634  26.571  1.00  0.00    -0.200 F 
ATOM     78  F   UNL A   1      43.914  23.546  24.692  1.00  0.00    -0.200 F 
ENDBRANCH  44  68
BRANCH  56  79
ATOM     79  C   UNL A   1      45.365  27.805  34.080  1.00  0.00     0.064 A 
ATOM     80  C   UNL A   1      45.467  26.695  34.933  1.00  0.00     0.173 A 
ATOM     81  C   UNL A   1      46.523  28.571  33.868  1.00  0.00     0.173 A 
ATOM     82  F   UNL A   1      44.392  25.931  35.180  1.00  0.00    -0.203 F 
ATOM     83  C   UNL A   1      46.669  26.382  35.568  1.00  0.00     0.198 A 
ATOM     84  C   UNL A   1      47.731  28.234  34.476  1.00  0.00     0.198 A 
ATOM     85  F   UNL A   1      46.489  29.637  33.056  1.00  0.00    -0.203 F 
ATOM     86  F   UNL A   1      46.726  25.345  36.415  1.00  0.00    -0.200 F 
ATOM     87  C   UNL A   1      47.801  27.146  35.332  1.00  0.00     0.200 A 
ATOM     88  F   UNL A   1      48.829  28.964  34.232  1.00  0.00    -0.200 F 
ATOM     89  F   UNL A   1      48.957  26.838  35.934  1.00  0.00    -0.200 F 
ENDBRANCH  56  79
ENDBRANCH  30  31
ENDBRANCH  23  25
ENDBRANCH  22  23
ENDBRANCH  21  22
ENDBRANCH   1  21
TORSDOF 14
ENDMDL
