MODEL 1
REMARK VINA RESULT:     -11.4      0.000      0.000
REMARK SMILES CN(C)c1ccc(C(=O)N[C@@H](CO)C(=O)OCCOC(=O)c2ccc(-c3c4nc(c(-c5c(F)c(F)c(F)c(F)c5F)c5ccc([nH]5)c(-c5c(F)c(F)c(F)c(F)c5F)c5nc(c(-c6c(F)c(F)c(F)c(F)c6F)c6ccc3[nH]6)C=C5)C=C4)cc2)cn1
REMARK SMILES IDX 17 1 16 2 14 3 15 4 11 5 10 6 8 7 9 8 7 10 4 11 5 12 86 13
REMARK SMILES IDX 6 14 85 15 2 16 1 17 3 18 12 19 13 20 18 22 19 23 20 24
REMARK SMILES IDX 21 25 22 26 23 27 84 28 24 29 83 30 25 31 26 32 27 33 77 34
REMARK SMILES IDX 28 35 82 36 76 37 78 38 29 39 81 40 75 41 74 42 30 44 62 45
REMARK SMILES IDX 42 46 61 47 43 48 46 49 60 50 79 51 44 52 45 53 59 55 80 56
REMARK SMILES IDX 47 57 31 58 32 59 40 60 33 61 34 62 38 63 41 64 35 65 36 66
REMARK SMILES IDX 39 67 37 68 63 69 64 70 72 71 65 72 66 73 70 74 73 75 67 76
REMARK SMILES IDX 68 77 71 78 69 79 48 80 49 81 57 82 50 83 51 84 55 85 58 86
REMARK SMILES IDX 52 87 53 88 56 89 54 90
REMARK H PARENT 10 9 13 21 78 43 46 54
REMARK Flexibility Score: inf
ROOT
ATOM      1  C   UNL A   1      36.208  20.235  24.984  1.00  0.00     0.274 C 
ENDROOT
BRANCH   1   2
ATOM      2  O   UNL A   1      35.831  21.145  26.038  1.00  0.00    -0.460 OA
BRANCH   2   3
ATOM      3  C   UNL A   1      35.322  22.343  25.642  1.00  0.00     0.331 C 
ATOM      4  O   UNL A   1      35.142  23.309  26.377  1.00  0.00    -0.250 OA
BRANCH   3   5
ATOM      5  C   UNL A   1      34.977  22.379  24.148  1.00  0.00     0.218 C 
BRANCH   5   6
ATOM      6  N   UNL A   1      33.556  22.574  23.832  1.00  0.00    -0.337 N 
ATOM      7  C   UNL A   1      32.508  21.708  23.650  1.00  0.00     0.253 C 
ATOM      8  O   UNL A   1      31.416  22.189  23.348  1.00  0.00    -0.269 OA
ATOM      9  H   UNL A   1      33.304  23.520  23.729  1.00  0.00     0.164 HD
BRANCH   7  10
ATOM     10  C   UNL A   1      32.602  20.240  23.848  1.00  0.00     0.058 A 
ATOM     11  C   UNL A   1      32.834  17.547  24.547  1.00  0.00     0.127 A 
ATOM     12  C   UNL A   1      32.853  17.928  23.206  1.00  0.00     0.048 A 
ATOM     13  N   UNL A   1      32.670  18.464  25.520  1.00  0.00    -0.239 NA
ATOM     14  C   UNL A   1      32.705  19.275  22.853  1.00  0.00     0.019 A 
ATOM     15  C   UNL A   1      32.560  19.771  25.157  1.00  0.00     0.127 A 
BRANCH  11  16
ATOM     16  N   UNL A   1      32.998  16.199  24.875  1.00  0.00    -0.363 N 
ATOM     17  C   UNL A   1      34.393  15.803  25.016  1.00  0.00     0.144 C 
ATOM     18  C   UNL A   1      32.104  15.712  25.919  1.00  0.00     0.144 C 
ENDBRANCH  11  16
ENDBRANCH   7  10
ENDBRANCH   5   6
BRANCH   5  19
ATOM     19  C   UNL A   1      35.816  23.479  23.489  1.00  0.00     0.193 C 
BRANCH  19  20
ATOM     20  O   UNL A   1      36.662  22.945  22.470  1.00  0.00    -0.394 OA
ATOM     21  H   UNL A   1      37.099  22.145  22.798  1.00  0.00     0.210 HD
ENDBRANCH  19  20
ENDBRANCH   5  19
ENDBRANCH   3   5
ENDBRANCH   2   3
ENDBRANCH   1   2
BRANCH   1  22
ATOM     22  C   UNL A   1      37.720  20.004  24.978  1.00  0.00     0.275 C 
BRANCH  22  23
ATOM     23  O   UNL A   1      38.439  21.186  25.379  1.00  0.00    -0.458 OA
BRANCH  23  24
ATOM     24  C   UNL A   1      39.531  20.945  26.139  1.00  0.00     0.338 C 
ATOM     25  O   UNL A   1      40.176  19.909  26.206  1.00  0.00    -0.246 OA
BRANCH  24  26
ATOM     26  C   UNL A   1      39.966  22.174  26.812  1.00  0.00     0.060 A 
ATOM     27  C   UNL A   1      39.399  23.371  26.383  1.00  0.00     0.016 A 
ATOM     28  C   UNL A   1      41.019  22.177  27.729  1.00  0.00     0.016 A 
ATOM     29  C   UNL A   1      39.911  24.583  26.829  1.00  0.00     0.010 A 
ATOM     30  C   UNL A   1      41.520  23.401  28.196  1.00  0.00     0.010 A 
ATOM     31  C   UNL A   1      40.990  24.615  27.725  1.00  0.00    -0.014 A 
BRANCH  31  32
ATOM     32  C   UNL A   1      41.594  25.933  28.059  1.00  0.00     0.031 A 
ATOM     33  C   UNL A   1      42.951  26.298  27.518  1.00  0.00     0.074 A 
ATOM     34  C   UNL A   1      40.859  26.870  28.688  1.00  0.00     0.049 A 
ATOM     35  N   UNL A   1      43.610  27.426  27.630  1.00  0.00    -0.248 NA
ATOM     36  C   UNL A   1      43.643  25.276  26.719  1.00  0.00     0.031 C 
ATOM     37  C   UNL A   1      39.493  26.683  29.173  1.00  0.00     0.029 A 
ATOM     38  N   UNL A   1      41.137  28.187  28.973  1.00  0.00    -0.354 N 
ATOM     39  C   UNL A   1      44.797  27.242  26.935  1.00  0.00     0.074 A 
ATOM     40  C   UNL A   1      44.775  25.893  26.408  1.00  0.00     0.031 C 
ATOM     41  C   UNL A   1      39.029  27.854  29.638  1.00  0.00     0.029 A 
ATOM     42  C   UNL A   1      40.083  28.861  29.539  1.00  0.00     0.049 A 
ATOM     43  H   UNL A   1      42.008  28.605  28.789  1.00  0.00     0.167 HD
ATOM     44  C   UNL A   1      45.813  28.118  26.741  1.00  0.00     0.037 A 
ATOM     45  C   UNL A   1      39.976  30.143  29.940  1.00  0.00     0.037 A 
ATOM     46  C   UNL A   1      45.836  29.471  27.227  1.00  0.00     0.049 A 
ATOM     47  C   UNL A   1      41.154  31.067  29.791  1.00  0.00     0.074 A 
ATOM     48  C   UNL A   1      46.844  30.414  27.111  1.00  0.00     0.029 A 
ATOM     49  N   UNL A   1      44.795  30.082  27.909  1.00  0.00    -0.354 N 
ATOM     50  N   UNL A   1      42.302  30.855  29.196  1.00  0.00    -0.248 NA
ATOM     51  C   UNL A   1      41.024  32.404  30.389  1.00  0.00     0.031 C 
ATOM     52  C   UNL A   1      46.424  31.586  27.749  1.00  0.00     0.029 A 
ATOM     53  C   UNL A   1      45.142  31.385  28.233  1.00  0.00     0.049 A 
ATOM     54  H   UNL A   1      43.938  29.654  28.131  1.00  0.00     0.167 HD
ATOM     55  C   UNL A   1      43.029  32.030  29.345  1.00  0.00     0.074 A 
ATOM     56  C   UNL A   1      42.179  32.963  30.056  1.00  0.00     0.031 C 
ATOM     57  C   UNL A   1      44.293  32.304  28.942  1.00  0.00     0.037 A 
BRANCH  44  58
ATOM     58  C   UNL A   1      47.013  27.625  25.994  1.00  0.00     0.064 A 
ATOM     59  C   UNL A   1      47.097  27.709  24.597  1.00  0.00     0.173 A 
ATOM     60  C   UNL A   1      48.113  27.103  26.693  1.00  0.00     0.173 A 
ATOM     61  F   UNL A   1      46.068  28.192  23.887  1.00  0.00    -0.203 F 
ATOM     62  C   UNL A   1      48.236  27.272  23.925  1.00  0.00     0.198 A 
ATOM     63  C   UNL A   1      49.256  26.687  26.019  1.00  0.00     0.198 A 
ATOM     64  F   UNL A   1      48.079  27.010  28.030  1.00  0.00    -0.203 F 
ATOM     65  F   UNL A   1      48.288  27.334  22.586  1.00  0.00    -0.200 F 
ATOM     66  C   UNL A   1      49.316  26.768  24.636  1.00  0.00     0.200 A 
ATOM     67  F   UNL A   1      50.303  26.210  26.708  1.00  0.00    -0.200 F 
ATOM     68  F   UNL A   1      50.415  26.356  23.986  1.00  0.00    -0.200 F 
ENDBRANCH  44  58
BRANCH  45  69
ATOM     69  C   UNL A   1      38.707  30.636  30.538  1.00  0.00     0.064 A 
ATOM     70  C   UNL A   1      38.516  30.630  31.926  1.00  0.00     0.173 A 
ATOM     71  C   UNL A   1      37.655  31.097  29.736  1.00  0.00     0.173 A 
ATOM     72  F   UNL A   1      39.483  30.169  32.734  1.00  0.00    -0.203 F 
ATOM     73  C   UNL A   1      37.315  31.059  32.489  1.00  0.00     0.198 A 
ATOM     74  C   UNL A   1      36.466  31.554  30.300  1.00  0.00     0.198 A 
ATOM     75  F   UNL A   1      37.784  31.114  28.401  1.00  0.00    -0.203 F 
ATOM     76  F   UNL A   1      37.142  31.003  33.817  1.00  0.00    -0.200 F 
ATOM     77  C   UNL A   1      36.294  31.528  31.675  1.00  0.00     0.200 A 
ATOM     78  F   UNL A   1      35.486  32.015  29.511  1.00  0.00    -0.200 F 
ATOM     79  F   UNL A   1      35.142  31.945  32.216  1.00  0.00    -0.200 F 
ENDBRANCH  45  69
BRANCH  57  80
ATOM     80  C   UNL A   1      44.836  33.666  29.258  1.00  0.00     0.064 A 
ATOM     81  C   UNL A   1      45.465  33.932  30.484  1.00  0.00     0.173 A 
ATOM     82  C   UNL A   1      44.759  34.705  28.319  1.00  0.00     0.173 A 
ATOM     83  F   UNL A   1      45.549  32.975  31.419  1.00  0.00    -0.203 F 
ATOM     84  C   UNL A   1      45.978  35.196  30.766  1.00  0.00     0.198 A 
ATOM     85  C   UNL A   1      45.294  35.961  28.596  1.00  0.00     0.198 A 
ATOM     86  F   UNL A   1      44.171  34.500  27.130  1.00  0.00    -0.203 F 
ATOM     87  F   UNL A   1      46.536  35.438  31.959  1.00  0.00    -0.200 F 
ATOM     88  C   UNL A   1      45.896  36.207  29.820  1.00  0.00     0.200 A 
ATOM     89  F   UNL A   1      45.223  36.935  27.678  1.00  0.00    -0.200 F 
ATOM     90  F   UNL A   1      46.392  37.422  30.093  1.00  0.00    -0.200 F 
ENDBRANCH  57  80
ENDBRANCH  31  32
ENDBRANCH  24  26
ENDBRANCH  23  24
ENDBRANCH  22  23
ENDBRANCH   1  22
TORSDOF 16
ENDMDL
MODEL 2
REMARK VINA RESULT:     -11.3      5.859     10.871
REMARK SMILES CN(C)c1ccc(C(=O)N[C@@H](CO)C(=O)OCCOC(=O)c2ccc(-c3c4nc(c(-c5c(F)c(F)c(F)c(F)c5F)c5ccc([nH]5)c(-c5c(F)c(F)c(F)c(F)c5F)c5nc(c(-c6c(F)c(F)c(F)c(F)c6F)c6ccc3[nH]6)C=C5)C=C4)cc2)cn1
REMARK SMILES IDX 17 1 16 2 14 3 15 4 11 5 10 6 8 7 9 8 7 10 4 11 5 12 86 13
REMARK SMILES IDX 6 14 85 15 2 16 1 17 3 18 12 19 13 20 18 22 19 23 20 24
REMARK SMILES IDX 21 25 22 26 23 27 84 28 24 29 83 30 25 31 26 32 27 33 77 34
REMARK SMILES IDX 28 35 82 36 76 37 78 38 29 39 81 40 75 41 74 42 30 44 62 45
REMARK SMILES IDX 42 46 61 47 43 48 46 49 60 50 79 51 44 52 45 53 59 55 80 56
REMARK SMILES IDX 47 57 31 58 32 59 40 60 33 61 34 62 38 63 41 64 35 65 36 66
REMARK SMILES IDX 39 67 37 68 63 69 64 70 72 71 65 72 66 73 70 74 73 75 67 76
REMARK SMILES IDX 68 77 71 78 69 79 48 80 49 81 57 82 50 83 51 84 55 85 58 86
REMARK SMILES IDX 52 87 53 88 56 89 54 90
REMARK H PARENT 10 9 13 21 78 43 46 54
REMARK Flexibility Score: inf
ROOT
ATOM      1  C   UNL A   1      33.957  33.750  32.308  1.00  0.00     0.274 C 
ENDROOT
BRANCH   1   2
ATOM      2  O   UNL A   1      32.787  34.357  32.894  1.00  0.00    -0.460 OA
BRANCH   2   3
ATOM      3  C   UNL A   1      32.417  35.562  32.383  1.00  0.00     0.331 C 
ATOM      4  O   UNL A   1      31.270  35.998  32.367  1.00  0.00    -0.250 OA
BRANCH   3   5
ATOM      5  C   UNL A   1      33.598  36.351  31.803  1.00  0.00     0.218 C 
BRANCH   5   6
ATOM      6  N   UNL A   1      33.365  36.961  30.487  1.00  0.00    -0.337 N 
ATOM      7  C   UNL A   1      33.526  36.509  29.202  1.00  0.00     0.253 C 
ATOM      8  O   UNL A   1      33.275  37.292  28.287  1.00  0.00    -0.269 OA
ATOM      9  H   UNL A   1      33.025  37.883  30.538  1.00  0.00     0.164 HD
BRANCH   7  10
ATOM     10  C   UNL A   1      33.928  35.123  28.855  1.00  0.00     0.058 A 
ATOM     11  C   UNL A   1      34.356  32.450  28.173  1.00  0.00     0.127 A 
ATOM     12  C   UNL A   1      35.399  33.218  28.689  1.00  0.00     0.048 A 
ATOM     13  N   UNL A   1      33.141  32.993  27.965  1.00  0.00    -0.239 NA
ATOM     14  C   UNL A   1      35.194  34.568  29.002  1.00  0.00     0.019 A 
ATOM     15  C   UNL A   1      32.953  34.297  28.305  1.00  0.00     0.127 A 
BRANCH  11  16
ATOM     16  N   UNL A   1      34.581  31.102  27.882  1.00  0.00    -0.363 N 
ATOM     17  C   UNL A   1      33.594  30.533  26.974  1.00  0.00     0.144 C 
ATOM     18  C   UNL A   1      35.967  30.766  27.584  1.00  0.00     0.144 C 
ENDBRANCH  11  16
ENDBRANCH   7  10
ENDBRANCH   5   6
BRANCH   5  19
ATOM     19  C   UNL A   1      33.998  37.429  32.817  1.00  0.00     0.193 C 
BRANCH  19  20
ATOM     20  O   UNL A   1      33.363  37.213  34.078  1.00  0.00    -0.394 OA
ATOM     21  H   UNL A   1      32.425  37.448  34.013  1.00  0.00     0.210 HD
ENDBRANCH  19  20
ENDBRANCH   5  19
ENDBRANCH   3   5
ENDBRANCH   2   3
ENDBRANCH   1   2
BRANCH   1  22
ATOM     22  C   UNL A   1      34.864  33.160  33.389  1.00  0.00     0.275 C 
BRANCH  22  23
ATOM     23  O   UNL A   1      36.257  33.295  33.045  1.00  0.00    -0.458 OA
BRANCH  23  24
ATOM     24  C   UNL A   1      37.068  32.382  33.626  1.00  0.00     0.338 C 
ATOM     25  O   UNL A   1      37.086  32.045  34.800  1.00  0.00    -0.246 OA
BRANCH  24  26
ATOM     26  C   UNL A   1      37.880  31.702  32.611  1.00  0.00     0.060 A 
ATOM     27  C   UNL A   1      38.967  30.956  33.059  1.00  0.00     0.016 A 
ATOM     28  C   UNL A   1      37.684  31.918  31.246  1.00  0.00     0.016 A 
ATOM     29  C   UNL A   1      39.893  30.460  32.150  1.00  0.00     0.010 A 
ATOM     30  C   UNL A   1      38.607  31.398  30.327  1.00  0.00     0.010 A 
ATOM     31  C   UNL A   1      39.736  30.691  30.775  1.00  0.00    -0.014 A 
BRANCH  31  32
ATOM     32  C   UNL A   1      40.828  30.267  29.857  1.00  0.00     0.031 A 
ATOM     33  C   UNL A   1      42.029  31.153  29.654  1.00  0.00     0.074 A 
ATOM     34  C   UNL A   1      40.835  29.018  29.351  1.00  0.00     0.049 A 
ATOM     35  N   UNL A   1      43.117  30.924  28.959  1.00  0.00    -0.248 NA
ATOM     36  C   UNL A   1      42.022  32.449  30.349  1.00  0.00     0.031 C 
ATOM     37  C   UNL A   1      39.784  28.022  29.556  1.00  0.00     0.029 A 
ATOM     38  N   UNL A   1      41.785  28.354  28.612  1.00  0.00    -0.354 N 
ATOM     39  C   UNL A   1      43.911  32.051  29.118  1.00  0.00     0.074 A 
ATOM     40  C   UNL A   1      43.181  32.967  29.968  1.00  0.00     0.031 C 
ATOM     41  C   UNL A   1      40.174  26.857  29.012  1.00  0.00     0.029 A 
ATOM     42  C   UNL A   1      41.473  27.039  28.369  1.00  0.00     0.049 A 
ATOM     43  H   UNL A   1      42.611  28.781  28.288  1.00  0.00     0.167 HD
ATOM     44  C   UNL A   1      45.143  32.301  28.611  1.00  0.00     0.037 A 
ATOM     45  C   UNL A   1      42.151  26.086  27.700  1.00  0.00     0.037 A 
ATOM     46  C   UNL A   1      45.896  31.388  27.794  1.00  0.00     0.049 A 
ATOM     47  C   UNL A   1      43.477  26.421  27.073  1.00  0.00     0.074 A 
ATOM     48  C   UNL A   1      47.135  31.578  27.203  1.00  0.00     0.029 A 
ATOM     49  N   UNL A   1      45.490  30.105  27.463  1.00  0.00    -0.354 N 
ATOM     50  N   UNL A   1      44.184  27.521  27.169  1.00  0.00    -0.248 NA
ATOM     51  C   UNL A   1      44.089  25.386  26.227  1.00  0.00     0.031 C 
ATOM     52  C   UNL A   1      47.464  30.420  26.491  1.00  0.00     0.029 A 
ATOM     53  C   UNL A   1      46.447  29.496  26.666  1.00  0.00     0.049 A 
ATOM     54  H   UNL A   1      44.646  29.689  27.751  1.00  0.00     0.167 HD
ATOM     55  C   UNL A   1      45.322  27.309  26.400  1.00  0.00     0.074 A 
ATOM     56  C   UNL A   1      45.229  25.963  25.873  1.00  0.00     0.031 C 
ATOM     57  C   UNL A   1      46.344  28.160  26.144  1.00  0.00     0.037 A 
BRANCH  44  58
ATOM     58  C   UNL A   1      45.746  33.641  28.897  1.00  0.00     0.064 A 
ATOM     59  C   UNL A   1      46.578  33.854  30.005  1.00  0.00     0.173 A 
ATOM     60  C   UNL A   1      45.522  34.716  28.022  1.00  0.00     0.173 A 
ATOM     61  F   UNL A   1      46.812  32.858  30.873  1.00  0.00    -0.203 F 
ATOM     62  C   UNL A   1      47.153  35.101  30.236  1.00  0.00     0.198 A 
ATOM     63  C   UNL A   1      46.115  35.954  28.245  1.00  0.00     0.198 A 
ATOM     64  F   UNL A   1      44.739  34.557  26.946  1.00  0.00    -0.203 F 
ATOM     65  F   UNL A   1      47.923  35.294  31.316  1.00  0.00    -0.200 F 
ATOM     66  C   UNL A   1      46.926  36.147  29.353  1.00  0.00     0.200 A 
ATOM     67  F   UNL A   1      45.904  36.962  27.386  1.00  0.00    -0.200 F 
ATOM     68  F   UNL A   1      47.488  37.345  29.573  1.00  0.00    -0.200 F 
ENDBRANCH  44  58
BRANCH  45  69
ATOM     69  C   UNL A   1      41.586  24.717  27.571  1.00  0.00     0.064 A 
ATOM     70  C   UNL A   1      42.167  23.632  28.240  1.00  0.00     0.173 A 
ATOM     71  C   UNL A   1      40.472  24.463  26.758  1.00  0.00     0.173 A 
ATOM     72  F   UNL A   1      43.252  23.821  29.005  1.00  0.00    -0.203 F 
ATOM     73  C   UNL A   1      41.660  22.342  28.095  1.00  0.00     0.198 A 
ATOM     74  C   UNL A   1      39.948  23.178  26.635  1.00  0.00     0.198 A 
ATOM     75  F   UNL A   1      39.885  25.466  26.088  1.00  0.00    -0.203 F 
ATOM     76  F   UNL A   1      42.260  21.315  28.712  1.00  0.00    -0.200 F 
ATOM     77  C   UNL A   1      40.546  22.118  27.298  1.00  0.00     0.200 A 
ATOM     78  F   UNL A   1      38.866  22.968  25.874  1.00  0.00    -0.200 F 
ATOM     79  F   UNL A   1      40.056  20.879  27.162  1.00  0.00    -0.200 F 
ENDBRANCH  45  69
BRANCH  57  80
ATOM     80  C   UNL A   1      47.445  27.664  25.254  1.00  0.00     0.064 A 
ATOM     81  C   UNL A   1      47.407  27.869  23.866  1.00  0.00     0.173 A 
ATOM     82  C   UNL A   1      48.563  27.009  25.792  1.00  0.00     0.173 A 
ATOM     83  F   UNL A   1      46.352  28.475  23.303  1.00  0.00    -0.203 F 
ATOM     84  C   UNL A   1      48.439  27.416  23.047  1.00  0.00     0.198 A 
ATOM     85  C   UNL A   1      49.604  26.579  24.973  1.00  0.00     0.198 A 
ATOM     86  F   UNL A   1      48.649  26.794  27.114  1.00  0.00    -0.203 F 
ATOM     87  F   UNL A   1      48.361  27.584  21.721  1.00  0.00    -0.200 F 
ATOM     88  C   UNL A   1      49.538  26.776  23.602  1.00  0.00     0.200 A 
ATOM     89  F   UNL A   1      50.670  25.970  25.510  1.00  0.00    -0.200 F 
ATOM     90  F   UNL A   1      50.530  26.344  22.812  1.00  0.00    -0.200 F 
ENDBRANCH  57  80
ENDBRANCH  31  32
ENDBRANCH  24  26
ENDBRANCH  23  24
ENDBRANCH  22  23
ENDBRANCH   1  22
TORSDOF 16
ENDMDL
MODEL 3
REMARK VINA RESULT:     -11.2      4.776      9.753
REMARK SMILES CN(C)c1ccc(C(=O)N[C@@H](CO)C(=O)OCCOC(=O)c2ccc(-c3c4nc(c(-c5c(F)c(F)c(F)c(F)c5F)c5ccc([nH]5)c(-c5c(F)c(F)c(F)c(F)c5F)c5nc(c(-c6c(F)c(F)c(F)c(F)c6F)c6ccc3[nH]6)C=C5)C=C4)cc2)cn1
REMARK SMILES IDX 17 1 16 2 14 3 15 4 11 5 10 6 8 7 9 8 7 10 4 11 5 12 86 13
REMARK SMILES IDX 6 14 85 15 2 16 1 17 3 18 12 19 13 20 18 22 19 23 20 24
REMARK SMILES IDX 21 25 22 26 23 27 84 28 24 29 83 30 25 31 26 32 27 33 77 34
REMARK SMILES IDX 28 35 82 36 76 37 78 38 29 39 81 40 75 41 74 42 30 44 62 45
REMARK SMILES IDX 42 46 61 47 43 48 46 49 60 50 79 51 44 52 45 53 59 55 80 56
REMARK SMILES IDX 47 57 31 58 32 59 40 60 33 61 34 62 38 63 41 64 35 65 36 66
REMARK SMILES IDX 39 67 37 68 63 69 64 70 72 71 65 72 66 73 70 74 73 75 67 76
REMARK SMILES IDX 68 77 71 78 69 79 48 80 49 81 57 82 50 83 51 84 55 85 58 86
REMARK SMILES IDX 52 87 53 88 56 89 54 90
REMARK H PARENT 10 9 13 21 78 43 46 54
REMARK Flexibility Score: inf
ROOT
ATOM      1  C   UNL A   1      32.009  28.445  25.454  1.00  0.00     0.274 C 
ENDROOT
BRANCH   1   2
ATOM      2  O   UNL A   1      30.763  27.748  25.249  1.00  0.00    -0.460 OA
BRANCH   2   3
ATOM      3  C   UNL A   1      30.541  27.274  23.994  1.00  0.00     0.331 C 
ATOM      4  O   UNL A   1      29.832  26.310  23.720  1.00  0.00    -0.250 OA
BRANCH   3   5
ATOM      5  C   UNL A   1      31.285  28.072  22.915  1.00  0.00     0.218 C 
BRANCH   5   6
ATOM      6  N   UNL A   1      31.903  27.272  21.851  1.00  0.00    -0.337 N 
ATOM      7  C   UNL A   1      32.748  26.191  21.859  1.00  0.00     0.253 C 
ATOM      8  O   UNL A   1      33.132  25.758  20.773  1.00  0.00    -0.269 OA
ATOM      9  H   UNL A   1      31.663  27.573  20.945  1.00  0.00     0.164 HD
BRANCH   7  10
ATOM     10  C   UNL A   1      33.179  25.485  23.092  1.00  0.00     0.058 A 
ATOM     11  C   UNL A   1      33.739  23.940  25.349  1.00  0.00     0.127 A 
ATOM     12  C   UNL A   1      34.311  25.203  25.203  1.00  0.00     0.048 A 
ATOM     13  N   UNL A   1      32.937  23.435  24.391  1.00  0.00    -0.239 NA
ATOM     14  C   UNL A   1      34.056  25.966  24.057  1.00  0.00     0.019 A 
ATOM     15  C   UNL A   1      32.676  24.205  23.300  1.00  0.00     0.127 A 
BRANCH  11  16
ATOM     16  N   UNL A   1      33.997  23.203  26.507  1.00  0.00    -0.363 N 
ATOM     17  C   UNL A   1      32.791  22.808  27.223  1.00  0.00     0.144 C 
ATOM     18  C   UNL A   1      34.999  22.157  26.354  1.00  0.00     0.144 C 
ENDBRANCH  11  16
ENDBRANCH   7  10
ENDBRANCH   5   6
BRANCH   5  19
ATOM     19  C   UNL A   1      30.306  29.084  22.309  1.00  0.00     0.193 C 
BRANCH  19  20
ATOM     20  O   UNL A   1      30.959  29.930  21.360  1.00  0.00    -0.394 OA
ATOM     21  H   UNL A   1      30.976  29.494  20.495  1.00  0.00     0.210 HD
ENDBRANCH  19  20
ENDBRANCH   5  19
ENDBRANCH   3   5
ENDBRANCH   2   3
ENDBRANCH   1   2
BRANCH   1  22
ATOM     22  C   UNL A   1      31.762  29.864  25.970  1.00  0.00     0.275 C 
BRANCH  22  23
ATOM     23  O   UNL A   1      32.437  30.099  27.221  1.00  0.00    -0.458 OA
BRANCH  23  24
ATOM     24  C   UNL A   1      33.084  31.284  27.293  1.00  0.00     0.338 C 
ATOM     25  O   UNL A   1      32.601  32.402  27.186  1.00  0.00    -0.246 OA
BRANCH  24  26
ATOM     26  C   UNL A   1      34.486  31.078  27.669  1.00  0.00     0.060 A 
ATOM     27  C   UNL A   1      34.909  29.765  27.863  1.00  0.00     0.016 A 
ATOM     28  C   UNL A   1      35.329  32.146  27.983  1.00  0.00     0.016 A 
ATOM     29  C   UNL A   1      36.158  29.510  28.416  1.00  0.00     0.010 A 
ATOM     30  C   UNL A   1      36.598  31.887  28.521  1.00  0.00     0.010 A 
ATOM     31  C   UNL A   1      37.010  30.567  28.770  1.00  0.00    -0.014 A 
BRANCH  31  32
ATOM     32  C   UNL A   1      38.271  30.247  29.492  1.00  0.00     0.031 A 
ATOM     33  C   UNL A   1      38.464  30.708  30.912  1.00  0.00     0.074 A 
ATOM     34  C   UNL A   1      39.161  29.394  28.947  1.00  0.00     0.049 A 
ATOM     35  N   UNL A   1      39.457  30.462  31.734  1.00  0.00    -0.248 NA
ATOM     36  C   UNL A   1      37.388  31.522  31.497  1.00  0.00     0.031 C 
ATOM     37  C   UNL A   1      39.044  28.791  27.620  1.00  0.00     0.029 A 
ATOM     38  N   UNL A   1      40.307  28.840  29.466  1.00  0.00    -0.354 N 
ATOM     39  C   UNL A   1      39.134  31.105  32.921  1.00  0.00     0.074 A 
ATOM     40  C   UNL A   1      37.858  31.758  32.715  1.00  0.00     0.031 C 
ATOM     41  C   UNL A   1      40.039  27.906  27.453  1.00  0.00     0.029 A 
ATOM     42  C   UNL A   1      40.898  27.921  28.634  1.00  0.00     0.049 A 
ATOM     43  H   UNL A   1      40.669  29.079  30.349  1.00  0.00     0.167 HD
ATOM     44  C   UNL A   1      39.829  31.143  34.083  1.00  0.00     0.037 A 
ATOM     45  C   UNL A   1      42.010  27.177  28.799  1.00  0.00     0.037 A 
ATOM     46  C   UNL A   1      41.080  30.471  34.315  1.00  0.00     0.049 A 
ATOM     47  C   UNL A   1      42.809  27.308  30.067  1.00  0.00     0.074 A 
ATOM     48  C   UNL A   1      41.873  30.491  35.451  1.00  0.00     0.029 A 
ATOM     49  N   UNL A   1      41.714  29.646  33.400  1.00  0.00    -0.354 N 
ATOM     50  N   UNL A   1      42.528  27.981  31.156  1.00  0.00    -0.248 NA
ATOM     51  C   UNL A   1      44.090  26.588  30.119  1.00  0.00     0.031 C 
ATOM     52  C   UNL A   1      43.002  29.700  35.211  1.00  0.00     0.029 A 
ATOM     53  C   UNL A   1      42.895  29.161  33.940  1.00  0.00     0.049 A 
ATOM     54  H   UNL A   1      41.376  29.436  32.500  1.00  0.00     0.167 HD
ATOM     55  C   UNL A   1      43.594  27.765  32.021  1.00  0.00     0.074 A 
ATOM     56  C   UNL A   1      44.510  26.870  31.344  1.00  0.00     0.031 C 
ATOM     57  C   UNL A   1      43.801  28.275  33.259  1.00  0.00     0.037 A 
BRANCH  44  58
ATOM     58  C   UNL A   1      39.266  31.973  35.195  1.00  0.00     0.064 A 
ATOM     59  C   UNL A   1      38.467  31.414  36.201  1.00  0.00     0.173 A 
ATOM     60  C   UNL A   1      39.571  33.341  35.276  1.00  0.00     0.173 A 
ATOM     61  F   UNL A   1      38.143  30.114  36.160  1.00  0.00    -0.203 F 
ATOM     62  C   UNL A   1      37.980  32.199  37.242  1.00  0.00     0.198 A 
ATOM     63  C   UNL A   1      39.099  34.117  36.329  1.00  0.00     0.198 A 
ATOM     64  F   UNL A   1      40.338  33.918  34.339  1.00  0.00    -0.203 F 
ATOM     65  F   UNL A   1      37.193  31.654  38.181  1.00  0.00    -0.200 F 
ATOM     66  C   UNL A   1      38.301  33.548  37.309  1.00  0.00     0.200 A 
ATOM     67  F   UNL A   1      39.419  35.418  36.398  1.00  0.00    -0.200 F 
ATOM     68  F   UNL A   1      37.837  34.300  38.318  1.00  0.00    -0.200 F 
ENDBRANCH  44  58
BRANCH  45  69
ATOM     69  C   UNL A   1      42.451  26.244  27.729  1.00  0.00     0.064 A 
ATOM     70  C   UNL A   1      43.356  26.657  26.742  1.00  0.00     0.173 A 
ATOM     71  C   UNL A   1      41.958  24.933  27.656  1.00  0.00     0.173 A 
ATOM     72  F   UNL A   1      43.831  27.911  26.752  1.00  0.00    -0.203 F 
ATOM     73  C   UNL A   1      43.745  25.796  25.718  1.00  0.00     0.198 A 
ATOM     74  C   UNL A   1      42.369  24.064  26.649  1.00  0.00     0.198 A 
ATOM     75  F   UNL A   1      41.082  24.493  28.571  1.00  0.00    -0.203 F 
ATOM     76  F   UNL A   1      44.580  26.228  24.762  1.00  0.00    -0.200 F 
ATOM     77  C   UNL A   1      43.258  24.498  25.676  1.00  0.00     0.200 A 
ATOM     78  F   UNL A   1      41.904  22.808  26.619  1.00  0.00    -0.200 F 
ATOM     79  F   UNL A   1      43.635  23.669  24.695  1.00  0.00    -0.200 F 
ENDBRANCH  45  69
BRANCH  57  80
ATOM     80  C   UNL A   1      45.064  27.879  33.964  1.00  0.00     0.064 A 
ATOM     81  C   UNL A   1      45.112  26.746  34.791  1.00  0.00     0.173 A 
ATOM     82  C   UNL A   1      46.246  28.615  33.788  1.00  0.00     0.173 A 
ATOM     83  F   UNL A   1      44.005  26.020  35.003  1.00  0.00    -0.203 F 
ATOM     84  C   UNL A   1      46.291  26.378  35.433  1.00  0.00     0.198 A 
ATOM     85  C   UNL A   1      47.429  28.230  34.412  1.00  0.00     0.198 A 
ATOM     86  F   UNL A   1      46.253  29.703  33.003  1.00  0.00    -0.203 F 
ATOM     87  F   UNL A   1      46.302  25.318  36.252  1.00  0.00    -0.200 F 
ATOM     88  C   UNL A   1      47.449  27.117  35.239  1.00  0.00     0.200 A 
ATOM     89  F   UNL A   1      48.549  28.938  34.217  1.00  0.00    -0.200 F 
ATOM     90  F   UNL A   1      48.584  26.759  35.856  1.00  0.00    -0.200 F 
ENDBRANCH  57  80
ENDBRANCH  31  32
ENDBRANCH  24  26
ENDBRANCH  23  24
ENDBRANCH  22  23
ENDBRANCH   1  22
TORSDOF 16
ENDMDL
