MODEL 1
REMARK VINA RESULT:     -10.9      0.000      0.000
REMARK SMILES Cc1cc(NS(=O)(=O)CC(=O)OCCOC(=O)c2ccc(-c3c4nc(c(-c5c(F)c(F)c(F)c(F)c5F)c5ccc([nH]5)c(-c5c(F)c(F)c(F)c(F)c5F)c5nc(c(-c6c(F)c(F)c(F)c(F)c6F)c6ccc3[nH]6)C=C5)C=C4)cc2)ccn1
REMARK SMILES IDX 13 1 12 2 10 3 11 4 9 5 6 6 7 7 8 8 5 9 4 11 1 12 2 13 3 14
REMARK SMILES IDX 83 15 82 16 81 17 14 18 15 19 16 20 17 21 18 22 19 23 80 24
REMARK SMILES IDX 20 25 79 26 21 27 22 28 23 29 73 30 24 31 78 32 72 33 74 34
REMARK SMILES IDX 25 35 77 36 71 37 70 38 26 40 58 41 38 42 57 43 39 44 42 45
REMARK SMILES IDX 56 46 75 47 40 48 41 49 55 51 76 52 43 53 27 54 28 55 36 56
REMARK SMILES IDX 29 57 30 58 34 59 37 60 31 61 32 62 35 63 33 64 59 65 60 66
REMARK SMILES IDX 68 67 61 68 62 69 66 70 69 71 63 72 64 73 67 74 65 75 44 76
REMARK SMILES IDX 45 77 53 78 46 79 47 80 51 81 54 82 48 83 49 84 52 85 50 86
REMARK H PARENT 5 10 74 39 42 50
REMARK Flexibility Score: inf
ROOT
ATOM      1  C   UNL A   1      33.786  34.156  28.454  1.00  0.00     0.274 C 
ENDROOT
BRANCH   1   2
ATOM      2  O   UNL A   1      33.170  34.610  29.684  1.00  0.00    -0.461 OA
BRANCH   2   3
ATOM      3  C   UNL A   1      32.854  35.923  29.728  1.00  0.00     0.323 C 
ATOM      4  O   UNL A   1      32.180  36.483  28.861  1.00  0.00    -0.251 OA
BRANCH   3   5
ATOM      5  C   UNL A   1      33.308  36.703  30.905  1.00  0.00     0.282 C 
BRANCH   5   6
ATOM      6  S   UNL A   1      32.715  36.258  32.499  1.00  0.00     0.243 S 
ATOM      7  O   UNL A   1      31.267  36.249  32.419  1.00  0.00    -0.206 OA
ATOM      8  O   UNL A   1      33.373  37.094  33.482  1.00  0.00    -0.206 OA
BRANCH   6   9
ATOM      9  N   UNL A   1      33.226  34.703  32.777  1.00  0.00    -0.283 N 
ATOM     10  H   UNL A   1      32.542  33.996  32.732  1.00  0.00     0.180 HD
BRANCH   9  11
ATOM     11  C   UNL A   1      34.563  34.292  33.078  1.00  0.00     0.052 A 
ATOM     12  C   UNL A   1      37.368  32.756  31.068  1.00  0.00     0.067 C 
ATOM     13  C   UNL A   1      36.592  33.328  32.217  1.00  0.00     0.039 A 
ATOM     14  C   UNL A   1      35.348  33.904  31.990  1.00  0.00     0.050 A 
ATOM     15  N   UNL A   1      37.117  33.210  33.455  1.00  0.00    -0.261 NA
ATOM     16  C   UNL A   1      36.379  33.681  34.484  1.00  0.00     0.113 A 
ATOM     17  C   UNL A   1      35.114  34.232  34.350  1.00  0.00     0.047 A 
ENDBRANCH   9  11
ENDBRANCH   6   9
ENDBRANCH   5   6
ENDBRANCH   3   5
ENDBRANCH   2   3
ENDBRANCH   1   2
BRANCH   1  18
ATOM     18  C   UNL A   1      33.705  32.635  28.269  1.00  0.00     0.275 C 
BRANCH  18  19
ATOM     19  O   UNL A   1      34.939  31.964  28.602  1.00  0.00    -0.458 OA
BRANCH  19  20
ATOM     20  C   UNL A   1      34.998  30.709  28.109  1.00  0.00     0.338 C 
ATOM     21  O   UNL A   1      34.118  30.162  27.468  1.00  0.00    -0.246 OA
BRANCH  20  22
ATOM     22  C   UNL A   1      36.253  30.015  28.425  1.00  0.00     0.060 A 
ATOM     23  C   UNL A   1      36.452  29.472  29.698  1.00  0.00     0.016 A 
ATOM     24  C   UNL A   1      37.314  30.128  27.528  1.00  0.00     0.016 A 
ATOM     25  C   UNL A   1      37.734  29.072  30.087  1.00  0.00     0.010 A 
ATOM     26  C   UNL A   1      38.588  29.702  27.910  1.00  0.00     0.010 A 
ATOM     27  C   UNL A   1      38.814  29.194  29.199  1.00  0.00    -0.014 A 
BRANCH  27  28
ATOM     28  C   UNL A   1      40.185  28.767  29.580  1.00  0.00     0.031 A 
ATOM     29  C   UNL A   1      41.108  29.694  30.319  1.00  0.00     0.074 A 
ATOM     30  C   UNL A   1      40.622  27.553  29.199  1.00  0.00     0.049 A 
ATOM     31  N   UNL A   1      42.378  29.546  30.608  1.00  0.00    -0.248 NA
ATOM     32  C   UNL A   1      40.524  30.946  30.815  1.00  0.00     0.031 C 
ATOM     33  C   UNL A   1      39.815  26.548  28.510  1.00  0.00     0.029 A 
ATOM     34  N   UNL A   1      41.865  26.980  29.300  1.00  0.00    -0.354 N 
ATOM     35  C   UNL A   1      42.737  30.675  31.334  1.00  0.00     0.074 A 
ATOM     36  C   UNL A   1      41.558  31.510  31.426  1.00  0.00     0.031 C 
ATOM     37  C   UNL A   1      40.593  25.496  28.212  1.00  0.00     0.029 A 
ATOM     38  C   UNL A   1      41.960  25.780  28.641  1.00  0.00     0.049 A 
ATOM     39  H   UNL A   1      42.611  27.387  29.796  1.00  0.00     0.167 HD
ATOM     40  C   UNL A   1      43.942  30.983  31.872  1.00  0.00     0.037 A 
ATOM     41  C   UNL A   1      43.035  25.022  28.358  1.00  0.00     0.037 A 
ATOM     42  C   UNL A   1      45.125  30.174  31.737  1.00  0.00     0.049 A 
ATOM     43  C   UNL A   1      44.393  25.455  28.829  1.00  0.00     0.074 A 
ATOM     44  C   UNL A   1      46.393  30.403  32.243  1.00  0.00     0.029 A 
ATOM     45  N   UNL A   1      45.190  28.990  31.020  1.00  0.00    -0.354 N 
ATOM     46  N   UNL A   1      44.724  26.516  29.525  1.00  0.00    -0.248 NA
ATOM     47  C   UNL A   1      45.527  24.594  28.470  1.00  0.00     0.031 C 
ATOM     48  C   UNL A   1      47.237  29.382  31.790  1.00  0.00     0.029 A 
ATOM     49  C   UNL A   1      46.484  28.494  31.039  1.00  0.00     0.049 A 
ATOM     50  H   UNL A   1      44.428  28.562  30.563  1.00  0.00     0.167 HD
ATOM     51  C   UNL A   1      46.096  26.438  29.710  1.00  0.00     0.074 A 
ATOM     52  C   UNL A   1      46.539  25.227  29.050  1.00  0.00     0.031 C 
ATOM     53  C   UNL A   1      46.912  27.290  30.377  1.00  0.00     0.037 A 
BRANCH  40  54
ATOM     54  C   UNL A   1      44.056  32.264  32.641  1.00  0.00     0.064 A 
ATOM     55  C   UNL A   1      44.320  33.482  31.996  1.00  0.00     0.173 A 
ATOM     56  C   UNL A   1      43.823  32.289  34.024  1.00  0.00     0.173 A 
ATOM     57  F   UNL A   1      44.552  33.509  30.675  1.00  0.00    -0.203 F 
ATOM     58  C   UNL A   1      44.352  34.677  32.711  1.00  0.00     0.198 A 
ATOM     59  C   UNL A   1      43.839  33.488  34.732  1.00  0.00     0.198 A 
ATOM     60  F   UNL A   1      43.558  31.151  34.684  1.00  0.00    -0.203 F 
ATOM     61  F   UNL A   1      44.619  35.829  32.078  1.00  0.00    -0.200 F 
ATOM     62  C   UNL A   1      44.105  34.680  34.076  1.00  0.00     0.200 A 
ATOM     63  F   UNL A   1      43.587  33.491  36.049  1.00  0.00    -0.200 F 
ATOM     64  F   UNL A   1      44.120  35.833  34.759  1.00  0.00    -0.200 F 
ENDBRANCH  40  54
BRANCH  41  65
ATOM     65  C   UNL A   1      42.857  23.801  27.537  1.00  0.00     0.064 A 
ATOM     66  C   UNL A   1      43.106  23.811  26.159  1.00  0.00     0.173 A 
ATOM     67  C   UNL A   1      42.484  22.584  28.129  1.00  0.00     0.173 A 
ATOM     68  F   UNL A   1      43.442  24.957  25.549  1.00  0.00    -0.203 F 
ATOM     69  C   UNL A   1      42.994  22.647  25.403  1.00  0.00     0.198 A 
ATOM     70  C   UNL A   1      42.398  21.416  27.376  1.00  0.00     0.198 A 
ATOM     71  F   UNL A   1      42.236  22.526  29.445  1.00  0.00    -0.203 F 
ATOM     72  F   UNL A   1      43.221  22.684  24.083  1.00  0.00    -0.200 F 
ATOM     73  C   UNL A   1      42.652  21.448  26.013  1.00  0.00     0.200 A 
ATOM     74  F   UNL A   1      42.081  20.258  27.973  1.00  0.00    -0.200 F 
ATOM     75  F   UNL A   1      42.566  20.325  25.289  1.00  0.00    -0.200 F 
ENDBRANCH  41  65
BRANCH  53  76
ATOM     76  C   UNL A   1      48.363  26.929  30.456  1.00  0.00     0.064 A 
ATOM     77  C   UNL A   1      48.846  26.038  31.424  1.00  0.00     0.173 A 
ATOM     78  C   UNL A   1      49.274  27.448  29.524  1.00  0.00     0.173 A 
ATOM     79  F   UNL A   1      48.015  25.529  32.347  1.00  0.00    -0.203 F 
ATOM     80  C   UNL A   1      50.193  25.690  31.465  1.00  0.00     0.198 A 
ATOM     81  C   UNL A   1      50.616  27.081  29.554  1.00  0.00     0.198 A 
ATOM     82  F   UNL A   1      48.858  28.302  28.576  1.00  0.00    -0.203 F 
ATOM     83  F   UNL A   1      50.640  24.862  32.419  1.00  0.00    -0.200 F 
ATOM     84  C   UNL A   1      51.075  26.207  30.527  1.00  0.00     0.200 A 
ATOM     85  F   UNL A   1      51.465  27.576  28.643  1.00  0.00    -0.200 F 
ATOM     86  F   UNL A   1      52.370  25.866  30.565  1.00  0.00    -0.200 F 
ENDBRANCH  53  76
ENDBRANCH  27  28
ENDBRANCH  20  22
ENDBRANCH  19  20
ENDBRANCH  18  19
ENDBRANCH   1  18
TORSDOF 14
ENDMDL
MODEL 2
REMARK VINA RESULT:     -10.6      2.077      7.738
REMARK SMILES Cc1cc(NS(=O)(=O)CC(=O)OCCOC(=O)c2ccc(-c3c4nc(c(-c5c(F)c(F)c(F)c(F)c5F)c5ccc([nH]5)c(-c5c(F)c(F)c(F)c(F)c5F)c5nc(c(-c6c(F)c(F)c(F)c(F)c6F)c6ccc3[nH]6)C=C5)C=C4)cc2)ccn1
REMARK SMILES IDX 13 1 12 2 10 3 11 4 9 5 6 6 7 7 8 8 5 9 4 11 1 12 2 13 3 14
REMARK SMILES IDX 83 15 82 16 81 17 14 18 15 19 16 20 17 21 18 22 19 23 80 24
REMARK SMILES IDX 20 25 79 26 21 27 22 28 23 29 73 30 24 31 78 32 72 33 74 34
REMARK SMILES IDX 25 35 77 36 71 37 70 38 26 40 58 41 38 42 57 43 39 44 42 45
REMARK SMILES IDX 56 46 75 47 40 48 41 49 55 51 76 52 43 53 27 54 28 55 36 56
REMARK SMILES IDX 29 57 30 58 34 59 37 60 31 61 32 62 35 63 33 64 59 65 60 66
REMARK SMILES IDX 68 67 61 68 62 69 66 70 69 71 63 72 64 73 67 74 65 75 44 76
REMARK SMILES IDX 45 77 53 78 46 79 47 80 51 81 54 82 48 83 49 84 52 85 50 86
REMARK H PARENT 5 10 74 39 42 50
REMARK Flexibility Score: inf
ROOT
ATOM      1  C   UNL A   1      33.384  33.977  28.071  1.00  0.00     0.274 C 
ENDROOT
BRANCH   1   2
ATOM      2  O   UNL A   1      32.574  34.501  29.151  1.00  0.00    -0.461 OA
BRANCH   2   3
ATOM      3  C   UNL A   1      32.939  35.716  29.617  1.00  0.00     0.323 C 
ATOM      4  O   UNL A   1      32.657  36.769  29.044  1.00  0.00    -0.251 OA
BRANCH   3   5
ATOM      5  C   UNL A   1      33.674  35.769  30.904  1.00  0.00     0.282 C 
BRANCH   5   6
ATOM      6  S   UNL A   1      32.769  36.035  32.388  1.00  0.00     0.243 S 
ATOM      7  O   UNL A   1      31.606  35.169  32.328  1.00  0.00    -0.206 OA
ATOM      8  O   UNL A   1      32.591  37.461  32.567  1.00  0.00    -0.206 OA
BRANCH   6   9
ATOM      9  N   UNL A   1      33.736  35.514  33.633  1.00  0.00    -0.283 N 
ATOM     10  H   UNL A   1      33.624  35.965  34.501  1.00  0.00     0.180 HD
BRANCH   9  11
ATOM     11  C   UNL A   1      34.716  34.474  33.565  1.00  0.00     0.052 A 
ATOM     12  C   UNL A   1      38.447  34.323  34.139  1.00  0.00     0.067 C 
ATOM     13  C   UNL A   1      37.042  33.910  33.816  1.00  0.00     0.039 A 
ATOM     14  C   UNL A   1      35.997  34.805  34.013  1.00  0.00     0.050 A 
ATOM     15  N   UNL A   1      36.850  32.684  33.286  1.00  0.00    -0.261 NA
ATOM     16  C   UNL A   1      35.584  32.349  32.949  1.00  0.00     0.113 A 
ATOM     17  C   UNL A   1      34.494  33.196  33.076  1.00  0.00     0.047 A 
ENDBRANCH   9  11
ENDBRANCH   6   9
ENDBRANCH   5   6
ENDBRANCH   3   5
ENDBRANCH   2   3
ENDBRANCH   1   2
BRANCH   1  18
ATOM     18  C   UNL A   1      34.182  32.729  28.470  1.00  0.00     0.275 C 
BRANCH  18  19
ATOM     19  O   UNL A   1      34.601  31.944  27.334  1.00  0.00    -0.458 OA
BRANCH  19  20
ATOM     20  C   UNL A   1      34.523  30.616  27.563  1.00  0.00     0.338 C 
ATOM     21  O   UNL A   1      33.532  29.928  27.395  1.00  0.00    -0.246 OA
BRANCH  20  22
ATOM     22  C   UNL A   1      35.776  30.036  28.065  1.00  0.00     0.060 A 
ATOM     23  C   UNL A   1      35.861  29.587  29.385  1.00  0.00     0.016 A 
ATOM     24  C   UNL A   1      36.925  30.173  27.286  1.00  0.00     0.016 A 
ATOM     25  C   UNL A   1      37.114  29.306  29.942  1.00  0.00     0.010 A 
ATOM     26  C   UNL A   1      38.171  29.865  27.835  1.00  0.00     0.010 A 
ATOM     27  C   UNL A   1      38.279  29.453  29.174  1.00  0.00    -0.014 A 
BRANCH  27  28
ATOM     28  C   UNL A   1      39.621  29.152  29.734  1.00  0.00     0.031 A 
ATOM     29  C   UNL A   1      40.409  27.962  29.263  1.00  0.00     0.074 A 
ATOM     30  C   UNL A   1      40.105  29.924  30.724  1.00  0.00     0.049 A 
ATOM     31  N   UNL A   1      41.526  27.466  29.734  1.00  0.00    -0.248 NA
ATOM     32  C   UNL A   1      39.882  27.245  28.096  1.00  0.00     0.031 C 
ATOM     33  C   UNL A   1      39.457  31.126  31.245  1.00  0.00     0.029 A 
ATOM     34  N   UNL A   1      41.233  29.786  31.492  1.00  0.00    -0.354 N 
ATOM     35  C   UNL A   1      41.843  26.393  28.911  1.00  0.00     0.074 A 
ATOM     36  C   UNL A   1      40.791  26.295  27.921  1.00  0.00     0.031 C 
ATOM     37  C   UNL A   1      40.175  31.594  32.277  1.00  0.00     0.029 A 
ATOM     38  C   UNL A   1      41.299  30.694  32.519  1.00  0.00     0.049 A 
ATOM     39  H   UNL A   1      41.925  29.106  31.324  1.00  0.00     0.167 HD
ATOM     40  C   UNL A   1      42.915  25.566  28.979  1.00  0.00     0.037 A 
ATOM     41  C   UNL A   1      42.133  30.760  33.574  1.00  0.00     0.037 A 
ATOM     42  C   UNL A   1      43.934  25.636  29.993  1.00  0.00     0.049 A 
ATOM     43  C   UNL A   1      43.226  29.741  33.721  1.00  0.00     0.074 A 
ATOM     44  C   UNL A   1      45.057  24.841  30.148  1.00  0.00     0.029 A 
ATOM     45  N   UNL A   1      43.938  26.540  31.044  1.00  0.00    -0.354 N 
ATOM     46  N   UNL A   1      43.528  28.738  32.934  1.00  0.00    -0.248 NA
ATOM     47  C   UNL A   1      44.088  29.858  34.905  1.00  0.00     0.031 C 
ATOM     48  C   UNL A   1      45.713  25.233  31.321  1.00  0.00     0.029 A 
ATOM     49  C   UNL A   1      45.023  26.300  31.872  1.00  0.00     0.049 A 
ATOM     50  H   UNL A   1      43.268  27.249  31.182  1.00  0.00     0.167 HD
ATOM     51  C   UNL A   1      44.627  28.119  33.510  1.00  0.00     0.074 A 
ATOM     52  C   UNL A   1      44.940  28.858  34.716  1.00  0.00     0.031 C 
ATOM     53  C   UNL A   1      45.321  27.041  33.069  1.00  0.00     0.037 A 
BRANCH  40  54
ATOM     54  C   UNL A   1      43.036  24.493  27.940  1.00  0.00     0.064 A 
ATOM     55  C   UNL A   1      43.620  24.749  26.690  1.00  0.00     0.173 A 
ATOM     56  C   UNL A   1      42.635  23.178  28.222  1.00  0.00     0.173 A 
ATOM     57  F   UNL A   1      44.017  25.991  26.373  1.00  0.00    -0.203 F 
ATOM     58  C   UNL A   1      43.793  23.727  25.759  1.00  0.00     0.198 A 
ATOM     59  C   UNL A   1      42.826  22.157  27.295  1.00  0.00     0.198 A 
ATOM     60  F   UNL A   1      42.079  22.882  29.407  1.00  0.00    -0.203 F 
ATOM     61  F   UNL A   1      44.342  23.995  24.566  1.00  0.00    -0.200 F 
ATOM     62  C   UNL A   1      43.402  22.432  26.065  1.00  0.00     0.200 A 
ATOM     63  F   UNL A   1      42.459  20.903  27.597  1.00  0.00    -0.200 F 
ATOM     64  F   UNL A   1      43.585  21.447  25.174  1.00  0.00    -0.200 F 
ENDBRANCH  40  54
BRANCH  41  65
ATOM     65  C   UNL A   1      41.914  31.810  34.597  1.00  0.00     0.064 A 
ATOM     66  C   UNL A   1      42.551  33.054  34.506  1.00  0.00     0.173 A 
ATOM     67  C   UNL A   1      41.019  31.606  35.659  1.00  0.00     0.173 A 
ATOM     68  F   UNL A   1      43.432  33.284  33.521  1.00  0.00    -0.203 F 
ATOM     69  C   UNL A   1      42.296  34.058  35.437  1.00  0.00     0.198 A 
ATOM     70  C   UNL A   1      40.746  32.619  36.573  1.00  0.00     0.198 A 
ATOM     71  F   UNL A   1      40.386  30.431  35.786  1.00  0.00    -0.203 F 
ATOM     72  F   UNL A   1      42.930  35.235  35.340  1.00  0.00    -0.200 F 
ATOM     73  C   UNL A   1      41.386  33.845  36.463  1.00  0.00     0.200 A 
ATOM     74  F   UNL A   1      39.856  32.413  37.553  1.00  0.00    -0.200 F 
ATOM     75  F   UNL A   1      41.126  34.819  37.344  1.00  0.00    -0.200 F 
ENDBRANCH  41  65
BRANCH  53  76
ATOM     76  C   UNL A   1      46.507  26.612  33.877  1.00  0.00     0.064 A 
ATOM     77  C   UNL A   1      46.398  25.641  34.881  1.00  0.00     0.173 A 
ATOM     78  C   UNL A   1      47.776  27.149  33.613  1.00  0.00     0.173 A 
ATOM     79  F   UNL A   1      45.202  25.112  35.181  1.00  0.00    -0.203 F 
ATOM     80  C   UNL A   1      47.516  25.232  35.603  1.00  0.00     0.198 A 
ATOM     81  C   UNL A   1      48.895  26.722  34.321  1.00  0.00     0.198 A 
ATOM     82  F   UNL A   1      47.930  28.080  32.658  1.00  0.00    -0.203 F 
ATOM     83  F   UNL A   1      47.385  24.325  36.581  1.00  0.00    -0.200 F 
ATOM     84  C   UNL A   1      48.764  25.768  35.317  1.00  0.00     0.200 A 
ATOM     85  F   UNL A   1      50.101  27.236  34.039  1.00  0.00    -0.200 F 
ATOM     86  F   UNL A   1      49.840  25.368  36.009  1.00  0.00    -0.200 F 
ENDBRANCH  53  76
ENDBRANCH  27  28
ENDBRANCH  20  22
ENDBRANCH  19  20
ENDBRANCH  18  19
ENDBRANCH   1  18
TORSDOF 14
ENDMDL
MODEL 3
REMARK VINA RESULT:     -10.6      5.516     11.042
REMARK SMILES Cc1cc(NS(=O)(=O)CC(=O)OCCOC(=O)c2ccc(-c3c4nc(c(-c5c(F)c(F)c(F)c(F)c5F)c5ccc([nH]5)c(-c5c(F)c(F)c(F)c(F)c5F)c5nc(c(-c6c(F)c(F)c(F)c(F)c6F)c6ccc3[nH]6)C=C5)C=C4)cc2)ccn1
REMARK SMILES IDX 13 1 12 2 10 3 11 4 9 5 6 6 7 7 8 8 5 9 4 11 1 12 2 13 3 14
REMARK SMILES IDX 83 15 82 16 81 17 14 18 15 19 16 20 17 21 18 22 19 23 80 24
REMARK SMILES IDX 20 25 79 26 21 27 22 28 23 29 73 30 24 31 78 32 72 33 74 34
REMARK SMILES IDX 25 35 77 36 71 37 70 38 26 40 58 41 38 42 57 43 39 44 42 45
REMARK SMILES IDX 56 46 75 47 40 48 41 49 55 51 76 52 43 53 27 54 28 55 36 56
REMARK SMILES IDX 29 57 30 58 34 59 37 60 31 61 32 62 35 63 33 64 59 65 60 66
REMARK SMILES IDX 68 67 61 68 62 69 66 70 69 71 63 72 64 73 67 74 65 75 44 76
REMARK SMILES IDX 45 77 53 78 46 79 47 80 51 81 54 82 48 83 49 84 52 85 50 86
REMARK H PARENT 5 10 74 39 42 50
REMARK Flexibility Score: inf
ROOT
ATOM      1  C   UNL A   1      41.558  20.474  26.499  1.00  0.00     0.274 C 
ENDROOT
BRANCH   1   2
ATOM      2  O   UNL A   1      42.022  19.730  25.346  1.00  0.00    -0.461 OA
BRANCH   2   3
ATOM      3  C   UNL A   1      43.091  18.932  25.559  1.00  0.00     0.323 C 
ATOM      4  O   UNL A   1      43.005  17.709  25.678  1.00  0.00    -0.251 OA
BRANCH   3   5
ATOM      5  C   UNL A   1      44.430  19.569  25.603  1.00  0.00     0.282 C 
BRANCH   5   6
ATOM      6  S   UNL A   1      45.364  19.686  24.117  1.00  0.00     0.243 S 
ATOM      7  O   UNL A   1      44.942  18.586  23.272  1.00  0.00    -0.206 OA
ATOM      8  O   UNL A   1      46.763  19.825  24.466  1.00  0.00    -0.206 OA
BRANCH   6   9
ATOM      9  N   UNL A   1      44.912  21.104  23.383  1.00  0.00    -0.283 N 
ATOM     10  H   UNL A   1      44.683  21.056  22.427  1.00  0.00     0.180 HD
BRANCH   9  11
ATOM     11  C   UNL A   1      44.824  22.389  24.007  1.00  0.00     0.052 A 
ATOM     12  C   UNL A   1      47.359  24.895  25.257  1.00  0.00     0.067 C 
ATOM     13  C   UNL A   1      46.050  24.244  24.928  1.00  0.00     0.039 A 
ATOM     14  C   UNL A   1      46.029  23.075  24.177  1.00  0.00     0.050 A 
ATOM     15  N   UNL A   1      44.925  24.798  25.430  1.00  0.00    -0.261 NA
ATOM     16  C   UNL A   1      43.759  24.167  25.170  1.00  0.00     0.113 A 
ATOM     17  C   UNL A   1      43.655  22.978  24.464  1.00  0.00     0.047 A 
ENDBRANCH   9  11
ENDBRANCH   6   9
ENDBRANCH   5   6
ENDBRANCH   3   5
ENDBRANCH   2   3
ENDBRANCH   1   2
BRANCH   1  18
ATOM     18  C   UNL A   1      40.829  21.770  26.122  1.00  0.00     0.275 C 
BRANCH  18  19
ATOM     19  O   UNL A   1      39.532  21.885  26.746  1.00  0.00    -0.458 OA
BRANCH  19  20
ATOM     20  C   UNL A   1      38.797  22.895  26.233  1.00  0.00     0.338 C 
ATOM     21  O   UNL A   1      37.886  22.768  25.434  1.00  0.00    -0.246 OA
BRANCH  20  22
ATOM     22  C   UNL A   1      39.201  24.218  26.724  1.00  0.00     0.060 A 
ATOM     23  C   UNL A   1      39.946  25.072  25.905  1.00  0.00     0.016 A 
ATOM     24  C   UNL A   1      39.044  24.496  28.082  1.00  0.00     0.016 A 
ATOM     25  C   UNL A   1      40.568  26.196  26.459  1.00  0.00     0.010 A 
ATOM     26  C   UNL A   1      39.644  25.633  28.627  1.00  0.00     0.010 A 
ATOM     27  C   UNL A   1      40.431  26.478  27.827  1.00  0.00    -0.014 A 
BRANCH  27  28
ATOM     28  C   UNL A   1      41.071  27.669  28.442  1.00  0.00     0.031 A 
ATOM     29  C   UNL A   1      40.249  28.835  28.913  1.00  0.00     0.074 A 
ATOM     30  C   UNL A   1      42.413  27.724  28.517  1.00  0.00     0.049 A 
ATOM     31  N   UNL A   1      40.642  30.010  29.341  1.00  0.00    -0.248 NA
ATOM     32  C   UNL A   1      38.793  28.652  28.920  1.00  0.00     0.031 C 
ATOM     33  C   UNL A   1      43.322  26.646  28.130  1.00  0.00     0.029 A 
ATOM     34  N   UNL A   1      43.244  28.744  28.907  1.00  0.00    -0.354 N 
ATOM     35  C   UNL A   1      39.485  30.696  29.686  1.00  0.00     0.074 A 
ATOM     36  C   UNL A   1      38.371  29.816  29.399  1.00  0.00     0.031 C 
ATOM     37  C   UNL A   1      44.586  27.076  28.260  1.00  0.00     0.029 A 
ATOM     38  C   UNL A   1      44.571  28.472  28.687  1.00  0.00     0.049 A 
ATOM     39  H   UNL A   1      42.921  29.585  29.304  1.00  0.00     0.167 HD
ATOM     40  C   UNL A   1      39.366  31.947  30.194  1.00  0.00     0.037 A 
ATOM     41  C   UNL A   1      45.650  29.273  28.760  1.00  0.00     0.037 A 
ATOM     42  C   UNL A   1      40.471  32.837  30.432  1.00  0.00     0.049 A 
ATOM     43  C   UNL A   1      45.485  30.706  29.177  1.00  0.00     0.074 A 
ATOM     44  C   UNL A   1      40.452  34.125  30.941  1.00  0.00     0.029 A 
ATOM     45  N   UNL A   1      41.795  32.540  30.150  1.00  0.00    -0.354 N 
ATOM     46  N   UNL A   1      44.391  31.344  29.513  1.00  0.00    -0.248 NA
ATOM     47  C   UNL A   1      46.699  31.531  29.217  1.00  0.00     0.031 C 
ATOM     48  C   UNL A   1      41.759  34.624  30.921  1.00  0.00     0.029 A 
ATOM     49  C   UNL A   1      42.598  33.632  30.441  1.00  0.00     0.049 A 
ATOM     50  H   UNL A   1      42.119  31.680  29.796  1.00  0.00     0.167 HD
ATOM     51  C   UNL A   1      44.785  32.636  29.829  1.00  0.00     0.074 A 
ATOM     52  C   UNL A   1      46.220  32.693  29.642  1.00  0.00     0.031 C 
ATOM     53  C   UNL A   1      44.024  33.676  30.248  1.00  0.00     0.037 A 
BRANCH  40  54
ATOM     54  C   UNL A   1      37.987  32.444  30.508  1.00  0.00     0.064 A 
ATOM     55  C   UNL A   1      37.386  32.192  31.751  1.00  0.00     0.173 A 
ATOM     56  C   UNL A   1      37.291  33.245  29.591  1.00  0.00     0.173 A 
ATOM     57  F   UNL A   1      38.011  31.430  32.660  1.00  0.00    -0.203 F 
ATOM     58  C   UNL A   1      36.135  32.721  32.060  1.00  0.00     0.198 A 
ATOM     59  C   UNL A   1      36.049  33.785  29.910  1.00  0.00     0.198 A 
ATOM     60  F   UNL A   1      37.829  33.521  28.393  1.00  0.00    -0.203 F 
ATOM     61  F   UNL A   1      35.572  32.458  33.248  1.00  0.00    -0.200 F 
ATOM     62  C   UNL A   1      35.470  33.521  31.143  1.00  0.00     0.200 A 
ATOM     63  F   UNL A   1      35.413  34.570  29.028  1.00  0.00    -0.200 F 
ATOM     64  F   UNL A   1      34.274  34.042  31.448  1.00  0.00    -0.200 F 
ENDBRANCH  40  54
BRANCH  41  65
ATOM     65  C   UNL A   1      46.974  28.730  28.372  1.00  0.00     0.064 A 
ATOM     66  C   UNL A   1      47.822  28.141  29.318  1.00  0.00     0.173 A 
ATOM     67  C   UNL A   1      47.393  28.744  27.032  1.00  0.00     0.173 A 
ATOM     68  F   UNL A   1      47.471  28.128  30.613  1.00  0.00    -0.203 F 
ATOM     69  C   UNL A   1      49.038  27.580  28.938  1.00  0.00     0.198 A 
ATOM     70  C   UNL A   1      48.598  28.160  26.650  1.00  0.00     0.198 A 
ATOM     71  F   UNL A   1      46.614  29.297  26.091  1.00  0.00    -0.203 F 
ATOM     72  F   UNL A   1      49.841  27.037  29.864  1.00  0.00    -0.200 F 
ATOM     73  C   UNL A   1      49.420  27.579  27.604  1.00  0.00     0.200 A 
ATOM     74  F   UNL A   1      48.955  28.148  25.359  1.00  0.00    -0.200 F 
ATOM     75  F   UNL A   1      50.580  27.019  27.237  1.00  0.00    -0.200 F 
ENDBRANCH  41  65
BRANCH  53  76
ATOM     76  C   UNL A   1      44.730  34.958  30.564  1.00  0.00     0.064 A 
ATOM     77  C   UNL A   1      44.885  35.967  29.603  1.00  0.00     0.173 A 
ATOM     78  C   UNL A   1      45.220  35.198  31.857  1.00  0.00     0.173 A 
ATOM     79  F   UNL A   1      44.448  35.777  28.349  1.00  0.00    -0.203 F 
ATOM     80  C   UNL A   1      45.517  37.165  29.922  1.00  0.00     0.198 A 
ATOM     81  C   UNL A   1      45.832  36.405  32.178  1.00  0.00     0.198 A 
ATOM     82  F   UNL A   1      45.092  34.263  32.811  1.00  0.00    -0.203 F 
ATOM     83  F   UNL A   1      45.684  38.104  28.980  1.00  0.00    -0.200 F 
ATOM     84  C   UNL A   1      45.985  37.385  31.210  1.00  0.00     0.200 A 
ATOM     85  F   UNL A   1      46.277  36.619  33.424  1.00  0.00    -0.200 F 
ATOM     86  F   UNL A   1      46.588  38.542  31.516  1.00  0.00    -0.200 F 
ENDBRANCH  53  76
ENDBRANCH  27  28
ENDBRANCH  20  22
ENDBRANCH  19  20
ENDBRANCH  18  19
ENDBRANCH   1  18
TORSDOF 14
ENDMDL
