MODEL 1
REMARK VINA RESULT:     -12.4      0.000      0.000
REMARK SMILES O=C(NC(=S)Nc1cc(C(=O)OCCOC(=O)c2ccc(-c3c4nc(c(-c5c(F)c(F)c(F)c(F)c5F)c5ccc([nH]5)c(-c5c(F)c(F)c(F)c(F)c5F)c5nc(c(-c6c(F)c(F)c(F)c(F)c6F)c6ccc3[nH]6)C=C5)C=C4)cc2)ccc1Br)c1ccc(F)cc1
REMARK SMILES IDX 13 1 12 2 10 3 11 4 9 5 7 6 8 7 83 8 82 9 84 10 81 11 6 12
REMARK SMILES IDX 4 14 5 15 3 16 1 17 2 18 85 20 86 21 91 22 87 23 90 24 88 25
REMARK SMILES IDX 89 26 14 27 15 28 16 29 17 30 18 31 19 32 80 33 20 34 79 35
REMARK SMILES IDX 21 36 22 37 23 38 73 39 24 40 78 41 72 42 74 43 25 44 77 45
REMARK SMILES IDX 71 46 70 47 26 49 58 50 38 51 57 52 39 53 42 54 56 55 75 56
REMARK SMILES IDX 40 57 41 58 55 60 76 61 43 62 27 63 28 64 36 65 29 66 30 67
REMARK SMILES IDX 34 68 37 69 31 70 32 71 35 72 33 73 59 74 60 75 68 76 61 77
REMARK SMILES IDX 62 78 66 79 69 80 63 81 64 82 67 83 65 84 44 85 45 86 53 87
REMARK SMILES IDX 46 88 47 89 51 90 54 91 48 92 49 93 52 94 50 95
REMARK H PARENT 6 13 3 19 74 48 42 59
REMARK Flexibility Score: inf
ROOT
ATOM      1  C   UNL A   1      31.338  29.523  24.302  1.00  0.00     0.275 C 
ENDROOT
BRANCH   1   2
ATOM      2  O   UNL A   1      30.003  29.495  23.753  1.00  0.00    -0.458 OA
BRANCH   2   3
ATOM      3  C   UNL A   1      29.879  28.864  22.565  1.00  0.00     0.338 C 
ATOM      4  O   UNL A   1      29.517  29.317  21.495  1.00  0.00    -0.246 OA
BRANCH   3   5
ATOM      5  C   UNL A   1      30.495  27.535  22.681  1.00  0.00     0.062 A 
ATOM      6  C   UNL A   1      30.496  24.521  24.019  1.00  0.00     0.055 A 
ATOM      7  C   UNL A   1      29.694  26.328  24.058  1.00  0.00     0.043 A 
ATOM      8  C   UNL A   1      31.904  23.956  22.765  1.00  0.00     0.041 A 
ATOM      9  C   UNL A   1      32.713  25.150  21.415  1.00  0.00     0.019 A 
ATOM     10  Br  UNL A   1      32.497  22.144  22.763  1.00  0.00    -0.049 Br
ATOM     11  C   UNL A   1      31.923  26.982  21.453  1.00  0.00     0.017 A 
BRANCH   6  12
ATOM     12  N   UNL A   1      30.373  23.830  25.228  1.00  0.00    -0.331 N 
ATOM     13  H   UNL A   1      29.703  23.112  25.289  1.00  0.00     0.169 HD
BRANCH  12  14
ATOM     14  C   UNL A   1      31.128  24.101  26.317  1.00  0.00     0.177 C 
ATOM     15  S   UNL A   1      32.009  22.873  27.028  1.00  0.00    -0.040 S 
BRANCH  14  16
ATOM     16  N   UNL A   1      31.137  25.360  26.891  1.00  0.00    -0.299 N 
ATOM     17  O   UNL A   1      31.622  27.475  27.611  1.00  0.00    -0.269 OA
ATOM     18  C   UNL A   1      31.892  26.547  26.848  1.00  0.00     0.257 C 
ATOM     19  H   UNL A   1      30.387  25.454  27.521  1.00  0.00     0.172 HD
BRANCH  18  20
ATOM     20  C   UNL A   1      32.920  26.812  25.823  1.00  0.00     0.040 A 
ATOM     21  C   UNL A   1      33.663  26.136  25.015  1.00  0.00     0.017 A 
ATOM     22  C   UNL A   1      34.082  26.224  25.973  1.00  0.00     0.017 A 
ATOM     23  C   UNL A   1      34.824  24.510  24.600  1.00  0.00     0.040 A 
ATOM     24  C   UNL A   1      35.269  24.610  25.570  1.00  0.00     0.040 A 
ATOM     25  C   UNL A   1      35.325  23.425  25.064  1.00  0.00     0.123 A 
ATOM     26  F   UNL A   1      36.431  22.842  24.599  1.00  0.00    -0.207 F 
ENDBRANCH  18  20
ENDBRANCH  14  16
ENDBRANCH  12  14
ENDBRANCH   6  12
ENDBRANCH   3   5
ENDBRANCH   2   3
ENDBRANCH   1   2
BRANCH   1  27
ATOM     27  C   UNL A   1      31.364  30.339  25.601  1.00  0.00     0.275 C 
BRANCH  27  28
ATOM     28  O   UNL A   1      32.715  30.398  26.086  1.00  0.00    -0.458 OA
BRANCH  28  29
ATOM     29  C   UNL A   1      33.022  31.413  26.930  1.00  0.00     0.338 C 
ATOM     30  O   UNL A   1      32.402  32.453  27.065  1.00  0.00    -0.246 OA
BRANCH  29  31
ATOM     31  C   UNL A   1      34.253  31.060  27.695  1.00  0.00     0.060 A 
ATOM     32  C   UNL A   1      35.129  32.051  28.143  1.00  0.00     0.016 A 
ATOM     33  C   UNL A   1      34.557  29.721  27.960  1.00  0.00     0.016 A 
ATOM     34  C   UNL A   1      36.303  31.721  28.819  1.00  0.00     0.010 A 
ATOM     35  C   UNL A   1      35.710  29.389  28.691  1.00  0.00     0.010 A 
ATOM     36  C   UNL A   1      36.596  30.388  29.126  1.00  0.00    -0.014 A 
BRANCH  36  37
ATOM     37  C   UNL A   1      37.827  30.072  29.899  1.00  0.00     0.031 A 
ATOM     38  C   UNL A   1      38.946  29.290  29.275  1.00  0.00     0.074 A 
ATOM     39  C   UNL A   1      37.971  30.537  31.157  1.00  0.00     0.049 A 
ATOM     40  N   UNL A   1      40.044  28.835  29.826  1.00  0.00    -0.248 NA
ATOM     41  C   UNL A   1      38.815  28.973  27.845  1.00  0.00     0.031 C 
ATOM     42  C   UNL A   1      36.986  31.343  31.881  1.00  0.00     0.029 A 
ATOM     43  N   UNL A   1      39.016  30.423  32.040  1.00  0.00    -0.354 N 
ATOM     44  C   UNL A   1      40.700  28.124  28.832  1.00  0.00     0.074 A 
ATOM     45  C   UNL A   1      39.897  28.236  27.632  1.00  0.00     0.031 C 
ATOM     46  C   UNL A   1      37.496  31.697  33.071  1.00  0.00     0.029 A 
ATOM     47  C   UNL A   1      38.817  31.094  33.221  1.00  0.00     0.049 A 
ATOM     48  H   UNL A   1      39.833  29.908  31.843  1.00  0.00     0.167 HD
ATOM     49  C   UNL A   1      41.857  27.424  28.919  1.00  0.00     0.037 A 
ATOM     50  C   UNL A   1      39.601  31.199  34.310  1.00  0.00     0.037 A 
ATOM     51  C   UNL A   1      42.690  27.353  30.090  1.00  0.00     0.049 A 
ATOM     52  C   UNL A   1      40.910  30.465  34.360  1.00  0.00     0.074 A 
ATOM     53  C   UNL A   1      43.862  26.640  30.278  1.00  0.00     0.029 A 
ATOM     54  N   UNL A   1      42.452  28.045  31.266  1.00  0.00    -0.354 N 
ATOM     55  N   UNL A   1      41.466  29.708  33.448  1.00  0.00    -0.248 NA
ATOM     56  C   UNL A   1      41.686  30.577  35.605  1.00  0.00     0.031 C 
ATOM     57  C   UNL A   1      44.333  26.899  31.571  1.00  0.00     0.029 A 
ATOM     58  C   UNL A   1      43.461  27.785  32.181  1.00  0.00     0.049 A 
ATOM     59  H   UNL A   1      41.681  28.635  31.429  1.00  0.00     0.167 HD
ATOM     60  C   UNL A   1      42.639  29.232  34.015  1.00  0.00     0.074 A 
ATOM     61  C   UNL A   1      42.740  29.819  35.334  1.00  0.00     0.031 C 
ATOM     62  C   UNL A   1      43.539  28.365  33.494  1.00  0.00     0.037 A 
BRANCH  49  63
ATOM     63  C   UNL A   1      42.267  26.630  27.719  1.00  0.00     0.064 A 
ATOM     64  C   UNL A   1      43.177  27.128  26.780  1.00  0.00     0.173 A 
ATOM     65  C   UNL A   1      41.755  25.339  27.528  1.00  0.00     0.173 A 
ATOM     66  F   UNL A   1      43.677  28.366  26.915  1.00  0.00    -0.203 F 
ATOM     67  C   UNL A   1      43.554  26.363  25.679  1.00  0.00     0.198 A 
ATOM     68  C   UNL A   1      42.144  24.570  26.435  1.00  0.00     0.198 A 
ATOM     69  F   UNL A   1      40.879  24.821  28.402  1.00  0.00    -0.203 F 
ATOM     70  F   UNL A   1      44.405  26.866  24.775  1.00  0.00    -0.200 F 
ATOM     71  C   UNL A   1      43.041  25.084  25.510  1.00  0.00     0.200 A 
ATOM     72  F   UNL A   1      41.650  23.335  26.275  1.00  0.00    -0.200 F 
ATOM     73  F   UNL A   1      43.405  24.350  24.450  1.00  0.00    -0.200 F 
ENDBRANCH  49  63
BRANCH  50  74
ATOM     74  C   UNL A   1      39.157  32.021  35.462  1.00  0.00     0.064 A 
ATOM     75  C   UNL A   1      38.385  31.458  36.486  1.00  0.00     0.173 A 
ATOM     76  C   UNL A   1      39.493  33.378  35.560  1.00  0.00     0.173 A 
ATOM     77  F   UNL A   1      38.022  30.168  36.418  1.00  0.00    -0.203 F 
ATOM     78  C   UNL A   1      37.958  32.226  37.566  1.00  0.00     0.198 A 
ATOM     79  C   UNL A   1      39.081  34.140  36.650  1.00  0.00     0.198 A 
ATOM     80  F   UNL A   1      40.229  33.958  34.601  1.00  0.00    -0.203 F 
ATOM     81  F   UNL A   1      37.196  31.672  38.519  1.00  0.00    -0.200 F 
ATOM     82  C   UNL A   1      38.310  33.565  37.649  1.00  0.00     0.200 A 
ATOM     83  F   UNL A   1      39.428  35.432  36.730  1.00  0.00    -0.200 F 
ATOM     84  F   UNL A   1      37.901  34.304  38.690  1.00  0.00    -0.200 F 
ENDBRANCH  50  74
BRANCH  62  85
ATOM     85  C   UNL A   1      44.691  27.978  34.366  1.00  0.00     0.064 A 
ATOM     86  C   UNL A   1      44.611  26.860  35.210  1.00  0.00     0.173 A 
ATOM     87  C   UNL A   1      45.889  28.706  34.343  1.00  0.00     0.173 A 
ATOM     88  F   UNL A   1      43.479  26.145  35.274  1.00  0.00    -0.203 F 
ATOM     89  C   UNL A   1      45.689  26.491  36.009  1.00  0.00     0.198 A 
ATOM     90  C   UNL A   1      46.968  28.326  35.136  1.00  0.00     0.198 A 
ATOM     91  F   UNL A   1      46.008  29.784  33.554  1.00  0.00    -0.203 F 
ATOM     92  F   UNL A   1      45.583  25.434  36.827  1.00  0.00    -0.200 F 
ATOM     93  C   UNL A   1      46.867  27.221  35.969  1.00  0.00     0.200 A 
ATOM     94  F   UNL A   1      48.107  29.033  35.098  1.00  0.00    -0.200 F 
ATOM     95  F   UNL A   1      47.903  26.865  36.740  1.00  0.00    -0.200 F 
ENDBRANCH  62  85
ENDBRANCH  36  37
ENDBRANCH  29  31
ENDBRANCH  28  29
ENDBRANCH  27  28
ENDBRANCH   1  27
TORSDOF 15
ENDMDL
MODEL 2
REMARK VINA RESULT:     -12.2      0.294      2.014
REMARK SMILES O=C(NC(=S)Nc1cc(C(=O)OCCOC(=O)c2ccc(-c3c4nc(c(-c5c(F)c(F)c(F)c(F)c5F)c5ccc([nH]5)c(-c5c(F)c(F)c(F)c(F)c5F)c5nc(c(-c6c(F)c(F)c(F)c(F)c6F)c6ccc3[nH]6)C=C5)C=C4)cc2)ccc1Br)c1ccc(F)cc1
REMARK SMILES IDX 13 1 12 2 10 3 11 4 9 5 7 6 8 7 83 8 82 9 84 10 81 11 6 12
REMARK SMILES IDX 4 14 5 15 3 16 1 17 2 18 85 20 86 21 91 22 87 23 90 24 88 25
REMARK SMILES IDX 89 26 14 27 15 28 16 29 17 30 18 31 19 32 80 33 20 34 79 35
REMARK SMILES IDX 21 36 22 37 23 38 73 39 24 40 78 41 72 42 74 43 25 44 77 45
REMARK SMILES IDX 71 46 70 47 26 49 58 50 38 51 57 52 39 53 42 54 56 55 75 56
REMARK SMILES IDX 40 57 41 58 55 60 76 61 43 62 27 63 28 64 36 65 29 66 30 67
REMARK SMILES IDX 34 68 37 69 31 70 32 71 35 72 33 73 59 74 60 75 68 76 61 77
REMARK SMILES IDX 62 78 66 79 69 80 63 81 64 82 67 83 65 84 44 85 45 86 53 87
REMARK SMILES IDX 46 88 47 89 51 90 54 91 48 92 49 93 52 94 50 95
REMARK H PARENT 6 13 3 19 74 48 42 59
REMARK Flexibility Score: inf
ROOT
ATOM      1  C   UNL A   1      31.397  29.257  24.253  1.00  0.00     0.275 C 
ENDROOT
BRANCH   1   2
ATOM      2  O   UNL A   1      30.542  29.743  23.196  1.00  0.00    -0.458 OA
BRANCH   2   3
ATOM      3  C   UNL A   1      29.720  28.821  22.648  1.00  0.00     0.338 C 
ATOM      4  O   UNL A   1      28.703  28.993  22.002  1.00  0.00    -0.246 OA
BRANCH   3   5
ATOM      5  C   UNL A   1      30.374  27.508  22.738  1.00  0.00     0.062 A 
ATOM      6  C   UNL A   1      30.459  24.468  24.013  1.00  0.00     0.055 A 
ATOM      7  C   UNL A   1      29.605  26.249  24.088  1.00  0.00     0.043 A 
ATOM      8  C   UNL A   1      31.885  23.970  22.752  1.00  0.00     0.041 A 
ATOM      9  C   UNL A   1      32.662  25.214  21.429  1.00  0.00     0.019 A 
ATOM     10  Br  UNL A   1      32.529  22.175  22.714  1.00  0.00    -0.049 Br
ATOM     11  C   UNL A   1      31.820  27.021  21.503  1.00  0.00     0.017 A 
BRANCH   6  12
ATOM     12  N   UNL A   1      30.353  23.749  25.207  1.00  0.00    -0.331 N 
ATOM     13  H   UNL A   1      29.712  23.003  25.248  1.00  0.00     0.169 HD
BRANCH  12  14
ATOM     14  C   UNL A   1      31.086  24.029  26.309  1.00  0.00     0.177 C 
ATOM     15  S   UNL A   1      31.970  22.812  27.033  1.00  0.00    -0.040 S 
BRANCH  14  16
ATOM     16  N   UNL A   1      31.069  25.287  26.884  1.00  0.00    -0.299 N 
ATOM     17  O   UNL A   1      31.518  27.405  27.620  1.00  0.00    -0.269 OA
ATOM     18  C   UNL A   1      31.818  26.479  26.866  1.00  0.00     0.257 C 
ATOM     19  H   UNL A   1      30.299  25.376  27.490  1.00  0.00     0.172 HD
BRANCH  18  20
ATOM     20  C   UNL A   1      32.876  26.751  25.874  1.00  0.00     0.040 A 
ATOM     21  C   UNL A   1      33.634  26.081  25.074  1.00  0.00     0.017 A 
ATOM     22  C   UNL A   1      34.028  26.150  26.046  1.00  0.00     0.017 A 
ATOM     23  C   UNL A   1      34.792  24.451  24.664  1.00  0.00     0.040 A 
ATOM     24  C   UNL A   1      35.210  24.530  25.647  1.00  0.00     0.040 A 
ATOM     25  C   UNL A   1      35.269  23.353  25.123  1.00  0.00     0.123 A 
ATOM     26  F   UNL A   1      36.383  22.768  24.678  1.00  0.00    -0.207 F 
ENDBRANCH  18  20
ENDBRANCH  14  16
ENDBRANCH  12  14
ENDBRANCH   6  12
ENDBRANCH   3   5
ENDBRANCH   2   3
ENDBRANCH   1   2
BRANCH   1  27
ATOM     27  C   UNL A   1      31.392  30.235  25.435  1.00  0.00     0.275 C 
BRANCH  27  28
ATOM     28  O   UNL A   1      32.724  30.330  25.966  1.00  0.00    -0.458 OA
BRANCH  28  29
ATOM     29  C   UNL A   1      32.974  31.349  26.824  1.00  0.00     0.338 C 
ATOM     30  O   UNL A   1      32.322  32.372  26.940  1.00  0.00    -0.246 OA
BRANCH  29  31
ATOM     31  C   UNL A   1      34.187  31.026  27.629  1.00  0.00     0.060 A 
ATOM     32  C   UNL A   1      34.487  29.706  27.977  1.00  0.00     0.016 A 
ATOM     33  C   UNL A   1      35.037  32.047  28.064  1.00  0.00     0.016 A 
ATOM     34  C   UNL A   1      35.596  29.406  28.767  1.00  0.00     0.010 A 
ATOM     35  C   UNL A   1      36.186  31.742  28.811  1.00  0.00     0.010 A 
ATOM     36  C   UNL A   1      36.475  30.416  29.171  1.00  0.00    -0.014 A 
BRANCH  36  37
ATOM     37  C   UNL A   1      37.682  30.057  29.964  1.00  0.00     0.031 A 
ATOM     38  C   UNL A   1      38.789  29.247  29.352  1.00  0.00     0.074 A 
ATOM     39  C   UNL A   1      37.817  30.507  31.228  1.00  0.00     0.049 A 
ATOM     40  N   UNL A   1      39.863  28.756  29.919  1.00  0.00    -0.248 NA
ATOM     41  C   UNL A   1      38.675  28.947  27.918  1.00  0.00     0.031 C 
ATOM     42  C   UNL A   1      36.843  31.335  31.942  1.00  0.00     0.029 A 
ATOM     43  N   UNL A   1      38.842  30.355  32.128  1.00  0.00    -0.354 N 
ATOM     44  C   UNL A   1      40.516  28.035  28.930  1.00  0.00     0.074 A 
ATOM     45  C   UNL A   1      39.739  28.180  27.718  1.00  0.00     0.031 C 
ATOM     46  C   UNL A   1      37.342  31.664  33.144  1.00  0.00     0.029 A 
ATOM     47  C   UNL A   1      38.642  31.021  33.312  1.00  0.00     0.049 A 
ATOM     48  H   UNL A   1      39.647  29.818  31.942  1.00  0.00     0.167 HD
ATOM     49  C   UNL A   1      41.651  27.301  29.032  1.00  0.00     0.037 A 
ATOM     50  C   UNL A   1      39.408  31.094  34.416  1.00  0.00     0.037 A 
ATOM     51  C   UNL A   1      42.459  27.195  30.217  1.00  0.00     0.049 A 
ATOM     52  C   UNL A   1      40.695  30.321  34.483  1.00  0.00     0.074 A 
ATOM     53  C   UNL A   1      43.607  26.446  30.419  1.00  0.00     0.029 A 
ATOM     54  N   UNL A   1      42.221  27.884  31.395  1.00  0.00    -0.354 N 
ATOM     55  N   UNL A   1      41.244  29.556  33.574  1.00  0.00    -0.248 NA
ATOM     56  C   UNL A   1      41.450  30.400  35.742  1.00  0.00     0.031 C 
ATOM     57  C   UNL A   1      44.061  26.680  31.723  1.00  0.00     0.029 A 
ATOM     58  C   UNL A   1      43.205  27.587  32.325  1.00  0.00     0.049 A 
ATOM     59  H   UNL A   1      41.464  28.495  31.549  1.00  0.00     0.167 HD
ATOM     60  C   UNL A   1      42.393  29.041  34.157  1.00  0.00     0.074 A 
ATOM     61  C   UNL A   1      42.486  29.613  35.483  1.00  0.00     0.031 C 
ATOM     62  C   UNL A   1      43.276  28.152  33.645  1.00  0.00     0.037 A 
BRANCH  49  63
ATOM     63  C   UNL A   1      42.058  26.506  27.833  1.00  0.00     0.064 A 
ATOM     64  C   UNL A   1      41.489  25.260  27.544  1.00  0.00     0.173 A 
ATOM     65  C   UNL A   1      43.016  27.019  26.946  1.00  0.00     0.173 A 
ATOM     66  F   UNL A   1      40.583  24.723  28.374  1.00  0.00    -0.203 F 
ATOM     67  C   UNL A   1      41.876  24.546  26.412  1.00  0.00     0.198 A 
ATOM     68  C   UNL A   1      43.390  26.311  25.807  1.00  0.00     0.198 A 
ATOM     69  F   UNL A   1      43.588  28.209  27.184  1.00  0.00    -0.203 F 
ATOM     70  F   UNL A   1      41.341  23.342  26.166  1.00  0.00    -0.200 F 
ATOM     71  C   UNL A   1      42.821  25.074  25.544  1.00  0.00     0.200 A 
ATOM     72  F   UNL A   1      44.300  26.823  24.970  1.00  0.00    -0.200 F 
ATOM     73  F   UNL A   1      43.191  24.386  24.455  1.00  0.00    -0.200 F 
ENDBRANCH  49  63
BRANCH  50  74
ATOM     74  C   UNL A   1      38.968  31.918  35.567  1.00  0.00     0.064 A 
ATOM     75  C   UNL A   1      39.318  33.272  35.652  1.00  0.00     0.173 A 
ATOM     76  C   UNL A   1      38.195  31.372  36.600  1.00  0.00     0.173 A 
ATOM     77  F   UNL A   1      40.077  33.827  34.696  1.00  0.00    -0.203 F 
ATOM     78  C   UNL A   1      38.915  34.050  36.734  1.00  0.00     0.198 A 
ATOM     79  C   UNL A   1      37.777  32.156  37.673  1.00  0.00     0.198 A 
ATOM     80  F   UNL A   1      37.839  30.080  36.561  1.00  0.00    -0.203 F 
ATOM     81  F   UNL A   1      39.285  35.335  36.807  1.00  0.00    -0.200 F 
ATOM     82  C   UNL A   1      38.141  33.492  37.741  1.00  0.00     0.200 A 
ATOM     83  F   UNL A   1      37.024  31.615  38.641  1.00  0.00    -0.200 F 
ATOM     84  F   UNL A   1      37.751  34.242  38.781  1.00  0.00    -0.200 F 
ENDBRANCH  50  74
BRANCH  62  85
ATOM     85  C   UNL A   1      44.401  27.724  34.534  1.00  0.00     0.064 A 
ATOM     86  C   UNL A   1      45.610  28.434  34.555  1.00  0.00     0.173 A 
ATOM     87  C   UNL A   1      44.265  26.620  35.386  1.00  0.00     0.173 A 
ATOM     88  F   UNL A   1      45.788  29.487  33.744  1.00  0.00    -0.203 F 
ATOM     89  C   UNL A   1      46.650  28.045  35.394  1.00  0.00     0.198 A 
ATOM     90  C   UNL A   1      45.304  26.241  36.231  1.00  0.00     0.198 A 
ATOM     91  F   UNL A   1      43.127  25.910  35.395  1.00  0.00    -0.203 F 
ATOM     92  F   UNL A   1      47.807  28.722  35.381  1.00  0.00    -0.200 F 
ATOM     93  C   UNL A   1      46.496  26.952  36.233  1.00  0.00     0.200 A 
ATOM     94  F   UNL A   1      45.156  25.184  37.042  1.00  0.00    -0.200 F 
ATOM     95  F   UNL A   1      47.499  26.579  37.039  1.00  0.00    -0.200 F 
ENDBRANCH  62  85
ENDBRANCH  36  37
ENDBRANCH  29  31
ENDBRANCH  28  29
ENDBRANCH  27  28
ENDBRANCH   1  27
TORSDOF 15
ENDMDL
MODEL 3
REMARK VINA RESULT:     -12.1      4.522      9.604
REMARK SMILES O=C(NC(=S)Nc1cc(C(=O)OCCOC(=O)c2ccc(-c3c4nc(c(-c5c(F)c(F)c(F)c(F)c5F)c5ccc([nH]5)c(-c5c(F)c(F)c(F)c(F)c5F)c5nc(c(-c6c(F)c(F)c(F)c(F)c6F)c6ccc3[nH]6)C=C5)C=C4)cc2)ccc1Br)c1ccc(F)cc1
REMARK SMILES IDX 13 1 12 2 10 3 11 4 9 5 7 6 8 7 83 8 82 9 84 10 81 11 6 12
REMARK SMILES IDX 4 14 5 15 3 16 1 17 2 18 85 20 86 21 91 22 87 23 90 24 88 25
REMARK SMILES IDX 89 26 14 27 15 28 16 29 17 30 18 31 19 32 80 33 20 34 79 35
REMARK SMILES IDX 21 36 22 37 23 38 73 39 24 40 78 41 72 42 74 43 25 44 77 45
REMARK SMILES IDX 71 46 70 47 26 49 58 50 38 51 57 52 39 53 42 54 56 55 75 56
REMARK SMILES IDX 40 57 41 58 55 60 76 61 43 62 27 63 28 64 36 65 29 66 30 67
REMARK SMILES IDX 34 68 37 69 31 70 32 71 35 72 33 73 59 74 60 75 68 76 61 77
REMARK SMILES IDX 62 78 66 79 69 80 63 81 64 82 67 83 65 84 44 85 45 86 53 87
REMARK SMILES IDX 46 88 47 89 51 90 54 91 48 92 49 93 52 94 50 95
REMARK H PARENT 6 13 3 19 74 48 42 59
REMARK Flexibility Score: inf
ROOT
ATOM      1  C   UNL A   1      34.900  20.812  25.405  1.00  0.00     0.275 C 
ENDROOT
BRANCH   1   2
ATOM      2  O   UNL A   1      34.044  20.821  24.242  1.00  0.00    -0.458 OA
BRANCH   2   3
ATOM      3  C   UNL A   1      32.836  21.399  24.419  1.00  0.00     0.338 C 
ATOM      4  O   UNL A   1      31.833  20.930  24.925  1.00  0.00    -0.246 OA
BRANCH   3   5
ATOM      5  C   UNL A   1      32.959  22.831  24.112  1.00  0.00     0.062 A 
ATOM      6  C   UNL A   1      33.617  25.899  25.126  1.00  0.00     0.055 A 
ATOM      7  C   UNL A   1      33.317  24.023  25.676  1.00  0.00     0.043 A 
ATOM      8  C   UNL A   1      33.590  26.530  23.263  1.00  0.00     0.041 A 
ATOM      9  C   UNL A   1      33.218  25.360  21.715  1.00  0.00     0.019 A 
ATOM     10  Br  UNL A   1      34.018  28.346  22.873  1.00  0.00    -0.049 Br
ATOM     11  C   UNL A   1      32.898  23.466  22.256  1.00  0.00     0.017 A 
BRANCH   6  12
ATOM     12  N   UNL A   1      33.358  26.825  26.141  1.00  0.00    -0.331 N 
ATOM     13  H   UNL A   1      34.109  27.130  26.699  1.00  0.00     0.169 HD
BRANCH  12  14
ATOM     14  C   UNL A   1      32.125  27.321  26.393  1.00  0.00     0.177 C 
ATOM     15  S   UNL A   1      31.887  28.974  26.362  1.00  0.00    -0.040 S 
BRANCH  14  16
ATOM     16  N   UNL A   1      31.073  26.493  26.740  1.00  0.00    -0.299 N 
ATOM     17  O   UNL A   1      29.181  25.210  26.817  1.00  0.00    -0.269 OA
ATOM     18  C   UNL A   1      30.001  25.815  26.126  1.00  0.00     0.257 C 
ATOM     19  H   UNL A   1      31.073  26.325  27.710  1.00  0.00     0.172 HD
BRANCH  18  20
ATOM     20  C   UNL A   1      29.878  25.659  24.664  1.00  0.00     0.040 A 
ATOM     21  C   UNL A   1      30.184  26.322  23.601  1.00  0.00     0.017 A 
ATOM     22  C   UNL A   1      29.261  26.613  24.009  1.00  0.00     0.017 A 
ATOM     23  C   UNL A   1      30.349  28.085  22.587  1.00  0.00     0.040 A 
ATOM     24  C   UNL A   1      29.398  28.377  22.985  1.00  0.00     0.040 A 
ATOM     25  C   UNL A   1      30.166  29.353  22.637  1.00  0.00     0.123 A 
ATOM     26  F   UNL A   1      29.977  30.133  21.571  1.00  0.00    -0.207 F 
ENDBRANCH  18  20
ENDBRANCH  14  16
ENDBRANCH  12  14
ENDBRANCH   6  12
ENDBRANCH   3   5
ENDBRANCH   2   3
ENDBRANCH   1   2
BRANCH   1  27
ATOM     27  C   UNL A   1      36.359  20.580  24.991  1.00  0.00     0.275 C 
BRANCH  27  28
ATOM     28  O   UNL A   1      37.199  21.492  25.717  1.00  0.00    -0.458 OA
BRANCH  28  29
ATOM     29  C   UNL A   1      38.516  21.185  25.798  1.00  0.00     0.338 C 
ATOM     30  O   UNL A   1      39.015  20.088  25.618  1.00  0.00    -0.246 OA
BRANCH  29  31
ATOM     31  C   UNL A   1      39.287  22.416  26.139  1.00  0.00     0.060 A 
ATOM     32  C   UNL A   1      38.682  23.675  26.103  1.00  0.00     0.016 A 
ATOM     33  C   UNL A   1      40.638  22.327  26.487  1.00  0.00     0.016 A 
ATOM     34  C   UNL A   1      39.410  24.831  26.379  1.00  0.00     0.010 A 
ATOM     35  C   UNL A   1      41.360  23.485  26.821  1.00  0.00     0.010 A 
ATOM     36  C   UNL A   1      40.751  24.749  26.768  1.00  0.00    -0.014 A 
BRANCH  36  37
ATOM     37  C   UNL A   1      41.487  25.996  27.113  1.00  0.00     0.031 A 
ATOM     38  C   UNL A   1      40.913  26.980  28.092  1.00  0.00     0.074 A 
ATOM     39  C   UNL A   1      42.708  26.226  26.588  1.00  0.00     0.049 A 
ATOM     40  N   UNL A   1      41.362  28.162  28.434  1.00  0.00    -0.248 NA
ATOM     41  C   UNL A   1      39.671  26.587  28.774  1.00  0.00     0.031 C 
ATOM     42  C   UNL A   1      43.409  25.343  25.655  1.00  0.00     0.029 A 
ATOM     43  N   UNL A   1      43.589  27.260  26.789  1.00  0.00    -0.354 N 
ATOM     44  C   UNL A   1      40.426  28.680  29.317  1.00  0.00     0.074 A 
ATOM     45  C   UNL A   1      39.402  27.672  29.488  1.00  0.00     0.031 C 
ATOM     46  C   UNL A   1      44.631  25.842  25.409  1.00  0.00     0.029 A 
ATOM     47  C   UNL A   1      44.777  27.111  26.117  1.00  0.00     0.049 A 
ATOM     48  H   UNL A   1      43.387  28.035  27.361  1.00  0.00     0.167 HD
ATOM     49  C   UNL A   1      40.414  29.897  29.914  1.00  0.00     0.037 A 
ATOM     50  C   UNL A   1      45.857  27.912  26.062  1.00  0.00     0.037 A 
ATOM     51  C   UNL A   1      41.454  30.883  29.795  1.00  0.00     0.049 A 
ATOM     52  C   UNL A   1      45.847  29.229  26.785  1.00  0.00     0.074 A 
ATOM     53  C   UNL A   1      41.509  32.156  30.338  1.00  0.00     0.029 A 
ATOM     54  N   UNL A   1      42.641  30.695  29.104  1.00  0.00    -0.354 N 
ATOM     55  N   UNL A   1      44.906  29.752  27.530  1.00  0.00    -0.248 NA
ATOM     56  C   UNL A   1      47.037  30.079  26.631  1.00  0.00     0.031 C 
ATOM     57  C   UNL A   1      42.728  32.739  29.973  1.00  0.00     0.029 A 
ATOM     58  C   UNL A   1      43.438  31.823  29.216  1.00  0.00     0.049 A 
ATOM     59  H   UNL A   1      42.882  29.879  28.607  1.00  0.00     0.167 HD
ATOM     60  C   UNL A   1      45.376  31.000  27.913  1.00  0.00     0.074 A 
ATOM     61  C   UNL A   1      46.704  31.140  27.354  1.00  0.00     0.031 C 
ATOM     62  C   UNL A   1      44.750  31.953  28.642  1.00  0.00     0.037 A 
BRANCH  49  63
ATOM     63  C   UNL A   1      39.203  30.251  30.716  1.00  0.00     0.064 A 
ATOM     64  C   UNL A   1      39.133  30.013  32.094  1.00  0.00     0.173 A 
ATOM     65  C   UNL A   1      38.106  30.864  30.094  1.00  0.00     0.173 A 
ATOM     66  F   UNL A   1      40.152  29.412  32.727  1.00  0.00    -0.203 F 
ATOM     67  C   UNL A   1      37.999  30.365  32.821  1.00  0.00     0.198 A 
ATOM     68  C   UNL A   1      36.979  31.229  30.825  1.00  0.00     0.198 A 
ATOM     69  F   UNL A   1      38.128  31.111  28.775  1.00  0.00    -0.203 F 
ATOM     70  F   UNL A   1      37.939  30.104  34.134  1.00  0.00    -0.200 F 
ATOM     71  C   UNL A   1      36.927  30.977  32.188  1.00  0.00     0.200 A 
ATOM     72  F   UNL A   1      35.946  31.821  30.212  1.00  0.00    -0.200 F 
ATOM     73  F   UNL A   1      35.836  31.316  32.889  1.00  0.00    -0.200 F 
ENDBRANCH  49  63
BRANCH  50  74
ATOM     74  C   UNL A   1      47.042  27.500  25.272  1.00  0.00     0.064 A 
ATOM     75  C   UNL A   1      47.157  27.850  23.921  1.00  0.00     0.173 A 
ATOM     76  C   UNL A   1      48.077  26.750  25.849  1.00  0.00     0.173 A 
ATOM     77  F   UNL A   1      46.178  28.547  23.325  1.00  0.00    -0.203 F 
ATOM     78  C   UNL A   1      48.264  27.459  23.171  1.00  0.00     0.198 A 
ATOM     79  C   UNL A   1      49.191  26.376  25.102  1.00  0.00     0.198 A 
ATOM     80  F   UNL A   1      48.007  26.392  27.139  1.00  0.00    -0.203 F 
ATOM     81  F   UNL A   1      48.338  27.781  21.873  1.00  0.00    -0.200 F 
ATOM     82  C   UNL A   1      49.281  26.726  23.763  1.00  0.00     0.200 A 
ATOM     83  F   UNL A   1      50.175  25.673  25.680  1.00  0.00    -0.200 F 
ATOM     84  F   UNL A   1      50.347  26.352  23.042  1.00  0.00    -0.200 F 
ENDBRANCH  50  74
BRANCH  62  85
ATOM     85  C   UNL A   1      45.483  33.241  28.848  1.00  0.00     0.064 A 
ATOM     86  C   UNL A   1      46.342  33.411  29.944  1.00  0.00     0.173 A 
ATOM     87  C   UNL A   1      45.352  34.299  27.939  1.00  0.00     0.173 A 
ATOM     88  F   UNL A   1      46.485  32.430  30.847  1.00  0.00    -0.203 F 
ATOM     89  C   UNL A   1      47.036  34.603  30.127  1.00  0.00     0.198 A 
ATOM     90  C   UNL A   1      46.056  35.485  28.120  1.00  0.00     0.198 A 
ATOM     91  F   UNL A   1      44.538  34.181  26.879  1.00  0.00    -0.203 F 
ATOM     92  F   UNL A   1      47.832  34.755  31.195  1.00  0.00    -0.200 F 
ATOM     93  C   UNL A   1      46.896  35.637  29.214  1.00  0.00     0.200 A 
ATOM     94  F   UNL A   1      45.921  36.485  27.238  1.00  0.00    -0.200 F 
ATOM     95  F   UNL A   1      47.564  36.784  29.393  1.00  0.00    -0.200 F 
ENDBRANCH  62  85
ENDBRANCH  36  37
ENDBRANCH  29  31
ENDBRANCH  28  29
ENDBRANCH  27  28
ENDBRANCH   1  27
TORSDOF 15
ENDMDL
