MODEL 1
REMARK VINA RESULT:     -13.8      0.000      0.000
REMARK SMILES Cc1ccccc1[C@@H]1[NH2+][C@H](C(=O)OCCOC(=O)c2ccc(-c3c4nc(c(-c5c(F)c(F)c(F)c(F)c5F)c5ccc([nH]5)c(-c5c(F)c(F)c(F)c(F)c5F)c5nc(c(-c6c(F)c(F)c(F)c(F)c6F)c6ccc3[nH]6)C=C5)C=C4)cc2)CC2=c3ccccc3=N[C@@H]21
REMARK SMILES IDX 15 1 14 2 13 3 11 4 12 5 10 6 8 7 9 8 91 9 83 12 90 13 82 14
REMARK SMILES IDX 84 15 89 16 85 17 88 18 86 19 87 20 7 21 1 22 2 23 3 24 4 25
REMARK SMILES IDX 6 26 5 27 16 28 17 29 18 30 19 31 20 32 81 33 21 34 80 35
REMARK SMILES IDX 22 36 23 37 24 38 74 39 25 40 79 41 73 42 75 43 26 44 78 45
REMARK SMILES IDX 72 46 71 47 27 49 59 50 39 51 58 52 40 53 43 54 57 55 76 56
REMARK SMILES IDX 41 57 42 58 56 60 77 61 44 62 28 63 29 64 37 65 30 66 31 67
REMARK SMILES IDX 35 68 38 69 32 70 33 71 36 72 34 73 60 74 61 75 69 76 62 77
REMARK SMILES IDX 63 78 67 79 70 80 64 81 65 82 68 83 66 84 45 85 46 86 54 87
REMARK SMILES IDX 47 88 48 89 52 90 55 91 49 92 50 93 53 94 51 95
REMARK H PARENT 9 10 9 11 75 48 43 59
REMARK Flexibility Score: inf
ROOT
ATOM      1  C   UNL A   1      34.002  27.925  26.524  1.00  0.00     0.275 C 
ENDROOT
BRANCH   1   2
ATOM      2  C   UNL A   1      33.535  27.854  25.057  1.00  0.00     0.274 C 
BRANCH   2   3
ATOM      3  O   UNL A   1      33.739  26.635  24.282  1.00  0.00    -0.458 OA
BRANCH   3   4
ATOM      4  C   UNL A   1      33.617  26.351  22.947  1.00  0.00     0.365 C 
ATOM      5  O   UNL A   1      33.436  27.265  22.149  1.00  0.00    -0.245 OA
BRANCH   4   6
ATOM      6  C   UNL A   1      33.787  24.882  22.527  1.00  0.00     0.298 C 
ATOM      7  C   UNL A   1      34.174  22.861  23.928  1.00  0.00     0.243 C 
ATOM      8  N   UNL A   1      34.375  24.277  23.695  1.00  0.00    -0.326 N 
ATOM      9  C   UNL A   1      32.623  22.696  24.216  1.00  0.00     0.196 C 
ATOM     10  H   UNL A   1      35.382  24.431  23.637  1.00  0.00     0.347 HD
ATOM     11  H   UNL A   1      33.891  24.725  24.474  1.00  0.00     0.347 HD
ATOM     12  C   UNL A   1      31.828  23.595  23.252  1.00  0.00    -0.024 C 
ATOM     13  N   UNL A   1      32.169  23.198  25.550  1.00  0.00    -0.270 NA
ATOM     14  C   UNL A   1      32.521  24.147  22.039  1.00  0.00     0.111 C 
ATOM     15  C   UNL A   1      30.868  24.281  23.867  1.00  0.00     0.002 A 
ATOM     16  C   UNL A   1      31.204  24.029  25.278  1.00  0.00     0.066 A 
ATOM     17  C   UNL A   1      30.094  25.417  23.465  1.00  0.00     0.010 A 
ATOM     18  C   UNL A   1      30.497  24.885  26.262  1.00  0.00     0.028 A 
ATOM     19  C   UNL A   1      29.590  26.224  24.410  1.00  0.00     0.001 A 
ATOM     20  C   UNL A   1      29.764  25.923  25.819  1.00  0.00     0.002 A 
BRANCH   7  21
ATOM     21  C   UNL A   1      35.357  22.627  24.891  1.00  0.00     0.015 A 
ATOM     22  C   UNL A   1      35.060  20.037  24.799  1.00  0.00     0.045 C 
ATOM     23  C   UNL A   1      35.828  21.298  25.127  1.00  0.00    -0.042 A 
ATOM     24  C   UNL A   1      37.158  21.089  25.558  1.00  0.00     0.004 A 
ATOM     25  C   UNL A   1      38.052  22.148  25.688  1.00  0.00     0.000 A 
ATOM     26  C   UNL A   1      36.275  23.686  25.109  1.00  0.00     0.010 A 
ATOM     27  C   UNL A   1      37.611  23.443  25.461  1.00  0.00     0.001 A 
ENDBRANCH   7  21
ENDBRANCH   4   6
ENDBRANCH   3   4
ENDBRANCH   2   3
ENDBRANCH   1   2
BRANCH   1  28
ATOM     28  O   UNL A   1      35.233  28.644  26.870  1.00  0.00    -0.458 OA
BRANCH  28  29
ATOM     29  C   UNL A   1      35.452  29.769  27.620  1.00  0.00     0.338 C 
ATOM     30  O   UNL A   1      34.619  30.661  27.731  1.00  0.00    -0.246 OA
BRANCH  29  31
ATOM     31  C   UNL A   1      36.707  29.812  28.382  1.00  0.00     0.060 A 
ATOM     32  C   UNL A   1      36.910  29.059  29.557  1.00  0.00     0.016 A 
ATOM     33  C   UNL A   1      37.758  30.223  27.624  1.00  0.00     0.016 A 
ATOM     34  C   UNL A   1      38.170  28.470  29.788  1.00  0.00     0.010 A 
ATOM     35  C   UNL A   1      38.771  29.320  27.636  1.00  0.00     0.010 A 
ATOM     36  C   UNL A   1      39.090  28.518  28.746  1.00  0.00    -0.014 A 
BRANCH  36  37
ATOM     37  C   UNL A   1      40.413  27.883  28.599  1.00  0.00     0.031 A 
ATOM     38  C   UNL A   1      40.633  26.501  28.093  1.00  0.00     0.074 A 
ATOM     39  C   UNL A   1      41.426  28.747  28.893  1.00  0.00     0.049 A 
ATOM     40  N   UNL A   1      41.396  25.624  28.661  1.00  0.00    -0.248 NA
ATOM     41  C   UNL A   1      40.041  25.976  26.858  1.00  0.00     0.031 C 
ATOM     42  C   UNL A   1      42.866  28.691  28.790  1.00  0.00     0.029 A 
ATOM     43  N   UNL A   1      41.239  30.016  29.498  1.00  0.00    -0.354 N 
ATOM     44  C   UNL A   1      41.669  24.653  27.705  1.00  0.00     0.074 A 
ATOM     45  C   UNL A   1      40.634  24.781  26.716  1.00  0.00     0.031 C 
ATOM     46  C   UNL A   1      43.382  29.598  29.656  1.00  0.00     0.029 A 
ATOM     47  C   UNL A   1      42.271  30.216  30.382  1.00  0.00     0.049 A 
ATOM     48  H   UNL A   1      40.501  30.642  29.317  1.00  0.00     0.167 HD
ATOM     49  C   UNL A   1      42.917  24.095  27.626  1.00  0.00     0.037 A 
ATOM     50  C   UNL A   1      41.930  30.171  31.701  1.00  0.00     0.037 A 
ATOM     51  C   UNL A   1      43.810  24.845  28.496  1.00  0.00     0.049 A 
ATOM     52  C   UNL A   1      42.642  29.007  32.301  1.00  0.00     0.074 A 
ATOM     53  C   UNL A   1      44.724  25.845  28.211  1.00  0.00     0.029 A 
ATOM     54  N   UNL A   1      43.581  24.886  29.859  1.00  0.00    -0.354 N 
ATOM     55  N   UNL A   1      42.831  27.875  31.682  1.00  0.00    -0.248 NA
ATOM     56  C   UNL A   1      43.349  29.117  33.563  1.00  0.00     0.031 C 
ATOM     57  C   UNL A   1      45.070  26.475  29.429  1.00  0.00     0.029 A 
ATOM     58  C   UNL A   1      44.333  25.882  30.440  1.00  0.00     0.049 A 
ATOM     59  H   UNL A   1      42.968  24.287  30.346  1.00  0.00     0.167 HD
ATOM     60  C   UNL A   1      43.786  27.173  32.365  1.00  0.00     0.074 A 
ATOM     61  C   UNL A   1      44.052  27.974  33.547  1.00  0.00     0.031 C 
ATOM     62  C   UNL A   1      44.351  26.030  31.880  1.00  0.00     0.037 A 
BRANCH  49  63
ATOM     63  C   UNL A   1      43.469  23.162  26.553  1.00  0.00     0.064 A 
ATOM     64  C   UNL A   1      43.198  21.768  26.592  1.00  0.00     0.173 A 
ATOM     65  C   UNL A   1      44.211  23.574  25.431  1.00  0.00     0.173 A 
ATOM     66  F   UNL A   1      42.414  21.226  27.533  1.00  0.00    -0.203 F 
ATOM     67  C   UNL A   1      43.700  20.863  25.655  1.00  0.00     0.198 A 
ATOM     68  C   UNL A   1      44.723  22.662  24.492  1.00  0.00     0.198 A 
ATOM     69  F   UNL A   1      44.423  24.874  25.181  1.00  0.00    -0.203 F 
ATOM     70  F   UNL A   1      43.416  19.558  25.773  1.00  0.00    -0.200 F 
ATOM     71  C   UNL A   1      44.477  21.306  24.611  1.00  0.00     0.200 A 
ATOM     72  F   UNL A   1      45.454  23.106  23.459  1.00  0.00    -0.200 F 
ATOM     73  F   UNL A   1      44.963  20.437  23.713  1.00  0.00    -0.200 F 
ENDBRANCH  49  63
BRANCH  50  74
ATOM     74  C   UNL A   1      40.515  30.620  31.997  1.00  0.00     0.064 A 
ATOM     75  C   UNL A   1      39.582  29.656  32.450  1.00  0.00     0.173 A 
ATOM     76  C   UNL A   1      40.139  31.963  32.153  1.00  0.00     0.173 A 
ATOM     77  F   UNL A   1      39.876  28.348  32.366  1.00  0.00    -0.203 F 
ATOM     78  C   UNL A   1      38.395  30.012  33.098  1.00  0.00     0.198 A 
ATOM     79  C   UNL A   1      38.934  32.319  32.786  1.00  0.00     0.198 A 
ATOM     80  F   UNL A   1      40.962  32.948  31.766  1.00  0.00    -0.203 F 
ATOM     81  F   UNL A   1      37.607  29.062  33.626  1.00  0.00    -0.200 F 
ATOM     82  C   UNL A   1      38.076  31.345  33.278  1.00  0.00     0.200 A 
ATOM     83  F   UNL A   1      38.636  33.611  32.988  1.00  0.00    -0.200 F 
ATOM     84  F   UNL A   1      36.982  31.688  33.974  1.00  0.00    -0.200 F 
ENDBRANCH  50  74
BRANCH  62  85
ATOM     85  C   UNL A   1      45.076  24.977  32.679  1.00  0.00     0.064 A 
ATOM     86  C   UNL A   1      46.356  25.154  33.220  1.00  0.00     0.173 A 
ATOM     87  C   UNL A   1      44.407  23.791  33.088  1.00  0.00     0.173 A 
ATOM     88  F   UNL A   1      47.048  26.286  33.048  1.00  0.00    -0.203 F 
ATOM     89  C   UNL A   1      46.953  24.193  34.032  1.00  0.00     0.198 A 
ATOM     90  C   UNL A   1      44.972  22.879  33.972  1.00  0.00     0.198 A 
ATOM     91  F   UNL A   1      43.166  23.487  32.684  1.00  0.00    -0.203 F 
ATOM     92  F   UNL A   1      48.204  24.388  34.466  1.00  0.00    -0.200 F 
ATOM     93  C   UNL A   1      46.256  23.067  34.424  1.00  0.00     0.200 A 
ATOM     94  F   UNL A   1      44.248  21.835  34.398  1.00  0.00    -0.200 F 
ATOM     95  F   UNL A   1      46.814  22.180  35.256  1.00  0.00    -0.200 F 
ENDBRANCH  62  85
ENDBRANCH  36  37
ENDBRANCH  29  31
ENDBRANCH  28  29
ENDBRANCH   1  28
TORSDOF 12
ENDMDL
MODEL 2
REMARK VINA RESULT:     -13.7      3.118      9.404
REMARK SMILES Cc1ccccc1[C@@H]1[NH2+][C@H](C(=O)OCCOC(=O)c2ccc(-c3c4nc(c(-c5c(F)c(F)c(F)c(F)c5F)c5ccc([nH]5)c(-c5c(F)c(F)c(F)c(F)c5F)c5nc(c(-c6c(F)c(F)c(F)c(F)c6F)c6ccc3[nH]6)C=C5)C=C4)cc2)CC2=c3ccccc3=N[C@@H]21
REMARK SMILES IDX 15 1 14 2 13 3 11 4 12 5 10 6 8 7 9 8 91 9 83 12 90 13 82 14
REMARK SMILES IDX 84 15 89 16 85 17 88 18 86 19 87 20 7 21 1 22 2 23 3 24 4 25
REMARK SMILES IDX 6 26 5 27 16 28 17 29 18 30 19 31 20 32 81 33 21 34 80 35
REMARK SMILES IDX 22 36 23 37 24 38 74 39 25 40 79 41 73 42 75 43 26 44 78 45
REMARK SMILES IDX 72 46 71 47 27 49 59 50 39 51 58 52 40 53 43 54 57 55 76 56
REMARK SMILES IDX 41 57 42 58 56 60 77 61 44 62 28 63 29 64 37 65 30 66 31 67
REMARK SMILES IDX 35 68 38 69 32 70 33 71 36 72 34 73 60 74 61 75 69 76 62 77
REMARK SMILES IDX 63 78 67 79 70 80 64 81 65 82 68 83 66 84 45 85 46 86 54 87
REMARK SMILES IDX 47 88 48 89 52 90 55 91 49 92 50 93 53 94 51 95
REMARK H PARENT 9 10 9 11 75 48 43 59
REMARK Flexibility Score: inf
ROOT
ATOM      1  C   UNL A   1      36.337  24.053  25.282  1.00  0.00     0.275 C 
ENDROOT
BRANCH   1   2
ATOM      2  C   UNL A   1      34.974  23.364  25.494  1.00  0.00     0.274 C 
BRANCH   2   3
ATOM      3  O   UNL A   1      33.864  24.104  26.085  1.00  0.00    -0.458 OA
BRANCH   3   4
ATOM      4  C   UNL A   1      32.719  23.707  26.723  1.00  0.00     0.365 C 
ATOM      5  O   UNL A   1      32.710  22.651  27.349  1.00  0.00    -0.245 OA
BRANCH   4   6
ATOM      6  C   UNL A   1      31.520  24.667  26.667  1.00  0.00     0.298 C 
ATOM      7  C   UNL A   1      31.311  26.891  25.567  1.00  0.00     0.243 C 
ATOM      8  N   UNL A   1      32.121  25.914  26.268  1.00  0.00    -0.326 N 
ATOM      9  C   UNL A   1      30.965  26.228  24.168  1.00  0.00     0.196 C 
ATOM     10  H   UNL A   1      32.467  26.364  27.115  1.00  0.00     0.347 HD
ATOM     11  H   UNL A   1      32.822  25.639  25.580  1.00  0.00     0.347 HD
ATOM     12  C   UNL A   1      30.639  24.739  24.379  1.00  0.00    -0.024 C 
ATOM     13  N   UNL A   1      32.103  26.161  23.200  1.00  0.00    -0.270 NA
ATOM     14  C   UNL A   1      30.337  24.251  25.767  1.00  0.00     0.111 C 
ATOM     15  C   UNL A   1      31.243  23.953  23.490  1.00  0.00     0.002 A 
ATOM     16  C   UNL A   1      32.173  24.905  22.861  1.00  0.00     0.066 A 
ATOM     17  C   UNL A   1      31.474  22.540  23.461  1.00  0.00     0.010 A 
ATOM     18  C   UNL A   1      33.220  24.298  22.004  1.00  0.00     0.028 A 
ATOM     19  C   UNL A   1      32.520  22.068  22.768  1.00  0.00     0.001 A 
ATOM     20  C   UNL A   1      33.370  22.961  22.001  1.00  0.00     0.002 A 
BRANCH   7  21
ATOM     21  C   UNL A   1      32.179  28.136  25.848  1.00  0.00     0.015 A 
ATOM     22  C   UNL A   1      30.653  29.662  24.382  1.00  0.00     0.045 C 
ATOM     23  C   UNL A   1      31.734  29.424  25.413  1.00  0.00    -0.042 A 
ATOM     24  C   UNL A   1      32.201  30.587  26.065  1.00  0.00     0.004 A 
ATOM     25  C   UNL A   1      33.031  30.509  27.179  1.00  0.00     0.000 A 
ATOM     26  C   UNL A   1      33.085  28.101  26.938  1.00  0.00     0.010 A 
ATOM     27  C   UNL A   1      33.469  29.267  27.616  1.00  0.00     0.001 A 
ENDBRANCH   7  21
ENDBRANCH   4   6
ENDBRANCH   3   4
ENDBRANCH   2   3
ENDBRANCH   1   2
BRANCH   1  28
ATOM     28  O   UNL A   1      37.319  24.092  26.372  1.00  0.00    -0.458 OA
BRANCH  28  29
ATOM     29  C   UNL A   1      38.614  23.653  26.448  1.00  0.00     0.338 C 
ATOM     30  O   UNL A   1      38.971  22.567  26.005  1.00  0.00    -0.246 OA
BRANCH  29  31
ATOM     31  C   UNL A   1      39.593  24.600  26.999  1.00  0.00     0.060 A 
ATOM     32  C   UNL A   1      40.102  25.685  26.257  1.00  0.00     0.016 A 
ATOM     33  C   UNL A   1      39.577  24.627  28.358  1.00  0.00     0.016 A 
ATOM     34  C   UNL A   1      40.313  26.922  26.901  1.00  0.00     0.010 A 
ATOM     35  C   UNL A   1      39.365  25.880  28.833  1.00  0.00     0.010 A 
ATOM     36  C   UNL A   1      39.832  27.046  28.201  1.00  0.00    -0.014 A 
BRANCH  36  37
ATOM     37  C   UNL A   1      39.750  28.221  29.089  1.00  0.00     0.031 A 
ATOM     38  C   UNL A   1      38.679  29.251  29.027  1.00  0.00     0.074 A 
ATOM     39  C   UNL A   1      40.723  28.203  30.044  1.00  0.00     0.049 A 
ATOM     40  N   UNL A   1      38.888  30.528  29.028  1.00  0.00    -0.248 NA
ATOM     41  C   UNL A   1      37.245  28.943  29.000  1.00  0.00     0.031 C 
ATOM     42  C   UNL A   1      41.014  29.008  31.208  1.00  0.00     0.029 A 
ATOM     43  N   UNL A   1      41.825  27.309  30.042  1.00  0.00    -0.354 N 
ATOM     44  C   UNL A   1      37.686  31.129  29.381  1.00  0.00     0.074 A 
ATOM     45  C   UNL A   1      36.668  30.150  29.113  1.00  0.00     0.031 C 
ATOM     46  C   UNL A   1      42.331  28.863  31.499  1.00  0.00     0.029 A 
ATOM     47  C   UNL A   1      42.928  28.000  30.477  1.00  0.00     0.049 A 
ATOM     48  H   UNL A   1      41.801  26.361  29.777  1.00  0.00     0.167 HD
ATOM     49  C   UNL A   1      37.678  32.224  30.204  1.00  0.00     0.037 A 
ATOM     50  C   UNL A   1      43.869  28.261  29.526  1.00  0.00     0.037 A 
ATOM     51  C   UNL A   1      39.021  32.409  30.732  1.00  0.00     0.049 A 
ATOM     52  C   UNL A   1      43.938  29.741  29.368  1.00  0.00     0.074 A 
ATOM     53  C   UNL A   1      39.572  32.050  31.950  1.00  0.00     0.029 A 
ATOM     54  N   UNL A   1      40.074  32.679  29.877  1.00  0.00    -0.354 N 
ATOM     55  N   UNL A   1      42.899  30.526  29.428  1.00  0.00    -0.248 NA
ATOM     56  C   UNL A   1      45.208  30.442  29.325  1.00  0.00     0.031 C 
ATOM     57  C   UNL A   1      40.979  32.137  31.830  1.00  0.00     0.029 A 
ATOM     58  C   UNL A   1      41.274  32.506  30.528  1.00  0.00     0.049 A 
ATOM     59  H   UNL A   1      39.979  32.957  28.937  1.00  0.00     0.167 HD
ATOM     60  C   UNL A   1      43.347  31.810  29.583  1.00  0.00     0.074 A 
ATOM     61  C   UNL A   1      44.792  31.708  29.480  1.00  0.00     0.031 C 
ATOM     62  C   UNL A   1      42.514  32.853  29.867  1.00  0.00     0.037 A 
BRANCH  49  63
ATOM     63  C   UNL A   1      36.480  32.912  30.848  1.00  0.00     0.064 A 
ATOM     64  C   UNL A   1      35.704  33.854  30.121  1.00  0.00     0.173 A 
ATOM     65  C   UNL A   1      36.001  32.650  32.145  1.00  0.00     0.173 A 
ATOM     66  F   UNL A   1      35.957  34.137  28.837  1.00  0.00    -0.203 F 
ATOM     67  C   UNL A   1      34.615  34.537  30.667  1.00  0.00     0.198 A 
ATOM     68  C   UNL A   1      34.910  33.344  32.698  1.00  0.00     0.198 A 
ATOM     69  F   UNL A   1      36.542  31.684  32.900  1.00  0.00    -0.203 F 
ATOM     70  F   UNL A   1      33.946  35.427  29.921  1.00  0.00    -0.200 F 
ATOM     71  C   UNL A   1      34.225  34.295  31.964  1.00  0.00     0.200 A 
ATOM     72  F   UNL A   1      34.517  33.079  33.953  1.00  0.00    -0.200 F 
ATOM     73  F   UNL A   1      33.184  34.953  32.491  1.00  0.00    -0.200 F 
ENDBRANCH  49  63
BRANCH  50  74
ATOM     74  C   UNL A   1      43.947  27.226  28.424  1.00  0.00     0.064 A 
ATOM     75  C   UNL A   1      43.571  27.607  27.112  1.00  0.00     0.173 A 
ATOM     76  C   UNL A   1      44.652  26.017  28.536  1.00  0.00     0.173 A 
ATOM     77  F   UNL A   1      42.921  28.765  26.912  1.00  0.00    -0.203 F 
ATOM     78  C   UNL A   1      43.952  26.875  25.983  1.00  0.00     0.198 A 
ATOM     79  C   UNL A   1      45.016  25.272  27.400  1.00  0.00     0.198 A 
ATOM     80  F   UNL A   1      45.062  25.580  29.735  1.00  0.00    -0.203 F 
ATOM     81  F   UNL A   1      43.684  27.347  24.756  1.00  0.00    -0.200 F 
ATOM     82  C   UNL A   1      44.687  25.713  26.126  1.00  0.00     0.200 A 
ATOM     83  F   UNL A   1      45.753  24.159  27.534  1.00  0.00    -0.200 F 
ATOM     84  F   UNL A   1      45.127  25.057  25.042  1.00  0.00    -0.200 F 
ENDBRANCH  50  74
BRANCH  62  85
ATOM     85  C   UNL A   1      42.805  34.318  29.658  1.00  0.00     0.064 A 
ATOM     86  C   UNL A   1      43.044  35.220  30.703  1.00  0.00     0.173 A 
ATOM     87  C   UNL A   1      43.039  34.830  28.353  1.00  0.00     0.173 A 
ATOM     88  F   UNL A   1      43.012  34.845  31.986  1.00  0.00    -0.203 F 
ATOM     89  C   UNL A   1      43.403  36.545  30.465  1.00  0.00     0.198 A 
ATOM     90  C   UNL A   1      43.486  36.126  28.126  1.00  0.00     0.198 A 
ATOM     91  F   UNL A   1      42.885  34.087  27.248  1.00  0.00    -0.203 F 
ATOM     92  F   UNL A   1      43.554  37.378  31.502  1.00  0.00    -0.200 F 
ATOM     93  C   UNL A   1      43.643  36.992  29.181  1.00  0.00     0.200 A 
ATOM     94  F   UNL A   1      43.786  36.514  26.878  1.00  0.00    -0.200 F 
ATOM     95  F   UNL A   1      44.050  38.249  28.966  1.00  0.00    -0.200 F 
ENDBRANCH  62  85
ENDBRANCH  36  37
ENDBRANCH  29  31
ENDBRANCH  28  29
ENDBRANCH   1  28
TORSDOF 12
ENDMDL
MODEL 3
REMARK VINA RESULT:     -13.6      1.231      1.855
REMARK SMILES Cc1ccccc1[C@@H]1[NH2+][C@H](C(=O)OCCOC(=O)c2ccc(-c3c4nc(c(-c5c(F)c(F)c(F)c(F)c5F)c5ccc([nH]5)c(-c5c(F)c(F)c(F)c(F)c5F)c5nc(c(-c6c(F)c(F)c(F)c(F)c6F)c6ccc3[nH]6)C=C5)C=C4)cc2)CC2=c3ccccc3=N[C@@H]21
REMARK SMILES IDX 15 1 14 2 13 3 11 4 12 5 10 6 8 7 9 8 91 9 83 12 90 13 82 14
REMARK SMILES IDX 84 15 89 16 85 17 88 18 86 19 87 20 7 21 1 22 2 23 3 24 4 25
REMARK SMILES IDX 6 26 5 27 16 28 17 29 18 30 19 31 20 32 81 33 21 34 80 35
REMARK SMILES IDX 22 36 23 37 24 38 74 39 25 40 79 41 73 42 75 43 26 44 78 45
REMARK SMILES IDX 72 46 71 47 27 49 59 50 39 51 58 52 40 53 43 54 57 55 76 56
REMARK SMILES IDX 41 57 42 58 56 60 77 61 44 62 28 63 29 64 37 65 30 66 31 67
REMARK SMILES IDX 35 68 38 69 32 70 33 71 36 72 34 73 60 74 61 75 69 76 62 77
REMARK SMILES IDX 63 78 67 79 70 80 64 81 65 82 68 83 66 84 45 85 46 86 54 87
REMARK SMILES IDX 47 88 48 89 52 90 55 91 49 92 50 93 53 94 51 95
REMARK H PARENT 9 10 9 11 75 48 43 59
REMARK Flexibility Score: inf
ROOT
ATOM      1  C   UNL A   1      33.430  31.249  27.619  1.00  0.00     0.275 C 
ENDROOT
BRANCH   1   2
ATOM      2  C   UNL A   1      32.453  30.235  26.992  1.00  0.00     0.274 C 
BRANCH   2   3
ATOM      3  O   UNL A   1      32.434  28.853  27.456  1.00  0.00    -0.458 OA
BRANCH   3   4
ATOM      4  C   UNL A   1      32.216  27.661  26.818  1.00  0.00     0.365 C 
ATOM      5  O   UNL A   1      31.108  27.136  26.878  1.00  0.00    -0.245 OA
BRANCH   4   6
ATOM      6  C   UNL A   1      33.380  27.086  25.995  1.00  0.00     0.298 C 
ATOM      7  C   UNL A   1      33.610  24.859  24.904  1.00  0.00     0.243 C 
ATOM      8  N   UNL A   1      33.108  25.670  25.996  1.00  0.00    -0.326 N 
ATOM      9  C   UNL A   1      32.822  25.348  23.617  1.00  0.00     0.196 C 
ATOM     10  H   UNL A   1      33.502  25.290  26.856  1.00  0.00     0.347 HD
ATOM     11  H   UNL A   1      32.095  25.616  25.895  1.00  0.00     0.347 HD
ATOM     12  C   UNL A   1      32.700  26.882  23.648  1.00  0.00    -0.024 C 
ATOM     13  N   UNL A   1      31.388  24.926  23.554  1.00  0.00    -0.270 NA
ATOM     14  C   UNL A   1      33.584  27.662  24.579  1.00  0.00     0.111 C 
ATOM     15  C   UNL A   1      31.472  27.303  23.352  1.00  0.00     0.002 A 
ATOM     16  C   UNL A   1      30.726  26.034  23.385  1.00  0.00     0.066 A 
ATOM     17  C   UNL A   1      30.823  28.567  23.532  1.00  0.00     0.010 A 
ATOM     18  C   UNL A   1      29.248  26.167  23.378  1.00  0.00     0.028 A 
ATOM     19  C   UNL A   1      29.488  28.599  23.647  1.00  0.00     0.001 A 
ATOM     20  C   UNL A   1      28.699  27.386  23.526  1.00  0.00     0.002 A 
BRANCH   7  21
ATOM     21  C   UNL A   1      33.544  23.486  25.604  1.00  0.00     0.015 A 
ATOM     22  C   UNL A   1      35.542  22.558  24.206  1.00  0.00     0.045 C 
ATOM     23  C   UNL A   1      34.567  22.516  25.362  1.00  0.00    -0.042 A 
ATOM     24  C   UNL A   1      34.823  21.509  26.320  1.00  0.00     0.004 A 
ATOM     25  C   UNL A   1      34.151  21.481  27.538  1.00  0.00     0.000 A 
ATOM     26  C   UNL A   1      32.828  23.378  26.823  1.00  0.00     0.010 A 
ATOM     27  C   UNL A   1      33.156  22.416  27.789  1.00  0.00     0.001 A 
ENDBRANCH   7  21
ENDBRANCH   4   6
ENDBRANCH   3   4
ENDBRANCH   2   3
ENDBRANCH   1   2
BRANCH   1  28
ATOM     28  O   UNL A   1      34.684  30.784  28.224  1.00  0.00    -0.458 OA
BRANCH  28  29
ATOM     29  C   UNL A   1      35.684  29.980  27.746  1.00  0.00     0.338 C 
ATOM     30  O   UNL A   1      35.621  29.426  26.654  1.00  0.00    -0.246 OA
BRANCH  29  31
ATOM     31  C   UNL A   1      36.900  29.892  28.565  1.00  0.00     0.060 A 
ATOM     32  C   UNL A   1      37.023  28.999  29.649  1.00  0.00     0.016 A 
ATOM     33  C   UNL A   1      37.998  30.356  27.912  1.00  0.00     0.016 A 
ATOM     34  C   UNL A   1      38.253  28.346  29.867  1.00  0.00     0.010 A 
ATOM     35  C   UNL A   1      38.984  29.424  27.863  1.00  0.00     0.010 A 
ATOM     36  C   UNL A   1      39.226  28.487  28.883  1.00  0.00    -0.014 A 
BRANCH  36  37
ATOM     37  C   UNL A   1      40.537  27.830  28.722  1.00  0.00     0.031 A 
ATOM     38  C   UNL A   1      40.731  26.451  28.200  1.00  0.00     0.074 A 
ATOM     39  C   UNL A   1      41.566  28.673  29.021  1.00  0.00     0.049 A 
ATOM     40  N   UNL A   1      41.481  25.555  28.755  1.00  0.00    -0.248 NA
ATOM     41  C   UNL A   1      40.125  25.950  26.962  1.00  0.00     0.031 C 
ATOM     42  C   UNL A   1      43.004  28.594  28.912  1.00  0.00     0.029 A 
ATOM     43  N   UNL A   1      41.404  29.939  29.642  1.00  0.00    -0.354 N 
ATOM     44  C   UNL A   1      41.733  24.590  27.787  1.00  0.00     0.074 A 
ATOM     45  C   UNL A   1      40.696  24.746  26.804  1.00  0.00     0.031 C 
ATOM     46  C   UNL A   1      43.540  29.483  29.785  1.00  0.00     0.029 A 
ATOM     47  C   UNL A   1      42.442  30.111  30.523  1.00  0.00     0.049 A 
ATOM     48  H   UNL A   1      40.676  30.580  29.470  1.00  0.00     0.167 HD
ATOM     49  C   UNL A   1      42.971  24.012  27.696  1.00  0.00     0.037 A 
ATOM     50  C   UNL A   1      42.107  30.057  31.843  1.00  0.00     0.037 A 
ATOM     51  C   UNL A   1      43.881  24.736  28.570  1.00  0.00     0.049 A 
ATOM     52  C   UNL A   1      42.801  28.875  32.426  1.00  0.00     0.074 A 
ATOM     53  C   UNL A   1      44.810  25.724  28.292  1.00  0.00     0.029 A 
ATOM     54  N   UNL A   1      43.659  24.766  29.935  1.00  0.00    -0.354 N 
ATOM     55  N   UNL A   1      42.968  27.747  31.794  1.00  0.00    -0.248 NA
ATOM     56  C   UNL A   1      43.516  28.958  33.686  1.00  0.00     0.031 C 
ATOM     57  C   UNL A   1      45.173  26.334  29.515  1.00  0.00     0.029 A 
ATOM     58  C   UNL A   1      44.430  25.742  30.523  1.00  0.00     0.049 A 
ATOM     59  H   UNL A   1      43.037  24.172  30.417  1.00  0.00     0.167 HD
ATOM     60  C   UNL A   1      43.913  27.021  32.465  1.00  0.00     0.074 A 
ATOM     61  C   UNL A   1      44.199  27.804  33.655  1.00  0.00     0.031 C 
ATOM     62  C   UNL A   1      44.457  25.873  31.964  1.00  0.00     0.037 A 
BRANCH  49  63
ATOM     63  C   UNL A   1      43.502  23.082  26.610  1.00  0.00     0.064 A 
ATOM     64  C   UNL A   1      43.220  21.690  26.644  1.00  0.00     0.173 A 
ATOM     65  C   UNL A   1      44.233  23.495  25.482  1.00  0.00     0.173 A 
ATOM     66  F   UNL A   1      42.444  21.148  27.590  1.00  0.00    -0.203 F 
ATOM     67  C   UNL A   1      43.703  20.786  25.694  1.00  0.00     0.198 A 
ATOM     68  C   UNL A   1      44.727  22.584  24.531  1.00  0.00     0.198 A 
ATOM     69  F   UNL A   1      44.453  24.794  25.238  1.00  0.00    -0.203 F 
ATOM     70  F   UNL A   1      43.410  19.483  25.807  1.00  0.00    -0.200 F 
ATOM     71  C   UNL A   1      44.471  21.230  24.643  1.00  0.00     0.200 A 
ATOM     72  F   UNL A   1      45.449  23.029  23.492  1.00  0.00    -0.200 F 
ATOM     73  F   UNL A   1      44.939  20.363  23.734  1.00  0.00    -0.200 F 
ENDBRANCH  49  63
BRANCH  50  74
ATOM     74  C   UNL A   1      40.701  30.528  32.150  1.00  0.00     0.064 A 
ATOM     75  C   UNL A   1      39.735  29.564  32.530  1.00  0.00     0.173 A 
ATOM     76  C   UNL A   1      40.361  31.868  32.387  1.00  0.00     0.173 A 
ATOM     77  F   UNL A   1      39.993  28.256  32.367  1.00  0.00    -0.203 F 
ATOM     78  C   UNL A   1      38.550  29.912  33.186  1.00  0.00     0.198 A 
ATOM     79  C   UNL A   1      39.158  32.217  33.027  1.00  0.00     0.198 A 
ATOM     80  F   UNL A   1      41.216  32.852  32.073  1.00  0.00    -0.203 F 
ATOM     81  F   UNL A   1      37.729  28.954  33.643  1.00  0.00    -0.200 F 
ATOM     82  C   UNL A   1      38.266  31.240  33.446  1.00  0.00     0.200 A 
ATOM     83  F   UNL A   1      38.893  33.503  33.307  1.00  0.00    -0.200 F 
ATOM     84  F   UNL A   1      37.173  31.569  34.150  1.00  0.00    -0.200 F 
ENDBRANCH  50  74
BRANCH  62  85
ATOM     85  C   UNL A   1      45.167  24.799  32.749  1.00  0.00     0.064 A 
ATOM     86  C   UNL A   1      46.451  24.949  33.288  1.00  0.00     0.173 A 
ATOM     87  C   UNL A   1      44.480  23.620  33.146  1.00  0.00     0.173 A 
ATOM     88  F   UNL A   1      47.161  26.071  33.128  1.00  0.00    -0.203 F 
ATOM     89  C   UNL A   1      47.035  23.968  34.086  1.00  0.00     0.198 A 
ATOM     90  C   UNL A   1      45.032  22.688  34.017  1.00  0.00     0.198 A 
ATOM     91  F   UNL A   1      43.233  23.340  32.741  1.00  0.00    -0.203 F 
ATOM     92  F   UNL A   1      48.291  24.138  34.519  1.00  0.00    -0.200 F 
ATOM     93  C   UNL A   1      46.321  22.850  34.467  1.00  0.00     0.200 A 
ATOM     94  F   UNL A   1      44.293  21.650  34.432  1.00  0.00    -0.200 F 
ATOM     95  F   UNL A   1      46.867  21.943  35.286  1.00  0.00    -0.200 F 
ENDBRANCH  62  85
ENDBRANCH  36  37
ENDBRANCH  29  31
ENDBRANCH  28  29
ENDBRANCH   1  28
TORSDOF 12
ENDMDL
