MODEL 1
REMARK VINA RESULT:     -11.9      0.000      0.000
REMARK SMILES C[C@@H](C(=O)OCCOC(=O)c1ccc(-c2c3nc(c(-c4c(F)c(F)c(F)c(F)c4F)c4ccc([nH]4)c(-c4c(F)c(F)c(F)c(F)c4F)c4nc(c(-c5c(F)c(F)c(F)c(F)c5F)c5ccc2[nH]5)C=C4)C=C3)cc1)c1ccc(C[C@H]2CCC[C@H]2O)cc1
REMARK SMILES IDX 6 1 5 2 3 3 4 4 2 5 1 6 74 7 75 8 86 9 76 10 85 11 77 12
REMARK SMILES IDX 78 13 79 14 80 15 83 16 81 17 82 18 84 19 7 21 8 22 9 23
REMARK SMILES IDX 10 24 11 25 12 26 73 27 13 28 72 29 14 30 15 31 16 32 66 33
REMARK SMILES IDX 17 34 71 35 65 36 67 37 18 38 70 39 64 40 63 41 19 43 51 44
REMARK SMILES IDX 31 45 50 46 32 47 35 48 49 49 68 50 33 51 34 52 48 54 69 55
REMARK SMILES IDX 36 56 20 57 21 58 29 59 22 60 23 61 27 62 30 63 24 64 25 65
REMARK SMILES IDX 28 66 26 67 52 68 53 69 61 70 54 71 55 72 59 73 62 74 56 75
REMARK SMILES IDX 57 76 60 77 58 78 37 79 38 80 46 81 39 82 40 83 44 84 47 85
REMARK SMILES IDX 41 86 42 87 45 88 43 89
REMARK H PARENT 84 20 67 42 35 53
REMARK Flexibility Score: inf
ROOT
ATOM      1  C   UNL A   1      31.490  28.348  25.050  1.00  0.00     0.274 C 
ENDROOT
BRANCH   1   2
ATOM      2  O   UNL A   1      32.534  27.871  24.177  1.00  0.00    -0.462 OA
BRANCH   2   3
ATOM      3  C   UNL A   1      33.142  26.723  24.594  1.00  0.00     0.313 C 
ATOM      4  O   UNL A   1      33.618  26.629  25.720  1.00  0.00    -0.252 OA
BRANCH   3   5
ATOM      5  C   UNL A   1      33.246  25.638  23.481  1.00  0.00     0.126 C 
ATOM      6  C   UNL A   1      31.907  25.500  22.739  1.00  0.00     0.025 C 
BRANCH   5   7
ATOM      7  C   UNL A   1      33.795  24.289  23.993  1.00  0.00    -0.034 A 
ATOM      8  C   UNL A   1      32.953  23.415  24.689  1.00  0.00     0.005 A 
ATOM      9  C   UNL A   1      35.114  23.846  23.790  1.00  0.00     0.005 A 
ATOM     10  C   UNL A   1      33.320  22.102  24.960  1.00  0.00     0.004 A 
ATOM     11  C   UNL A   1      35.519  22.549  24.171  1.00  0.00     0.004 A 
ATOM     12  C   UNL A   1      34.610  21.645  24.737  1.00  0.00    -0.048 A 
BRANCH  12  13
ATOM     13  C   UNL A   1      34.975  20.201  25.001  1.00  0.00     0.041 C 
BRANCH  13  14
ATOM     14  C   UNL A   1      34.018  19.082  24.548  1.00  0.00     0.022 C 
ATOM     15  C   UNL A   1      34.681  17.736  24.214  1.00  0.00     0.007 C 
ATOM     16  C   UNL A   1      32.761  18.747  25.382  1.00  0.00     0.117 C 
ATOM     17  C   UNL A   1      33.810  16.665  24.862  1.00  0.00     0.003 C 
ATOM     18  C   UNL A   1      32.435  17.309  24.995  1.00  0.00     0.032 C 
BRANCH  16  19
ATOM     19  O   UNL A   1      32.909  18.799  26.788  1.00  0.00    -0.393 OA
ATOM     20  H   UNL A   1      33.743  19.242  27.009  1.00  0.00     0.210 HD
ENDBRANCH  16  19
ENDBRANCH  13  14
ENDBRANCH  12  13
ENDBRANCH   5   7
ENDBRANCH   3   5
ENDBRANCH   2   3
ENDBRANCH   1   2
BRANCH   1  21
ATOM     21  C   UNL A   1      31.674  29.817  25.454  1.00  0.00     0.275 C 
BRANCH  21  22
ATOM     22  O   UNL A   1      33.040  30.152  25.774  1.00  0.00    -0.458 OA
BRANCH  22  23
ATOM     23  C   UNL A   1      33.187  31.097  26.734  1.00  0.00     0.338 C 
ATOM     24  O   UNL A   1      32.380  31.966  27.023  1.00  0.00    -0.246 OA
BRANCH  23  25
ATOM     25  C   UNL A   1      34.420  30.874  27.520  1.00  0.00     0.060 A 
ATOM     26  C   UNL A   1      34.688  29.561  27.910  1.00  0.00     0.016 A 
ATOM     27  C   UNL A   1      35.273  31.906  27.927  1.00  0.00     0.016 A 
ATOM     28  C   UNL A   1      35.817  29.266  28.669  1.00  0.00     0.010 A 
ATOM     29  C   UNL A   1      36.398  31.609  28.718  1.00  0.00     0.010 A 
ATOM     30  C   UNL A   1      36.682  30.284  29.086  1.00  0.00    -0.014 A 
BRANCH  30  31
ATOM     31  C   UNL A   1      37.836  29.918  29.947  1.00  0.00     0.031 A 
ATOM     32  C   UNL A   1      38.976  29.131  29.367  1.00  0.00     0.074 A 
ATOM     33  C   UNL A   1      37.931  30.395  31.201  1.00  0.00     0.049 A 
ATOM     34  N   UNL A   1      40.113  28.786  29.917  1.00  0.00    -0.248 NA
ATOM     35  C   UNL A   1      38.822  28.691  27.972  1.00  0.00     0.031 C 
ATOM     36  C   UNL A   1      36.953  31.269  31.842  1.00  0.00     0.029 A 
ATOM     37  N   UNL A   1      38.925  30.253  32.140  1.00  0.00    -0.354 N 
ATOM     38  C   UNL A   1      40.804  28.078  28.945  1.00  0.00     0.074 A 
ATOM     39  C   UNL A   1      39.970  28.061  27.761  1.00  0.00     0.031 C 
ATOM     40  C   UNL A   1      37.411  31.616  33.056  1.00  0.00     0.029 A 
ATOM     41  C   UNL A   1      38.699  30.969  33.291  1.00  0.00     0.049 A 
ATOM     42  H   UNL A   1      39.723  29.692  32.002  1.00  0.00     0.167 HD
ATOM     43  C   UNL A   1      42.012  27.472  29.037  1.00  0.00     0.037 A 
ATOM     44  C   UNL A   1      39.453  31.095  34.402  1.00  0.00     0.037 A 
ATOM     45  C   UNL A   1      42.834  27.456  30.218  1.00  0.00     0.049 A 
ATOM     46  C   UNL A   1      40.760  30.349  34.503  1.00  0.00     0.074 A 
ATOM     47  C   UNL A   1      44.041  26.807  30.419  1.00  0.00     0.029 A 
ATOM     48  N   UNL A   1      42.531  28.109  31.402  1.00  0.00    -0.354 N 
ATOM     49  N   UNL A   1      41.393  29.656  33.589  1.00  0.00    -0.248 NA
ATOM     50  C   UNL A   1      41.446  30.389  35.804  1.00  0.00     0.031 C 
ATOM     51  C   UNL A   1      44.443  27.028  31.741  1.00  0.00     0.029 A 
ATOM     52  C   UNL A   1      43.512  27.856  32.347  1.00  0.00     0.049 A 
ATOM     53  H   UNL A   1      41.734  28.670  31.549  1.00  0.00     0.167 HD
ATOM     54  C   UNL A   1      42.548  29.183  34.200  1.00  0.00     0.074 A 
ATOM     55  C   UNL A   1      42.550  29.701  35.551  1.00  0.00     0.031 C 
ATOM     56  C   UNL A   1      43.510  28.376  33.690  1.00  0.00     0.037 A 
BRANCH  43  57
ATOM     57  C   UNL A   1      42.474  26.696  27.843  1.00  0.00     0.064 A 
ATOM     58  C   UNL A   1      42.084  25.367  27.624  1.00  0.00     0.173 A 
ATOM     59  C   UNL A   1      43.315  27.302  26.897  1.00  0.00     0.173 A 
ATOM     60  F   UNL A   1      41.296  24.740  28.511  1.00  0.00    -0.203 F 
ATOM     61  C   UNL A   1      42.538  24.666  26.510  1.00  0.00     0.198 A 
ATOM     62  C   UNL A   1      43.748  26.606  25.774  1.00  0.00     0.198 A 
ATOM     63  F   UNL A   1      43.714  28.572  27.063  1.00  0.00    -0.203 F 
ATOM     64  F   UNL A   1      42.187  23.383  26.339  1.00  0.00    -0.200 F 
ATOM     65  C   UNL A   1      43.365  25.287  25.584  1.00  0.00     0.200 A 
ATOM     66  F   UNL A   1      44.541  27.209  24.878  1.00  0.00    -0.200 F 
ATOM     67  F   UNL A   1      43.800  24.610  24.513  1.00  0.00    -0.200 F 
ENDBRANCH  43  57
BRANCH  44  68
ATOM     68  C   UNL A   1      39.005  31.961  35.528  1.00  0.00     0.064 A 
ATOM     69  C   UNL A   1      39.406  33.303  35.602  1.00  0.00     0.173 A 
ATOM     70  C   UNL A   1      38.224  31.456  36.576  1.00  0.00     0.173 A 
ATOM     71  F   UNL A   1      40.179  33.825  34.638  1.00  0.00    -0.203 F 
ATOM     72  C   UNL A   1      39.064  34.099  36.692  1.00  0.00     0.198 A 
ATOM     73  C   UNL A   1      37.856  32.261  37.653  1.00  0.00     0.198 A 
ATOM     74  F   UNL A   1      37.828  30.174  36.565  1.00  0.00    -0.203 F 
ATOM     75  F   UNL A   1      39.513  35.359  36.768  1.00  0.00    -0.200 F 
ATOM     76  C   UNL A   1      38.286  33.578  37.715  1.00  0.00     0.200 A 
ATOM     77  F   UNL A   1      37.104  31.755  38.640  1.00  0.00    -0.200 F 
ATOM     78  F   UNL A   1      37.968  34.339  38.772  1.00  0.00    -0.200 F 
ENDBRANCH  44  68
BRANCH  56  79
ATOM     79  C   UNL A   1      44.651  27.996  34.591  1.00  0.00     0.064 A 
ATOM     80  C   UNL A   1      44.609  26.831  35.371  1.00  0.00     0.173 A 
ATOM     81  C   UNL A   1      45.822  28.770  34.630  1.00  0.00     0.173 A 
ATOM     82  F   UNL A   1      43.508  26.064  35.379  1.00  0.00    -0.203 F 
ATOM     83  C   UNL A   1      45.687  26.465  36.173  1.00  0.00     0.198 A 
ATOM     84  C   UNL A   1      46.908  28.386  35.412  1.00  0.00     0.198 A 
ATOM     85  F   UNL A   1      45.918  29.889  33.898  1.00  0.00    -0.203 F 
ATOM     86  F   UNL A   1      45.608  25.368  36.939  1.00  0.00    -0.200 F 
ATOM     87  C   UNL A   1      46.839  27.237  36.186  1.00  0.00     0.200 A 
ATOM     88  F   UNL A   1      48.026  29.125  35.413  1.00  0.00    -0.200 F 
ATOM     89  F   UNL A   1      47.880  26.877  36.949  1.00  0.00    -0.200 F 
ENDBRANCH  56  79
ENDBRANCH  30  31
ENDBRANCH  23  25
ENDBRANCH  22  23
ENDBRANCH  21  22
ENDBRANCH   1  21
TORSDOF 15
ENDMDL
MODEL 2
REMARK VINA RESULT:     -11.8      1.420      2.253
REMARK SMILES C[C@@H](C(=O)OCCOC(=O)c1ccc(-c2c3nc(c(-c4c(F)c(F)c(F)c(F)c4F)c4ccc([nH]4)c(-c4c(F)c(F)c(F)c(F)c4F)c4nc(c(-c5c(F)c(F)c(F)c(F)c5F)c5ccc2[nH]5)C=C4)C=C3)cc1)c1ccc(C[C@H]2CCC[C@H]2O)cc1
REMARK SMILES IDX 6 1 5 2 3 3 4 4 2 5 1 6 74 7 75 8 86 9 76 10 85 11 77 12
REMARK SMILES IDX 78 13 79 14 80 15 83 16 81 17 82 18 84 19 7 21 8 22 9 23
REMARK SMILES IDX 10 24 11 25 12 26 73 27 13 28 72 29 14 30 15 31 16 32 66 33
REMARK SMILES IDX 17 34 71 35 65 36 67 37 18 38 70 39 64 40 63 41 19 43 51 44
REMARK SMILES IDX 31 45 50 46 32 47 35 48 49 49 68 50 33 51 34 52 48 54 69 55
REMARK SMILES IDX 36 56 20 57 21 58 29 59 22 60 23 61 27 62 30 63 24 64 25 65
REMARK SMILES IDX 28 66 26 67 52 68 53 69 61 70 54 71 55 72 59 73 62 74 56 75
REMARK SMILES IDX 57 76 60 77 58 78 37 79 38 80 46 81 39 82 40 83 44 84 47 85
REMARK SMILES IDX 41 86 42 87 45 88 43 89
REMARK H PARENT 84 20 67 42 35 53
REMARK Flexibility Score: inf
ROOT
ATOM      1  C   UNL A   1      31.150  29.751  24.291  1.00  0.00     0.274 C 
ENDROOT
BRANCH   1   2
ATOM      2  O   UNL A   1      31.657  28.700  23.442  1.00  0.00    -0.462 OA
BRANCH   2   3
ATOM      3  C   UNL A   1      30.696  27.997  22.775  1.00  0.00     0.313 C 
ATOM      4  O   UNL A   1      29.943  28.547  21.979  1.00  0.00    -0.252 OA
BRANCH   3   5
ATOM      5  C   UNL A   1      30.609  26.503  23.209  1.00  0.00     0.126 C 
ATOM      6  C   UNL A   1      29.342  26.260  24.046  1.00  0.00     0.025 C 
BRANCH   5   7
ATOM      7  C   UNL A   1      31.894  25.991  23.894  1.00  0.00    -0.034 A 
ATOM      8  C   UNL A   1      31.990  26.004  25.290  1.00  0.00     0.005 A 
ATOM      9  C   UNL A   1      33.005  25.476  23.203  1.00  0.00     0.005 A 
ATOM     10  C   UNL A   1      33.011  25.341  25.961  1.00  0.00     0.004 A 
ATOM     11  C   UNL A   1      34.096  24.905  23.891  1.00  0.00     0.004 A 
ATOM     12  C   UNL A   1      34.097  24.803  25.288  1.00  0.00    -0.048 A 
BRANCH  12  13
ATOM     13  C   UNL A   1      35.175  24.051  26.037  1.00  0.00     0.041 C 
BRANCH  13  14
ATOM     14  C   UNL A   1      36.216  23.234  25.250  1.00  0.00     0.022 C 
ATOM     15  C   UNL A   1      37.671  23.377  25.725  1.00  0.00     0.007 C 
ATOM     16  C   UNL A   1      35.993  21.726  24.997  1.00  0.00     0.117 C 
ATOM     17  C   UNL A   1      38.248  21.966  25.747  1.00  0.00     0.003 C 
ATOM     18  C   UNL A   1      37.397  21.182  24.756  1.00  0.00     0.032 C 
BRANCH  16  19
ATOM     19  O   UNL A   1      35.415  20.990  26.058  1.00  0.00    -0.393 OA
ATOM     20  H   UNL A   1      35.952  20.202  26.235  1.00  0.00     0.210 HD
ENDBRANCH  16  19
ENDBRANCH  13  14
ENDBRANCH  12  13
ENDBRANCH   5   7
ENDBRANCH   3   5
ENDBRANCH   2   3
ENDBRANCH   1   2
BRANCH   1  21
ATOM     21  C   UNL A   1      31.756  29.723  25.700  1.00  0.00     0.275 C 
BRANCH  21  22
ATOM     22  O   UNL A   1      33.046  30.363  25.777  1.00  0.00    -0.458 OA
BRANCH  22  23
ATOM     23  C   UNL A   1      33.184  31.250  26.792  1.00  0.00     0.338 C 
ATOM     24  O   UNL A   1      32.382  32.110  27.117  1.00  0.00    -0.246 OA
BRANCH  23  25
ATOM     25  C   UNL A   1      34.401  30.969  27.586  1.00  0.00     0.060 A 
ATOM     26  C   UNL A   1      34.598  29.647  27.987  1.00  0.00     0.016 A 
ATOM     27  C   UNL A   1      35.304  31.958  27.991  1.00  0.00     0.016 A 
ATOM     28  C   UNL A   1      35.706  29.299  28.754  1.00  0.00     0.010 A 
ATOM     29  C   UNL A   1      36.408  31.609  28.789  1.00  0.00     0.010 A 
ATOM     30  C   UNL A   1      36.621  30.273  29.169  1.00  0.00    -0.014 A 
BRANCH  30  31
ATOM     31  C   UNL A   1      37.751  29.854  30.037  1.00  0.00     0.031 A 
ATOM     32  C   UNL A   1      38.861  29.021  29.464  1.00  0.00     0.074 A 
ATOM     33  C   UNL A   1      37.854  30.320  31.295  1.00  0.00     0.049 A 
ATOM     34  N   UNL A   1      39.977  28.625  30.023  1.00  0.00    -0.248 NA
ATOM     35  C   UNL A   1      38.701  28.594  28.066  1.00  0.00     0.031 C 
ATOM     36  C   UNL A   1      36.909  31.234  31.931  1.00  0.00     0.029 A 
ATOM     37  N   UNL A   1      38.833  30.132  32.243  1.00  0.00    -0.354 N 
ATOM     38  C   UNL A   1      40.646  27.892  29.053  1.00  0.00     0.074 A 
ATOM     39  C   UNL A   1      39.822  27.917  27.862  1.00  0.00     0.031 C 
ATOM     40  C   UNL A   1      37.370  31.555  33.152  1.00  0.00     0.029 A 
ATOM     41  C   UNL A   1      38.627  30.851  33.395  1.00  0.00     0.049 A 
ATOM     42  H   UNL A   1      39.607  29.538  32.109  1.00  0.00     0.167 HD
ATOM     43  C   UNL A   1      41.825  27.235  29.153  1.00  0.00     0.037 A 
ATOM     44  C   UNL A   1      39.375  30.940  34.513  1.00  0.00     0.037 A 
ATOM     45  C   UNL A   1      42.635  27.177  30.341  1.00  0.00     0.049 A 
ATOM     46  C   UNL A   1      40.648  30.138  34.622  1.00  0.00     0.074 A 
ATOM     47  C   UNL A   1      43.811  26.476  30.550  1.00  0.00     0.029 A 
ATOM     48  N   UNL A   1      42.349  27.837  31.526  1.00  0.00    -0.354 N 
ATOM     49  N   UNL A   1      41.259  29.423  33.711  1.00  0.00    -0.248 NA
ATOM     50  C   UNL A   1      41.323  30.142  35.929  1.00  0.00     0.031 C 
ATOM     51  C   UNL A   1      44.210  26.673  31.877  1.00  0.00     0.029 A 
ATOM     52  C   UNL A   1      43.310  27.538  32.479  1.00  0.00     0.049 A 
ATOM     53  H   UNL A   1      41.576  28.432  31.669  1.00  0.00     0.167 HD
ATOM     54  C   UNL A   1      42.387  28.897  34.329  1.00  0.00     0.074 A 
ATOM     55  C   UNL A   1      42.399  29.408  35.683  1.00  0.00     0.031 C 
ATOM     56  C   UNL A   1      43.318  28.052  33.824  1.00  0.00     0.037 A 
BRANCH  43  57
ATOM     57  C   UNL A   1      42.265  26.444  27.960  1.00  0.00     0.064 A 
ATOM     58  C   UNL A   1      43.194  26.946  27.038  1.00  0.00     0.173 A 
ATOM     59  C   UNL A   1      41.750  25.156  27.746  1.00  0.00     0.173 A 
ATOM     60  F   UNL A   1      43.700  28.179  27.191  1.00  0.00    -0.203 F 
ATOM     61  C   UNL A   1      43.577  26.192  25.931  1.00  0.00     0.198 A 
ATOM     62  C   UNL A   1      42.151  24.399  26.651  1.00  0.00     0.198 A 
ATOM     63  F   UNL A   1      40.859  24.634  28.601  1.00  0.00    -0.203 F 
ATOM     64  F   UNL A   1      44.435  26.705  25.038  1.00  0.00    -0.200 F 
ATOM     65  C   UNL A   1      43.059  24.919  25.741  1.00  0.00     0.200 A 
ATOM     66  F   UNL A   1      41.655  23.167  26.473  1.00  0.00    -0.200 F 
ATOM     67  F   UNL A   1      43.428  24.196  24.675  1.00  0.00    -0.200 F 
ENDBRANCH  43  57
BRANCH  44  68
ATOM     68  C   UNL A   1      38.955  31.819  35.639  1.00  0.00     0.064 A 
ATOM     69  C   UNL A   1      39.388  33.152  35.707  1.00  0.00     0.173 A 
ATOM     70  C   UNL A   1      38.169  31.335  36.694  1.00  0.00     0.173 A 
ATOM     71  F   UNL A   1      40.167  33.653  34.736  1.00  0.00    -0.203 F 
ATOM     72  C   UNL A   1      39.071  33.958  36.797  1.00  0.00     0.198 A 
ATOM     73  C   UNL A   1      37.826  32.152  37.770  1.00  0.00     0.198 A 
ATOM     74  F   UNL A   1      37.743  30.063  36.688  1.00  0.00    -0.203 F 
ATOM     75  F   UNL A   1      39.550  35.208  36.866  1.00  0.00    -0.200 F 
ATOM     76  C   UNL A   1      38.287  33.459  37.826  1.00  0.00     0.200 A 
ATOM     77  F   UNL A   1      37.069  31.666  38.763  1.00  0.00    -0.200 F 
ATOM     78  F   UNL A   1      37.993  34.230  38.882  1.00  0.00    -0.200 F 
ENDBRANCH  44  68
BRANCH  56  79
ATOM     79  C   UNL A   1      44.433  27.618  34.733  1.00  0.00     0.064 A 
ATOM     80  C   UNL A   1      44.335  26.451  35.504  1.00  0.00     0.173 A 
ATOM     81  C   UNL A   1      45.634  28.343  34.791  1.00  0.00     0.173 A 
ATOM     82  F   UNL A   1      43.204  25.729  35.495  1.00  0.00    -0.203 F 
ATOM     83  C   UNL A   1      45.389  26.034  36.314  1.00  0.00     0.198 A 
ATOM     84  C   UNL A   1      46.696  27.910  35.580  1.00  0.00     0.198 A 
ATOM     85  F   UNL A   1      45.783  29.464  34.068  1.00  0.00    -0.203 F 
ATOM     86  F   UNL A   1      45.258  24.936  37.071  1.00  0.00    -0.200 F 
ATOM     87  C   UNL A   1      46.571  26.759  36.344  1.00  0.00     0.200 A 
ATOM     88  F   UNL A   1      47.842  28.603  35.598  1.00  0.00    -0.200 F 
ATOM     89  F   UNL A   1      47.589  26.351  37.114  1.00  0.00    -0.200 F 
ENDBRANCH  56  79
ENDBRANCH  30  31
ENDBRANCH  23  25
ENDBRANCH  22  23
ENDBRANCH  21  22
ENDBRANCH   1  21
TORSDOF 15
ENDMDL
MODEL 3
REMARK VINA RESULT:     -11.8      0.943      2.290
REMARK SMILES C[C@@H](C(=O)OCCOC(=O)c1ccc(-c2c3nc(c(-c4c(F)c(F)c(F)c(F)c4F)c4ccc([nH]4)c(-c4c(F)c(F)c(F)c(F)c4F)c4nc(c(-c5c(F)c(F)c(F)c(F)c5F)c5ccc2[nH]5)C=C4)C=C3)cc1)c1ccc(C[C@H]2CCC[C@H]2O)cc1
REMARK SMILES IDX 6 1 5 2 3 3 4 4 2 5 1 6 74 7 75 8 86 9 76 10 85 11 77 12
REMARK SMILES IDX 78 13 79 14 80 15 83 16 81 17 82 18 84 19 7 21 8 22 9 23
REMARK SMILES IDX 10 24 11 25 12 26 73 27 13 28 72 29 14 30 15 31 16 32 66 33
REMARK SMILES IDX 17 34 71 35 65 36 67 37 18 38 70 39 64 40 63 41 19 43 51 44
REMARK SMILES IDX 31 45 50 46 32 47 35 48 49 49 68 50 33 51 34 52 48 54 69 55
REMARK SMILES IDX 36 56 20 57 21 58 29 59 22 60 23 61 27 62 30 63 24 64 25 65
REMARK SMILES IDX 28 66 26 67 52 68 53 69 61 70 54 71 55 72 59 73 62 74 56 75
REMARK SMILES IDX 57 76 60 77 58 78 37 79 38 80 46 81 39 82 40 83 44 84 47 85
REMARK SMILES IDX 41 86 42 87 45 88 43 89
REMARK H PARENT 84 20 67 42 35 53
REMARK Flexibility Score: inf
ROOT
ATOM      1  C   UNL A   1      31.489  29.171  24.396  1.00  0.00     0.274 C 
ENDROOT
BRANCH   1   2
ATOM      2  O   UNL A   1      32.051  27.850  24.252  1.00  0.00    -0.462 OA
BRANCH   2   3
ATOM      3  C   UNL A   1      31.503  26.908  25.073  1.00  0.00     0.313 C 
ATOM      4  O   UNL A   1      30.288  26.792  25.183  1.00  0.00    -0.252 OA
BRANCH   3   5
ATOM      5  C   UNL A   1      32.560  26.110  25.892  1.00  0.00     0.126 C 
ATOM      6  C   UNL A   1      33.947  26.760  25.756  1.00  0.00     0.025 C 
BRANCH   5   7
ATOM      7  C   UNL A   1      32.567  24.600  25.573  1.00  0.00    -0.034 A 
ATOM      8  C   UNL A   1      33.124  23.698  26.486  1.00  0.00     0.005 A 
ATOM      9  C   UNL A   1      32.021  24.038  24.405  1.00  0.00     0.005 A 
ATOM     10  C   UNL A   1      32.945  22.325  26.364  1.00  0.00     0.004 A 
ATOM     11  C   UNL A   1      31.944  22.640  24.230  1.00  0.00     0.004 A 
ATOM     12  C   UNL A   1      32.381  21.761  25.230  1.00  0.00    -0.048 A 
BRANCH  12  13
ATOM     13  C   UNL A   1      32.160  20.268  25.138  1.00  0.00     0.041 C 
BRANCH  13  14
ATOM     14  C   UNL A   1      33.029  19.430  24.182  1.00  0.00     0.022 C 
ATOM     15  C   UNL A   1      34.472  19.175  24.646  1.00  0.00     0.007 C 
ATOM     16  C   UNL A   1      32.508  18.081  23.636  1.00  0.00     0.117 C 
ATOM     17  C   UNL A   1      34.748  17.700  24.372  1.00  0.00     0.003 C 
ATOM     18  C   UNL A   1      33.777  17.322  23.262  1.00  0.00     0.032 C 
BRANCH  16  19
ATOM     19  O   UNL A   1      31.770  17.282  24.539  1.00  0.00    -0.393 OA
ATOM     20  H   UNL A   1      32.303  16.516  24.804  1.00  0.00     0.210 HD
ENDBRANCH  16  19
ENDBRANCH  13  14
ENDBRANCH  12  13
ENDBRANCH   5   7
ENDBRANCH   3   5
ENDBRANCH   2   3
ENDBRANCH   1   2
BRANCH   1  21
ATOM     21  C   UNL A   1      31.799  29.806  25.759  1.00  0.00     0.275 C 
BRANCH  21  22
ATOM     22  O   UNL A   1      33.150  30.301  25.861  1.00  0.00    -0.458 OA
BRANCH  22  23
ATOM     23  C   UNL A   1      33.348  31.221  26.837  1.00  0.00     0.338 C 
ATOM     24  O   UNL A   1      32.578  32.112  27.160  1.00  0.00    -0.246 OA
BRANCH  23  25
ATOM     25  C   UNL A   1      34.588  30.939  27.593  1.00  0.00     0.060 A 
ATOM     26  C   UNL A   1      34.739  29.645  28.091  1.00  0.00     0.016 A 
ATOM     27  C   UNL A   1      35.559  31.908  27.872  1.00  0.00     0.016 A 
ATOM     28  C   UNL A   1      35.867  29.300  28.832  1.00  0.00     0.010 A 
ATOM     29  C   UNL A   1      36.684  31.565  28.643  1.00  0.00     0.010 A 
ATOM     30  C   UNL A   1      36.849  30.254  29.121  1.00  0.00    -0.014 A 
BRANCH  30  31
ATOM     31  C   UNL A   1      38.000  29.846  29.967  1.00  0.00     0.031 A 
ATOM     32  C   UNL A   1      39.089  28.995  29.382  1.00  0.00     0.074 A 
ATOM     33  C   UNL A   1      38.140  30.337  31.212  1.00  0.00     0.049 A 
ATOM     34  N   UNL A   1      40.218  28.603  29.918  1.00  0.00    -0.248 NA
ATOM     35  C   UNL A   1      38.889  28.541  27.997  1.00  0.00     0.031 C 
ATOM     36  C   UNL A   1      37.217  31.268  31.855  1.00  0.00     0.029 A 
ATOM     37  N   UNL A   1      39.143  30.161  32.136  1.00  0.00    -0.354 N 
ATOM     38  C   UNL A   1      40.856  27.847  28.945  1.00  0.00     0.074 A 
ATOM     39  C   UNL A   1      40.001  27.853  27.777  1.00  0.00     0.031 C 
ATOM     40  C   UNL A   1      37.713  31.611  33.056  1.00  0.00     0.029 A 
ATOM     41  C   UNL A   1      38.973  30.905  33.279  1.00  0.00     0.049 A 
ATOM     42  H   UNL A   1      39.909  29.560  31.994  1.00  0.00     0.167 HD
ATOM     43  C   UNL A   1      42.034  27.185  29.027  1.00  0.00     0.037 A 
ATOM     44  C   UNL A   1      39.751  31.012  34.375  1.00  0.00     0.037 A 
ATOM     45  C   UNL A   1      42.876  27.146  30.193  1.00  0.00     0.049 A 
ATOM     46  C   UNL A   1      41.022  30.204  34.465  1.00  0.00     0.074 A 
ATOM     47  C   UNL A   1      44.053  26.442  30.385  1.00  0.00     0.029 A 
ATOM     48  N   UNL A   1      42.626  27.832  31.371  1.00  0.00    -0.354 N 
ATOM     49  N   UNL A   1      41.605  29.467  33.552  1.00  0.00    -0.248 NA
ATOM     50  C   UNL A   1      41.733  30.231  35.753  1.00  0.00     0.031 C 
ATOM     51  C   UNL A   1      44.489  26.664  31.696  1.00  0.00     0.029 A 
ATOM     52  C   UNL A   1      43.611  27.546  32.304  1.00  0.00     0.049 A 
ATOM     53  H   UNL A   1      41.860  28.434  31.523  1.00  0.00     0.167 HD
ATOM     54  C   UNL A   1      42.745  28.948  34.151  1.00  0.00     0.074 A 
ATOM     55  C   UNL A   1      42.797  29.486  35.493  1.00  0.00     0.031 C 
ATOM     56  C   UNL A   1      43.658  28.087  33.638  1.00  0.00     0.037 A 
BRANCH  43  57
ATOM     57  C   UNL A   1      42.437  26.368  27.838  1.00  0.00     0.064 A 
ATOM     58  C   UNL A   1      43.325  26.855  26.868  1.00  0.00     0.173 A 
ATOM     59  C   UNL A   1      41.929  25.069  27.677  1.00  0.00     0.173 A 
ATOM     60  F   UNL A   1      43.821  28.097  26.970  1.00  0.00    -0.203 F 
ATOM     61  C   UNL A   1      43.673  26.076  25.767  1.00  0.00     0.198 A 
ATOM     62  C   UNL A   1      42.297  24.287  26.588  1.00  0.00     0.198 A 
ATOM     63  F   UNL A   1      41.077  24.560  28.580  1.00  0.00    -0.203 F 
ATOM     64  F   UNL A   1      44.491  26.574  24.829  1.00  0.00    -0.200 F 
ATOM     65  C   UNL A   1      43.163  24.793  25.630  1.00  0.00     0.200 A 
ATOM     66  F   UNL A   1      41.809  23.046  26.461  1.00  0.00    -0.200 F 
ATOM     67  F   UNL A   1      43.499  24.046  24.571  1.00  0.00    -0.200 F 
ENDBRANCH  43  57
BRANCH  44  68
ATOM     68  C   UNL A   1      39.366  31.916  35.493  1.00  0.00     0.064 A 
ATOM     69  C   UNL A   1      38.506  31.472  36.508  1.00  0.00     0.173 A 
ATOM     70  C   UNL A   1      39.796  33.249  35.541  1.00  0.00     0.173 A 
ATOM     71  F   UNL A   1      38.043  30.213  36.491  1.00  0.00    -0.203 F 
ATOM     72  C   UNL A   1      38.072  32.332  37.514  1.00  0.00     0.198 A 
ATOM     73  C   UNL A   1      39.386  34.102  36.565  1.00  0.00     0.198 A 
ATOM     74  F   UNL A   1      40.605  33.731  34.586  1.00  0.00    -0.203 F 
ATOM     75  F   UNL A   1      37.201  31.899  38.435  1.00  0.00    -0.200 F 
ATOM     76  C   UNL A   1      38.515  33.646  37.543  1.00  0.00     0.200 A 
ATOM     77  F   UNL A   1      39.816  35.371  36.590  1.00  0.00    -0.200 F 
ATOM     78  F   UNL A   1      38.087  34.478  38.502  1.00  0.00    -0.200 F 
ENDBRANCH  44  68
BRANCH  56  79
ATOM     79  C   UNL A   1      44.795  27.665  34.525  1.00  0.00     0.064 A 
ATOM     80  C   UNL A   1      45.983  28.407  34.592  1.00  0.00     0.173 A 
ATOM     81  C   UNL A   1      44.674  26.543  35.360  1.00  0.00     0.173 A 
ATOM     82  F   UNL A   1      46.154  29.480  33.806  1.00  0.00    -0.203 F 
ATOM     83  C   UNL A   1      47.017  28.031  35.447  1.00  0.00     0.198 A 
ATOM     84  C   UNL A   1      45.698  26.186  36.233  1.00  0.00     0.198 A 
ATOM     85  F   UNL A   1      43.556  25.802  35.340  1.00  0.00    -0.203 F 
ATOM     86  F   UNL A   1      48.158  28.734  35.466  1.00  0.00    -0.200 F 
ATOM     87  C   UNL A   1      46.870  26.926  36.272  1.00  0.00     0.200 A 
ATOM     88  F   UNL A   1      45.550  25.126  37.040  1.00  0.00    -0.200 F 
ATOM     89  F   UNL A   1      47.860  26.573  37.103  1.00  0.00    -0.200 F 
ENDBRANCH  56  79
ENDBRANCH  30  31
ENDBRANCH  23  25
ENDBRANCH  22  23
ENDBRANCH  21  22
ENDBRANCH   1  21
TORSDOF 15
ENDMDL
