MODEL 1
REMARK VINA RESULT:     -12.7      0.000      0.000
REMARK SMILES Cc1ccc(N)cc1S(=O)(=O)Nc1cccc(C(=O)OCCOC(=O)c2ccc(-c3c4nc(c(-c5c(F)c(F)c(F)c(F)c5F)c5ccc([nH]5)c(-c5c(F)c(F)c(F)c(F)c5F)c5nc(c(-c6c(F)c(F)c(F)c(F)c6F)c6ccc3[nH]6)C=C5)C=C4)cc2)c1
REMARK SMILES IDX 21 1 20 2 18 3 19 4 17 5 13 6 14 7 89 8 15 9 16 10 12 11
REMARK SMILES IDX 9 13 10 14 11 15 8 16 1 17 2 18 3 19 4 20 7 21 5 22 6 23
REMARK SMILES IDX 22 26 23 27 24 28 25 29 26 30 27 31 88 32 28 33 87 34 29 35
REMARK SMILES IDX 30 36 31 37 81 38 32 39 86 40 80 41 82 42 33 43 85 44 79 45
REMARK SMILES IDX 78 46 34 48 66 49 46 50 65 51 47 52 50 53 64 54 83 55 48 56
REMARK SMILES IDX 49 57 63 59 84 60 51 61 35 62 36 63 44 64 37 65 38 66 42 67
REMARK SMILES IDX 45 68 39 69 40 70 43 71 41 72 67 73 68 74 76 75 69 76 70 77
REMARK SMILES IDX 74 78 77 79 71 80 72 81 75 82 73 83 52 84 53 85 61 86 54 87
REMARK SMILES IDX 55 88 59 89 62 90 56 91 57 92 60 93 58 94
REMARK H PARENT 12 12 6 24 6 25 82 47 50 58
REMARK Flexibility Score: inf
ROOT
ATOM      1  C   UNL A   1      33.245  29.066  24.714  1.00  0.00     0.275 C 
ENDROOT
BRANCH   1   2
ATOM      2  O   UNL A   1      32.901  29.125  23.317  1.00  0.00    -0.458 OA
BRANCH   2   3
ATOM      3  C   UNL A   1      32.808  27.930  22.697  1.00  0.00     0.338 C 
ATOM      4  O   UNL A   1      33.696  27.343  22.094  1.00  0.00    -0.246 OA
BRANCH   3   5
ATOM      5  C   UNL A   1      31.445  27.376  22.813  1.00  0.00     0.062 A 
ATOM      6  C   UNL A   1      30.119  25.703  23.869  1.00  0.00     0.050 A 
ATOM      7  C   UNL A   1      28.984  26.523  23.776  1.00  0.00     0.027 A 
ATOM      8  C   UNL A   1      31.309  26.061  23.245  1.00  0.00     0.042 A 
ATOM      9  C   UNL A   1      29.093  27.799  23.244  1.00  0.00     0.003 A 
ATOM     10  C   UNL A   1      30.341  28.244  22.826  1.00  0.00     0.016 A 
BRANCH   6  11
ATOM     11  N   UNL A   1      30.052  24.686  24.849  1.00  0.00    -0.280 N 
ATOM     12  H   UNL A   1      29.481  23.909  24.645  1.00  0.00     0.180 HD
BRANCH  11  13
ATOM     13  S   UNL A   1      30.842  24.673  26.313  1.00  0.00     0.262 S 
ATOM     14  O   UNL A   1      30.046  23.852  27.204  1.00  0.00    -0.201 OA
ATOM     15  O   UNL A   1      31.085  26.069  26.618  1.00  0.00    -0.201 OA
BRANCH  13  16
ATOM     16  C   UNL A   1      32.459  23.898  26.222  1.00  0.00     0.092 A 
ATOM     17  C   UNL A   1      34.028  25.898  25.682  1.00  0.00     0.046 C 
ATOM     18  C   UNL A   1      33.673  24.446  25.784  1.00  0.00    -0.030 A 
ATOM     19  C   UNL A   1      34.727  23.555  25.485  1.00  0.00     0.007 A 
ATOM     20  C   UNL A   1      34.649  22.199  25.803  1.00  0.00     0.026 A 
ATOM     21  C   UNL A   1      32.419  22.531  26.575  1.00  0.00     0.048 A 
ATOM     22  C   UNL A   1      33.533  21.703  26.461  1.00  0.00     0.033 A 
BRANCH  22  23
ATOM     23  N   UNL A   1      33.470  20.376  26.857  1.00  0.00    -0.399 N 
ATOM     24  H   UNL A   1      34.235  19.777  26.694  1.00  0.00     0.156 HD
ATOM     25  H   UNL A   1      32.662  20.033  27.302  1.00  0.00     0.156 HD
ENDBRANCH  22  23
ENDBRANCH  13  16
ENDBRANCH  11  13
ENDBRANCH   6  11
ENDBRANCH   3   5
ENDBRANCH   2   3
ENDBRANCH   1   2
BRANCH   1  26
ATOM     26  C   UNL A   1      32.251  29.882  25.539  1.00  0.00     0.275 C 
BRANCH  26  27
ATOM     27  O   UNL A   1      32.680  29.976  26.912  1.00  0.00    -0.458 OA
BRANCH  27  28
ATOM     28  C   UNL A   1      33.277  31.142  27.244  1.00  0.00     0.338 C 
ATOM     29  O   UNL A   1      32.789  32.258  27.248  1.00  0.00    -0.246 OA
BRANCH  28  30
ATOM     30  C   UNL A   1      34.659  30.902  27.682  1.00  0.00     0.060 A 
ATOM     31  C   UNL A   1      35.048  29.609  28.015  1.00  0.00     0.016 A 
ATOM     32  C   UNL A   1      35.495  31.976  27.964  1.00  0.00     0.016 A 
ATOM     33  C   UNL A   1      36.191  29.396  28.775  1.00  0.00     0.010 A 
ATOM     34  C   UNL A   1      36.724  31.740  28.589  1.00  0.00     0.010 A 
ATOM     35  C   UNL A   1      37.064  30.453  29.047  1.00  0.00    -0.014 A 
BRANCH  35  36
ATOM     36  C   UNL A   1      38.318  30.228  29.817  1.00  0.00     0.031 A 
ATOM     37  C   UNL A   1      39.415  29.377  29.235  1.00  0.00     0.074 A 
ATOM     38  C   UNL A   1      38.472  30.765  31.045  1.00  0.00     0.049 A 
ATOM     39  N   UNL A   1      40.459  28.847  29.821  1.00  0.00    -0.248 NA
ATOM     40  C   UNL A   1      39.311  29.065  27.801  1.00  0.00     0.031 C 
ATOM     41  C   UNL A   1      37.527  31.667  31.705  1.00  0.00     0.029 A 
ATOM     42  N   UNL A   1      39.483  30.621  31.964  1.00  0.00    -0.354 N 
ATOM     43  C   UNL A   1      41.097  28.089  28.847  1.00  0.00     0.074 A 
ATOM     44  C   UNL A   1      40.316  28.217  27.636  1.00  0.00     0.031 C 
ATOM     45  C   UNL A   1      38.012  32.019  32.903  1.00  0.00     0.029 A 
ATOM     46  C   UNL A   1      39.243  31.280  33.145  1.00  0.00     0.049 A 
ATOM     47  H   UNL A   1      40.299  30.097  31.793  1.00  0.00     0.167 HD
ATOM     48  C   UNL A   1      42.231  27.354  28.959  1.00  0.00     0.037 A 
ATOM     49  C   UNL A   1      39.903  31.245  34.318  1.00  0.00     0.037 A 
ATOM     50  C   UNL A   1      43.016  27.268  30.165  1.00  0.00     0.049 A 
ATOM     51  C   UNL A   1      41.106  30.357  34.446  1.00  0.00     0.074 A 
ATOM     52  C   UNL A   1      44.181  26.558  30.390  1.00  0.00     0.029 A 
ATOM     53  N   UNL A   1      42.712  27.922  31.352  1.00  0.00    -0.354 N 
ATOM     54  N   UNL A   1      41.675  29.598  33.542  1.00  0.00    -0.248 NA
ATOM     55  C   UNL A   1      41.749  30.307  35.766  1.00  0.00     0.031 C 
ATOM     56  C   UNL A   1      44.554  26.741  31.726  1.00  0.00     0.029 A 
ATOM     57  C   UNL A   1      43.659  27.617  32.317  1.00  0.00     0.049 A 
ATOM     58  H   UNL A   1      41.939  28.516  31.487  1.00  0.00     0.167 HD
ATOM     59  C   UNL A   1      42.761  29.006  34.171  1.00  0.00     0.074 A 
ATOM     60  C   UNL A   1      42.775  29.501  35.532  1.00  0.00     0.031 C 
ATOM     61  C   UNL A   1      43.666  28.132  33.664  1.00  0.00     0.037 A 
BRANCH  48  62
ATOM     62  C   UNL A   1      42.660  26.550  27.763  1.00  0.00     0.064 A 
ATOM     63  C   UNL A   1      42.222  25.233  27.551  1.00  0.00     0.173 A 
ATOM     64  C   UNL A   1      43.524  27.109  26.808  1.00  0.00     0.173 A 
ATOM     65  F   UNL A   1      41.405  24.643  28.436  1.00  0.00    -0.203 F 
ATOM     66  C   UNL A   1      42.668  24.495  26.456  1.00  0.00     0.198 A 
ATOM     67  C   UNL A   1      43.937  26.381  25.694  1.00  0.00     0.198 A 
ATOM     68  F   UNL A   1      43.969  28.366  26.952  1.00  0.00    -0.203 F 
ATOM     69  F   UNL A   1      42.288  23.217  26.314  1.00  0.00    -0.200 F 
ATOM     70  C   UNL A   1      43.519  25.071  25.526  1.00  0.00     0.200 A 
ATOM     71  F   UNL A   1      44.747  26.947  24.788  1.00  0.00    -0.200 F 
ATOM     72  F   UNL A   1      43.947  24.359  24.474  1.00  0.00    -0.200 F 
ENDBRANCH  48  62
BRANCH  49  73
ATOM     73  C   UNL A   1      39.414  32.053  35.467  1.00  0.00     0.064 A 
ATOM     74  C   UNL A   1      39.822  33.382  35.631  1.00  0.00     0.173 A 
ATOM     75  C   UNL A   1      38.521  31.523  36.412  1.00  0.00     0.173 A 
ATOM     76  F   UNL A   1      40.690  33.927  34.766  1.00  0.00    -0.203 F 
ATOM     77  C   UNL A   1      39.366  34.149  36.701  1.00  0.00     0.198 A 
ATOM     78  C   UNL A   1      38.038  32.301  37.463  1.00  0.00     0.198 A 
ATOM     79  F   UNL A   1      38.096  30.256  36.301  1.00  0.00    -0.203 F 
ATOM     80  F   UNL A   1      39.804  35.405  36.857  1.00  0.00    -0.200 F 
ATOM     81  C   UNL A   1      38.467  33.611  37.610  1.00  0.00     0.200 A 
ATOM     82  F   UNL A   1      37.155  31.783  38.327  1.00  0.00    -0.200 F 
ATOM     83  F   UNL A   1      38.020  34.353  38.632  1.00  0.00    -0.200 F 
ENDBRANCH  49  73
BRANCH  61  84
ATOM     84  C   UNL A   1      44.787  27.705  34.567  1.00  0.00     0.064 A 
ATOM     85  C   UNL A   1      44.698  26.559  35.371  1.00  0.00     0.173 A 
ATOM     86  C   UNL A   1      45.983  28.438  34.598  1.00  0.00     0.173 A 
ATOM     87  F   UNL A   1      43.568  25.835  35.393  1.00  0.00    -0.203 F 
ATOM     88  C   UNL A   1      45.757  26.176  36.189  1.00  0.00     0.198 A 
ATOM     89  C   UNL A   1      47.053  28.032  35.390  1.00  0.00     0.198 A 
ATOM     90  F   UNL A   1      46.120  29.540  33.846  1.00  0.00    -0.203 F 
ATOM     91  F   UNL A   1      45.631  25.106  36.987  1.00  0.00    -0.200 F 
ATOM     92  C   UNL A   1      46.936  26.907  36.191  1.00  0.00     0.200 A 
ATOM     93  F   UNL A   1      48.195  28.731  35.378  1.00  0.00    -0.200 F 
ATOM     94  F   UNL A   1      47.959  26.530  36.970  1.00  0.00    -0.200 F 
ENDBRANCH  61  84
ENDBRANCH  35  36
ENDBRANCH  28  30
ENDBRANCH  27  28
ENDBRANCH  26  27
ENDBRANCH   1  26
TORSDOF 15
ENDMDL
MODEL 2
REMARK VINA RESULT:     -12.6      2.809      8.722
REMARK SMILES Cc1ccc(N)cc1S(=O)(=O)Nc1cccc(C(=O)OCCOC(=O)c2ccc(-c3c4nc(c(-c5c(F)c(F)c(F)c(F)c5F)c5ccc([nH]5)c(-c5c(F)c(F)c(F)c(F)c5F)c5nc(c(-c6c(F)c(F)c(F)c(F)c6F)c6ccc3[nH]6)C=C5)C=C4)cc2)c1
REMARK SMILES IDX 21 1 20 2 18 3 19 4 17 5 13 6 14 7 89 8 15 9 16 10 12 11
REMARK SMILES IDX 9 13 10 14 11 15 8 16 1 17 2 18 3 19 4 20 7 21 5 22 6 23
REMARK SMILES IDX 22 26 23 27 24 28 25 29 26 30 27 31 88 32 28 33 87 34 29 35
REMARK SMILES IDX 30 36 31 37 81 38 32 39 86 40 80 41 82 42 33 43 85 44 79 45
REMARK SMILES IDX 78 46 34 48 66 49 46 50 65 51 47 52 50 53 64 54 83 55 48 56
REMARK SMILES IDX 49 57 63 59 84 60 51 61 35 62 36 63 44 64 37 65 38 66 42 67
REMARK SMILES IDX 45 68 39 69 40 70 43 71 41 72 67 73 68 74 76 75 69 76 70 77
REMARK SMILES IDX 74 78 77 79 71 80 72 81 75 82 73 83 52 84 53 85 61 86 54 87
REMARK SMILES IDX 55 88 59 89 62 90 56 91 57 92 60 93 58 94
REMARK H PARENT 12 12 6 24 6 25 82 47 50 58
REMARK Flexibility Score: inf
ROOT
ATOM      1  C   UNL A   1      33.988  35.409  28.688  1.00  0.00     0.275 C 
ENDROOT
BRANCH   1   2
ATOM      2  O   UNL A   1      33.962  34.002  28.994  1.00  0.00    -0.458 OA
BRANCH   2   3
ATOM      3  C   UNL A   1      33.324  33.228  28.092  1.00  0.00     0.338 C 
ATOM      4  O   UNL A   1      32.349  33.533  27.420  1.00  0.00    -0.246 OA
BRANCH   3   5
ATOM      5  C   UNL A   1      33.949  31.894  28.001  1.00  0.00     0.062 A 
ATOM      6  C   UNL A   1      34.050  29.887  26.723  1.00  0.00     0.050 A 
ATOM      7  C   UNL A   1      35.368  29.665  27.149  1.00  0.00     0.027 A 
ATOM      8  C   UNL A   1      33.287  30.911  27.272  1.00  0.00     0.042 A 
ATOM      9  C   UNL A   1      35.998  30.592  27.965  1.00  0.00     0.003 A 
ATOM     10  C   UNL A   1      35.304  31.737  28.333  1.00  0.00     0.016 A 
BRANCH   6  11
ATOM     11  N   UNL A   1      33.676  29.217  25.534  1.00  0.00    -0.280 N 
ATOM     12  H   UNL A   1      33.926  29.649  24.684  1.00  0.00     0.180 HD
BRANCH  11  13
ATOM     13  S   UNL A   1      32.857  27.773  25.431  1.00  0.00     0.262 S 
ATOM     14  O   UNL A   1      32.621  27.336  26.793  1.00  0.00    -0.201 OA
ATOM     15  O   UNL A   1      33.642  26.963  24.522  1.00  0.00    -0.201 OA
BRANCH  13  16
ATOM     16  C   UNL A   1      31.240  27.946  24.669  1.00  0.00     0.092 A 
ATOM     17  C   UNL A   1      30.174  25.605  25.044  1.00  0.00     0.046 C 
ATOM     18  C   UNL A   1      30.284  26.955  24.403  1.00  0.00    -0.030 A 
ATOM     19  C   UNL A   1      29.244  27.270  23.501  1.00  0.00     0.007 A 
ATOM     20  C   UNL A   1      29.044  28.573  23.044  1.00  0.00     0.026 A 
ATOM     21  C   UNL A   1      30.993  29.264  24.229  1.00  0.00     0.048 A 
ATOM     22  C   UNL A   1      29.852  29.602  23.504  1.00  0.00     0.033 A 
BRANCH  22  23
ATOM     23  N   UNL A   1      29.620  30.914  23.125  1.00  0.00    -0.399 N 
ATOM     24  H   UNL A   1      30.278  31.389  22.565  1.00  0.00     0.156 HD
ATOM     25  H   UNL A   1      28.798  31.372  23.412  1.00  0.00     0.156 HD
ENDBRANCH  22  23
ENDBRANCH  13  16
ENDBRANCH  11  13
ENDBRANCH   6  11
ENDBRANCH   3   5
ENDBRANCH   2   3
ENDBRANCH   1   2
BRANCH   1  26
ATOM     26  C   UNL A   1      32.908  36.144  29.481  1.00  0.00     0.275 C 
BRANCH  26  27
ATOM     27  O   UNL A   1      32.424  35.326  30.565  1.00  0.00    -0.458 OA
BRANCH  27  28
ATOM     28  C   UNL A   1      32.590  35.855  31.797  1.00  0.00     0.338 C 
ATOM     29  O   UNL A   1      31.955  36.755  32.317  1.00  0.00    -0.246 OA
BRANCH  28  30
ATOM     30  C   UNL A   1      33.658  35.148  32.517  1.00  0.00     0.060 A 
ATOM     31  C   UNL A   1      34.926  35.715  32.574  1.00  0.00     0.016 A 
ATOM     32  C   UNL A   1      33.460  33.839  32.942  1.00  0.00     0.016 A 
ATOM     33  C   UNL A   1      36.029  34.935  32.900  1.00  0.00     0.010 A 
ATOM     34  C   UNL A   1      34.549  33.105  33.423  1.00  0.00     0.010 A 
ATOM     35  C   UNL A   1      35.855  33.626  33.360  1.00  0.00    -0.014 A 
BRANCH  35  36
ATOM     36  C   UNL A   1      37.025  32.797  33.760  1.00  0.00     0.031 A 
ATOM     37  C   UNL A   1      37.676  33.013  35.100  1.00  0.00     0.074 A 
ATOM     38  C   UNL A   1      37.519  31.863  32.922  1.00  0.00     0.049 A 
ATOM     39  N   UNL A   1      38.836  32.594  35.540  1.00  0.00    -0.248 NA
ATOM     40  C   UNL A   1      36.926  33.828  36.070  1.00  0.00     0.031 C 
ATOM     41  C   UNL A   1      36.949  31.494  31.625  1.00  0.00     0.029 A 
ATOM     42  N   UNL A   1      38.626  31.058  33.033  1.00  0.00    -0.354 N 
ATOM     43  C   UNL A   1      38.983  33.147  36.807  1.00  0.00     0.074 A 
ATOM     44  C   UNL A   1      37.800  33.941  37.059  1.00  0.00     0.031 C 
ATOM     45  C   UNL A   1      37.687  30.520  31.076  1.00  0.00     0.029 A 
ATOM     46  C   UNL A   1      38.845  30.276  31.925  1.00  0.00     0.049 A 
ATOM     47  H   UNL A   1      39.206  31.042  33.829  1.00  0.00     0.167 HD
ATOM     48  C   UNL A   1      40.014  33.002  37.675  1.00  0.00     0.037 A 
ATOM     49  C   UNL A   1      39.891  29.496  31.595  1.00  0.00     0.037 A 
ATOM     50  C   UNL A   1      41.168  32.177  37.420  1.00  0.00     0.049 A 
ATOM     51  C   UNL A   1      41.061  29.419  32.532  1.00  0.00     0.074 A 
ATOM     52  C   UNL A   1      42.268  31.955  38.229  1.00  0.00     0.029 A 
ATOM     53  N   UNL A   1      41.366  31.433  36.264  1.00  0.00    -0.354 N 
ATOM     54  N   UNL A   1      41.224  29.985  33.702  1.00  0.00    -0.248 NA
ATOM     55  C   UNL A   1      42.204  28.607  32.092  1.00  0.00     0.031 C 
ATOM     56  C   UNL A   1      43.154  31.119  37.542  1.00  0.00     0.029 A 
ATOM     57  C   UNL A   1      42.579  30.765  36.332  1.00  0.00     0.049 A 
ATOM     58  H   UNL A   1      40.737  31.385  35.509  1.00  0.00     0.167 HD
ATOM     59  C   UNL A   1      42.469  29.574  34.155  1.00  0.00     0.074 A 
ATOM     60  C   UNL A   1      43.015  28.702  33.135  1.00  0.00     0.031 C 
ATOM     61  C   UNL A   1      43.100  29.888  35.313  1.00  0.00     0.037 A 
BRANCH  48  62
ATOM     62  C   UNL A   1      39.961  33.789  38.956  1.00  0.00     0.064 A 
ATOM     63  C   UNL A   1      39.281  33.322  40.092  1.00  0.00     0.173 A 
ATOM     64  C   UNL A   1      40.607  35.031  39.050  1.00  0.00     0.173 A 
ATOM     65  F   UNL A   1      38.636  32.147  40.057  1.00  0.00    -0.203 F 
ATOM     66  C   UNL A   1      39.212  34.090  41.254  1.00  0.00     0.198 A 
ATOM     67  C   UNL A   1      40.570  35.778  40.225  1.00  0.00     0.198 A 
ATOM     68  F   UNL A   1      41.282  35.525  38.000  1.00  0.00    -0.203 F 
ATOM     69  F   UNL A   1      38.499  33.652  42.301  1.00  0.00    -0.200 F 
ATOM     70  C   UNL A   1      39.862  35.313  41.321  1.00  0.00     0.200 A 
ATOM     71  F   UNL A   1      41.212  36.953  40.293  1.00  0.00    -0.200 F 
ATOM     72  F   UNL A   1      39.794  36.049  42.440  1.00  0.00    -0.200 F 
ENDBRANCH  48  62
BRANCH  49  73
ATOM     73  C   UNL A   1      39.886  28.759  30.304  1.00  0.00     0.064 A 
ATOM     74  C   UNL A   1      40.437  29.332  29.151  1.00  0.00     0.173 A 
ATOM     75  C   UNL A   1      39.349  27.466  30.196  1.00  0.00     0.173 A 
ATOM     76  F   UNL A   1      40.943  30.574  29.197  1.00  0.00    -0.203 F 
ATOM     77  C   UNL A   1      40.442  28.648  27.937  1.00  0.00     0.198 A 
ATOM     78  C   UNL A   1      39.386  26.768  28.990  1.00  0.00     0.198 A 
ATOM     79  F   UNL A   1      38.812  26.868  31.270  1.00  0.00    -0.203 F 
ATOM     80  F   UNL A   1      40.939  29.236  26.841  1.00  0.00    -0.200 F 
ATOM     81  C   UNL A   1      39.925  27.363  27.861  1.00  0.00     0.200 A 
ATOM     82  F   UNL A   1      38.904  25.520  28.926  1.00  0.00    -0.200 F 
ATOM     83  F   UNL A   1      39.942  26.700  26.696  1.00  0.00    -0.200 F 
ENDBRANCH  49  73
BRANCH  61  84
ATOM     84  C   UNL A   1      44.427  29.234  35.570  1.00  0.00     0.064 A 
ATOM     85  C   UNL A   1      44.530  27.977  36.182  1.00  0.00     0.173 A 
ATOM     86  C   UNL A   1      45.612  29.864  35.161  1.00  0.00     0.173 A 
ATOM     87  F   UNL A   1      43.428  27.342  36.610  1.00  0.00    -0.203 F 
ATOM     88  C   UNL A   1      45.772  27.385  36.396  1.00  0.00     0.198 A 
ATOM     89  C   UNL A   1      46.849  29.255  35.344  1.00  0.00     0.198 A 
ATOM     90  F   UNL A   1      45.569  31.067  34.568  1.00  0.00    -0.203 F 
ATOM     91  F   UNL A   1      45.850  26.206  37.029  1.00  0.00    -0.200 F 
ATOM     92  C   UNL A   1      46.929  28.019  35.968  1.00  0.00     0.200 A 
ATOM     93  F   UNL A   1      47.964  29.863  34.917  1.00  0.00    -0.200 F 
ATOM     94  F   UNL A   1      48.123  27.443  36.164  1.00  0.00    -0.200 F 
ENDBRANCH  61  84
ENDBRANCH  35  36
ENDBRANCH  28  30
ENDBRANCH  27  28
ENDBRANCH  26  27
ENDBRANCH   1  26
TORSDOF 15
ENDMDL
MODEL 3
REMARK VINA RESULT:     -12.6      1.189      2.419
REMARK SMILES Cc1ccc(N)cc1S(=O)(=O)Nc1cccc(C(=O)OCCOC(=O)c2ccc(-c3c4nc(c(-c5c(F)c(F)c(F)c(F)c5F)c5ccc([nH]5)c(-c5c(F)c(F)c(F)c(F)c5F)c5nc(c(-c6c(F)c(F)c(F)c(F)c6F)c6ccc3[nH]6)C=C5)C=C4)cc2)c1
REMARK SMILES IDX 21 1 20 2 18 3 19 4 17 5 13 6 14 7 89 8 15 9 16 10 12 11
REMARK SMILES IDX 9 13 10 14 11 15 8 16 1 17 2 18 3 19 4 20 7 21 5 22 6 23
REMARK SMILES IDX 22 26 23 27 24 28 25 29 26 30 27 31 88 32 28 33 87 34 29 35
REMARK SMILES IDX 30 36 31 37 81 38 32 39 86 40 80 41 82 42 33 43 85 44 79 45
REMARK SMILES IDX 78 46 34 48 66 49 46 50 65 51 47 52 50 53 64 54 83 55 48 56
REMARK SMILES IDX 49 57 63 59 84 60 51 61 35 62 36 63 44 64 37 65 38 66 42 67
REMARK SMILES IDX 45 68 39 69 40 70 43 71 41 72 67 73 68 74 76 75 69 76 70 77
REMARK SMILES IDX 74 78 77 79 71 80 72 81 75 82 73 83 52 84 53 85 61 86 54 87
REMARK SMILES IDX 55 88 59 89 62 90 56 91 57 92 60 93 58 94
REMARK H PARENT 12 12 6 24 6 25 82 47 50 58
REMARK Flexibility Score: inf
ROOT
ATOM      1  C   UNL A   1      31.273  29.273  24.982  1.00  0.00     0.275 C 
ENDROOT
BRANCH   1   2
ATOM      2  O   UNL A   1      31.945  28.083  25.434  1.00  0.00    -0.458 OA
BRANCH   2   3
ATOM      3  C   UNL A   1      31.264  27.343  26.334  1.00  0.00     0.338 C 
ATOM      4  O   UNL A   1      31.005  27.646  27.490  1.00  0.00    -0.246 OA
BRANCH   3   5
ATOM      5  C   UNL A   1      30.850  26.050  25.754  1.00  0.00     0.062 A 
ATOM      6  C   UNL A   1      31.073  24.614  23.867  1.00  0.00     0.050 A 
ATOM      7  C   UNL A   1      30.837  23.492  24.675  1.00  0.00     0.027 A 
ATOM      8  C   UNL A   1      30.921  25.901  24.373  1.00  0.00     0.042 A 
ATOM      9  C   UNL A   1      30.658  23.647  26.042  1.00  0.00     0.003 A 
ATOM     10  C   UNL A   1      30.733  24.923  26.584  1.00  0.00     0.016 A 
BRANCH   6  11
ATOM     11  N   UNL A   1      31.739  24.353  22.647  1.00  0.00    -0.280 N 
ATOM     12  H   UNL A   1      31.183  24.327  21.835  1.00  0.00     0.180 HD
BRANCH  11  13
ATOM     13  S   UNL A   1      33.369  24.084  22.451  1.00  0.00     0.262 S 
ATOM     14  O   UNL A   1      33.967  25.373  22.160  1.00  0.00    -0.201 OA
ATOM     15  O   UNL A   1      33.456  22.999  21.496  1.00  0.00    -0.201 OA
BRANCH  13  16
ATOM     16  C   UNL A   1      34.159  23.489  23.950  1.00  0.00     0.092 A 
ATOM     17  C   UNL A   1      34.414  25.653  25.366  1.00  0.00     0.046 C 
ATOM     18  C   UNL A   1      34.708  24.228  25.007  1.00  0.00    -0.030 A 
ATOM     19  C   UNL A   1      35.567  23.556  25.904  1.00  0.00     0.007 A 
ATOM     20  C   UNL A   1      35.712  22.169  25.874  1.00  0.00     0.026 A 
ATOM     21  C   UNL A   1      34.287  22.082  23.966  1.00  0.00     0.048 A 
ATOM     22  C   UNL A   1      34.975  21.413  24.975  1.00  0.00     0.033 A 
BRANCH  22  23
ATOM     23  N   UNL A   1      35.044  20.029  24.983  1.00  0.00    -0.399 N 
ATOM     24  H   UNL A   1      34.885  19.533  25.820  1.00  0.00     0.156 HD
ATOM     25  H   UNL A   1      35.250  19.541  24.154  1.00  0.00     0.156 HD
ENDBRANCH  22  23
ENDBRANCH  13  16
ENDBRANCH  11  13
ENDBRANCH   6  11
ENDBRANCH   3   5
ENDBRANCH   2   3
ENDBRANCH   1   2
BRANCH   1  26
ATOM     26  C   UNL A   1      31.682  30.470  25.840  1.00  0.00     0.275 C 
BRANCH  26  27
ATOM     27  O   UNL A   1      33.055  30.351  26.262  1.00  0.00    -0.458 OA
BRANCH  27  28
ATOM     28  C   UNL A   1      33.472  31.307  27.122  1.00  0.00     0.338 C 
ATOM     29  O   UNL A   1      32.845  32.265  27.537  1.00  0.00    -0.246 OA
BRANCH  28  30
ATOM     30  C   UNL A   1      34.839  31.021  27.579  1.00  0.00     0.060 A 
ATOM     31  C   UNL A   1      35.186  29.714  27.902  1.00  0.00     0.016 A 
ATOM     32  C   UNL A   1      35.700  32.068  27.890  1.00  0.00     0.016 A 
ATOM     33  C   UNL A   1      36.309  29.458  28.677  1.00  0.00     0.010 A 
ATOM     34  C   UNL A   1      36.911  31.789  28.531  1.00  0.00     0.010 A 
ATOM     35  C   UNL A   1      37.208  30.487  28.978  1.00  0.00    -0.014 A 
BRANCH  35  36
ATOM     36  C   UNL A   1      38.441  30.216  29.765  1.00  0.00     0.031 A 
ATOM     37  C   UNL A   1      39.520  29.334  29.193  1.00  0.00     0.074 A 
ATOM     38  C   UNL A   1      38.594  30.740  30.999  1.00  0.00     0.049 A 
ATOM     39  N   UNL A   1      40.537  28.767  29.792  1.00  0.00    -0.248 NA
ATOM     40  C   UNL A   1      39.428  29.036  27.755  1.00  0.00     0.031 C 
ATOM     41  C   UNL A   1      37.668  31.667  31.651  1.00  0.00     0.029 A 
ATOM     42  N   UNL A   1      39.585  30.556  31.932  1.00  0.00    -0.354 N 
ATOM     43  C   UNL A   1      41.165  27.996  28.821  1.00  0.00     0.074 A 
ATOM     44  C   UNL A   1      40.407  28.157  27.599  1.00  0.00     0.031 C 
ATOM     45  C   UNL A   1      38.145  31.995  32.859  1.00  0.00     0.029 A 
ATOM     46  C   UNL A   1      39.348  31.214  33.115  1.00  0.00     0.049 A 
ATOM     47  H   UNL A   1      40.386  30.008  31.769  1.00  0.00     0.167 HD
ATOM     48  C   UNL A   1      42.273  27.224  28.945  1.00  0.00     0.037 A 
ATOM     49  C   UNL A   1      39.988  31.151  34.297  1.00  0.00     0.037 A 
ATOM     50  C   UNL A   1      43.036  27.104  30.163  1.00  0.00     0.049 A 
ATOM     51  C   UNL A   1      41.160  30.223  34.437  1.00  0.00     0.074 A 
ATOM     52  C   UNL A   1      44.174  26.356  30.400  1.00  0.00     0.029 A 
ATOM     53  N   UNL A   1      42.735  27.760  31.350  1.00  0.00    -0.354 N 
ATOM     54  N   UNL A   1      41.719  29.453  33.536  1.00  0.00    -0.248 NA
ATOM     55  C   UNL A   1      41.780  30.143  35.766  1.00  0.00     0.031 C 
ATOM     56  C   UNL A   1      44.532  26.517  31.742  1.00  0.00     0.029 A 
ATOM     57  C   UNL A   1      43.657  27.417  32.327  1.00  0.00     0.049 A 
ATOM     58  H   UNL A   1      41.979  28.377  31.477  1.00  0.00     0.167 HD
ATOM     59  C   UNL A   1      42.775  28.822  34.177  1.00  0.00     0.074 A 
ATOM     60  C   UNL A   1      42.783  29.307  35.542  1.00  0.00     0.031 C 
ATOM     61  C   UNL A   1      43.659  27.923  33.677  1.00  0.00     0.037 A 
BRANCH  48  62
ATOM     62  C   UNL A   1      42.695  26.414  27.750  1.00  0.00     0.064 A 
ATOM     63  C   UNL A   1      42.176  25.135  27.493  1.00  0.00     0.173 A 
ATOM     64  C   UNL A   1      43.633  26.930  26.842  1.00  0.00     0.173 A 
ATOM     65  F   UNL A   1      41.285  24.587  28.332  1.00  0.00    -0.203 F 
ATOM     66  C   UNL A   1      42.615  24.389  26.401  1.00  0.00     0.198 A 
ATOM     67  C   UNL A   1      44.040  26.197  25.730  1.00  0.00     0.198 A 
ATOM     68  F   UNL A   1      44.157  28.151  27.030  1.00  0.00    -0.203 F 
ATOM     69  F   UNL A   1      42.155  23.143  26.216  1.00  0.00    -0.200 F 
ATOM     70  C   UNL A   1      43.541  24.922  25.517  1.00  0.00     0.200 A 
ATOM     71  F   UNL A   1      44.923  26.722  24.869  1.00  0.00    -0.200 F 
ATOM     72  F   UNL A   1      43.962  24.202  24.468  1.00  0.00    -0.200 F 
ENDBRANCH  48  62
BRANCH  49  73
ATOM     73  C   UNL A   1      39.507  31.965  35.444  1.00  0.00     0.064 A 
ATOM     74  C   UNL A   1      38.573  31.446  36.348  1.00  0.00     0.173 A 
ATOM     75  C   UNL A   1      39.980  33.268  35.671  1.00  0.00     0.173 A 
ATOM     76  F   UNL A   1      38.075  30.214  36.162  1.00  0.00    -0.203 F 
ATOM     77  C   UNL A   1      38.119  32.199  37.429  1.00  0.00     0.198 A 
ATOM     78  C   UNL A   1      39.552  34.008  36.772  1.00  0.00     0.198 A 
ATOM     79  F   UNL A   1      40.877  33.814  34.838  1.00  0.00    -0.203 F 
ATOM     80  F   UNL A   1      37.195  31.692  38.255  1.00  0.00    -0.200 F 
ATOM     81  C   UNL A   1      38.617  33.476  37.645  1.00  0.00     0.200 A 
ATOM     82  F   UNL A   1      40.050  35.233  36.988  1.00  0.00    -0.200 F 
ATOM     83  F   UNL A   1      38.190  34.194  38.692  1.00  0.00    -0.200 F 
ENDBRANCH  49  73
BRANCH  61  84
ATOM     84  C   UNL A   1      44.751  27.454  34.594  1.00  0.00     0.064 A 
ATOM     85  C   UNL A   1      45.938  28.180  34.769  1.00  0.00     0.173 A 
ATOM     86  C   UNL A   1      44.588  26.275  35.337  1.00  0.00     0.173 A 
ATOM     87  F   UNL A   1      46.153  29.303  34.066  1.00  0.00    -0.203 F 
ATOM     88  C   UNL A   1      46.931  27.731  35.637  1.00  0.00     0.198 A 
ATOM     89  C   UNL A   1      45.565  25.847  36.230  1.00  0.00     0.198 A 
ATOM     90  F   UNL A   1      43.469  25.545  35.209  1.00  0.00    -0.203 F 
ATOM     91  F   UNL A   1      48.078  28.414  35.750  1.00  0.00    -0.200 F 
ATOM     92  C   UNL A   1      46.739  26.571  36.373  1.00  0.00     0.200 A 
ATOM     93  F   UNL A   1      45.372  24.735  36.951  1.00  0.00    -0.200 F 
ATOM     94  F   UNL A   1      47.690  26.146  37.217  1.00  0.00    -0.200 F 
ENDBRANCH  61  84
ENDBRANCH  35  36
ENDBRANCH  28  30
ENDBRANCH  27  28
ENDBRANCH  26  27
ENDBRANCH   1  26
TORSDOF 15
ENDMDL
