MODEL 1
REMARK VINA RESULT:     -12.8      0.000      0.000
REMARK SMILES O=C(CCC(=O)N1CCC(c2nnc3ccccn23)CC1)OCCOC(=O)c1ccc(-c2c3nc(c(-c4c(F)c(F)c(F)c(F)c4F)c4ccc([nH]4)c(-c4c(F)c(F)c(F)c(F)c4F)c4nc(c(-c5c(F)c(F)c(F)c(F)c5F)c5ccc2[nH]5)C=C4)C=C3)cc1
REMARK SMILES IDX 23 1 22 2 2 3 1 4 3 5 4 6 5 7 6 8 7 9 8 10 21 11 9 12 20 13
REMARK SMILES IDX 10 14 11 15 12 16 19 17 13 18 14 19 18 20 15 21 17 22 16 23
REMARK SMILES IDX 24 24 25 25 26 26 27 27 28 28 29 29 90 30 30 31 89 32 31 33
REMARK SMILES IDX 32 34 33 35 83 36 34 37 88 38 82 39 84 40 35 41 87 42 81 43
REMARK SMILES IDX 80 44 36 46 68 47 48 48 67 49 49 50 52 51 66 52 85 53 50 54
REMARK SMILES IDX 51 55 65 57 86 58 53 59 37 60 38 61 46 62 39 63 40 64 44 65
REMARK SMILES IDX 47 66 41 67 42 68 45 69 43 70 69 71 70 72 78 73 71 74 72 75
REMARK SMILES IDX 76 76 79 77 73 78 74 79 77 80 75 81 54 82 55 83 63 84 56 85
REMARK SMILES IDX 57 86 61 87 64 88 58 89 59 90 62 91 60 92
REMARK H PARENT 84 45 52 56
REMARK Flexibility Score: inf
ROOT
ATOM      1  C   UNL A   1      43.406  20.744  25.836  1.00  0.00     0.274 C 
ENDROOT
BRANCH   1   2
ATOM      2  O   UNL A   1      41.964  20.641  25.734  1.00  0.00    -0.462 OA
BRANCH   2   3
ATOM      3  C   UNL A   1      41.088  20.640  26.759  1.00  0.00     0.306 C 
ATOM      4  O   UNL A   1      41.157  19.778  27.634  1.00  0.00    -0.252 OA
BRANCH   3   5
ATOM      5  C   UNL A   1      40.165  21.806  26.932  1.00  0.00     0.132 C 
BRANCH   5   6
ATOM      6  C   UNL A   1      38.973  21.606  26.018  1.00  0.00     0.112 C 
BRANCH   6   7
ATOM      7  C   UNL A   1      38.068  22.816  25.984  1.00  0.00     0.223 C 
ATOM      8  O   UNL A   1      38.475  23.900  26.402  1.00  0.00    -0.275 OA
ATOM      9  N   UNL A   1      36.830  22.670  25.383  1.00  0.00    -0.343 N 
ATOM     10  C   UNL A   1      36.249  23.823  24.716  1.00  0.00     0.120 C 
ATOM     11  C   UNL A   1      35.936  21.515  25.542  1.00  0.00     0.120 C 
ATOM     12  C   UNL A   1      34.972  24.268  25.403  1.00  0.00     0.033 C 
ATOM     13  C   UNL A   1      34.651  21.939  26.275  1.00  0.00     0.033 C 
ATOM     14  C   UNL A   1      33.995  23.085  25.495  1.00  0.00     0.062 C 
BRANCH  14  15
ATOM     15  C   UNL A   1      32.686  23.545  26.044  1.00  0.00     0.140 A 
ATOM     16  N   UNL A   1      32.147  23.274  27.216  1.00  0.00    -0.134 NA
ATOM     17  N   UNL A   1      31.870  24.428  25.362  1.00  0.00    -0.286 N 
ATOM     18  N   UNL A   1      30.967  23.983  27.322  1.00  0.00    -0.130 NA
ATOM     19  C   UNL A   1      30.810  24.679  26.216  1.00  0.00     0.160 A 
ATOM     20  C   UNL A   1      32.003  25.021  24.106  1.00  0.00     0.095 A 
ATOM     21  C   UNL A   1      29.817  25.595  25.771  1.00  0.00     0.050 A 
ATOM     22  C   UNL A   1      31.066  25.886  23.687  1.00  0.00     0.019 A 
ATOM     23  C   UNL A   1      29.939  26.176  24.559  1.00  0.00     0.005 A 
ENDBRANCH  14  15
ENDBRANCH   6   7
ENDBRANCH   5   6
ENDBRANCH   3   5
ENDBRANCH   2   3
ENDBRANCH   1   2
BRANCH   1  24
ATOM     24  C   UNL A   1      43.886  21.819  24.863  1.00  0.00     0.275 C 
BRANCH  24  25
ATOM     25  O   UNL A   1      43.130  23.013  25.127  1.00  0.00    -0.458 OA
BRANCH  25  26
ATOM     26  C   UNL A   1      43.849  24.162  25.143  1.00  0.00     0.338 C 
ATOM     27  O   UNL A   1      44.788  24.455  24.423  1.00  0.00    -0.246 OA
BRANCH  26  28
ATOM     28  C   UNL A   1      43.158  25.112  26.043  1.00  0.00     0.060 A 
ATOM     29  C   UNL A   1      43.508  26.468  25.975  1.00  0.00     0.016 A 
ATOM     30  C   UNL A   1      42.146  24.687  26.907  1.00  0.00     0.016 A 
ATOM     31  C   UNL A   1      42.869  27.399  26.791  1.00  0.00     0.010 A 
ATOM     32  C   UNL A   1      41.518  25.612  27.738  1.00  0.00     0.010 A 
ATOM     33  C   UNL A   1      41.907  26.961  27.709  1.00  0.00    -0.014 A 
BRANCH  33  34
ATOM     34  C   UNL A   1      41.507  27.833  28.833  1.00  0.00     0.031 A 
ATOM     35  C   UNL A   1      42.285  27.699  30.111  1.00  0.00     0.074 A 
ATOM     36  C   UNL A   1      40.465  28.672  28.739  1.00  0.00     0.049 A 
ATOM     37  N   UNL A   1      42.080  28.256  31.275  1.00  0.00    -0.248 NA
ATOM     38  C   UNL A   1      43.449  26.795  30.071  1.00  0.00     0.031 C 
ATOM     39  C   UNL A   1      39.658  28.893  27.541  1.00  0.00     0.029 A 
ATOM     40  N   UNL A   1      39.894  29.481  29.688  1.00  0.00    -0.354 N 
ATOM     41  C   UNL A   1      43.084  27.769  32.101  1.00  0.00     0.074 A 
ATOM     42  C   UNL A   1      43.877  26.846  31.321  1.00  0.00     0.031 C 
ATOM     43  C   UNL A   1      38.677  29.766  27.835  1.00  0.00     0.029 A 
ATOM     44  C   UNL A   1      38.775  30.140  29.246  1.00  0.00     0.049 A 
ATOM     45  H   UNL A   1      40.253  29.578  30.599  1.00  0.00     0.167 HD
ATOM     46  C   UNL A   1      43.327  28.072  33.396  1.00  0.00     0.037 A 
ATOM     47  C   UNL A   1      37.922  30.933  29.921  1.00  0.00     0.037 A 
ATOM     48  C   UNL A   1      42.525  28.978  34.169  1.00  0.00     0.049 A 
ATOM     49  C   UNL A   1      38.177  31.208  31.383  1.00  0.00     0.074 A 
ATOM     50  C   UNL A   1      42.683  29.367  35.485  1.00  0.00     0.029 A 
ATOM     51  N   UNL A   1      41.397  29.628  33.687  1.00  0.00    -0.354 N 
ATOM     52  N   UNL A   1      39.148  30.777  32.151  1.00  0.00    -0.248 NA
ATOM     53  C   UNL A   1      37.215  32.082  32.069  1.00  0.00     0.031 C 
ATOM     54  C   UNL A   1      41.624  30.220  35.814  1.00  0.00     0.029 A 
ATOM     55  C   UNL A   1      40.836  30.401  34.688  1.00  0.00     0.049 A 
ATOM     56  H   UNL A   1      41.049  29.551  32.769  1.00  0.00     0.167 HD
ATOM     57  C   UNL A   1      38.935  31.350  33.398  1.00  0.00     0.074 A 
ATOM     58  C   UNL A   1      37.745  32.167  33.282  1.00  0.00     0.031 C 
ATOM     59  C   UNL A   1      39.658  31.216  34.538  1.00  0.00     0.037 A 
BRANCH  46  60
ATOM     60  C   UNL A   1      44.491  27.392  34.051  1.00  0.00     0.064 A 
ATOM     61  C   UNL A   1      44.363  26.131  34.653  1.00  0.00     0.173 A 
ATOM     62  C   UNL A   1      45.749  28.010  34.082  1.00  0.00     0.173 A 
ATOM     63  F   UNL A   1      43.174  25.509  34.670  1.00  0.00    -0.203 F 
ATOM     64  C   UNL A   1      45.445  25.526  35.287  1.00  0.00     0.198 A 
ATOM     65  C   UNL A   1      46.836  27.391  34.692  1.00  0.00     0.198 A 
ATOM     66  F   UNL A   1      45.923  29.219  33.526  1.00  0.00    -0.203 F 
ATOM     67  F   UNL A   1      45.287  24.347  35.902  1.00  0.00    -0.200 F 
ATOM     68  C   UNL A   1      46.682  26.154  35.301  1.00  0.00     0.200 A 
ATOM     69  F   UNL A   1      48.032  27.995  34.700  1.00  0.00    -0.200 F 
ATOM     70  F   UNL A   1      47.724  25.572  35.910  1.00  0.00    -0.200 F 
ENDBRANCH  46  60
BRANCH  47  71
ATOM     71  C   UNL A   1      36.748  31.527  29.229  1.00  0.00     0.064 A 
ATOM     72  C   UNL A   1      36.703  32.895  28.929  1.00  0.00     0.173 A 
ATOM     73  C   UNL A   1      35.639  30.745  28.873  1.00  0.00     0.173 A 
ATOM     74  F   UNL A   1      37.728  33.688  29.272  1.00  0.00    -0.203 F 
ATOM     75  C   UNL A   1      35.587  33.463  28.317  1.00  0.00     0.198 A 
ATOM     76  C   UNL A   1      34.534  31.309  28.238  1.00  0.00     0.198 A 
ATOM     77  F   UNL A   1      35.629  29.431  29.141  1.00  0.00    -0.203 F 
ATOM     78  F   UNL A   1      35.553  34.781  28.084  1.00  0.00    -0.200 F 
ATOM     79  C   UNL A   1      34.506  32.668  27.968  1.00  0.00     0.200 A 
ATOM     80  F   UNL A   1      33.494  30.537  27.894  1.00  0.00    -0.200 F 
ATOM     81  F   UNL A   1      33.433  33.215  27.379  1.00  0.00    -0.200 F 
ENDBRANCH  47  71
BRANCH  59  82
ATOM     82  C   UNL A   1      39.209  32.000  35.736  1.00  0.00     0.064 A 
ATOM     83  C   UNL A   1      39.605  33.330  35.936  1.00  0.00     0.173 A 
ATOM     84  C   UNL A   1      38.322  31.429  36.661  1.00  0.00     0.173 A 
ATOM     85  F   UNL A   1      40.460  33.915  35.085  1.00  0.00    -0.203 F 
ATOM     86  C   UNL A   1      39.145  34.054  37.033  1.00  0.00     0.198 A 
ATOM     87  C   UNL A   1      37.841  32.165  37.740  1.00  0.00     0.198 A 
ATOM     88  F   UNL A   1      37.906  30.163  36.508  1.00  0.00    -0.203 F 
ATOM     89  F   UNL A   1      39.567  35.310  37.229  1.00  0.00    -0.200 F 
ATOM     90  C   UNL A   1      38.258  33.474  37.928  1.00  0.00     0.200 A 
ATOM     91  F   UNL A   1      36.973  31.608  38.596  1.00  0.00    -0.200 F 
ATOM     92  F   UNL A   1      37.808  34.176  38.977  1.00  0.00    -0.200 F 
ENDBRANCH  59  82
ENDBRANCH  33  34
ENDBRANCH  26  28
ENDBRANCH  25  26
ENDBRANCH  24  25
ENDBRANCH   1  24
TORSDOF 14
ENDMDL
MODEL 2
REMARK VINA RESULT:     -12.4      4.577      8.829
REMARK SMILES O=C(CCC(=O)N1CCC(c2nnc3ccccn23)CC1)OCCOC(=O)c1ccc(-c2c3nc(c(-c4c(F)c(F)c(F)c(F)c4F)c4ccc([nH]4)c(-c4c(F)c(F)c(F)c(F)c4F)c4nc(c(-c5c(F)c(F)c(F)c(F)c5F)c5ccc2[nH]5)C=C4)C=C3)cc1
REMARK SMILES IDX 23 1 22 2 2 3 1 4 3 5 4 6 5 7 6 8 7 9 8 10 21 11 9 12 20 13
REMARK SMILES IDX 10 14 11 15 12 16 19 17 13 18 14 19 18 20 15 21 17 22 16 23
REMARK SMILES IDX 24 24 25 25 26 26 27 27 28 28 29 29 90 30 30 31 89 32 31 33
REMARK SMILES IDX 32 34 33 35 83 36 34 37 88 38 82 39 84 40 35 41 87 42 81 43
REMARK SMILES IDX 80 44 36 46 68 47 48 48 67 49 49 50 52 51 66 52 85 53 50 54
REMARK SMILES IDX 51 55 65 57 86 58 53 59 37 60 38 61 46 62 39 63 40 64 44 65
REMARK SMILES IDX 47 66 41 67 42 68 45 69 43 70 69 71 70 72 78 73 71 74 72 75
REMARK SMILES IDX 76 76 79 77 73 78 74 79 77 80 75 81 54 82 55 83 63 84 56 85
REMARK SMILES IDX 57 86 61 87 64 88 58 89 59 90 62 91 60 92
REMARK H PARENT 84 45 52 56
REMARK Flexibility Score: inf
ROOT
ATOM      1  C   UNL A   1      35.667  20.985  25.360  1.00  0.00     0.274 C 
ENDROOT
BRANCH   1   2
ATOM      2  O   UNL A   1      34.814  20.092  24.604  1.00  0.00    -0.462 OA
BRANCH   2   3
ATOM      3  C   UNL A   1      33.505  19.856  24.826  1.00  0.00     0.306 C 
ATOM      4  O   UNL A   1      33.120  19.485  25.935  1.00  0.00    -0.252 OA
BRANCH   3   5
ATOM      5  C   UNL A   1      32.505  20.245  23.783  1.00  0.00     0.132 C 
BRANCH   5   6
ATOM      6  C   UNL A   1      32.745  21.695  23.413  1.00  0.00     0.112 C 
BRANCH   6   7
ATOM      7  C   UNL A   1      32.308  22.644  24.505  1.00  0.00     0.223 C 
ATOM      8  O   UNL A   1      31.337  22.366  25.209  1.00  0.00    -0.275 OA
ATOM      9  N   UNL A   1      33.093  23.761  24.731  1.00  0.00    -0.343 N 
ATOM     10  C   UNL A   1      33.167  24.286  26.084  1.00  0.00     0.120 C 
ATOM     11  C   UNL A   1      33.691  24.607  23.691  1.00  0.00     0.120 C 
ATOM     12  C   UNL A   1      32.569  25.679  26.165  1.00  0.00     0.033 C 
ATOM     13  C   UNL A   1      33.067  26.014  23.730  1.00  0.00     0.033 C 
ATOM     14  C   UNL A   1      33.253  26.595  25.137  1.00  0.00     0.062 C 
BRANCH  14  15
ATOM     15  C   UNL A   1      32.769  27.997  25.302  1.00  0.00     0.140 A 
ATOM     16  N   UNL A   1      31.703  28.565  24.773  1.00  0.00    -0.134 NA
ATOM     17  N   UNL A   1      33.391  28.897  26.145  1.00  0.00    -0.286 N 
ATOM     18  N   UNL A   1      31.609  29.850  25.269  1.00  0.00    -0.130 NA
ATOM     19  C   UNL A   1      32.613  30.041  26.096  1.00  0.00     0.160 A 
ATOM     20  C   UNL A   1      34.532  28.776  26.941  1.00  0.00     0.095 A 
ATOM     21  C   UNL A   1      33.015  31.138  26.909  1.00  0.00     0.050 A 
ATOM     22  C   UNL A   1      34.909  29.810  27.708  1.00  0.00     0.019 A 
ATOM     23  C   UNL A   1      34.114  31.028  27.683  1.00  0.00     0.005 A 
ENDBRANCH  14  15
ENDBRANCH   6   7
ENDBRANCH   5   6
ENDBRANCH   3   5
ENDBRANCH   2   3
ENDBRANCH   1   2
BRANCH   1  24
ATOM     24  C   UNL A   1      37.120  20.705  24.981  1.00  0.00     0.275 C 
BRANCH  24  25
ATOM     25  O   UNL A   1      37.915  21.803  25.461  1.00  0.00    -0.458 OA
BRANCH  25  26
ATOM     26  C   UNL A   1      39.079  21.457  26.061  1.00  0.00     0.338 C 
ATOM     27  O   UNL A   1      39.658  20.386  25.988  1.00  0.00    -0.246 OA
BRANCH  26  28
ATOM     28  C   UNL A   1      39.662  22.682  26.653  1.00  0.00     0.060 A 
ATOM     29  C   UNL A   1      39.112  23.921  26.296  1.00  0.00     0.016 A 
ATOM     30  C   UNL A   1      40.703  22.614  27.583  1.00  0.00     0.016 A 
ATOM     31  C   UNL A   1      39.619  25.097  26.844  1.00  0.00     0.010 A 
ATOM     32  C   UNL A   1      41.224  23.788  28.119  1.00  0.00     0.010 A 
ATOM     33  C   UNL A   1      40.709  25.033  27.719  1.00  0.00    -0.014 A 
BRANCH  33  34
ATOM     34  C   UNL A   1      41.504  26.246  28.000  1.00  0.00     0.031 A 
ATOM     35  C   UNL A   1      40.815  27.357  28.740  1.00  0.00     0.074 A 
ATOM     36  C   UNL A   1      42.770  26.376  27.573  1.00  0.00     0.049 A 
ATOM     37  N   UNL A   1      41.239  28.561  29.019  1.00  0.00    -0.248 NA
ATOM     38  C   UNL A   1      39.450  27.071  29.216  1.00  0.00     0.031 C 
ATOM     39  C   UNL A   1      43.537  25.352  26.868  1.00  0.00     0.029 A 
ATOM     40  N   UNL A   1      43.624  27.444  27.657  1.00  0.00    -0.354 N 
ATOM     41  C   UNL A   1      40.194  29.173  29.698  1.00  0.00     0.074 A 
ATOM     42  C   UNL A   1      39.104  28.226  29.760  1.00  0.00     0.031 C 
ATOM     43  C   UNL A   1      44.747  25.853  26.560  1.00  0.00     0.029 A 
ATOM     44  C   UNL A   1      44.824  27.238  27.024  1.00  0.00     0.049 A 
ATOM     45  H   UNL A   1      43.398  28.280  28.125  1.00  0.00     0.167 HD
ATOM     46  C   UNL A   1      40.150  30.416  30.229  1.00  0.00     0.037 A 
ATOM     47  C   UNL A   1      45.851  28.087  26.829  1.00  0.00     0.037 A 
ATOM     48  C   UNL A   1      41.231  31.357  30.150  1.00  0.00     0.049 A 
ATOM     49  C   UNL A   1      45.756  29.490  27.377  1.00  0.00     0.074 A 
ATOM     50  C   UNL A   1      41.303  32.638  30.660  1.00  0.00     0.029 A 
ATOM     51  N   UNL A   1      42.434  31.112  29.500  1.00  0.00    -0.354 N 
ATOM     52  N   UNL A   1      44.782  30.053  28.051  1.00  0.00    -0.248 NA
ATOM     53  C   UNL A   1      46.905  30.373  27.137  1.00  0.00     0.031 C 
ATOM     54  C   UNL A   1      42.533  33.188  30.282  1.00  0.00     0.029 A 
ATOM     55  C   UNL A   1      43.246  32.229  29.580  1.00  0.00     0.049 A 
ATOM     56  H   UNL A   1      42.673  30.269  29.051  1.00  0.00     0.167 HD
ATOM     57  C   UNL A   1      45.212  31.342  28.344  1.00  0.00     0.074 A 
ATOM     58  C   UNL A   1      46.539  31.475  27.779  1.00  0.00     0.031 C 
ATOM     59  C   UNL A   1      44.570  32.327  29.019  1.00  0.00     0.037 A 
BRANCH  46  60
ATOM     60  C   UNL A   1      38.882  30.822  30.916  1.00  0.00     0.064 A 
ATOM     61  C   UNL A   1      37.800  31.361  30.202  1.00  0.00     0.173 A 
ATOM     62  C   UNL A   1      38.746  30.677  32.304  1.00  0.00     0.173 A 
ATOM     63  F   UNL A   1      37.889  31.542  28.875  1.00  0.00    -0.203 F 
ATOM     64  C   UNL A   1      36.640  31.766  30.857  1.00  0.00     0.198 A 
ATOM     65  C   UNL A   1      37.575  31.056  32.952  1.00  0.00     0.198 A 
ATOM     66  F   UNL A   1      39.754  30.172  33.033  1.00  0.00    -0.203 F 
ATOM     67  F   UNL A   1      35.641  32.327  30.164  1.00  0.00    -0.200 F 
ATOM     68  C   UNL A   1      36.526  31.608  32.231  1.00  0.00     0.200 A 
ATOM     69  F   UNL A   1      37.463  30.897  34.278  1.00  0.00    -0.200 F 
ATOM     70  F   UNL A   1      35.410  31.995  32.862  1.00  0.00    -0.200 F 
ENDBRANCH  46  60
BRANCH  47  71
ATOM     71  C   UNL A   1      47.057  27.642  26.083  1.00  0.00     0.064 A 
ATOM     72  C   UNL A   1      47.108  27.717  24.684  1.00  0.00     0.173 A 
ATOM     73  C   UNL A   1      48.173  27.113  26.748  1.00  0.00     0.173 A 
ATOM     74  F   UNL A   1      46.056  28.192  24.002  1.00  0.00    -0.203 F 
ATOM     75  C   UNL A   1      48.220  27.264  23.978  1.00  0.00     0.198 A 
ATOM     76  C   UNL A   1      49.295  26.683  26.043  1.00  0.00     0.198 A 
ATOM     77  F   UNL A   1      48.174  27.015  28.086  1.00  0.00    -0.203 F 
ATOM     78  F   UNL A   1      48.223  27.305  22.639  1.00  0.00    -0.200 F 
ATOM     79  C   UNL A   1      49.315  26.752  24.658  1.00  0.00     0.200 A 
ATOM     80  F   UNL A   1      50.355  26.197  26.704  1.00  0.00    -0.200 F 
ATOM     81  F   UNL A   1      50.384  26.316  23.979  1.00  0.00    -0.200 F 
ENDBRANCH  47  71
BRANCH  59  82
ATOM     82  C   UNL A   1      45.308  33.617  29.222  1.00  0.00     0.064 A 
ATOM     83  C   UNL A   1      45.182  34.686  28.324  1.00  0.00     0.173 A 
ATOM     84  C   UNL A   1      46.102  33.805  30.363  1.00  0.00     0.173 A 
ATOM     85  F   UNL A   1      44.444  34.551  27.212  1.00  0.00    -0.203 F 
ATOM     86  C   UNL A   1      45.844  35.891  28.550  1.00  0.00     0.198 A 
ATOM     87  C   UNL A   1      46.738  35.019  30.602  1.00  0.00     0.198 A 
ATOM     88  F   UNL A   1      46.246  32.815  31.258  1.00  0.00    -0.203 F 
ATOM     89  F   UNL A   1      45.743  36.886  27.659  1.00  0.00    -0.200 F 
ATOM     90  C   UNL A   1      46.613  36.058  29.693  1.00  0.00     0.200 A 
ATOM     91  F   UNL A   1      47.469  35.185  31.712  1.00  0.00    -0.200 F 
ATOM     92  F   UNL A   1      47.239  37.222  29.914  1.00  0.00    -0.200 F 
ENDBRANCH  59  82
ENDBRANCH  33  34
ENDBRANCH  26  28
ENDBRANCH  25  26
ENDBRANCH  24  25
ENDBRANCH   1  24
TORSDOF 14
ENDMDL
MODEL 3
REMARK VINA RESULT:     -12.4      4.735      8.987
REMARK SMILES O=C(CCC(=O)N1CCC(c2nnc3ccccn23)CC1)OCCOC(=O)c1ccc(-c2c3nc(c(-c4c(F)c(F)c(F)c(F)c4F)c4ccc([nH]4)c(-c4c(F)c(F)c(F)c(F)c4F)c4nc(c(-c5c(F)c(F)c(F)c(F)c5F)c5ccc2[nH]5)C=C4)C=C3)cc1
REMARK SMILES IDX 23 1 22 2 2 3 1 4 3 5 4 6 5 7 6 8 7 9 8 10 21 11 9 12 20 13
REMARK SMILES IDX 10 14 11 15 12 16 19 17 13 18 14 19 18 20 15 21 17 22 16 23
REMARK SMILES IDX 24 24 25 25 26 26 27 27 28 28 29 29 90 30 30 31 89 32 31 33
REMARK SMILES IDX 32 34 33 35 83 36 34 37 88 38 82 39 84 40 35 41 87 42 81 43
REMARK SMILES IDX 80 44 36 46 68 47 48 48 67 49 49 50 52 51 66 52 85 53 50 54
REMARK SMILES IDX 51 55 65 57 86 58 53 59 37 60 38 61 46 62 39 63 40 64 44 65
REMARK SMILES IDX 47 66 41 67 42 68 45 69 43 70 69 71 70 72 78 73 71 74 72 75
REMARK SMILES IDX 76 76 79 77 73 78 74 79 77 80 75 81 54 82 55 83 63 84 56 85
REMARK SMILES IDX 57 86 61 87 64 88 58 89 59 90 62 91 60 92
REMARK H PARENT 84 45 52 56
REMARK Flexibility Score: inf
ROOT
ATOM      1  C   UNL A   1      35.657  21.324  24.994  1.00  0.00     0.274 C 
ENDROOT
BRANCH   1   2
ATOM      2  O   UNL A   1      34.712  20.284  24.640  1.00  0.00    -0.462 OA
BRANCH   2   3
ATOM      3  C   UNL A   1      33.374  20.419  24.540  1.00  0.00     0.306 C 
ATOM      4  O   UNL A   1      32.639  19.442  24.679  1.00  0.00    -0.252 OA
BRANCH   3   5
ATOM      5  C   UNL A   1      32.782  21.792  24.463  1.00  0.00     0.132 C 
BRANCH   5   6
ATOM      6  C   UNL A   1      32.594  22.145  23.001  1.00  0.00     0.112 C 
BRANCH   6   7
ATOM      7  C   UNL A   1      32.966  23.579  22.705  1.00  0.00     0.223 C 
ATOM      8  O   UNL A   1      34.149  23.891  22.565  1.00  0.00    -0.275 OA
ATOM      9  N   UNL A   1      31.934  24.478  22.505  1.00  0.00    -0.343 N 
ATOM     10  C   UNL A   1      32.154  25.587  21.593  1.00  0.00     0.120 C 
ATOM     11  C   UNL A   1      30.699  24.548  23.299  1.00  0.00     0.120 C 
ATOM     12  C   UNL A   1      32.102  26.917  22.323  1.00  0.00     0.033 C 
ATOM     13  C   UNL A   1      30.647  25.874  24.080  1.00  0.00     0.033 C 
ATOM     14  C   UNL A   1      30.772  27.035  23.086  1.00  0.00     0.062 C 
BRANCH  14  15
ATOM     15  C   UNL A   1      30.653  28.393  23.694  1.00  0.00     0.140 A 
ATOM     16  N   UNL A   1      31.477  28.993  24.529  1.00  0.00    -0.134 NA
ATOM     17  N   UNL A   1      29.626  29.258  23.369  1.00  0.00    -0.286 N 
ATOM     18  N   UNL A   1      31.003  30.269  24.760  1.00  0.00    -0.130 NA
ATOM     19  C   UNL A   1      29.903  30.427  24.057  1.00  0.00     0.160 A 
ATOM     20  C   UNL A   1      28.526  29.105  22.524  1.00  0.00     0.095 A 
ATOM     21  C   UNL A   1      29.006  31.517  23.877  1.00  0.00     0.050 A 
ATOM     22  C   UNL A   1      27.682  30.134  22.353  1.00  0.00     0.019 A 
ATOM     23  C   UNL A   1      27.942  31.379  23.059  1.00  0.00     0.005 A 
ENDBRANCH  14  15
ENDBRANCH   6   7
ENDBRANCH   5   6
ENDBRANCH   3   5
ENDBRANCH   2   3
ENDBRANCH   1   2
BRANCH   1  24
ATOM     24  C   UNL A   1      37.012  20.674  25.270  1.00  0.00     0.275 C 
BRANCH  24  25
ATOM     25  O   UNL A   1      37.973  21.730  25.438  1.00  0.00    -0.458 OA
BRANCH  25  26
ATOM     26  C   UNL A   1      39.095  21.389  26.118  1.00  0.00     0.338 C 
ATOM     27  O   UNL A   1      39.649  20.303  26.132  1.00  0.00    -0.246 OA
BRANCH  26  28
ATOM     28  C   UNL A   1      39.676  22.630  26.678  1.00  0.00     0.060 A 
ATOM     29  C   UNL A   1      39.133  23.859  26.279  1.00  0.00     0.016 A 
ATOM     30  C   UNL A   1      40.708  22.587  27.620  1.00  0.00     0.016 A 
ATOM     31  C   UNL A   1      39.639  25.050  26.796  1.00  0.00     0.010 A 
ATOM     32  C   UNL A   1      41.227  23.776  28.125  1.00  0.00     0.010 A 
ATOM     33  C   UNL A   1      40.721  25.009  27.683  1.00  0.00    -0.014 A 
BRANCH  33  34
ATOM     34  C   UNL A   1      41.517  26.228  27.935  1.00  0.00     0.031 A 
ATOM     35  C   UNL A   1      40.834  27.351  28.662  1.00  0.00     0.074 A 
ATOM     36  C   UNL A   1      42.777  26.352  27.493  1.00  0.00     0.049 A 
ATOM     37  N   UNL A   1      41.259  28.560  28.917  1.00  0.00    -0.248 NA
ATOM     38  C   UNL A   1      39.474  27.071  29.158  1.00  0.00     0.031 C 
ATOM     39  C   UNL A   1      43.538  25.317  26.796  1.00  0.00     0.029 A 
ATOM     40  N   UNL A   1      43.631  27.422  27.549  1.00  0.00    -0.354 N 
ATOM     41  C   UNL A   1      40.220  29.182  29.596  1.00  0.00     0.074 A 
ATOM     42  C   UNL A   1      39.132  28.235  29.685  1.00  0.00     0.031 C 
ATOM     43  C   UNL A   1      44.745  25.814  26.468  1.00  0.00     0.029 A 
ATOM     44  C   UNL A   1      44.825  27.207  26.907  1.00  0.00     0.049 A 
ATOM     45  H   UNL A   1      43.409  28.266  28.005  1.00  0.00     0.167 HD
ATOM     46  C   UNL A   1      40.180  30.433  30.107  1.00  0.00     0.037 A 
ATOM     47  C   UNL A   1      45.848  28.054  26.687  1.00  0.00     0.037 A 
ATOM     48  C   UNL A   1      41.259  31.374  30.000  1.00  0.00     0.049 A 
ATOM     49  C   UNL A   1      45.757  29.466  27.211  1.00  0.00     0.074 A 
ATOM     50  C   UNL A   1      41.334  32.664  30.488  1.00  0.00     0.029 A 
ATOM     51  N   UNL A   1      42.455  31.120  29.342  1.00  0.00    -0.354 N 
ATOM     52  N   UNL A   1      44.790  30.039  27.886  1.00  0.00    -0.248 NA
ATOM     53  C   UNL A   1      46.902  30.347  26.944  1.00  0.00     0.031 C 
ATOM     54  C   UNL A   1      42.559  33.209  30.087  1.00  0.00     0.029 A 
ATOM     55  C   UNL A   1      43.267  32.240  29.393  1.00  0.00     0.049 A 
ATOM     56  H   UNL A   1      42.690  30.270  28.905  1.00  0.00     0.167 HD
ATOM     57  C   UNL A   1      45.221  31.333  28.152  1.00  0.00     0.074 A 
ATOM     58  C   UNL A   1      46.541  31.458  27.571  1.00  0.00     0.031 C 
ATOM     59  C   UNL A   1      44.584  32.329  28.817  1.00  0.00     0.037 A 
BRANCH  46  60
ATOM     60  C   UNL A   1      38.918  30.850  30.799  1.00  0.00     0.064 A 
ATOM     61  C   UNL A   1      38.751  30.688  32.183  1.00  0.00     0.173 A 
ATOM     62  C   UNL A   1      37.860  31.412  30.071  1.00  0.00     0.173 A 
ATOM     63  F   UNL A   1      39.725  30.133  32.921  1.00  0.00    -0.203 F 
ATOM     64  C   UNL A   1      37.560  31.048  32.808  1.00  0.00     0.198 A 
ATOM     65  C   UNL A   1      36.681  31.797  30.702  1.00  0.00     0.198 A 
ATOM     66  F   UNL A   1      37.967  31.582  28.744  1.00  0.00    -0.203 F 
ATOM     67  F   UNL A   1      37.402  30.835  34.121  1.00  0.00    -0.200 F 
ATOM     68  C   UNL A   1      36.528  31.608  32.068  1.00  0.00     0.200 A 
ATOM     69  F   UNL A   1      35.688  32.343  29.988  1.00  0.00    -0.200 F 
ATOM     70  F   UNL A   1      35.383  31.956  32.669  1.00  0.00    -0.200 F 
ENDBRANCH  46  60
BRANCH  47  71
ATOM     71  C   UNL A   1      47.047  27.598  25.936  1.00  0.00     0.064 A 
ATOM     72  C   UNL A   1      48.159  27.069  26.605  1.00  0.00     0.173 A 
ATOM     73  C   UNL A   1      47.115  27.701  24.538  1.00  0.00     0.173 A 
ATOM     74  F   UNL A   1      48.151  26.975  27.943  1.00  0.00    -0.203 F 
ATOM     75  C   UNL A   1      49.301  26.677  25.909  1.00  0.00     0.198 A 
ATOM     76  C   UNL A   1      48.248  27.285  23.840  1.00  0.00     0.198 A 
ATOM     77  F   UNL A   1      46.080  28.203  23.850  1.00  0.00    -0.203 F 
ATOM     78  F   UNL A   1      50.366  26.219  26.578  1.00  0.00    -0.200 F 
ATOM     79  C   UNL A   1      49.342  26.782  24.527  1.00  0.00     0.200 A 
ATOM     80  F   UNL A   1      48.281  27.379  22.504  1.00  0.00    -0.200 F 
ATOM     81  F   UNL A   1      50.440  26.405  23.857  1.00  0.00    -0.200 F 
ENDBRANCH  47  71
BRANCH  59  82
ATOM     82  C   UNL A   1      45.322  33.624  28.990  1.00  0.00     0.064 A 
ATOM     83  C   UNL A   1      46.182  33.842  30.076  1.00  0.00     0.173 A 
ATOM     84  C   UNL A   1      45.212  34.634  28.023  1.00  0.00     0.173 A 
ATOM     85  F   UNL A   1      46.311  32.911  31.033  1.00  0.00    -0.203 F 
ATOM     86  C   UNL A   1      46.889  35.036  30.198  1.00  0.00     0.198 A 
ATOM     87  C   UNL A   1      45.942  35.813  28.132  1.00  0.00     0.198 A 
ATOM     88  F   UNL A   1      44.410  34.468  26.960  1.00  0.00    -0.203 F 
ATOM     89  F   UNL A   1      47.673  35.241  31.265  1.00  0.00    -0.200 F 
ATOM     90  C   UNL A   1      46.775  36.015  29.222  1.00  0.00     0.200 A 
ATOM     91  F   UNL A   1      45.843  36.753  27.182  1.00  0.00    -0.200 F 
ATOM     92  F   UNL A   1      47.465  37.158  29.336  1.00  0.00    -0.200 F 
ENDBRANCH  59  82
ENDBRANCH  33  34
ENDBRANCH  26  28
ENDBRANCH  25  26
ENDBRANCH  24  25
ENDBRANCH   1  24
TORSDOF 14
ENDMDL
