MODEL 1
REMARK VINA RESULT:     -12.6      0.000      0.000
REMARK SMILES O=C(CSc1nc(O)cc(=O)[nH]1)Nc1cccc(C(=O)OCCOC(=O)c2ccc(-c3c4nc(c(-c5c(F)c(F)c(F)c(F)c5F)c5ccc([nH]5)c(-c5c(F)c(F)c(F)c(F)c5F)c5nc(c(-c6c(F)c(F)c(F)c(F)c6F)c6ccc3[nH]6)C=C5)C=C4)cc2)c1
REMARK SMILES IDX 21 1 19 2 20 3 18 4 14 5 15 6 90 7 16 8 17 9 13 10 1 11 2 12
REMARK SMILES IDX 3 14 4 15 5 16 6 17 12 18 7 19 10 20 9 22 11 23 8 24 22 26
REMARK SMILES IDX 23 27 24 28 25 29 26 30 27 31 28 32 89 33 29 34 88 35 30 36
REMARK SMILES IDX 31 37 32 38 82 39 33 40 87 41 81 42 83 43 34 44 86 45 80 46
REMARK SMILES IDX 79 47 35 49 67 50 47 51 66 52 48 53 51 54 65 55 84 56 49 57
REMARK SMILES IDX 50 58 64 60 85 61 52 62 36 63 37 64 45 65 38 66 39 67 43 68
REMARK SMILES IDX 46 69 40 70 41 71 44 72 42 73 68 74 69 75 77 76 70 77 71 78
REMARK SMILES IDX 75 79 78 80 72 81 73 82 76 83 74 84 53 85 54 86 62 87 55 88
REMARK SMILES IDX 56 89 60 90 63 91 57 92 58 93 61 94 59 95
REMARK H PARENT 13 13 12 21 8 25 83 48 51 59
REMARK Flexibility Score: inf
ROOT
ATOM      1  O   UNL A   1      41.628  21.420  25.442  1.00  0.00    -0.458 OA
ENDROOT
BRANCH   1   2
ATOM      2  C   UNL A   1      40.687  21.050  26.346  1.00  0.00     0.338 C 
ATOM      3  O   UNL A   1      40.780  20.161  27.175  1.00  0.00    -0.246 OA
BRANCH   2   4
ATOM      4  C   UNL A   1      39.538  21.988  26.295  1.00  0.00     0.062 A 
ATOM      5  C   UNL A   1      37.268  22.544  25.670  1.00  0.00     0.042 A 
ATOM      6  C   UNL A   1      37.470  23.852  26.125  1.00  0.00     0.026 A 
ATOM      7  C   UNL A   1      38.318  21.624  25.717  1.00  0.00     0.041 A 
ATOM      8  C   UNL A   1      38.672  24.207  26.733  1.00  0.00     0.003 A 
ATOM      9  C   UNL A   1      39.689  23.264  26.854  1.00  0.00     0.016 A 
BRANCH   5  10
ATOM     10  N   UNL A   1      35.977  22.222  25.209  1.00  0.00    -0.325 N 
ATOM     11  O   UNL A   1      36.056  23.094  23.054  1.00  0.00    -0.274 OA
ATOM     12  C   UNL A   1      35.465  22.506  23.957  1.00  0.00     0.234 C 
ATOM     13  H   UNL A   1      35.383  21.749  25.837  1.00  0.00     0.169 HD
BRANCH  12  14
ATOM     14  C   UNL A   1      34.029  22.060  23.751  1.00  0.00     0.178 C 
BRANCH  14  15
ATOM     15  S   UNL A   1      33.363  21.077  25.120  1.00  0.00    -0.078 SA
BRANCH  15  16
ATOM     16  C   UNL A   1      33.345  19.487  24.420  1.00  0.00     0.172 A 
ATOM     17  N   UNL A   1      32.544  19.223  23.443  1.00  0.00    -0.189 NA
ATOM     18  N   UNL A   1      34.245  18.618  24.945  1.00  0.00    -0.301 N 
ATOM     19  C   UNL A   1      32.642  17.965  22.919  1.00  0.00     0.218 A 
ATOM     20  C   UNL A   1      34.372  17.352  24.459  1.00  0.00     0.255 A 
ATOM     21  H   UNL A   1      34.819  18.910  25.690  1.00  0.00     0.172 HD
ATOM     22  C   UNL A   1      33.479  17.017  23.345  1.00  0.00     0.139 A 
ATOM     23  O   UNL A   1      35.184  16.550  24.901  1.00  0.00    -0.269 OA
BRANCH  19  24
ATOM     24  O   UNL A   1      31.817  17.703  21.857  1.00  0.00    -0.493 OA
ATOM     25  H   UNL A   1      32.105  17.135  21.169  1.00  0.00     0.295 HD
ENDBRANCH  19  24
ENDBRANCH  15  16
ENDBRANCH  14  15
ENDBRANCH  12  14
ENDBRANCH   5  10
ENDBRANCH   2   4
ENDBRANCH   1   2
BRANCH   1  26
ATOM     26  C   UNL A   1      43.004  21.305  25.862  1.00  0.00     0.275 C 
BRANCH  26  27
ATOM     27  C   UNL A   1      43.909  22.152  24.968  1.00  0.00     0.275 C 
BRANCH  27  28
ATOM     28  O   UNL A   1      43.312  23.448  24.789  1.00  0.00    -0.458 OA
BRANCH  28  29
ATOM     29  C   UNL A   1      44.091  24.512  25.067  1.00  0.00     0.338 C 
ATOM     30  O   UNL A   1      45.185  24.792  24.589  1.00  0.00    -0.246 OA
BRANCH  29  31
ATOM     31  C   UNL A   1      43.409  25.355  26.058  1.00  0.00     0.060 A 
ATOM     32  C   UNL A   1      43.528  26.740  25.965  1.00  0.00     0.016 A 
ATOM     33  C   UNL A   1      42.738  24.781  27.135  1.00  0.00     0.016 A 
ATOM     34  C   UNL A   1      43.034  27.561  26.975  1.00  0.00     0.010 A 
ATOM     35  C   UNL A   1      42.178  25.607  28.115  1.00  0.00     0.010 A 
ATOM     36  C   UNL A   1      42.351  27.004  28.064  1.00  0.00    -0.014 A 
BRANCH  36  37
ATOM     37  C   UNL A   1      41.892  27.868  29.186  1.00  0.00     0.031 A 
ATOM     38  C   UNL A   1      42.698  27.932  30.455  1.00  0.00     0.074 A 
ATOM     39  C   UNL A   1      40.779  28.619  29.072  1.00  0.00     0.049 A 
ATOM     40  N   UNL A   1      42.399  28.485  31.605  1.00  0.00    -0.248 NA
ATOM     41  C   UNL A   1      44.015  27.278  30.431  1.00  0.00     0.031 C 
ATOM     42  C   UNL A   1      39.931  28.705  27.884  1.00  0.00     0.029 A 
ATOM     43  N   UNL A   1      40.174  29.462  29.973  1.00  0.00    -0.354 N 
ATOM     44  C   UNL A   1      43.459  28.192  32.453  1.00  0.00     0.074 A 
ATOM     45  C   UNL A   1      44.413  27.418  31.687  1.00  0.00     0.031 C 
ATOM     46  C   UNL A   1      38.937  29.577  28.115  1.00  0.00     0.029 A 
ATOM     47  C   UNL A   1      39.032  30.054  29.492  1.00  0.00     0.049 A 
ATOM     48  H   UNL A   1      40.526  29.625  30.878  1.00  0.00     0.167 HD
ATOM     49  C   UNL A   1      43.622  28.537  33.753  1.00  0.00     0.037 A 
ATOM     50  C   UNL A   1      38.144  30.864  30.100  1.00  0.00     0.037 A 
ATOM     51  C   UNL A   1      42.705  29.358  34.499  1.00  0.00     0.049 A 
ATOM     52  C   UNL A   1      38.336  31.220  31.548  1.00  0.00     0.074 A 
ATOM     53  C   UNL A   1      42.787  29.765  35.819  1.00  0.00     0.029 A 
ATOM     54  N   UNL A   1      41.548  29.916  33.979  1.00  0.00    -0.354 N 
ATOM     55  N   UNL A   1      39.306  30.881  32.361  1.00  0.00    -0.248 NA
ATOM     56  C   UNL A   1      37.297  32.054  32.169  1.00  0.00     0.031 C 
ATOM     57  C   UNL A   1      41.666  30.551  36.106  1.00  0.00     0.029 A 
ATOM     58  C   UNL A   1      40.903  30.661  34.954  1.00  0.00     0.049 A 
ATOM     59  H   UNL A   1      41.229  29.800  33.054  1.00  0.00     0.167 HD
ATOM     60  C   UNL A   1      39.000  31.463  33.584  1.00  0.00     0.074 A 
ATOM     61  C   UNL A   1      37.765  32.196  33.401  1.00  0.00     0.031 C 
ATOM     62  C   UNL A   1      39.678  31.389  34.754  1.00  0.00     0.037 A 
BRANCH  49  63
ATOM     63  C   UNL A   1      44.824  27.992  34.465  1.00  0.00     0.064 A 
ATOM     64  C   UNL A   1      44.797  26.758  35.129  1.00  0.00     0.173 A 
ATOM     65  C   UNL A   1      46.030  28.709  34.457  1.00  0.00     0.173 A 
ATOM     66  F   UNL A   1      43.664  26.043  35.178  1.00  0.00    -0.203 F 
ATOM     67  C   UNL A   1      45.929  26.273  35.781  1.00  0.00     0.198 A 
ATOM     68  C   UNL A   1      47.166  28.211  35.089  1.00  0.00     0.198 A 
ATOM     69  F   UNL A   1      46.108  29.895  33.833  1.00  0.00    -0.203 F 
ATOM     70  F   UNL A   1      45.869  25.111  36.447  1.00  0.00    -0.200 F 
ATOM     71  C   UNL A   1      47.112  26.996  35.755  1.00  0.00     0.200 A 
ATOM     72  F   UNL A   1      48.310  28.906  35.055  1.00  0.00    -0.200 F 
ATOM     73  F   UNL A   1      48.201  26.525  36.380  1.00  0.00    -0.200 F 
ENDBRANCH  49  63
BRANCH  50  74
ATOM     74  C   UNL A   1      36.969  31.371  29.344  1.00  0.00     0.064 A 
ATOM     75  C   UNL A   1      35.897  30.526  29.028  1.00  0.00     0.173 A 
ATOM     76  C   UNL A   1      36.894  32.708  28.925  1.00  0.00     0.173 A 
ATOM     77  F   UNL A   1      35.937  29.234  29.382  1.00  0.00    -0.203 F 
ATOM     78  C   UNL A   1      34.797  30.998  28.315  1.00  0.00     0.198 A 
ATOM     79  C   UNL A   1      35.782  33.185  28.236  1.00  0.00     0.198 A 
ATOM     80  F   UNL A   1      37.899  33.555  29.198  1.00  0.00    -0.203 F 
ATOM     81  F   UNL A   1      33.801  30.161  27.993  1.00  0.00    -0.200 F 
ATOM     82  C   UNL A   1      34.737  32.328  27.928  1.00  0.00     0.200 A 
ATOM     83  F   UNL A   1      35.724  34.473  27.871  1.00  0.00    -0.200 F 
ATOM     84  F   UNL A   1      33.674  32.783  27.248  1.00  0.00    -0.200 F 
ENDBRANCH  50  74
BRANCH  62  85
ATOM     85  C   UNL A   1      39.112  32.139  35.922  1.00  0.00     0.064 A 
ATOM     86  C   UNL A   1      38.252  31.519  36.841  1.00  0.00     0.173 A 
ATOM     87  C   UNL A   1      39.459  33.479  36.143  1.00  0.00     0.173 A 
ATOM     88  F   UNL A   1      37.879  30.243  36.661  1.00  0.00    -0.203 F 
ATOM     89  C   UNL A   1      37.746  32.222  37.931  1.00  0.00     0.198 A 
ATOM     90  C   UNL A   1      38.968  34.172  37.245  1.00  0.00     0.198 A 
ATOM     91  F   UNL A   1      40.282  34.113  35.294  1.00  0.00    -0.203 F 
ATOM     92  F   UNL A   1      36.896  31.623  38.776  1.00  0.00    -0.200 F 
ATOM     93  C   UNL A   1      38.108  33.545  38.135  1.00  0.00     0.200 A 
ATOM     94  F   UNL A   1      39.324  35.448  37.447  1.00  0.00    -0.200 F 
ATOM     95  F   UNL A   1      37.622  34.219  39.187  1.00  0.00    -0.200 F 
ENDBRANCH  62  85
ENDBRANCH  36  37
ENDBRANCH  29  31
ENDBRANCH  28  29
ENDBRANCH  27  28
ENDBRANCH  26  27
ENDBRANCH   1  26
TORSDOF 16
ENDMDL
MODEL 2
REMARK VINA RESULT:     -12.4      0.160      1.591
REMARK SMILES O=C(CSc1nc(O)cc(=O)[nH]1)Nc1cccc(C(=O)OCCOC(=O)c2ccc(-c3c4nc(c(-c5c(F)c(F)c(F)c(F)c5F)c5ccc([nH]5)c(-c5c(F)c(F)c(F)c(F)c5F)c5nc(c(-c6c(F)c(F)c(F)c(F)c6F)c6ccc3[nH]6)C=C5)C=C4)cc2)c1
REMARK SMILES IDX 21 1 19 2 20 3 18 4 14 5 15 6 90 7 16 8 17 9 13 10 1 11 2 12
REMARK SMILES IDX 3 14 4 15 5 16 6 17 12 18 7 19 10 20 9 22 11 23 8 24 22 26
REMARK SMILES IDX 23 27 24 28 25 29 26 30 27 31 28 32 89 33 29 34 88 35 30 36
REMARK SMILES IDX 31 37 32 38 82 39 33 40 87 41 81 42 83 43 34 44 86 45 80 46
REMARK SMILES IDX 79 47 35 49 67 50 47 51 66 52 48 53 51 54 65 55 84 56 49 57
REMARK SMILES IDX 50 58 64 60 85 61 52 62 36 63 37 64 45 65 38 66 39 67 43 68
REMARK SMILES IDX 46 69 40 70 41 71 44 72 42 73 68 74 69 75 77 76 70 77 71 78
REMARK SMILES IDX 75 79 78 80 72 81 73 82 76 83 74 84 53 85 54 86 62 87 55 88
REMARK SMILES IDX 56 89 60 90 63 91 57 92 58 93 61 94 59 95
REMARK H PARENT 13 13 12 21 8 25 83 48 51 59
REMARK Flexibility Score: inf
ROOT
ATOM      1  O   UNL A   1      41.564  21.412  25.455  1.00  0.00    -0.458 OA
ENDROOT
BRANCH   1   2
ATOM      2  C   UNL A   1      40.584  21.031  26.312  1.00  0.00     0.338 C 
ATOM      3  O   UNL A   1      40.643  20.137  27.139  1.00  0.00    -0.246 OA
BRANCH   2   4
ATOM      4  C   UNL A   1      39.432  21.961  26.213  1.00  0.00     0.062 A 
ATOM      5  C   UNL A   1      37.155  22.474  25.572  1.00  0.00     0.042 A 
ATOM      6  C   UNL A   1      37.358  23.807  25.945  1.00  0.00     0.026 A 
ATOM      7  C   UNL A   1      38.209  21.560  25.668  1.00  0.00     0.041 A 
ATOM      8  C   UNL A   1      38.564  24.202  26.521  1.00  0.00     0.003 A 
ATOM      9  C   UNL A   1      39.584  23.269  26.692  1.00  0.00     0.016 A 
BRANCH   5  10
ATOM     10  N   UNL A   1      35.862  22.121  25.142  1.00  0.00    -0.325 N 
ATOM     11  O   UNL A   1      35.762  23.242  23.106  1.00  0.00    -0.274 OA
ATOM     12  C   UNL A   1      35.261  22.515  23.961  1.00  0.00     0.234 C 
ATOM     13  H   UNL A   1      35.336  21.540  25.738  1.00  0.00     0.169 HD
BRANCH  12  14
ATOM     14  C   UNL A   1      33.846  22.000  23.776  1.00  0.00     0.178 C 
BRANCH  14  15
ATOM     15  S   UNL A   1      33.220  21.051  25.187  1.00  0.00    -0.078 SA
BRANCH  15  16
ATOM     16  C   UNL A   1      33.158  19.449  24.519  1.00  0.00     0.172 A 
ATOM     17  N   UNL A   1      32.501  19.230  23.429  1.00  0.00    -0.189 NA
ATOM     18  N   UNL A   1      33.874  18.516  25.196  1.00  0.00    -0.301 N 
ATOM     19  C   UNL A   1      32.557  17.953  22.948  1.00  0.00     0.218 A 
ATOM     20  C   UNL A   1      33.952  17.229  24.757  1.00  0.00     0.255 A 
ATOM     21  H   UNL A   1      34.347  18.775  26.019  1.00  0.00     0.172 HD
ATOM     22  C   UNL A   1      33.219  16.945  23.519  1.00  0.00     0.139 A 
ATOM     23  O   UNL A   1      34.600  16.368  25.337  1.00  0.00    -0.269 OA
BRANCH  19  24
ATOM     24  O   UNL A   1      31.891  17.737  21.771  1.00  0.00    -0.493 OA
ATOM     25  H   UNL A   1      31.194  17.112  21.735  1.00  0.00     0.295 HD
ENDBRANCH  19  24
ENDBRANCH  15  16
ENDBRANCH  14  15
ENDBRANCH  12  14
ENDBRANCH   5  10
ENDBRANCH   2   4
ENDBRANCH   1   2
BRANCH   1  26
ATOM     26  C   UNL A   1      42.920  21.284  25.931  1.00  0.00     0.275 C 
BRANCH  26  27
ATOM     27  C   UNL A   1      43.877  22.072  25.038  1.00  0.00     0.275 C 
BRANCH  27  28
ATOM     28  O   UNL A   1      43.314  23.368  24.774  1.00  0.00    -0.458 OA
BRANCH  28  29
ATOM     29  C   UNL A   1      44.098  24.431  25.046  1.00  0.00     0.338 C 
ATOM     30  O   UNL A   1      45.195  24.701  24.569  1.00  0.00    -0.246 OA
BRANCH  29  31
ATOM     31  C   UNL A   1      43.417  25.285  26.028  1.00  0.00     0.060 A 
ATOM     32  C   UNL A   1      43.564  26.668  25.938  1.00  0.00     0.016 A 
ATOM     33  C   UNL A   1      42.718  24.723  27.093  1.00  0.00     0.016 A 
ATOM     34  C   UNL A   1      43.071  27.497  26.942  1.00  0.00     0.010 A 
ATOM     35  C   UNL A   1      42.159  25.559  28.065  1.00  0.00     0.010 A 
ATOM     36  C   UNL A   1      42.360  26.953  28.019  1.00  0.00    -0.014 A 
BRANCH  36  37
ATOM     37  C   UNL A   1      41.900  27.824  29.136  1.00  0.00     0.031 A 
ATOM     38  C   UNL A   1      42.715  27.909  30.398  1.00  0.00     0.074 A 
ATOM     39  C   UNL A   1      40.780  28.563  29.021  1.00  0.00     0.049 A 
ATOM     40  N   UNL A   1      42.418  28.471  31.544  1.00  0.00    -0.248 NA
ATOM     41  C   UNL A   1      44.038  27.267  30.372  1.00  0.00     0.031 C 
ATOM     42  C   UNL A   1      39.923  28.629  27.838  1.00  0.00     0.029 A 
ATOM     43  N   UNL A   1      40.173  29.410  29.918  1.00  0.00    -0.354 N 
ATOM     44  C   UNL A   1      43.488  28.197  32.388  1.00  0.00     0.074 A 
ATOM     45  C   UNL A   1      44.443  27.425  31.623  1.00  0.00     0.031 C 
ATOM     46  C   UNL A   1      38.922  29.494  28.067  1.00  0.00     0.029 A 
ATOM     47  C   UNL A   1      39.023  29.986  29.438  1.00  0.00     0.049 A 
ATOM     48  H   UNL A   1      40.529  29.586  30.819  1.00  0.00     0.167 HD
ATOM     49  C   UNL A   1      43.656  28.557  33.683  1.00  0.00     0.037 A 
ATOM     50  C   UNL A   1      38.131  30.794  30.044  1.00  0.00     0.037 A 
ATOM     51  C   UNL A   1      42.737  29.378  34.427  1.00  0.00     0.049 A 
ATOM     52  C   UNL A   1      38.329  31.167  31.486  1.00  0.00     0.074 A 
ATOM     53  C   UNL A   1      42.824  29.799  35.742  1.00  0.00     0.029 A 
ATOM     54  N   UNL A   1      41.570  29.919  33.909  1.00  0.00    -0.354 N 
ATOM     55  N   UNL A   1      39.309  30.846  32.297  1.00  0.00    -0.248 NA
ATOM     56  C   UNL A   1      37.287  31.998  32.106  1.00  0.00     0.031 C 
ATOM     57  C   UNL A   1      41.697  30.578  36.028  1.00  0.00     0.029 A 
ATOM     58  C   UNL A   1      40.925  30.668  34.881  1.00  0.00     0.049 A 
ATOM     59  H   UNL A   1      41.246  29.791  32.988  1.00  0.00     0.167 HD
ATOM     60  C   UNL A   1      39.005  31.438  33.516  1.00  0.00     0.074 A 
ATOM     61  C   UNL A   1      37.762  32.158  33.334  1.00  0.00     0.031 C 
ATOM     62  C   UNL A   1      39.692  31.382  34.682  1.00  0.00     0.037 A 
BRANCH  49  63
ATOM     63  C   UNL A   1      44.868  28.032  34.393  1.00  0.00     0.064 A 
ATOM     64  C   UNL A   1      46.071  28.750  34.435  1.00  0.00     0.173 A 
ATOM     65  C   UNL A   1      44.811  26.801  35.064  1.00  0.00     0.173 A 
ATOM     66  F   UNL A   1      46.180  29.924  33.796  1.00  0.00    -0.203 F 
ATOM     67  C   UNL A   1      47.182  28.241  35.104  1.00  0.00     0.198 A 
ATOM     68  C   UNL A   1      45.915  26.308  35.752  1.00  0.00     0.198 A 
ATOM     69  F   UNL A   1      43.681  26.078  35.056  1.00  0.00    -0.203 F 
ATOM     70  F   UNL A   1      48.337  28.923  35.096  1.00  0.00    -0.200 F 
ATOM     71  C   UNL A   1      47.102  27.025  35.766  1.00  0.00     0.200 A 
ATOM     72  F   UNL A   1      45.833  25.137  36.398  1.00  0.00    -0.200 F 
ATOM     73  F   UNL A   1      48.172  26.541  36.413  1.00  0.00    -0.200 F 
ENDBRANCH  49  63
BRANCH  50  74
ATOM     74  C   UNL A   1      36.946  31.282  29.291  1.00  0.00     0.064 A 
ATOM     75  C   UNL A   1      36.881  32.604  28.832  1.00  0.00     0.173 A 
ATOM     76  C   UNL A   1      35.858  30.439  29.017  1.00  0.00     0.173 A 
ATOM     77  F   UNL A   1      37.882  33.455  29.096  1.00  0.00    -0.203 F 
ATOM     78  C   UNL A   1      35.769  33.066  28.130  1.00  0.00     0.198 A 
ATOM     79  C   UNL A   1      34.760  30.895  28.292  1.00  0.00     0.198 A 
ATOM     80  F   UNL A   1      35.871  29.166  29.441  1.00  0.00    -0.203 F 
ATOM     81  F   UNL A   1      35.715  34.345  27.733  1.00  0.00    -0.200 F 
ATOM     82  C   UNL A   1      34.714  32.209  27.853  1.00  0.00     0.200 A 
ATOM     83  F   UNL A   1      33.747  30.061  28.019  1.00  0.00    -0.200 F 
ATOM     84  F   UNL A   1      33.649  32.652  27.172  1.00  0.00    -0.200 F 
ENDBRANCH  50  74
BRANCH  62  85
ATOM     85  C   UNL A   1      39.126  32.139  35.845  1.00  0.00     0.064 A 
ATOM     86  C   UNL A   1      38.280  31.521  36.777  1.00  0.00     0.173 A 
ATOM     87  C   UNL A   1      39.462  33.485  36.049  1.00  0.00     0.173 A 
ATOM     88  F   UNL A   1      37.919  30.239  36.614  1.00  0.00    -0.203 F 
ATOM     89  C   UNL A   1      37.775  32.230  37.864  1.00  0.00     0.198 A 
ATOM     90  C   UNL A   1      38.971  34.186  37.148  1.00  0.00     0.198 A 
ATOM     91  F   UNL A   1      40.271  34.118  35.187  1.00  0.00    -0.203 F 
ATOM     92  F   UNL A   1      36.938  31.632  38.721  1.00  0.00    -0.200 F 
ATOM     93  C   UNL A   1      38.124  33.559  38.050  1.00  0.00     0.200 A 
ATOM     94  F   UNL A   1      39.316  35.467  37.332  1.00  0.00    -0.200 F 
ATOM     95  F   UNL A   1      37.639  34.240  39.098  1.00  0.00    -0.200 F 
ENDBRANCH  62  85
ENDBRANCH  36  37
ENDBRANCH  29  31
ENDBRANCH  28  29
ENDBRANCH  27  28
ENDBRANCH  26  27
ENDBRANCH   1  26
TORSDOF 16
ENDMDL
MODEL 3
REMARK VINA RESULT:     -12.3      3.108      8.028
REMARK SMILES O=C(CSc1nc(O)cc(=O)[nH]1)Nc1cccc(C(=O)OCCOC(=O)c2ccc(-c3c4nc(c(-c5c(F)c(F)c(F)c(F)c5F)c5ccc([nH]5)c(-c5c(F)c(F)c(F)c(F)c5F)c5nc(c(-c6c(F)c(F)c(F)c(F)c6F)c6ccc3[nH]6)C=C5)C=C4)cc2)c1
REMARK SMILES IDX 21 1 19 2 20 3 18 4 14 5 15 6 90 7 16 8 17 9 13 10 1 11 2 12
REMARK SMILES IDX 3 14 4 15 5 16 6 17 12 18 7 19 10 20 9 22 11 23 8 24 22 26
REMARK SMILES IDX 23 27 24 28 25 29 26 30 27 31 28 32 89 33 29 34 88 35 30 36
REMARK SMILES IDX 31 37 32 38 82 39 33 40 87 41 81 42 83 43 34 44 86 45 80 46
REMARK SMILES IDX 79 47 35 49 67 50 47 51 66 52 48 53 51 54 65 55 84 56 49 57
REMARK SMILES IDX 50 58 64 60 85 61 52 62 36 63 37 64 45 65 38 66 39 67 43 68
REMARK SMILES IDX 46 69 40 70 41 71 44 72 42 73 68 74 69 75 77 76 70 77 71 78
REMARK SMILES IDX 75 79 78 80 72 81 73 82 76 83 74 84 53 85 54 86 62 87 55 88
REMARK SMILES IDX 56 89 60 90 63 91 57 92 58 93 61 94 59 95
REMARK H PARENT 13 13 12 21 8 25 83 48 51 59
REMARK Flexibility Score: inf
ROOT
ATOM      1  O   UNL A   1      32.574  28.278  24.711  1.00  0.00    -0.458 OA
ENDROOT
BRANCH   1   2
ATOM      2  C   UNL A   1      33.280  28.184  23.557  1.00  0.00     0.338 C 
ATOM      3  O   UNL A   1      33.979  29.048  23.056  1.00  0.00    -0.246 OA
BRANCH   2   4
ATOM      4  C   UNL A   1      33.208  26.799  23.028  1.00  0.00     0.062 A 
ATOM      5  C   UNL A   1      33.654  24.427  23.200  1.00  0.00     0.042 A 
ATOM      6  C   UNL A   1      33.149  24.246  21.907  1.00  0.00     0.026 A 
ATOM      7  C   UNL A   1      33.722  25.713  23.743  1.00  0.00     0.041 A 
ATOM      8  C   UNL A   1      32.604  25.320  21.207  1.00  0.00     0.003 A 
ATOM      9  C   UNL A   1      32.597  26.587  21.785  1.00  0.00     0.016 A 
BRANCH   5  10
ATOM     10  N   UNL A   1      34.044  23.270  23.900  1.00  0.00    -0.325 N 
ATOM     11  O   UNL A   1      36.171  22.928  23.022  1.00  0.00    -0.274 OA
ATOM     12  C   UNL A   1      35.253  22.610  23.774  1.00  0.00     0.234 C 
ATOM     13  H   UNL A   1      33.397  22.895  24.540  1.00  0.00     0.169 HD
BRANCH  12  14
ATOM     14  C   UNL A   1      35.383  21.371  24.640  1.00  0.00     0.178 C 
BRANCH  14  15
ATOM     15  S   UNL A   1      33.818  20.808  25.356  1.00  0.00    -0.078 SA
BRANCH  15  16
ATOM     16  C   UNL A   1      33.632  19.259  24.591  1.00  0.00     0.172 A 
ATOM     17  N   UNL A   1      32.789  19.116  23.623  1.00  0.00    -0.189 NA
ATOM     18  N   UNL A   1      34.454  18.286  25.058  1.00  0.00    -0.301 N 
ATOM     19  C   UNL A   1      32.754  17.879  23.045  1.00  0.00     0.218 A 
ATOM     20  C   UNL A   1      34.447  17.036  24.517  1.00  0.00     0.255 A 
ATOM     21  H   UNL A   1      35.067  18.487  25.801  1.00  0.00     0.172 HD
ATOM     22  C   UNL A   1      33.503  16.837  23.412  1.00  0.00     0.139 A 
ATOM     23  O   UNL A   1      35.185  16.140  24.906  1.00  0.00    -0.269 OA
BRANCH  19  24
ATOM     24  O   UNL A   1      31.888  17.744  21.993  1.00  0.00    -0.493 OA
ATOM     25  H   UNL A   1      31.874  16.951  21.496  1.00  0.00     0.295 HD
ENDBRANCH  19  24
ENDBRANCH  15  16
ENDBRANCH  14  15
ENDBRANCH  12  14
ENDBRANCH   5  10
ENDBRANCH   2   4
ENDBRANCH   1   2
BRANCH   1  26
ATOM     26  C   UNL A   1      31.406  29.125  24.683  1.00  0.00     0.275 C 
BRANCH  26  27
ATOM     27  C   UNL A   1      31.620  30.361  25.557  1.00  0.00     0.275 C 
BRANCH  27  28
ATOM     28  O   UNL A   1      32.860  30.222  26.271  1.00  0.00    -0.458 OA
BRANCH  28  29
ATOM     29  C   UNL A   1      33.245  31.277  27.017  1.00  0.00     0.338 C 
ATOM     30  O   UNL A   1      32.633  32.319  27.224  1.00  0.00    -0.246 OA
BRANCH  29  31
ATOM     31  C   UNL A   1      34.562  30.989  27.603  1.00  0.00     0.060 A 
ATOM     32  C   UNL A   1      34.884  29.672  27.926  1.00  0.00     0.016 A 
ATOM     33  C   UNL A   1      35.436  32.023  27.925  1.00  0.00     0.016 A 
ATOM     34  C   UNL A   1      36.050  29.383  28.629  1.00  0.00     0.010 A 
ATOM     35  C   UNL A   1      36.642  31.728  28.568  1.00  0.00     0.010 A 
ATOM     36  C   UNL A   1      36.946  30.408  28.959  1.00  0.00    -0.014 A 
BRANCH  36  37
ATOM     37  C   UNL A   1      38.154  30.118  29.780  1.00  0.00     0.031 A 
ATOM     38  C   UNL A   1      39.254  29.263  29.211  1.00  0.00     0.074 A 
ATOM     39  C   UNL A   1      38.292  30.635  31.017  1.00  0.00     0.049 A 
ATOM     40  N   UNL A   1      40.305  28.755  29.805  1.00  0.00    -0.248 NA
ATOM     41  C   UNL A   1      39.152  28.925  27.783  1.00  0.00     0.031 C 
ATOM     42  C   UNL A   1      37.338  31.527  31.675  1.00  0.00     0.029 A 
ATOM     43  N   UNL A   1      39.299  30.486  31.940  1.00  0.00    -0.354 N 
ATOM     44  C   UNL A   1      40.952  27.992  28.841  1.00  0.00     0.074 A 
ATOM     45  C   UNL A   1      40.181  28.106  27.622  1.00  0.00     0.031 C 
ATOM     46  C   UNL A   1      37.820  31.874  32.879  1.00  0.00     0.029 A 
ATOM     47  C   UNL A   1      39.078  31.170  33.110  1.00  0.00     0.049 A 
ATOM     48  H   UNL A   1      40.102  29.941  31.777  1.00  0.00     0.167 HD
ATOM     49  C   UNL A   1      42.087  27.261  28.963  1.00  0.00     0.037 A 
ATOM     50  C   UNL A   1      39.791  31.200  34.253  1.00  0.00     0.037 A 
ATOM     51  C   UNL A   1      42.889  27.195  30.156  1.00  0.00     0.049 A 
ATOM     52  C   UNL A   1      41.037  30.369  34.371  1.00  0.00     0.074 A 
ATOM     53  C   UNL A   1      44.058  26.486  30.374  1.00  0.00     0.029 A 
ATOM     54  N   UNL A   1      42.614  27.884  31.328  1.00  0.00    -0.354 N 
ATOM     55  N   UNL A   1      41.604  29.596  33.477  1.00  0.00    -0.248 NA
ATOM     56  C   UNL A   1      41.733  30.397  35.666  1.00  0.00     0.031 C 
ATOM     57  C   UNL A   1      44.479  26.727  31.687  1.00  0.00     0.029 A 
ATOM     58  C   UNL A   1      43.590  27.613  32.274  1.00  0.00     0.049 A 
ATOM     59  H   UNL A   1      41.841  28.477  31.467  1.00  0.00     0.167 HD
ATOM     60  C   UNL A   1      42.722  29.052  34.095  1.00  0.00     0.074 A 
ATOM     61  C   UNL A   1      42.768  29.602  35.435  1.00  0.00     0.031 C 
ATOM     62  C   UNL A   1      43.623  28.171  33.600  1.00  0.00     0.037 A 
BRANCH  49  63
ATOM     63  C   UNL A   1      42.509  26.441  27.781  1.00  0.00     0.064 A 
ATOM     64  C   UNL A   1      41.974  25.169  27.531  1.00  0.00     0.173 A 
ATOM     65  C   UNL A   1      43.445  26.951  26.870  1.00  0.00     0.173 A 
ATOM     66  F   UNL A   1      41.087  24.631  28.382  1.00  0.00    -0.203 F 
ATOM     67  C   UNL A   1      42.380  24.429  26.424  1.00  0.00     0.198 A 
ATOM     68  C   UNL A   1      43.831  26.219  25.751  1.00  0.00     0.198 A 
ATOM     69  F   UNL A   1      43.984  28.165  27.062  1.00  0.00    -0.203 F 
ATOM     70  F   UNL A   1      41.889  23.197  26.228  1.00  0.00    -0.200 F 
ATOM     71  C   UNL A   1      43.303  24.955  25.532  1.00  0.00     0.200 A 
ATOM     72  F   UNL A   1      44.716  26.734  24.886  1.00  0.00    -0.200 F 
ATOM     73  F   UNL A   1      43.689  24.242  24.465  1.00  0.00    -0.200 F 
ENDBRANCH  49  63
BRANCH  50  74
ATOM     74  C   UNL A   1      39.322  32.030  35.393  1.00  0.00     0.064 A 
ATOM     75  C   UNL A   1      39.695  33.376  35.504  1.00  0.00     0.173 A 
ATOM     76  C   UNL A   1      38.494  31.496  36.392  1.00  0.00     0.173 A 
ATOM     77  F   UNL A   1      40.509  33.923  34.590  1.00  0.00    -0.203 F 
ATOM     78  C   UNL A   1      39.261  34.156  36.575  1.00  0.00     0.198 A 
ATOM     79  C   UNL A   1      38.040  32.283  37.447  1.00  0.00     0.198 A 
ATOM     80  F   UNL A   1      38.116  30.210  36.333  1.00  0.00    -0.203 F 
ATOM     81  F   UNL A   1      39.662  35.430  36.678  1.00  0.00    -0.200 F 
ATOM     82  C   UNL A   1      38.428  33.611  37.540  1.00  0.00     0.200 A 
ATOM     83  F   UNL A   1      37.228  31.755  38.373  1.00  0.00    -0.200 F 
ATOM     84  F   UNL A   1      38.005  34.363  38.566  1.00  0.00    -0.200 F 
ENDBRANCH  50  74
BRANCH  62  85
ATOM     85  C   UNL A   1      44.750  27.765  34.502  1.00  0.00     0.064 A 
ATOM     86  C   UNL A   1      44.652  26.637  35.330  1.00  0.00     0.173 A 
ATOM     87  C   UNL A   1      45.950  28.490  34.513  1.00  0.00     0.173 A 
ATOM     88  F   UNL A   1      43.517  25.922  35.365  1.00  0.00    -0.203 F 
ATOM     89  C   UNL A   1      45.711  26.260  36.151  1.00  0.00     0.198 A 
ATOM     90  C   UNL A   1      47.014  28.098  35.319  1.00  0.00     0.198 A 
ATOM     91  F   UNL A   1      46.092  29.574  33.735  1.00  0.00    -0.203 F 
ATOM     92  F   UNL A   1      45.584  25.201  36.962  1.00  0.00    -0.200 F 
ATOM     93  C   UNL A   1      46.892  26.987  36.141  1.00  0.00     0.200 A 
ATOM     94  F   UNL A   1      48.158  28.795  35.303  1.00  0.00    -0.200 F 
ATOM     95  F   UNL A   1      47.913  26.620  36.930  1.00  0.00    -0.200 F 
ENDBRANCH  62  85
ENDBRANCH  36  37
ENDBRANCH  29  31
ENDBRANCH  28  29
ENDBRANCH  27  28
ENDBRANCH  26  27
ENDBRANCH   1  26
TORSDOF 16
ENDMDL
