MODEL 1
REMARK VINA RESULT:     -11.6      0.000      0.000
REMARK SMILES Cc1cc(Nc2nc3c(c(OCC(=O)OCCOC(=O)c4ccc(-c5c6nc(c(-c7c(F)c(F)c(F)c(F)c7F)c7ccc([nH]7)c(-c7c(F)c(F)c(F)c(F)c7F)c7nc(c(-c8c(F)c(F)c(F)c(F)c8F)c8ccc5[nH]8)C=C7)C=C6)cc4)n2)CCCC3)ccc1Br
REMARK SMILES IDX 16 1 15 2 13 3 14 4 12 5 11 6 10 7 6 8 7 9 84 10 8 11 9 12
REMARK SMILES IDX 88 13 85 14 87 15 86 16 5 17 4 19 1 20 2 21 3 22 91 23 90 24
REMARK SMILES IDX 92 25 89 26 17 27 18 28 19 29 20 30 21 31 22 32 83 33 23 34
REMARK SMILES IDX 82 35 24 36 25 37 26 38 76 39 27 40 81 41 75 42 77 43 28 44
REMARK SMILES IDX 80 45 74 46 73 47 29 49 61 50 41 51 60 52 42 53 45 54 59 55
REMARK SMILES IDX 78 56 43 57 44 58 58 60 79 61 46 62 30 63 31 64 39 65 32 66
REMARK SMILES IDX 33 67 37 68 40 69 34 70 35 71 38 72 36 73 62 74 63 75 71 76
REMARK SMILES IDX 64 77 65 78 69 79 72 80 66 81 67 82 70 83 68 84 47 85 48 86
REMARK SMILES IDX 56 87 49 88 50 89 54 90 57 91 51 92 52 93 55 94 53 95
REMARK H PARENT 5 18 77 48 45 59
REMARK Flexibility Score: inf
ROOT
ATOM      1  C   UNL A   1      46.995  39.852  25.456  1.00  0.00     0.274 C 
ENDROOT
BRANCH   1   2
ATOM      2  O   UNL A   1      46.756  39.871  24.037  1.00  0.00    -0.460 OA
BRANCH   2   3
ATOM      3  C   UNL A   1      46.880  41.083  23.431  1.00  0.00     0.344 C 
ATOM      4  O   UNL A   1      47.094  41.253  22.234  1.00  0.00    -0.248 OA
BRANCH   3   5
ATOM      5  C   UNL A   1      46.708  42.241  24.399  1.00  0.00     0.353 C 
BRANCH   5   6
ATOM      6  O   UNL A   1      45.697  43.171  24.067  1.00  0.00    -0.465 OA
BRANCH   6   7
ATOM      7  C   UNL A   1      44.404  42.679  24.047  1.00  0.00     0.222 A 
ATOM      8  C   UNL A   1      42.591  41.703  25.037  1.00  0.00     0.230 A 
ATOM      9  N   UNL A   1      41.872  41.818  23.911  1.00  0.00    -0.217 NA
ATOM     10  N   UNL A   1      43.854  42.155  25.162  1.00  0.00    -0.177 NA
ATOM     11  C   UNL A   1      42.431  42.419  22.847  1.00  0.00     0.053 A 
ATOM     12  C   UNL A   1      43.744  42.832  22.843  1.00  0.00     0.036 A 
ATOM     13  C   UNL A   1      41.542  42.592  21.647  1.00  0.00     0.057 C 
ATOM     14  C   UNL A   1      44.395  43.453  21.644  1.00  0.00     0.043 C 
ATOM     15  C   UNL A   1      42.105  43.590  20.636  1.00  0.00     0.007 C 
ATOM     16  C   UNL A   1      43.572  43.283  20.366  1.00  0.00     0.005 C 
BRANCH   8  17
ATOM     17  N   UNL A   1      41.996  41.112  26.152  1.00  0.00    -0.324 N 
ATOM     18  H   UNL A   1      41.026  41.265  26.218  1.00  0.00     0.170 HD
BRANCH  17  19
ATOM     19  C   UNL A   1      42.527  40.339  27.194  1.00  0.00     0.041 A 
ATOM     20  C   UNL A   1      42.206  36.715  28.374  1.00  0.00     0.045 C 
ATOM     21  C   UNL A   1      42.657  38.149  28.322  1.00  0.00    -0.035 A 
ATOM     22  C   UNL A   1      42.233  38.966  27.254  1.00  0.00     0.030 A 
ATOM     23  C   UNL A   1      43.439  38.726  29.329  1.00  0.00     0.021 A 
ATOM     24  C   UNL A   1      43.780  40.076  29.267  1.00  0.00     0.018 A 
ATOM     25  Br  UNL A   1      44.051  37.736  30.828  1.00  0.00    -0.051 Br
ATOM     26  C   UNL A   1      43.323  40.872  28.211  1.00  0.00     0.027 A 
ENDBRANCH  17  19
ENDBRANCH   8  17
ENDBRANCH   6   7
ENDBRANCH   5   6
ENDBRANCH   3   5
ENDBRANCH   2   3
ENDBRANCH   1   2
BRANCH   1  27
ATOM     27  C   UNL A   1      45.826  39.161  26.154  1.00  0.00     0.275 C 
BRANCH  27  28
ATOM     28  O   UNL A   1      46.130  37.764  26.309  1.00  0.00    -0.458 OA
BRANCH  28  29
ATOM     29  C   UNL A   1      46.348  37.360  27.578  1.00  0.00     0.338 C 
ATOM     30  O   UNL A   1      46.863  38.001  28.480  1.00  0.00    -0.246 OA
BRANCH  29  31
ATOM     31  C   UNL A   1      45.842  35.989  27.794  1.00  0.00     0.060 A 
ATOM     32  C   UNL A   1      46.196  35.245  28.923  1.00  0.00     0.016 A 
ATOM     33  C   UNL A   1      45.128  35.382  26.757  1.00  0.00     0.016 A 
ATOM     34  C   UNL A   1      45.876  33.888  29.000  1.00  0.00     0.010 A 
ATOM     35  C   UNL A   1      44.781  34.034  26.845  1.00  0.00     0.010 A 
ATOM     36  C   UNL A   1      45.164  33.276  27.961  1.00  0.00    -0.014 A 
BRANCH  36  37
ATOM     37  C   UNL A   1      44.724  31.867  28.057  1.00  0.00     0.031 A 
ATOM     38  C   UNL A   1      45.456  30.780  27.334  1.00  0.00     0.074 A 
ATOM     39  C   UNL A   1      43.603  31.589  28.742  1.00  0.00     0.049 A 
ATOM     40  N   UNL A   1      45.063  29.564  27.049  1.00  0.00    -0.248 NA
ATOM     41  C   UNL A   1      46.807  31.102  26.864  1.00  0.00     0.031 C 
ATOM     42  C   UNL A   1      42.837  32.557  29.528  1.00  0.00     0.029 A 
ATOM     43  N   UNL A   1      42.902  30.419  28.868  1.00  0.00    -0.354 N 
ATOM     44  C   UNL A   1      46.095  28.996  26.313  1.00  0.00     0.074 A 
ATOM     45  C   UNL A   1      47.143  29.989  26.224  1.00  0.00     0.031 C 
ATOM     46  C   UNL A   1      41.766  31.942  30.052  1.00  0.00     0.029 A 
ATOM     47  C   UNL A   1      41.740  30.559  29.584  1.00  0.00     0.049 A 
ATOM     48  H   UNL A   1      43.202  29.564  28.484  1.00  0.00     0.167 HD
ATOM     49  C   UNL A   1      46.144  27.761  25.759  1.00  0.00     0.037 A 
ATOM     50  C   UNL A   1      40.744  29.682  29.800  1.00  0.00     0.037 A 
ATOM     51  C   UNL A   1      45.115  26.765  25.920  1.00  0.00     0.049 A 
ATOM     52  C   UNL A   1      40.828  28.313  29.194  1.00  0.00     0.074 A 
ATOM     53  C   UNL A   1      45.066  25.480  25.406  1.00  0.00     0.029 A 
ATOM     54  N   UNL A   1      43.966  26.936  26.677  1.00  0.00    -0.354 N 
ATOM     55  N   UNL A   1      41.760  27.809  28.422  1.00  0.00    -0.248 NA
ATOM     56  C   UNL A   1      39.719  27.393  29.476  1.00  0.00     0.031 C 
ATOM     57  C   UNL A   1      43.878  24.881  25.835  1.00  0.00     0.029 A 
ATOM     58  C   UNL A   1      43.206  25.778  26.648  1.00  0.00     0.049 A 
ATOM     59  H   UNL A   1      43.727  27.757  27.164  1.00  0.00     0.167 HD
ATOM     60  C   UNL A   1      41.355  26.516  28.130  1.00  0.00     0.074 A 
ATOM     61  C   UNL A   1      40.101  26.303  28.823  1.00  0.00     0.031 C 
ATOM     62  C   UNL A   1      41.962  25.591  27.349  1.00  0.00     0.037 A 
BRANCH  49  63
ATOM     63  C   UNL A   1      47.323  27.410  24.899  1.00  0.00     0.064 A 
ATOM     64  C   UNL A   1      47.422  27.829  23.566  1.00  0.00     0.173 A 
ATOM     65  C   UNL A   1      48.419  26.730  25.456  1.00  0.00     0.173 A 
ATOM     66  F   UNL A   1      46.403  28.481  22.986  1.00  0.00    -0.203 F 
ATOM     67  C   UNL A   1      48.570  27.574  22.819  1.00  0.00     0.198 A 
ATOM     68  C   UNL A   1      49.575  26.502  24.715  1.00  0.00     0.198 A 
ATOM     69  F   UNL A   1      48.379  26.314  26.730  1.00  0.00    -0.203 F 
ATOM     70  F   UNL A   1      48.636  27.970  21.540  1.00  0.00    -0.200 F 
ATOM     71  C   UNL A   1      49.649  26.921  23.396  1.00  0.00     0.200 A 
ATOM     72  F   UNL A   1      50.623  25.886  25.282  1.00  0.00    -0.200 F 
ATOM     73  F   UNL A   1      50.762  26.702  22.683  1.00  0.00    -0.200 F 
ENDBRANCH  49  63
BRANCH  50  74
ATOM     74  C   UNL A   1      39.582  30.096  30.623  1.00  0.00     0.064 A 
ATOM     75  C   UNL A   1      38.455  30.669  30.024  1.00  0.00     0.173 A 
ATOM     76  C   UNL A   1      39.554  29.878  32.008  1.00  0.00     0.173 A 
ATOM     77  F   UNL A   1      38.447  30.909  28.704  1.00  0.00    -0.203 F 
ATOM     78  C   UNL A   1      37.337  31.011  30.781  1.00  0.00     0.198 A 
ATOM     79  C   UNL A   1      38.427  30.199  32.760  1.00  0.00     0.198 A 
ATOM     80  F   UNL A   1      40.610  29.324  32.622  1.00  0.00    -0.203 F 
ATOM     81  F   UNL A   1      36.278  31.578  30.188  1.00  0.00    -0.200 F 
ATOM     82  C   UNL A   1      37.322  30.768  32.147  1.00  0.00     0.200 A 
ATOM     83  F   UNL A   1      38.409  29.947  34.076  1.00  0.00    -0.200 F 
ATOM     84  F   UNL A   1      36.239  31.082  32.871  1.00  0.00    -0.200 F 
ENDBRANCH  50  74
BRANCH  62  85
ATOM     85  C   UNL A   1      41.292  24.258  27.217  1.00  0.00     0.064 A 
ATOM     86  C   UNL A   1      40.118  24.107  26.467  1.00  0.00     0.173 A 
ATOM     87  C   UNL A   1      41.863  23.115  27.794  1.00  0.00     0.173 A 
ATOM     88  F   UNL A   1      39.531  25.176  25.908  1.00  0.00    -0.203 F 
ATOM     89  C   UNL A   1      39.530  22.855  26.309  1.00  0.00     0.198 A 
ATOM     90  C   UNL A   1      41.283  21.862  27.617  1.00  0.00     0.198 A 
ATOM     91  F   UNL A   1      42.990  23.212  28.515  1.00  0.00    -0.203 F 
ATOM     92  F   UNL A   1      38.392  22.734  25.612  1.00  0.00    -0.200 F 
ATOM     93  C   UNL A   1      40.116  21.733  26.878  1.00  0.00     0.200 A 
ATOM     94  F   UNL A   1      41.855  20.778  28.161  1.00  0.00    -0.200 F 
ATOM     95  F   UNL A   1      39.554  20.528  26.718  1.00  0.00    -0.200 F 
ENDBRANCH  62  85
ENDBRANCH  36  37
ENDBRANCH  29  31
ENDBRANCH  28  29
ENDBRANCH  27  28
ENDBRANCH   1  27
TORSDOF 15
ENDMDL
MODEL 2
REMARK VINA RESULT:     -11.5      8.449     14.008
REMARK SMILES Cc1cc(Nc2nc3c(c(OCC(=O)OCCOC(=O)c4ccc(-c5c6nc(c(-c7c(F)c(F)c(F)c(F)c7F)c7ccc([nH]7)c(-c7c(F)c(F)c(F)c(F)c7F)c7nc(c(-c8c(F)c(F)c(F)c(F)c8F)c8ccc5[nH]8)C=C7)C=C6)cc4)n2)CCCC3)ccc1Br
REMARK SMILES IDX 16 1 15 2 13 3 14 4 12 5 11 6 10 7 6 8 7 9 84 10 8 11 9 12
REMARK SMILES IDX 88 13 85 14 87 15 86 16 5 17 4 19 1 20 2 21 3 22 91 23 90 24
REMARK SMILES IDX 92 25 89 26 17 27 18 28 19 29 20 30 21 31 22 32 83 33 23 34
REMARK SMILES IDX 82 35 24 36 25 37 26 38 76 39 27 40 81 41 75 42 77 43 28 44
REMARK SMILES IDX 80 45 74 46 73 47 29 49 61 50 41 51 60 52 42 53 45 54 59 55
REMARK SMILES IDX 78 56 43 57 44 58 58 60 79 61 46 62 30 63 31 64 39 65 32 66
REMARK SMILES IDX 33 67 37 68 40 69 34 70 35 71 38 72 36 73 62 74 63 75 71 76
REMARK SMILES IDX 64 77 65 78 69 79 72 80 66 81 67 82 70 83 68 84 47 85 48 86
REMARK SMILES IDX 56 87 49 88 50 89 54 90 57 91 51 92 52 93 55 94 53 95
REMARK H PARENT 5 18 77 48 45 59
REMARK Flexibility Score: inf
ROOT
ATOM      1  C   UNL A   1      32.525  32.188  27.329  1.00  0.00     0.274 C 
ENDROOT
BRANCH   1   2
ATOM      2  O   UNL A   1      33.593  31.252  27.561  1.00  0.00    -0.460 OA
BRANCH   2   3
ATOM      3  C   UNL A   1      33.418  30.010  27.033  1.00  0.00     0.344 C 
ATOM      4  O   UNL A   1      33.669  28.957  27.613  1.00  0.00    -0.248 OA
BRANCH   3   5
ATOM      5  C   UNL A   1      32.854  30.048  25.623  1.00  0.00     0.353 C 
BRANCH   5   6
ATOM      6  O   UNL A   1      31.468  29.797  25.512  1.00  0.00    -0.465 OA
BRANCH   6   7
ATOM      7  C   UNL A   1      31.040  29.283  24.301  1.00  0.00     0.222 A 
ATOM      8  C   UNL A   1      31.057  27.705  22.649  1.00  0.00     0.230 A 
ATOM      9  N   UNL A   1      30.090  28.349  21.979  1.00  0.00    -0.217 NA
ATOM     10  N   UNL A   1      31.539  28.119  23.837  1.00  0.00    -0.177 NA
ATOM     11  C   UNL A   1      29.562  29.462  22.517  1.00  0.00     0.053 A 
ATOM     12  C   UNL A   1      30.048  30.016  23.679  1.00  0.00     0.036 A 
ATOM     13  C   UNL A   1      28.423  30.083  21.757  1.00  0.00     0.057 C 
ATOM     14  C   UNL A   1      29.505  31.288  24.259  1.00  0.00     0.043 C 
ATOM     15  C   UNL A   1      27.645  31.100  22.592  1.00  0.00     0.007 C 
ATOM     16  C   UNL A   1      28.612  32.053  23.282  1.00  0.00     0.005 C 
BRANCH   8  17
ATOM     17  N   UNL A   1      31.577  26.531  22.107  1.00  0.00    -0.324 N 
ATOM     18  H   UNL A   1      31.834  26.604  21.160  1.00  0.00     0.170 HD
BRANCH  17  19
ATOM     19  C   UNL A   1      31.801  25.264  22.665  1.00  0.00     0.041 A 
ATOM     20  C   UNL A   1      34.813  22.954  23.130  1.00  0.00     0.045 C 
ATOM     21  C   UNL A   1      33.399  23.461  23.195  1.00  0.00    -0.035 A 
ATOM     22  C   UNL A   1      33.112  24.761  22.732  1.00  0.00     0.030 A 
ATOM     23  C   UNL A   1      32.338  22.668  23.648  1.00  0.00     0.021 A 
ATOM     24  C   UNL A   1      31.035  23.163  23.631  1.00  0.00     0.018 A 
ATOM     25  Br  UNL A   1      32.594  20.896  24.273  1.00  0.00    -0.051 Br
ATOM     26  C   UNL A   1      30.773  24.446  23.140  1.00  0.00     0.027 A 
ENDBRANCH  17  19
ENDBRANCH   8  17
ENDBRANCH   6   7
ENDBRANCH   5   6
ENDBRANCH   3   5
ENDBRANCH   2   3
ENDBRANCH   1   2
BRANCH   1  27
ATOM     27  C   UNL A   1      33.100  33.600  27.256  1.00  0.00     0.275 C 
BRANCH  27  28
ATOM     28  O   UNL A   1      32.347  34.459  28.131  1.00  0.00    -0.458 OA
BRANCH  28  29
ATOM     29  C   UNL A   1      33.082  35.325  28.860  1.00  0.00     0.338 C 
ATOM     30  O   UNL A   1      32.913  36.528  28.970  1.00  0.00    -0.246 OA
BRANCH  29  31
ATOM     31  C   UNL A   1      34.164  34.626  29.584  1.00  0.00     0.060 A 
ATOM     32  C   UNL A   1      35.487  34.656  29.135  1.00  0.00     0.016 A 
ATOM     33  C   UNL A   1      33.808  33.789  30.645  1.00  0.00     0.016 A 
ATOM     34  C   UNL A   1      36.445  33.823  29.715  1.00  0.00     0.010 A 
ATOM     35  C   UNL A   1      34.770  32.978  31.246  1.00  0.00     0.010 A 
ATOM     36  C   UNL A   1      36.092  32.980  30.777  1.00  0.00    -0.014 A 
BRANCH  36  37
ATOM     37  C   UNL A   1      37.104  32.159  31.477  1.00  0.00     0.031 A 
ATOM     38  C   UNL A   1      37.539  32.492  32.869  1.00  0.00     0.074 A 
ATOM     39  C   UNL A   1      37.687  31.151  30.807  1.00  0.00     0.049 A 
ATOM     40  N   UNL A   1      38.600  32.094  33.523  1.00  0.00    -0.248 NA
ATOM     41  C   UNL A   1      36.667  33.397  33.627  1.00  0.00     0.031 C 
ATOM     42  C   UNL A   1      37.308  30.702  29.467  1.00  0.00     0.029 A 
ATOM     43  N   UNL A   1      38.734  30.340  31.154  1.00  0.00    -0.354 N 
ATOM     44  C   UNL A   1      38.557  32.748  34.748  1.00  0.00     0.074 A 
ATOM     45  C   UNL A   1      37.348  33.542  34.757  1.00  0.00     0.031 C 
ATOM     46  C   UNL A   1      38.117  29.697  29.101  1.00  0.00     0.029 A 
ATOM     47  C   UNL A   1      39.106  29.480  30.152  1.00  0.00     0.049 A 
ATOM     48  H   UNL A   1      39.176  30.370  32.033  1.00  0.00     0.167 HD
ATOM     49  C   UNL A   1      39.458  32.690  35.757  1.00  0.00     0.037 A 
ATOM     50  C   UNL A   1      40.155  28.642  30.074  1.00  0.00     0.037 A 
ATOM     51  C   UNL A   1      40.620  31.838  35.752  1.00  0.00     0.049 A 
ATOM     52  C   UNL A   1      41.129  28.578  31.213  1.00  0.00     0.074 A 
ATOM     53  C   UNL A   1      41.596  31.698  36.725  1.00  0.00     0.029 A 
ATOM     54  N   UNL A   1      40.947  30.959  34.730  1.00  0.00    -0.354 N 
ATOM     55  N   UNL A   1      41.138  29.265  32.329  1.00  0.00    -0.248 NA
ATOM     56  C   UNL A   1      42.247  27.635  31.077  1.00  0.00     0.031 C 
ATOM     57  C   UNL A   1      42.523  30.750  36.282  1.00  0.00     0.029 A 
ATOM     58  C   UNL A   1      42.104  30.271  35.052  1.00  0.00     0.049 A 
ATOM     59  H   UNL A   1      40.432  30.842  33.899  1.00  0.00     0.167 HD
ATOM     60  C   UNL A   1      42.254  28.835  33.031  1.00  0.00     0.074 A 
ATOM     61  C   UNL A   1      42.889  27.814  32.224  1.00  0.00     0.031 C 
ATOM     62  C   UNL A   1      42.715  29.257  34.233  1.00  0.00     0.037 A 
BRANCH  49  63
ATOM     63  C   UNL A   1      39.258  33.585  36.946  1.00  0.00     0.064 A 
ATOM     64  C   UNL A   1      38.598  33.149  38.102  1.00  0.00     0.173 A 
ATOM     65  C   UNL A   1      39.831  34.868  36.961  1.00  0.00     0.173 A 
ATOM     66  F   UNL A   1      38.033  31.933  38.138  1.00  0.00    -0.203 F 
ATOM     67  C   UNL A   1      38.512  33.965  39.227  1.00  0.00     0.198 A 
ATOM     68  C   UNL A   1      39.766  35.670  38.097  1.00  0.00     0.198 A 
ATOM     69  F   UNL A   1      40.481  35.332  35.883  1.00  0.00    -0.203 F 
ATOM     70  F   UNL A   1      37.861  33.534  40.317  1.00  0.00    -0.200 F 
ATOM     71  C   UNL A   1      39.104  35.220  39.228  1.00  0.00     0.200 A 
ATOM     72  F   UNL A   1      40.356  36.874  38.102  1.00  0.00    -0.200 F 
ATOM     73  F   UNL A   1      39.042  35.992  40.323  1.00  0.00    -0.200 F 
ENDBRANCH  49  63
BRANCH  50  74
ATOM     74  C   UNL A   1      40.328  27.811  28.858  1.00  0.00     0.064 A 
ATOM     75  C   UNL A   1      39.673  26.581  28.738  1.00  0.00     0.173 A 
ATOM     76  C   UNL A   1      41.104  28.253  27.776  1.00  0.00     0.173 A 
ATOM     77  F   UNL A   1      38.934  26.114  29.755  1.00  0.00    -0.203 F 
ATOM     78  C   UNL A   1      39.786  25.819  27.578  1.00  0.00     0.198 A 
ATOM     79  C   UNL A   1      41.198  27.501  26.608  1.00  0.00     0.198 A 
ATOM     80  F   UNL A   1      41.744  29.430  27.846  1.00  0.00    -0.203 F 
ATOM     81  F   UNL A   1      39.165  24.634  27.495  1.00  0.00    -0.200 F 
ATOM     82  C   UNL A   1      40.542  26.284  26.512  1.00  0.00     0.200 A 
ATOM     83  F   UNL A   1      41.915  27.961  25.574  1.00  0.00    -0.200 F 
ATOM     84  F   UNL A   1      40.636  25.557  25.390  1.00  0.00    -0.200 F 
ENDBRANCH  50  74
BRANCH  62  85
ATOM     85  C   UNL A   1      43.956  28.603  34.759  1.00  0.00     0.064 A 
ATOM     86  C   UNL A   1      45.224  29.147  34.513  1.00  0.00     0.173 A 
ATOM     87  C   UNL A   1      43.870  27.458  35.564  1.00  0.00     0.173 A 
ATOM     88  F   UNL A   1      45.354  30.234  33.738  1.00  0.00    -0.203 F 
ATOM     89  C   UNL A   1      46.367  28.559  35.048  1.00  0.00     0.198 A 
ATOM     90  C   UNL A   1      45.013  26.885  36.113  1.00  0.00     0.198 A 
ATOM     91  F   UNL A   1      42.676  26.907  35.829  1.00  0.00    -0.203 F 
ATOM     92  F   UNL A   1      47.573  29.078  34.780  1.00  0.00    -0.200 F 
ATOM     93  C   UNL A   1      46.260  27.433  35.852  1.00  0.00     0.200 A 
ATOM     94  F   UNL A   1      44.907  25.802  36.896  1.00  0.00    -0.200 F 
ATOM     95  F   UNL A   1      47.360  26.874  36.373  1.00  0.00    -0.200 F 
ENDBRANCH  62  85
ENDBRANCH  36  37
ENDBRANCH  29  31
ENDBRANCH  28  29
ENDBRANCH  27  28
ENDBRANCH   1  27
TORSDOF 15
ENDMDL
MODEL 3
REMARK VINA RESULT:     -11.5      8.311     12.749
REMARK SMILES Cc1cc(Nc2nc3c(c(OCC(=O)OCCOC(=O)c4ccc(-c5c6nc(c(-c7c(F)c(F)c(F)c(F)c7F)c7ccc([nH]7)c(-c7c(F)c(F)c(F)c(F)c7F)c7nc(c(-c8c(F)c(F)c(F)c(F)c8F)c8ccc5[nH]8)C=C7)C=C6)cc4)n2)CCCC3)ccc1Br
REMARK SMILES IDX 16 1 15 2 13 3 14 4 12 5 11 6 10 7 6 8 7 9 84 10 8 11 9 12
REMARK SMILES IDX 88 13 85 14 87 15 86 16 5 17 4 19 1 20 2 21 3 22 91 23 90 24
REMARK SMILES IDX 92 25 89 26 17 27 18 28 19 29 20 30 21 31 22 32 83 33 23 34
REMARK SMILES IDX 82 35 24 36 25 37 26 38 76 39 27 40 81 41 75 42 77 43 28 44
REMARK SMILES IDX 80 45 74 46 73 47 29 49 61 50 41 51 60 52 42 53 45 54 59 55
REMARK SMILES IDX 78 56 43 57 44 58 58 60 79 61 46 62 30 63 31 64 39 65 32 66
REMARK SMILES IDX 33 67 37 68 40 69 34 70 35 71 38 72 36 73 62 74 63 75 71 76
REMARK SMILES IDX 64 77 65 78 69 79 72 80 66 81 67 82 70 83 68 84 47 85 48 86
REMARK SMILES IDX 56 87 49 88 50 89 54 90 57 91 51 92 52 93 55 94 53 95
REMARK H PARENT 5 18 77 48 45 59
REMARK Flexibility Score: inf
ROOT
ATOM      1  C   UNL A   1      33.637  31.865  27.233  1.00  0.00     0.274 C 
ENDROOT
BRANCH   1   2
ATOM      2  O   UNL A   1      33.381  30.584  27.838  1.00  0.00    -0.460 OA
BRANCH   2   3
ATOM      3  C   UNL A   1      33.405  29.515  26.997  1.00  0.00     0.344 C 
ATOM      4  O   UNL A   1      33.778  28.386  27.304  1.00  0.00    -0.248 OA
BRANCH   3   5
ATOM      5  C   UNL A   1      32.898  29.855  25.606  1.00  0.00     0.353 C 
BRANCH   5   6
ATOM      6  O   UNL A   1      31.493  29.851  25.450  1.00  0.00    -0.465 OA
BRANCH   6   7
ATOM      7  C   UNL A   1      31.017  29.319  24.265  1.00  0.00     0.222 A 
ATOM      8  C   UNL A   1      30.966  27.714  22.639  1.00  0.00     0.230 A 
ATOM      9  N   UNL A   1      29.975  28.349  21.997  1.00  0.00    -0.217 NA
ATOM     10  N   UNL A   1      31.495  28.146  23.801  1.00  0.00    -0.177 NA
ATOM     11  C   UNL A   1      29.472  29.472  22.536  1.00  0.00     0.053 A 
ATOM     12  C   UNL A   1      30.003  30.044  23.670  1.00  0.00     0.036 A 
ATOM     13  C   UNL A   1      28.305  30.085  21.811  1.00  0.00     0.057 C 
ATOM     14  C   UNL A   1      29.487  31.327  24.249  1.00  0.00     0.043 C 
ATOM     15  C   UNL A   1      27.563  31.118  22.659  1.00  0.00     0.007 C 
ATOM     16  C   UNL A   1      28.558  32.080  23.295  1.00  0.00     0.005 C 
BRANCH   8  17
ATOM     17  N   UNL A   1      31.461  26.528  22.097  1.00  0.00    -0.324 N 
ATOM     18  H   UNL A   1      31.662  26.580  21.135  1.00  0.00     0.170 HD
BRANCH  17  19
ATOM     19  C   UNL A   1      31.726  25.277  22.672  1.00  0.00     0.041 A 
ATOM     20  C   UNL A   1      34.803  23.053  23.133  1.00  0.00     0.045 C 
ATOM     21  C   UNL A   1      33.377  23.525  23.209  1.00  0.00    -0.035 A 
ATOM     22  C   UNL A   1      33.050  24.809  22.730  1.00  0.00     0.030 A 
ATOM     23  C   UNL A   1      32.343  22.712  23.689  1.00  0.00     0.021 A 
ATOM     24  C   UNL A   1      31.027  23.173  23.683  1.00  0.00     0.018 A 
ATOM     25  Br  UNL A   1      32.653  20.958  24.339  1.00  0.00    -0.051 Br
ATOM     26  C   UNL A   1      30.725  24.441  23.175  1.00  0.00     0.027 A 
ENDBRANCH  17  19
ENDBRANCH   8  17
ENDBRANCH   6   7
ENDBRANCH   5   6
ENDBRANCH   3   5
ENDBRANCH   2   3
ENDBRANCH   1   2
BRANCH   1  27
ATOM     27  C   UNL A   1      32.530  32.838  27.627  1.00  0.00     0.275 C 
BRANCH  27  28
ATOM     28  O   UNL A   1      33.099  34.146  27.814  1.00  0.00    -0.458 OA
BRANCH  28  29
ATOM     29  C   UNL A   1      33.281  34.517  29.099  1.00  0.00     0.338 C 
ATOM     30  O   UNL A   1      32.576  35.263  29.760  1.00  0.00    -0.246 OA
BRANCH  29  31
ATOM     31  C   UNL A   1      34.474  33.864  29.677  1.00  0.00     0.060 A 
ATOM     32  C   UNL A   1      34.376  32.972  30.748  1.00  0.00     0.016 A 
ATOM     33  C   UNL A   1      35.730  34.287  29.236  1.00  0.00     0.016 A 
ATOM     34  C   UNL A   1      35.526  32.534  31.406  1.00  0.00     0.010 A 
ATOM     35  C   UNL A   1      36.883  33.827  29.873  1.00  0.00     0.010 A 
ATOM     36  C   UNL A   1      36.788  32.958  30.970  1.00  0.00    -0.014 A 
BRANCH  36  37
ATOM     37  C   UNL A   1      38.029  32.436  31.582  1.00  0.00     0.031 A 
ATOM     38  C   UNL A   1      38.799  31.326  30.937  1.00  0.00     0.074 A 
ATOM     39  C   UNL A   1      38.411  32.924  32.773  1.00  0.00     0.049 A 
ATOM     40  N   UNL A   1      39.713  30.544  31.453  1.00  0.00    -0.248 NA
ATOM     41  C   UNL A   1      38.499  31.055  29.528  1.00  0.00     0.031 C 
ATOM     42  C   UNL A   1      37.770  34.040  33.469  1.00  0.00     0.029 A 
ATOM     43  N   UNL A   1      39.415  32.529  33.617  1.00  0.00    -0.354 N 
ATOM     44  C   UNL A   1      40.054  29.648  30.448  1.00  0.00     0.074 A 
ATOM     45  C   UNL A   1      39.272  30.004  29.285  1.00  0.00     0.031 C 
ATOM     46  C   UNL A   1      38.394  34.237  34.640  1.00  0.00     0.029 A 
ATOM     47  C   UNL A   1      39.431  33.222  34.800  1.00  0.00     0.049 A 
ATOM     48  H   UNL A   1      40.061  31.819  33.396  1.00  0.00     0.167 HD
ATOM     49  C   UNL A   1      40.933  28.619  30.511  1.00  0.00     0.037 A 
ATOM     50  C   UNL A   1      40.170  33.031  35.908  1.00  0.00     0.037 A 
ATOM     51  C   UNL A   1      41.751  28.326  31.660  1.00  0.00     0.049 A 
ATOM     52  C   UNL A   1      41.152  31.898  35.947  1.00  0.00     0.074 A 
ATOM     53  C   UNL A   1      42.678  27.311  31.828  1.00  0.00     0.029 A 
ATOM     54  N   UNL A   1      41.758  29.070  32.831  1.00  0.00    -0.354 N 
ATOM     55  N   UNL A   1      41.406  30.995  35.031  1.00  0.00    -0.248 NA
ATOM     56  C   UNL A   1      41.940  31.746  37.176  1.00  0.00     0.031 C 
ATOM     57  C   UNL A   1      43.230  27.429  33.107  1.00  0.00     0.029 A 
ATOM     58  C   UNL A   1      42.677  28.540  33.721  1.00  0.00     0.049 A 
ATOM     59  H   UNL A   1      41.195  29.859  33.002  1.00  0.00     0.167 HD
ATOM     60  C   UNL A   1      42.385  30.173  35.568  1.00  0.00     0.074 A 
ATOM     61  C   UNL A   1      42.694  30.695  36.884  1.00  0.00     0.031 C 
ATOM     62  C   UNL A   1      42.968  29.079  35.024  1.00  0.00     0.037 A 
BRANCH  49  63
ATOM     63  C   UNL A   1      41.048  27.705  29.325  1.00  0.00     0.064 A 
ATOM     64  C   UNL A   1      40.103  26.704  29.064  1.00  0.00     0.173 A 
ATOM     65  C   UNL A   1      42.068  27.907  28.381  1.00  0.00     0.173 A 
ATOM     66  F   UNL A   1      39.109  26.470  29.934  1.00  0.00    -0.203 F 
ATOM     67  C   UNL A   1      40.178  25.934  27.905  1.00  0.00     0.198 A 
ATOM     68  C   UNL A   1      42.124  27.155  27.211  1.00  0.00     0.198 A 
ATOM     69  F   UNL A   1      42.994  28.857  28.579  1.00  0.00    -0.203 F 
ATOM     70  F   UNL A   1      39.272  24.971  27.683  1.00  0.00    -0.200 F 
ATOM     71  C   UNL A   1      41.181  26.167  26.975  1.00  0.00     0.200 A 
ATOM     72  F   UNL A   1      43.083  27.394  26.305  1.00  0.00    -0.200 F 
ATOM     73  F   UNL A   1      41.234  25.442  25.848  1.00  0.00    -0.200 F 
ENDBRANCH  49  63
BRANCH  50  74
ATOM     74  C   UNL A   1      39.985  33.938  37.066  1.00  0.00     0.064 A 
ATOM     75  C   UNL A   1      40.645  35.170  37.116  1.00  0.00     0.173 A 
ATOM     76  C   UNL A   1      39.109  33.616  38.113  1.00  0.00     0.173 A 
ATOM     77  F   UNL A   1      41.504  35.510  36.143  1.00  0.00    -0.203 F 
ATOM     78  C   UNL A   1      40.437  36.052  38.173  1.00  0.00     0.198 A 
ATOM     79  C   UNL A   1      38.884  34.508  39.157  1.00  0.00     0.198 A 
ATOM     80  F   UNL A   1      38.449  32.448  38.101  1.00  0.00    -0.203 F 
ATOM     81  F   UNL A   1      41.097  37.218  38.210  1.00  0.00    -0.200 F 
ATOM     82  C   UNL A   1      39.550  35.724  39.188  1.00  0.00     0.200 A 
ATOM     83  F   UNL A   1      38.014  34.195  40.127  1.00  0.00    -0.200 F 
ATOM     84  F   UNL A   1      39.338  36.581  40.196  1.00  0.00    -0.200 F 
ENDBRANCH  50  74
BRANCH  62  85
ATOM     85  C   UNL A   1      44.013  28.381  35.839  1.00  0.00     0.064 A 
ATOM     86  C   UNL A   1      43.675  27.347  36.722  1.00  0.00     0.173 A 
ATOM     87  C   UNL A   1      45.368  28.710  35.690  1.00  0.00     0.173 A 
ATOM     88  F   UNL A   1      42.390  27.008  36.905  1.00  0.00    -0.203 F 
ATOM     89  C   UNL A   1      44.659  26.672  37.438  1.00  0.00     0.198 A 
ATOM     90  C   UNL A   1      46.351  28.019  36.393  1.00  0.00     0.198 A 
ATOM     91  F   UNL A   1      45.738  29.690  34.852  1.00  0.00    -0.203 F 
ATOM     92  F   UNL A   1      44.314  25.703  38.298  1.00  0.00    -0.200 F 
ATOM     93  C   UNL A   1      45.996  27.004  37.268  1.00  0.00     0.200 A 
ATOM     94  F   UNL A   1      47.642  28.336  36.222  1.00  0.00    -0.200 F 
ATOM     95  F   UNL A   1      46.942  26.347  37.951  1.00  0.00    -0.200 F 
ENDBRANCH  62  85
ENDBRANCH  36  37
ENDBRANCH  29  31
ENDBRANCH  28  29
ENDBRANCH  27  28
ENDBRANCH   1  27
TORSDOF 15
ENDMDL
