MODEL 1
REMARK VINA RESULT:     -12.5      0.000      0.000
REMARK SMILES O=C(OCCOC(=O)[C@@H]1CN(C(=O)CCC(F)(F)F)C[C@H]1c1ccc2c(c1)OCO2)c1ccc(-c2c3nc(c(-c4c(F)c(F)c(F)c(F)c4F)c4ccc([nH]4)c(-c4c(F)c(F)c(F)c(F)c4F)c4nc(c(-c5c(F)c(F)c(F)c(F)c5F)c5ccc2[nH]5)C=C4)C=C3)cc1
REMARK SMILES IDX 5 1 4 2 3 3 2 4 1 5 31 6 32 7 93 8 33 9 92 10 34 11 35 12
REMARK SMILES IDX 36 13 86 14 37 15 91 16 85 17 87 18 38 19 90 20 84 21 83 22
REMARK SMILES IDX 39 24 71 25 51 26 70 27 52 28 55 29 69 30 88 31 53 32 54 33
REMARK SMILES IDX 68 35 89 36 56 37 40 38 41 39 49 40 42 41 43 42 47 43 50 44
REMARK SMILES IDX 44 45 45 46 48 47 46 48 72 49 73 50 81 51 74 52 75 53 79 54
REMARK SMILES IDX 82 55 76 56 77 57 80 58 78 59 57 60 58 61 66 62 59 63 60 64
REMARK SMILES IDX 64 65 67 66 61 67 62 68 65 69 63 70 6 71 7 72 8 73 9 74
REMARK SMILES IDX 10 75 21 76 11 77 20 78 22 79 23 80 27 81 24 82 26 83 25 84
REMARK SMILES IDX 28 85 30 86 29 87 12 88 13 89 14 90 15 91 16 92 17 93 18 94
REMARK SMILES IDX 19 95
REMARK H PARENT 87 23 55 34
REMARK Flexibility Score: inf
ROOT
ATOM      1  C   UNL A   1      32.769  29.241  25.344  1.00  0.00     0.274 C 
ENDROOT
BRANCH   1   2
ATOM      2  C   UNL A   1      31.834  30.346  25.853  1.00  0.00     0.275 C 
BRANCH   2   3
ATOM      3  O   UNL A   1      32.215  30.853  27.134  1.00  0.00    -0.458 OA
BRANCH   3   4
ATOM      4  C   UNL A   1      33.144  31.781  27.429  1.00  0.00     0.338 C 
ATOM      5  O   UNL A   1      32.812  32.964  27.343  1.00  0.00    -0.246 OA
BRANCH   4   6
ATOM      6  C   UNL A   1      34.581  31.493  27.783  1.00  0.00     0.060 A 
ATOM      7  C   UNL A   1      35.643  32.388  27.957  1.00  0.00     0.016 A 
ATOM      8  C   UNL A   1      34.833  30.158  28.104  1.00  0.00     0.016 A 
ATOM      9  C   UNL A   1      36.849  31.999  28.564  1.00  0.00     0.010 A 
ATOM     10  C   UNL A   1      36.004  29.783  28.761  1.00  0.00     0.010 A 
ATOM     11  C   UNL A   1      37.025  30.699  29.028  1.00  0.00    -0.014 A 
BRANCH  11  12
ATOM     12  C   UNL A   1      38.296  30.264  29.669  1.00  0.00     0.031 A 
ATOM     13  C   UNL A   1      38.576  30.718  31.079  1.00  0.00     0.074 A 
ATOM     14  C   UNL A   1      39.201  29.501  29.015  1.00  0.00     0.049 A 
ATOM     15  N   UNL A   1      39.628  30.512  31.826  1.00  0.00    -0.248 NA
ATOM     16  C   UNL A   1      37.562  31.582  31.711  1.00  0.00     0.031 C 
ATOM     17  C   UNL A   1      39.108  29.061  27.620  1.00  0.00     0.029 A 
ATOM     18  N   UNL A   1      40.383  28.944  29.446  1.00  0.00    -0.354 N 
ATOM     19  C   UNL A   1      39.393  31.234  32.987  1.00  0.00     0.074 A 
ATOM     20  C   UNL A   1      38.208  32.025  32.772  1.00  0.00     0.031 C 
ATOM     21  C   UNL A   1      40.156  28.268  27.329  1.00  0.00     0.029 A 
ATOM     22  C   UNL A   1      41.005  28.148  28.510  1.00  0.00     0.049 A 
ATOM     23  H   UNL A   1      40.751  29.101  30.346  1.00  0.00     0.167 HD
ATOM     24  C   UNL A   1      40.028  31.167  34.178  1.00  0.00     0.037 A 
ATOM     25  C   UNL A   1      42.116  27.389  28.612  1.00  0.00     0.037 A 
ATOM     26  C   UNL A   1      41.157  30.322  34.421  1.00  0.00     0.049 A 
ATOM     27  C   UNL A   1      42.830  27.340  29.946  1.00  0.00     0.074 A 
ATOM     28  C   UNL A   1      41.867  30.141  35.591  1.00  0.00     0.029 A 
ATOM     29  N   UNL A   1      41.729  29.499  33.462  1.00  0.00    -0.354 N 
ATOM     30  N   UNL A   1      42.531  27.945  31.071  1.00  0.00    -0.248 NA
ATOM     31  C   UNL A   1      44.022  26.483  30.031  1.00  0.00     0.031 C 
ATOM     32  C   UNL A   1      42.896  29.232  35.329  1.00  0.00     0.029 A 
ATOM     33  C   UNL A   1      42.793  28.810  34.012  1.00  0.00     0.049 A 
ATOM     34  H   UNL A   1      41.423  29.418  32.531  1.00  0.00     0.167 HD
ATOM     35  C   UNL A   1      43.466  27.510  32.003  1.00  0.00     0.074 A 
ATOM     36  C   UNL A   1      44.331  26.574  31.316  1.00  0.00     0.031 C 
ATOM     37  C   UNL A   1      43.606  27.855  33.307  1.00  0.00     0.037 A 
BRANCH  24  38
ATOM     38  C   UNL A   1      39.452  31.988  35.294  1.00  0.00     0.064 A 
ATOM     39  C   UNL A   1      39.835  33.328  35.485  1.00  0.00     0.173 A 
ATOM     40  C   UNL A   1      38.572  31.418  36.224  1.00  0.00     0.173 A 
ATOM     41  F   UNL A   1      40.698  33.911  34.639  1.00  0.00    -0.203 F 
ATOM     42  C   UNL A   1      39.409  34.045  36.599  1.00  0.00     0.198 A 
ATOM     43  C   UNL A   1      38.116  32.154  37.315  1.00  0.00     0.198 A 
ATOM     44  F   UNL A   1      38.178  30.144  36.090  1.00  0.00    -0.203 F 
ATOM     45  F   UNL A   1      39.871  35.285  36.810  1.00  0.00    -0.200 F 
ATOM     46  C   UNL A   1      38.547  33.458  37.512  1.00  0.00     0.200 A 
ATOM     47  F   UNL A   1      37.276  31.590  38.195  1.00  0.00    -0.200 F 
ATOM     48  F   UNL A   1      38.149  34.143  38.592  1.00  0.00    -0.200 F 
ENDBRANCH  24  38
BRANCH  25  49
ATOM     49  C   UNL A   1      42.606  26.565  27.467  1.00  0.00     0.064 A 
ATOM     50  C   UNL A   1      42.139  25.255  27.266  1.00  0.00     0.173 A 
ATOM     51  C   UNL A   1      43.599  27.033  26.593  1.00  0.00     0.173 A 
ATOM     52  F   UNL A   1      41.202  24.747  28.081  1.00  0.00    -0.203 F 
ATOM     53  C   UNL A   1      42.679  24.434  26.276  1.00  0.00     0.198 A 
ATOM     54  C   UNL A   1      44.113  26.222  25.580  1.00  0.00     0.198 A 
ATOM     55  F   UNL A   1      44.082  28.276  26.731  1.00  0.00    -0.203 F 
ATOM     56  F   UNL A   1      42.265  23.164  26.162  1.00  0.00    -0.200 F 
ATOM     57  C   UNL A   1      43.666  24.919  25.433  1.00  0.00     0.200 A 
ATOM     58  F   UNL A   1      45.055  26.697  24.754  1.00  0.00    -0.200 F 
ATOM     59  F   UNL A   1      44.193  24.127  24.488  1.00  0.00    -0.200 F 
ENDBRANCH  25  49
BRANCH  37  60
ATOM     60  C   UNL A   1      44.689  27.177  34.093  1.00  0.00     0.064 A 
ATOM     61  C   UNL A   1      45.962  27.745  34.237  1.00  0.00     0.173 A 
ATOM     62  C   UNL A   1      44.419  25.981  34.777  1.00  0.00     0.173 A 
ATOM     63  F   UNL A   1      46.272  28.882  33.594  1.00  0.00    -0.203 F 
ATOM     64  C   UNL A   1      46.934  27.130  35.020  1.00  0.00     0.198 A 
ATOM     65  C   UNL A   1      45.380  25.389  35.589  1.00  0.00     0.198 A 
ATOM     66  F   UNL A   1      43.211  25.405  34.682  1.00  0.00    -0.203 F 
ATOM     67  F   UNL A   1      48.158  27.666  35.108  1.00  0.00    -0.200 F 
ATOM     68  C   UNL A   1      46.639  25.960  35.704  1.00  0.00     0.200 A 
ATOM     69  F   UNL A   1      45.085  24.271  36.268  1.00  0.00    -0.200 F 
ATOM     70  F   UNL A   1      47.569  25.380  36.474  1.00  0.00    -0.200 F 
ENDBRANCH  37  60
ENDBRANCH  11  12
ENDBRANCH   4   6
ENDBRANCH   3   4
ENDBRANCH   2   3
ENDBRANCH   1   2
BRANCH   1  71
ATOM     71  O   UNL A   1      33.433  29.550  24.097  1.00  0.00    -0.462 OA
BRANCH  71  72
ATOM     72  C   UNL A   1      33.786  28.509  23.283  1.00  0.00     0.311 C 
ATOM     73  O   UNL A   1      34.707  28.547  22.475  1.00  0.00    -0.252 OA
BRANCH  72  74
ATOM     74  C   UNL A   1      32.858  27.321  23.472  1.00  0.00     0.128 C 
ATOM     75  C   UNL A   1      33.627  26.007  23.458  1.00  0.00     0.135 C 
ATOM     76  C   UNL A   1      31.836  27.167  22.313  1.00  0.00     0.055 C 
ATOM     77  N   UNL A   1      32.676  25.015  23.005  1.00  0.00    -0.341 N 
ATOM     78  C   UNL A   1      31.707  25.634  22.127  1.00  0.00     0.128 C 
BRANCH  76  79
ATOM     79  C   UNL A   1      30.547  27.946  22.567  1.00  0.00    -0.038 A 
ATOM     80  C   UNL A   1      29.443  27.282  23.167  1.00  0.00     0.008 A 
ATOM     81  C   UNL A   1      30.409  29.314  22.273  1.00  0.00     0.054 A 
ATOM     82  C   UNL A   1      28.231  27.939  23.417  1.00  0.00     0.051 A 
ATOM     83  C   UNL A   1      29.206  29.937  22.537  1.00  0.00     0.166 A 
ATOM     84  C   UNL A   1      28.143  29.269  23.087  1.00  0.00     0.165 A 
ATOM     85  O   UNL A   1      28.932  31.247  22.299  1.00  0.00    -0.454 OA
ATOM     86  O   UNL A   1      27.062  30.072  23.264  1.00  0.00    -0.454 OA
ATOM     87  C   UNL A   1      27.590  31.339  22.816  1.00  0.00     0.468 C 
ENDBRANCH  76  79
BRANCH  77  88
ATOM     88  C   UNL A   1      32.626  23.656  23.223  1.00  0.00     0.222 C 
ATOM     89  O   UNL A   1      32.824  22.854  22.306  1.00  0.00    -0.275 OA
BRANCH  88  90
ATOM     90  C   UNL A   1      32.232  23.116  24.583  1.00  0.00     0.109 C 
BRANCH  90  91
ATOM     91  C   UNL A   1      30.803  23.464  24.983  1.00  0.00     0.125 C 
BRANCH  91  92
ATOM     92  C   UNL A   1      30.747  24.458  26.114  1.00  0.00     0.389 C 
ATOM     93  F   UNL A   1      31.743  24.217  26.998  1.00  0.00    -0.171 F 
ATOM     94  F   UNL A   1      30.908  25.719  25.664  1.00  0.00    -0.171 F 
ATOM     95  F   UNL A   1      29.580  24.396  26.780  1.00  0.00    -0.171 F 
ENDBRANCH  91  92
ENDBRANCH  90  91
ENDBRANCH  88  90
ENDBRANCH  77  88
ENDBRANCH  72  74
ENDBRANCH  71  72
ENDBRANCH   1  71
TORSDOF 16
ENDMDL
MODEL 2
REMARK VINA RESULT:     -12.4      4.419     10.063
REMARK SMILES O=C(OCCOC(=O)[C@@H]1CN(C(=O)CCC(F)(F)F)C[C@H]1c1ccc2c(c1)OCO2)c1ccc(-c2c3nc(c(-c4c(F)c(F)c(F)c(F)c4F)c4ccc([nH]4)c(-c4c(F)c(F)c(F)c(F)c4F)c4nc(c(-c5c(F)c(F)c(F)c(F)c5F)c5ccc2[nH]5)C=C4)C=C3)cc1
REMARK SMILES IDX 5 1 4 2 3 3 2 4 1 5 31 6 32 7 93 8 33 9 92 10 34 11 35 12
REMARK SMILES IDX 36 13 86 14 37 15 91 16 85 17 87 18 38 19 90 20 84 21 83 22
REMARK SMILES IDX 39 24 71 25 51 26 70 27 52 28 55 29 69 30 88 31 53 32 54 33
REMARK SMILES IDX 68 35 89 36 56 37 40 38 41 39 49 40 42 41 43 42 47 43 50 44
REMARK SMILES IDX 44 45 45 46 48 47 46 48 72 49 73 50 81 51 74 52 75 53 79 54
REMARK SMILES IDX 82 55 76 56 77 57 80 58 78 59 57 60 58 61 66 62 59 63 60 64
REMARK SMILES IDX 64 65 67 66 61 67 62 68 65 69 63 70 6 71 7 72 8 73 9 74
REMARK SMILES IDX 10 75 21 76 11 77 20 78 22 79 23 80 27 81 24 82 26 83 25 84
REMARK SMILES IDX 28 85 30 86 29 87 12 88 13 89 14 90 15 91 16 92 17 93 18 94
REMARK SMILES IDX 19 95
REMARK H PARENT 87 23 55 34
REMARK Flexibility Score: inf
ROOT
ATOM      1  C   UNL A   1      35.847  21.764  25.039  1.00  0.00     0.274 C 
ENDROOT
BRANCH   1   2
ATOM      2  C   UNL A   1      36.870  20.622  25.085  1.00  0.00     0.275 C 
BRANCH   2   3
ATOM      3  O   UNL A   1      38.219  21.076  24.967  1.00  0.00    -0.458 OA
BRANCH   3   4
ATOM      4  C   UNL A   1      39.201  21.047  25.887  1.00  0.00     0.338 C 
ATOM      5  O   UNL A   1      39.682  19.950  26.170  1.00  0.00    -0.246 OA
BRANCH   4   6
ATOM      6  C   UNL A   1      39.707  22.240  26.658  1.00  0.00     0.060 A 
ATOM      7  C   UNL A   1      40.733  22.306  27.608  1.00  0.00     0.016 A 
ATOM      8  C   UNL A   1      39.150  23.457  26.258  1.00  0.00     0.016 A 
ATOM      9  C   UNL A   1      41.280  23.532  28.025  1.00  0.00     0.010 A 
ATOM     10  C   UNL A   1      39.731  24.671  26.623  1.00  0.00     0.010 A 
ATOM     11  C   UNL A   1      40.822  24.732  27.492  1.00  0.00    -0.014 A 
BRANCH  11  12
ATOM     12  C   UNL A   1      41.384  26.043  27.924  1.00  0.00     0.031 A 
ATOM     13  C   UNL A   1      42.786  26.393  27.496  1.00  0.00     0.074 A 
ATOM     14  C   UNL A   1      40.681  26.900  28.698  1.00  0.00     0.049 A 
ATOM     15  N   UNL A   1      43.506  27.445  27.786  1.00  0.00    -0.248 NA
ATOM     16  C   UNL A   1      43.505  25.389  26.690  1.00  0.00     0.031 C 
ATOM     17  C   UNL A   1      39.350  26.659  29.261  1.00  0.00     0.029 A 
ATOM     18  N   UNL A   1      40.988  28.167  29.138  1.00  0.00    -0.354 N 
ATOM     19  C   UNL A   1      44.745  27.204  27.210  1.00  0.00     0.074 A 
ATOM     20  C   UNL A   1      44.741  25.846  26.729  1.00  0.00     0.031 C 
ATOM     21  C   UNL A   1      38.939  27.754  29.926  1.00  0.00     0.029 A 
ATOM     22  C   UNL A   1      39.977  28.776  29.849  1.00  0.00     0.049 A 
ATOM     23  H   UNL A   1      41.854  28.601  28.960  1.00  0.00     0.167 HD
ATOM     24  C   UNL A   1      45.764  28.062  26.987  1.00  0.00     0.037 A 
ATOM     25  C   UNL A   1      39.897  30.026  30.351  1.00  0.00     0.037 A 
ATOM     26  C   UNL A   1      45.741  29.433  27.392  1.00  0.00     0.049 A 
ATOM     27  C   UNL A   1      41.055  30.971  30.112  1.00  0.00     0.074 A 
ATOM     28  C   UNL A   1      46.697  30.411  27.197  1.00  0.00     0.029 A 
ATOM     29  N   UNL A   1      44.684  30.023  28.070  1.00  0.00    -0.354 N 
ATOM     30  N   UNL A   1      42.179  30.761  29.468  1.00  0.00    -0.248 NA
ATOM     31  C   UNL A   1      40.924  32.333  30.650  1.00  0.00     0.031 C 
ATOM     32  C   UNL A   1      46.231  31.588  27.790  1.00  0.00     0.029 A 
ATOM     33  C   UNL A   1      44.965  31.355  28.308  1.00  0.00     0.049 A 
ATOM     34  H   UNL A   1      43.857  29.563  28.339  1.00  0.00     0.167 HD
ATOM     35  C   UNL A   1      42.864  31.970  29.485  1.00  0.00     0.074 A 
ATOM     36  C   UNL A   1      42.021  32.914  30.186  1.00  0.00     0.031 C 
ATOM     37  C   UNL A   1      44.083  32.275  28.974  1.00  0.00     0.037 A 
BRANCH  24  38
ATOM     38  C   UNL A   1      46.936  27.527  26.217  1.00  0.00     0.064 A 
ATOM     39  C   UNL A   1      48.063  27.003  26.877  1.00  0.00     0.173 A 
ATOM     40  C   UNL A   1      46.974  27.605  24.819  1.00  0.00     0.173 A 
ATOM     41  F   UNL A   1      48.089  26.934  28.218  1.00  0.00    -0.203 F 
ATOM     42  C   UNL A   1      49.204  26.638  26.170  1.00  0.00     0.198 A 
ATOM     43  C   UNL A   1      48.103  27.199  24.113  1.00  0.00     0.198 A 
ATOM     44  F   UNL A   1      45.928  28.100  24.141  1.00  0.00    -0.203 F 
ATOM     45  F   UNL A   1      50.300  26.239  26.832  1.00  0.00    -0.200 F 
ATOM     46  C   UNL A   1      49.222  26.733  24.788  1.00  0.00     0.200 A 
ATOM     47  F   UNL A   1      48.119  27.284  22.775  1.00  0.00    -0.200 F 
ATOM     48  F   UNL A   1      50.326  26.395  24.108  1.00  0.00    -0.200 F 
ENDBRANCH  24  38
BRANCH  25  49
ATOM     49  C   UNL A   1      38.678  30.500  31.071  1.00  0.00     0.064 A 
ATOM     50  C   UNL A   1      37.564  30.989  30.367  1.00  0.00     0.173 A 
ATOM     51  C   UNL A   1      38.619  30.546  32.472  1.00  0.00     0.173 A 
ATOM     52  F   UNL A   1      37.568  30.987  29.025  1.00  0.00    -0.203 F 
ATOM     53  C   UNL A   1      36.471  31.548  31.029  1.00  0.00     0.198 A 
ATOM     54  C   UNL A   1      37.510  31.073  33.135  1.00  0.00     0.198 A 
ATOM     55  F   UNL A   1      39.648  30.091  33.202  1.00  0.00    -0.203 F 
ATOM     56  F   UNL A   1      35.460  32.076  30.324  1.00  0.00    -0.200 F 
ATOM     57  C   UNL A   1      36.445  31.589  32.414  1.00  0.00     0.200 A 
ATOM     58  F   UNL A   1      37.477  31.097  34.474  1.00  0.00    -0.200 F 
ATOM     59  F   UNL A   1      35.400  32.136  33.052  1.00  0.00    -0.200 F 
ENDBRANCH  25  49
BRANCH  37  60
ATOM     60  C   UNL A   1      44.552  33.695  29.098  1.00  0.00     0.064 A 
ATOM     61  C   UNL A   1      45.340  34.120  30.176  1.00  0.00     0.173 A 
ATOM     62  C   UNL A   1      44.275  34.619  28.078  1.00  0.00     0.173 A 
ATOM     63  F   UNL A   1      45.623  33.276  31.181  1.00  0.00    -0.203 F 
ATOM     64  C   UNL A   1      45.816  35.426  30.241  1.00  0.00     0.198 A 
ATOM     65  C   UNL A   1      44.784  35.913  28.127  1.00  0.00     0.198 A 
ATOM     66  F   UNL A   1      43.537  34.256  27.018  1.00  0.00    -0.203 F 
ATOM     67  F   UNL A   1      46.529  35.825  31.303  1.00  0.00    -0.200 F 
ATOM     68  C   UNL A   1      45.547  36.317  29.212  1.00  0.00     0.200 A 
ATOM     69  F   UNL A   1      44.544  36.764  27.121  1.00  0.00    -0.200 F 
ATOM     70  F   UNL A   1      46.024  37.568  29.266  1.00  0.00    -0.200 F 
ENDBRANCH  37  60
ENDBRANCH  11  12
ENDBRANCH   4   6
ENDBRANCH   3   4
ENDBRANCH   2   3
ENDBRANCH   1   2
BRANCH   1  71
ATOM     71  O   UNL A   1      35.709  22.491  26.282  1.00  0.00    -0.462 OA
BRANCH  71  72
ATOM     72  C   UNL A   1      34.453  22.640  26.802  1.00  0.00     0.311 C 
ATOM     73  O   UNL A   1      34.182  22.534  27.993  1.00  0.00    -0.252 OA
BRANCH  72  74
ATOM     74  C   UNL A   1      33.430  22.901  25.708  1.00  0.00     0.128 C 
ATOM     75  C   UNL A   1      32.813  24.286  25.844  1.00  0.00     0.135 C 
ATOM     76  C   UNL A   1      32.212  21.941  25.785  1.00  0.00     0.055 C 
ATOM     77  N   UNL A   1      31.506  24.180  25.235  1.00  0.00    -0.341 N 
ATOM     78  C   UNL A   1      31.008  22.829  25.378  1.00  0.00     0.128 C 
BRANCH  76  79
ATOM     79  C   UNL A   1      32.430  20.659  24.983  1.00  0.00    -0.038 A 
ATOM     80  C   UNL A   1      32.170  20.663  23.586  1.00  0.00     0.008 A 
ATOM     81  C   UNL A   1      32.921  19.473  25.556  1.00  0.00     0.054 A 
ATOM     82  C   UNL A   1      32.341  19.518  22.798  1.00  0.00     0.051 A 
ATOM     83  C   UNL A   1      33.087  18.362  24.755  1.00  0.00     0.166 A 
ATOM     84  C   UNL A   1      32.800  18.380  23.414  1.00  0.00     0.165 A 
ATOM     85  O   UNL A   1      33.546  17.152  25.174  1.00  0.00    -0.454 OA
ATOM     86  O   UNL A   1      33.038  17.182  22.818  1.00  0.00    -0.454 OA
ATOM     87  C   UNL A   1      33.567  16.427  23.929  1.00  0.00     0.468 C 
ENDBRANCH  76  79
BRANCH  77  88
ATOM     88  C   UNL A   1      30.707  25.140  24.654  1.00  0.00     0.222 C 
ATOM     89  O   UNL A   1      30.062  25.937  25.342  1.00  0.00    -0.275 OA
BRANCH  88  90
ATOM     90  C   UNL A   1      30.530  25.177  23.149  1.00  0.00     0.109 C 
BRANCH  90  91
ATOM     91  C   UNL A   1      31.542  26.069  22.442  1.00  0.00     0.125 C 
BRANCH  91  92
ATOM     92  C   UNL A   1      32.684  25.286  21.845  1.00  0.00     0.389 C 
ATOM     93  F   UNL A   1      32.637  25.349  20.494  1.00  0.00    -0.171 F 
ATOM     94  F   UNL A   1      33.874  25.790  22.228  1.00  0.00    -0.171 F 
ATOM     95  F   UNL A   1      32.644  23.990  22.199  1.00  0.00    -0.171 F 
ENDBRANCH  91  92
ENDBRANCH  90  91
ENDBRANCH  88  90
ENDBRANCH  77  88
ENDBRANCH  72  74
ENDBRANCH  71  72
ENDBRANCH   1  71
TORSDOF 16
ENDMDL
MODEL 3
REMARK VINA RESULT:     -12.2      1.912      3.846
REMARK SMILES O=C(OCCOC(=O)[C@@H]1CN(C(=O)CCC(F)(F)F)C[C@H]1c1ccc2c(c1)OCO2)c1ccc(-c2c3nc(c(-c4c(F)c(F)c(F)c(F)c4F)c4ccc([nH]4)c(-c4c(F)c(F)c(F)c(F)c4F)c4nc(c(-c5c(F)c(F)c(F)c(F)c5F)c5ccc2[nH]5)C=C4)C=C3)cc1
REMARK SMILES IDX 5 1 4 2 3 3 2 4 1 5 31 6 32 7 93 8 33 9 92 10 34 11 35 12
REMARK SMILES IDX 36 13 86 14 37 15 91 16 85 17 87 18 38 19 90 20 84 21 83 22
REMARK SMILES IDX 39 24 71 25 51 26 70 27 52 28 55 29 69 30 88 31 53 32 54 33
REMARK SMILES IDX 68 35 89 36 56 37 40 38 41 39 49 40 42 41 43 42 47 43 50 44
REMARK SMILES IDX 44 45 45 46 48 47 46 48 72 49 73 50 81 51 74 52 75 53 79 54
REMARK SMILES IDX 82 55 76 56 77 57 80 58 78 59 57 60 58 61 66 62 59 63 60 64
REMARK SMILES IDX 64 65 67 66 61 67 62 68 65 69 63 70 6 71 7 72 8 73 9 74
REMARK SMILES IDX 10 75 21 76 11 77 20 78 22 79 23 80 27 81 24 82 26 83 25 84
REMARK SMILES IDX 28 85 30 86 29 87 12 88 13 89 14 90 15 91 16 92 17 93 18 94
REMARK SMILES IDX 19 95
REMARK H PARENT 87 23 55 34
REMARK Flexibility Score: inf
ROOT
ATOM      1  C   UNL A   1      31.913  30.550  26.902  1.00  0.00     0.274 C 
ENDROOT
BRANCH   1   2
ATOM      2  C   UNL A   1      31.472  32.019  26.929  1.00  0.00     0.275 C 
BRANCH   2   3
ATOM      3  O   UNL A   1      32.570  32.932  26.879  1.00  0.00    -0.458 OA
BRANCH   3   4
ATOM      4  C   UNL A   1      33.363  33.350  27.883  1.00  0.00     0.338 C 
ATOM      5  O   UNL A   1      32.976  34.311  28.549  1.00  0.00    -0.246 OA
BRANCH   4   6
ATOM      6  C   UNL A   1      34.724  32.789  28.209  1.00  0.00     0.060 A 
ATOM      7  C   UNL A   1      35.967  33.432  28.204  1.00  0.00     0.016 A 
ATOM      8  C   UNL A   1      34.699  31.485  28.706  1.00  0.00     0.016 A 
ATOM      9  C   UNL A   1      37.101  32.859  28.806  1.00  0.00     0.010 A 
ATOM     10  C   UNL A   1      35.806  30.940  29.358  1.00  0.00     0.010 A 
ATOM     11  C   UNL A   1      37.020  31.625  29.444  1.00  0.00    -0.014 A 
BRANCH  11  12
ATOM     12  C   UNL A   1      38.209  30.997  30.083  1.00  0.00     0.031 A 
ATOM     13  C   UNL A   1      38.496  31.319  31.527  1.00  0.00     0.074 A 
ATOM     14  C   UNL A   1      39.036  30.175  29.399  1.00  0.00     0.049 A 
ATOM     15  N   UNL A   1      39.492  30.938  32.283  1.00  0.00    -0.248 NA
ATOM     16  C   UNL A   1      37.573  32.257  32.194  1.00  0.00     0.031 C 
ATOM     17  C   UNL A   1      38.937  29.843  27.975  1.00  0.00     0.029 A 
ATOM     18  N   UNL A   1      40.129  29.451  29.818  1.00  0.00    -0.354 N 
ATOM     19  C   UNL A   1      39.308  31.606  33.486  1.00  0.00     0.074 A 
ATOM     20  C   UNL A   1      38.234  32.547  33.298  1.00  0.00     0.031 C 
ATOM     21  C   UNL A   1      39.891  28.950  27.654  1.00  0.00     0.029 A 
ATOM     22  C   UNL A   1      40.681  28.649  28.844  1.00  0.00     0.049 A 
ATOM     23  H   UNL A   1      40.485  29.502  30.735  1.00  0.00     0.167 HD
ATOM     24  C   UNL A   1      39.892  31.383  34.683  1.00  0.00     0.037 A 
ATOM     25  C   UNL A   1      41.690  27.756  28.920  1.00  0.00     0.037 A 
ATOM     26  C   UNL A   1      40.904  30.393  34.894  1.00  0.00     0.049 A 
ATOM     27  C   UNL A   1      42.350  27.533  30.263  1.00  0.00     0.074 A 
ATOM     28  C   UNL A   1      41.549  30.050  36.065  1.00  0.00     0.029 A 
ATOM     29  N   UNL A   1      41.404  29.572  33.893  1.00  0.00    -0.354 N 
ATOM     30  N   UNL A   1      42.089  28.094  31.420  1.00  0.00    -0.248 NA
ATOM     31  C   UNL A   1      43.428  26.533  30.316  1.00  0.00     0.031 C 
ATOM     32  C   UNL A   1      42.470  29.042  35.765  1.00  0.00     0.029 A 
ATOM     33  C   UNL A   1      42.359  28.724  34.419  1.00  0.00     0.049 A 
ATOM     34  H   UNL A   1      41.120  29.591  32.952  1.00  0.00     0.167 HD
ATOM     35  C   UNL A   1      42.936  27.488  32.341  1.00  0.00     0.074 A 
ATOM     36  C   UNL A   1      43.704  26.501  31.612  1.00  0.00     0.031 C 
ATOM     37  C   UNL A   1      43.075  27.726  33.669  1.00  0.00     0.037 A 
BRANCH  24  38
ATOM     38  C   UNL A   1      39.383  32.192  35.840  1.00  0.00     0.064 A 
ATOM     39  C   UNL A   1      39.957  33.434  36.169  1.00  0.00     0.173 A 
ATOM     40  C   UNL A   1      38.370  31.697  36.672  1.00  0.00     0.173 A 
ATOM     41  F   UNL A   1      40.951  33.937  35.421  1.00  0.00    -0.203 F 
ATOM     42  C   UNL A   1      39.580  34.116  37.321  1.00  0.00     0.198 A 
ATOM     43  C   UNL A   1      37.967  32.405  37.801  1.00  0.00     0.198 A 
ATOM     44  F   UNL A   1      37.791  30.518  36.405  1.00  0.00    -0.203 F 
ATOM     45  F   UNL A   1      40.215  35.245  37.666  1.00  0.00    -0.200 F 
ATOM     46  C   UNL A   1      38.583  33.603  38.135  1.00  0.00     0.200 A 
ATOM     47  F   UNL A   1      36.997  31.913  38.585  1.00  0.00    -0.200 F 
ATOM     48  F   UNL A   1      38.230  34.253  39.252  1.00  0.00    -0.200 F 
ENDBRANCH  24  38
BRANCH  25  49
ATOM     49  C   UNL A   1      42.114  26.957  27.732  1.00  0.00     0.064 A 
ATOM     50  C   UNL A   1      41.556  25.693  27.473  1.00  0.00     0.173 A 
ATOM     51  C   UNL A   1      43.131  27.396  26.872  1.00  0.00     0.173 A 
ATOM     52  F   UNL A   1      40.591  25.212  28.271  1.00  0.00    -0.203 F 
ATOM     53  C   UNL A   1      42.031  24.885  26.440  1.00  0.00     0.198 A 
ATOM     54  C   UNL A   1      43.582  26.602  25.816  1.00  0.00     0.198 A 
ATOM     55  F   UNL A   1      43.701  28.594  27.064  1.00  0.00    -0.203 F 
ATOM     56  F   UNL A   1      41.529  23.654  26.269  1.00  0.00    -0.200 F 
ATOM     57  C   UNL A   1      43.044  25.341  25.611  1.00  0.00     0.200 A 
ATOM     58  F   UNL A   1      44.550  27.049  25.004  1.00  0.00    -0.200 F 
ATOM     59  F   UNL A   1      43.509  24.561  24.625  1.00  0.00    -0.200 F 
ENDBRANCH  25  49
BRANCH  37  60
ATOM     60  C   UNL A   1      44.044  26.871  34.431  1.00  0.00     0.064 A 
ATOM     61  C   UNL A   1      43.667  25.637  34.979  1.00  0.00     0.173 A 
ATOM     62  C   UNL A   1      45.388  27.260  34.542  1.00  0.00     0.173 A 
ATOM     63  F   UNL A   1      42.391  25.227  34.907  1.00  0.00    -0.203 F 
ATOM     64  C   UNL A   1      44.596  24.832  35.630  1.00  0.00     0.198 A 
ATOM     65  C   UNL A   1      46.322  26.435  35.161  1.00  0.00     0.198 A 
ATOM     66  F   UNL A   1      45.800  28.425  34.023  1.00  0.00    -0.203 F 
ATOM     67  F   UNL A   1      44.206  23.677  36.185  1.00  0.00    -0.200 F 
ATOM     68  C   UNL A   1      45.924  25.226  35.710  1.00  0.00     0.200 A 
ATOM     69  F   UNL A   1      47.609  26.806  35.216  1.00  0.00    -0.200 F 
ATOM     70  F   UNL A   1      46.821  24.439  36.319  1.00  0.00    -0.200 F 
ENDBRANCH  37  60
ENDBRANCH  11  12
ENDBRANCH   4   6
ENDBRANCH   3   4
ENDBRANCH   2   3
ENDBRANCH   1   2
BRANCH   1  71
ATOM     71  O   UNL A   1      33.123  30.304  26.147  1.00  0.00    -0.462 OA
BRANCH  71  72
ATOM     72  C   UNL A   1      33.581  29.018  26.068  1.00  0.00     0.311 C 
ATOM     73  O   UNL A   1      34.509  28.574  26.733  1.00  0.00    -0.252 OA
BRANCH  72  74
ATOM     74  C   UNL A   1      32.824  28.227  25.014  1.00  0.00     0.128 C 
ATOM     75  C   UNL A   1      31.800  29.096  24.297  1.00  0.00     0.135 C 
ATOM     76  C   UNL A   1      31.977  27.076  25.620  1.00  0.00     0.055 C 
ATOM     77  N   UNL A   1      30.775  28.180  23.846  1.00  0.00    -0.341 N 
ATOM     78  C   UNL A   1      30.696  27.052  24.748  1.00  0.00     0.128 C 
BRANCH  76  79
ATOM     79  C   UNL A   1      32.764  25.770  25.730  1.00  0.00    -0.038 A 
ATOM     80  C   UNL A   1      33.994  25.641  25.031  1.00  0.00     0.008 A 
ATOM     81  C   UNL A   1      32.349  24.692  26.531  1.00  0.00     0.054 A 
ATOM     82  C   UNL A   1      34.757  24.467  25.083  1.00  0.00     0.051 A 
ATOM     83  C   UNL A   1      33.123  23.551  26.571  1.00  0.00     0.166 A 
ATOM     84  C   UNL A   1      34.291  23.437  25.862  1.00  0.00     0.165 A 
ATOM     85  O   UNL A   1      32.841  22.435  27.295  1.00  0.00    -0.454 OA
ATOM     86  O   UNL A   1      34.894  22.233  26.047  1.00  0.00    -0.454 OA
ATOM     87  C   UNL A   1      33.998  21.626  27.003  1.00  0.00     0.468 C 
ENDBRANCH  76  79
BRANCH  77  88
ATOM     88  C   UNL A   1      29.887  28.275  22.798  1.00  0.00     0.222 C 
ATOM     89  O   UNL A   1      30.268  28.194  21.626  1.00  0.00    -0.275 OA
BRANCH  88  90
ATOM     90  C   UNL A   1      28.425  28.576  23.062  1.00  0.00     0.109 C 
BRANCH  90  91
ATOM     91  C   UNL A   1      27.930  29.838  22.366  1.00  0.00     0.125 C 
BRANCH  91  92
ATOM     92  C   UNL A   1      27.937  31.039  23.276  1.00  0.00     0.389 C 
ATOM     93  F   UNL A   1      26.988  30.907  24.231  1.00  0.00    -0.171 F 
ATOM     94  F   UNL A   1      29.122  31.168  23.905  1.00  0.00    -0.171 F 
ATOM     95  F   UNL A   1      27.692  32.179  22.605  1.00  0.00    -0.171 F 
ENDBRANCH  91  92
ENDBRANCH  90  91
ENDBRANCH  88  90
ENDBRANCH  77  88
ENDBRANCH  72  74
ENDBRANCH  71  72
ENDBRANCH   1  71
TORSDOF 16
ENDMDL
