MODEL 1
REMARK VINA RESULT:     -12.4      0.000      0.000
REMARK SMILES O=C(OCCOC(=O)[C@@H]1C[C@@H]2CC[C@H]1N2C(=O)c1ccncc1Cl)c1ccc(-c2c3nc(c(-c4c(F)c(F)c(F)c(F)c4F)c4ccc([nH]4)c(-c4c(F)c(F)c(F)c(F)c4F)c4nc(c(-c5c(F)c(F)c(F)c(F)c5F)c5ccc2[nH]5)C=C4)C=C3)cc1
REMARK SMILES IDX 4 1 3 2 2 3 1 4 25 5 26 6 87 7 27 8 86 9 28 10 29 11 30 12
REMARK SMILES IDX 80 13 31 14 85 15 79 16 81 17 32 18 84 19 78 20 77 21 33 23
REMARK SMILES IDX 65 24 45 25 64 26 46 27 49 28 63 29 82 30 47 31 48 32 62 34
REMARK SMILES IDX 83 35 50 36 34 37 35 38 43 39 36 40 37 41 41 42 44 43 38 44
REMARK SMILES IDX 39 45 42 46 40 47 66 48 67 49 75 50 68 51 69 52 73 53 76 54
REMARK SMILES IDX 70 55 71 56 74 57 72 58 51 59 52 60 60 61 53 62 54 63 58 64
REMARK SMILES IDX 61 65 55 66 56 67 59 68 57 69 5 70 6 71 7 72 8 73 9 74 10 75
REMARK SMILES IDX 14 76 11 77 13 78 15 79 12 80 16 81 17 82 18 83 19 84 23 85
REMARK SMILES IDX 20 86 22 87 24 88 21 89
REMARK H PARENT 81 22 49 33
REMARK Flexibility Score: inf
ROOT
ATOM      1  C   UNL A   1      32.078  33.057  26.873  1.00  0.00     0.275 C 
ENDROOT
BRANCH   1   2
ATOM      2  O   UNL A   1      32.675  33.783  27.961  1.00  0.00    -0.458 OA
BRANCH   2   3
ATOM      3  C   UNL A   1      33.967  34.156  28.117  1.00  0.00     0.338 C 
ATOM      4  O   UNL A   1      34.345  35.226  27.645  1.00  0.00    -0.246 OA
BRANCH   3   5
ATOM      5  C   UNL A   1      35.011  33.228  28.659  1.00  0.00     0.060 A 
ATOM      6  C   UNL A   1      34.784  32.014  29.312  1.00  0.00     0.016 A 
ATOM      7  C   UNL A   1      36.347  33.628  28.473  1.00  0.00     0.016 A 
ATOM      8  C   UNL A   1      35.842  31.181  29.692  1.00  0.00     0.010 A 
ATOM      9  C   UNL A   1      37.411  32.797  28.841  1.00  0.00     0.010 A 
ATOM     10  C   UNL A   1      37.162  31.566  29.463  1.00  0.00    -0.014 A 
BRANCH  10  11
ATOM     11  C   UNL A   1      38.264  30.840  30.135  1.00  0.00     0.031 A 
ATOM     12  C   UNL A   1      38.530  31.207  31.566  1.00  0.00     0.074 A 
ATOM     13  C   UNL A   1      38.952  29.847  29.540  1.00  0.00     0.049 A 
ATOM     14  N   UNL A   1      39.464  30.787  32.376  1.00  0.00    -0.248 NA
ATOM     15  C   UNL A   1      37.600  32.178  32.170  1.00  0.00     0.031 C 
ATOM     16  C   UNL A   1      38.688  29.299  28.211  1.00  0.00     0.029 A 
ATOM     17  N   UNL A   1      40.022  29.112  29.993  1.00  0.00    -0.354 N 
ATOM     18  C   UNL A   1      39.224  31.435  33.580  1.00  0.00     0.074 A 
ATOM     19  C   UNL A   1      38.109  32.328  33.380  1.00  0.00     0.031 C 
ATOM     20  C   UNL A   1      39.587  28.329  27.953  1.00  0.00     0.029 A 
ATOM     21  C   UNL A   1      40.537  28.245  29.057  1.00  0.00     0.049 A 
ATOM     22  H   UNL A   1      40.387  29.198  30.904  1.00  0.00     0.167 HD
ATOM     23  C   UNL A   1      39.858  31.271  34.763  1.00  0.00     0.037 A 
ATOM     24  C   UNL A   1      41.674  27.520  29.087  1.00  0.00     0.037 A 
ATOM     25  C   UNL A   1      40.969  30.384  34.948  1.00  0.00     0.049 A 
ATOM     26  C   UNL A   1      42.488  27.513  30.350  1.00  0.00     0.074 A 
ATOM     27  C   UNL A   1      41.683  30.116  36.099  1.00  0.00     0.029 A 
ATOM     28  N   UNL A   1      41.538  29.628  33.932  1.00  0.00    -0.354 N 
ATOM     29  N   UNL A   1      42.272  28.145  31.476  1.00  0.00    -0.248 NA
ATOM     30  C   UNL A   1      43.680  26.653  30.354  1.00  0.00     0.031 C 
ATOM     31  C   UNL A   1      42.726  29.246  35.766  1.00  0.00     0.029 A 
ATOM     32  C   UNL A   1      42.620  28.922  34.421  1.00  0.00     0.049 A 
ATOM     33  H   UNL A   1      41.218  29.600  33.001  1.00  0.00     0.167 HD
ATOM     34  C   UNL A   1      43.271  27.726  32.340  1.00  0.00     0.074 A 
ATOM     35  C   UNL A   1      44.115  26.814  31.596  1.00  0.00     0.031 C 
ATOM     36  C   UNL A   1      43.448  28.034  33.647  1.00  0.00     0.037 A 
BRANCH  23  37
ATOM     37  C   UNL A   1      39.374  32.109  35.908  1.00  0.00     0.064 A 
ATOM     38  C   UNL A   1      39.939  33.362  36.201  1.00  0.00     0.173 A 
ATOM     39  C   UNL A   1      38.382  31.620  36.769  1.00  0.00     0.173 A 
ATOM     40  F   UNL A   1      40.912  33.862  35.423  1.00  0.00    -0.203 F 
ATOM     41  C   UNL A   1      39.568  34.064  37.344  1.00  0.00     0.198 A 
ATOM     42  C   UNL A   1      37.988  32.343  37.891  1.00  0.00     0.198 A 
ATOM     43  F   UNL A   1      37.813  30.428  36.535  1.00  0.00    -0.203 F 
ATOM     44  F   UNL A   1      40.186  35.214  37.651  1.00  0.00    -0.200 F 
ATOM     45  C   UNL A   1      38.593  33.555  38.188  1.00  0.00     0.200 A 
ATOM     46  F   UNL A   1      37.041  31.851  38.702  1.00  0.00    -0.200 F 
ATOM     47  F   UNL A   1      38.250  34.222  39.298  1.00  0.00    -0.200 F 
ENDBRANCH  23  37
BRANCH  24  48
ATOM     48  C   UNL A   1      42.189  26.801  27.889  1.00  0.00     0.064 A 
ATOM     49  C   UNL A   1      43.043  27.400  26.959  1.00  0.00     0.173 A 
ATOM     50  C   UNL A   1      41.777  25.480  27.638  1.00  0.00     0.173 A 
ATOM     51  F   UNL A   1      43.411  28.679  27.116  1.00  0.00    -0.203 F 
ATOM     52  C   UNL A   1      43.503  26.690  25.846  1.00  0.00     0.198 A 
ATOM     53  C   UNL A   1      42.254  24.765  26.540  1.00  0.00     0.198 A 
ATOM     54  F   UNL A   1      40.956  24.866  28.503  1.00  0.00    -0.203 F 
ATOM     55  F   UNL A   1      44.305  27.291  24.957  1.00  0.00    -0.200 F 
ATOM     56  C   UNL A   1      43.121  25.369  25.647  1.00  0.00     0.200 A 
ATOM     57  F   UNL A   1      41.888  23.487  26.366  1.00  0.00    -0.200 F 
ATOM     58  F   UNL A   1      43.580  24.686  24.588  1.00  0.00    -0.200 F 
ENDBRANCH  24  48
BRANCH  36  59
ATOM     59  C   UNL A   1      44.559  27.336  34.365  1.00  0.00     0.064 A 
ATOM     60  C   UNL A   1      45.829  27.911  34.501  1.00  0.00     0.173 A 
ATOM     61  C   UNL A   1      44.319  26.098  34.977  1.00  0.00     0.173 A 
ATOM     62  F   UNL A   1      46.108  29.081  33.906  1.00  0.00    -0.203 F 
ATOM     63  C   UNL A   1      46.825  27.265  35.225  1.00  0.00     0.198 A 
ATOM     64  C   UNL A   1      45.307  25.470  35.726  1.00  0.00     0.198 A 
ATOM     65  F   UNL A   1      43.119  25.510  34.867  1.00  0.00    -0.203 F 
ATOM     66  F   UNL A   1      48.044  27.812  35.318  1.00  0.00    -0.200 F 
ATOM     67  C   UNL A   1      46.559  26.053  35.847  1.00  0.00     0.200 A 
ATOM     68  F   UNL A   1      45.045  24.305  36.334  1.00  0.00    -0.200 F 
ATOM     69  F   UNL A   1      47.515  25.442  36.562  1.00  0.00    -0.200 F 
ENDBRANCH  36  59
ENDBRANCH  10  11
ENDBRANCH   3   5
ENDBRANCH   2   3
ENDBRANCH   1   2
BRANCH   1  70
ATOM     70  C   UNL A   1      32.006  31.540  27.093  1.00  0.00     0.274 C 
BRANCH  70  71
ATOM     71  O   UNL A   1      33.208  30.833  26.729  1.00  0.00    -0.462 OA
BRANCH  71  72
ATOM     72  C   UNL A   1      33.094  29.471  26.741  1.00  0.00     0.311 C 
ATOM     73  O   UNL A   1      33.727  28.742  27.483  1.00  0.00    -0.252 OA
BRANCH  72  74
ATOM     74  C   UNL A   1      32.035  28.992  25.763  1.00  0.00     0.124 C 
ATOM     75  C   UNL A   1      31.788  27.463  25.911  1.00  0.00     0.042 C 
ATOM     76  C   UNL A   1      32.413  29.110  24.270  1.00  0.00     0.100 C 
ATOM     77  C   UNL A   1      32.145  26.916  24.529  1.00  0.00     0.086 C 
ATOM     78  C   UNL A   1      33.827  28.562  24.014  1.00  0.00     0.028 C 
ATOM     79  N   UNL A   1      31.655  27.995  23.710  1.00  0.00    -0.332 N 
ATOM     80  C   UNL A   1      33.656  27.049  24.299  1.00  0.00     0.027 C 
BRANCH  79  81
ATOM     81  C   UNL A   1      30.817  27.831  22.648  1.00  0.00     0.256 C 
ATOM     82  O   UNL A   1      31.017  27.040  21.733  1.00  0.00    -0.269 OA
BRANCH  81  83
ATOM     83  C   UNL A   1      29.534  28.530  22.682  1.00  0.00     0.061 A 
ATOM     84  C   UNL A   1      29.557  29.815  22.157  1.00  0.00     0.035 A 
ATOM     85  C   UNL A   1      28.359  28.004  23.208  1.00  0.00     0.072 A 
ATOM     86  C   UNL A   1      28.367  30.496  22.124  1.00  0.00     0.112 A 
ATOM     87  C   UNL A   1      27.209  28.771  23.083  1.00  0.00     0.132 A 
ATOM     88  Cl  UNL A   1      28.270  26.509  24.043  1.00  0.00    -0.082 Cl
ATOM     89  N   UNL A   1      27.179  30.006  22.529  1.00  0.00    -0.263 NA
ENDBRANCH  81  83
ENDBRANCH  79  81
ENDBRANCH  72  74
ENDBRANCH  71  72
ENDBRANCH  70  71
ENDBRANCH   1  70
TORSDOF 13
ENDMDL
MODEL 2
REMARK VINA RESULT:     -12.2      5.609     10.924
REMARK SMILES O=C(OCCOC(=O)[C@@H]1C[C@@H]2CC[C@H]1N2C(=O)c1ccncc1Cl)c1ccc(-c2c3nc(c(-c4c(F)c(F)c(F)c(F)c4F)c4ccc([nH]4)c(-c4c(F)c(F)c(F)c(F)c4F)c4nc(c(-c5c(F)c(F)c(F)c(F)c5F)c5ccc2[nH]5)C=C4)C=C3)cc1
REMARK SMILES IDX 4 1 3 2 2 3 1 4 25 5 26 6 87 7 27 8 86 9 28 10 29 11 30 12
REMARK SMILES IDX 80 13 31 14 85 15 79 16 81 17 32 18 84 19 78 20 77 21 33 23
REMARK SMILES IDX 65 24 45 25 64 26 46 27 49 28 63 29 82 30 47 31 48 32 62 34
REMARK SMILES IDX 83 35 50 36 34 37 35 38 43 39 36 40 37 41 41 42 44 43 38 44
REMARK SMILES IDX 39 45 42 46 40 47 66 48 67 49 75 50 68 51 69 52 73 53 76 54
REMARK SMILES IDX 70 55 71 56 74 57 72 58 51 59 52 60 60 61 53 62 54 63 58 64
REMARK SMILES IDX 61 65 55 66 56 67 59 68 57 69 5 70 6 71 7 72 8 73 9 74 10 75
REMARK SMILES IDX 14 76 11 77 13 78 15 79 12 80 16 81 17 82 18 83 19 84 23 85
REMARK SMILES IDX 20 86 22 87 24 88 21 89
REMARK H PARENT 81 22 49 33
REMARK Flexibility Score: inf
ROOT
ATOM      1  C   UNL A   1      39.231  19.216  25.786  1.00  0.00     0.275 C 
ENDROOT
BRANCH   1   2
ATOM      2  O   UNL A   1      40.646  19.468  25.810  1.00  0.00    -0.458 OA
BRANCH   2   3
ATOM      3  C   UNL A   1      41.386  20.032  26.793  1.00  0.00     0.338 C 
ATOM      4  O   UNL A   1      41.824  19.323  27.697  1.00  0.00    -0.246 OA
BRANCH   3   5
ATOM      5  C   UNL A   1      41.523  21.516  26.945  1.00  0.00     0.060 A 
ATOM      6  C   UNL A   1      41.266  22.478  25.965  1.00  0.00     0.016 A 
ATOM      7  C   UNL A   1      41.942  21.969  28.209  1.00  0.00     0.016 A 
ATOM      8  C   UNL A   1      41.336  23.846  26.249  1.00  0.00     0.010 A 
ATOM      9  C   UNL A   1      42.005  23.336  28.506  1.00  0.00     0.010 A 
ATOM     10  C   UNL A   1      41.708  24.285  27.519  1.00  0.00    -0.014 A 
BRANCH  10  11
ATOM     11  C   UNL A   1      42.077  25.705  27.723  1.00  0.00     0.031 A 
ATOM     12  C   UNL A   1      43.433  26.120  27.227  1.00  0.00     0.074 A 
ATOM     13  C   UNL A   1      41.232  26.609  28.252  1.00  0.00     0.049 A 
ATOM     14  N   UNL A   1      44.042  27.271  27.327  1.00  0.00    -0.248 NA
ATOM     15  C   UNL A   1      44.202  25.091  26.504  1.00  0.00     0.031 C 
ATOM     16  C   UNL A   1      39.842  26.363  28.632  1.00  0.00     0.029 A 
ATOM     17  N   UNL A   1      41.426  27.937  28.555  1.00  0.00    -0.354 N 
ATOM     18  C   UNL A   1      45.255  27.102  26.673  1.00  0.00     0.074 A 
ATOM     19  C   UNL A   1      45.331  25.726  26.245  1.00  0.00     0.031 C 
ATOM     20  C   UNL A   1      39.320  27.498  29.135  1.00  0.00     0.029 A 
ATOM     21  C   UNL A   1      40.355  28.524  29.190  1.00  0.00     0.049 A 
ATOM     22  H   UNL A   1      42.254  28.423  28.337  1.00  0.00     0.167 HD
ATOM     23  C   UNL A   1      46.209  28.026  26.420  1.00  0.00     0.037 A 
ATOM     24  C   UNL A   1      40.263  29.730  29.787  1.00  0.00     0.037 A 
ATOM     25  C   UNL A   1      46.123  29.389  26.856  1.00  0.00     0.049 A 
ATOM     26  C   UNL A   1      41.424  30.677  29.675  1.00  0.00     0.074 A 
ATOM     27  C   UNL A   1      47.014  30.423  26.647  1.00  0.00     0.029 A 
ATOM     28  N   UNL A   1      45.078  29.899  27.614  1.00  0.00    -0.354 N 
ATOM     29  N   UNL A   1      42.577  30.505  29.078  1.00  0.00    -0.248 NA
ATOM     30  C   UNL A   1      41.247  32.003  30.284  1.00  0.00     0.031 C 
ATOM     31  C   UNL A   1      46.538  31.546  27.333  1.00  0.00     0.029 A 
ATOM     32  C   UNL A   1      45.320  31.226  27.914  1.00  0.00     0.049 A 
ATOM     33  H   UNL A   1      44.284  29.390  27.897  1.00  0.00     0.167 HD
ATOM     34  C   UNL A   1      43.246  31.713  29.197  1.00  0.00     0.074 A 
ATOM     35  C   UNL A   1      42.385  32.597  29.955  1.00  0.00     0.031 C 
ATOM     36  C   UNL A   1      44.447  32.072  28.686  1.00  0.00     0.037 A 
BRANCH  23  37
ATOM     37  C   UNL A   1      47.423  27.554  25.679  1.00  0.00     0.064 A 
ATOM     38  C   UNL A   1      48.563  27.079  26.349  1.00  0.00     0.173 A 
ATOM     39  C   UNL A   1      47.476  27.647  24.281  1.00  0.00     0.173 A 
ATOM     40  F   UNL A   1      48.573  26.996  27.689  1.00  0.00    -0.203 F 
ATOM     41  C   UNL A   1      49.727  26.770  25.652  1.00  0.00     0.198 A 
ATOM     42  C   UNL A   1      48.631  27.304  23.584  1.00  0.00     0.198 A 
ATOM     43  F   UNL A   1      46.417  28.098  23.594  1.00  0.00    -0.203 F 
ATOM     44  F   UNL A   1      50.831  26.406  26.321  1.00  0.00    -0.200 F 
ATOM     45  C   UNL A   1      49.760  26.882  24.270  1.00  0.00     0.200 A 
ATOM     46  F   UNL A   1      48.659  27.407  22.248  1.00  0.00    -0.200 F 
ATOM     47  F   UNL A   1      50.887  26.604  23.601  1.00  0.00    -0.200 F 
ENDBRANCH  23  37
BRANCH  24  48
ATOM     48  C   UNL A   1      39.092  30.115  30.621  1.00  0.00     0.064 A 
ATOM     49  C   UNL A   1      39.023  29.855  31.992  1.00  0.00     0.173 A 
ATOM     50  C   UNL A   1      37.978  30.726  30.019  1.00  0.00     0.173 A 
ATOM     51  F   UNL A   1      40.029  29.214  32.603  1.00  0.00    -0.203 F 
ATOM     52  C   UNL A   1      37.903  30.232  32.739  1.00  0.00     0.198 A 
ATOM     53  C   UNL A   1      36.871  31.123  30.768  1.00  0.00     0.198 A 
ATOM     54  F   UNL A   1      37.999  30.993  28.704  1.00  0.00    -0.203 F 
ATOM     55  F   UNL A   1      37.851  29.954  34.049  1.00  0.00    -0.200 F 
ATOM     56  C   UNL A   1      36.836  30.880  32.130  1.00  0.00     0.200 A 
ATOM     57  F   UNL A   1      35.853  31.758  30.169  1.00  0.00    -0.200 F 
ATOM     58  F   UNL A   1      35.772  31.256  32.853  1.00  0.00    -0.200 F 
ENDBRANCH  24  48
BRANCH  36  59
ATOM     59  C   UNL A   1      44.870  33.494  28.880  1.00  0.00     0.064 A 
ATOM     60  C   UNL A   1      44.472  34.511  28.003  1.00  0.00     0.173 A 
ATOM     61  C   UNL A   1      45.638  33.842  30.000  1.00  0.00     0.173 A 
ATOM     62  F   UNL A   1      43.761  34.216  26.904  1.00  0.00    -0.203 F 
ATOM     63  C   UNL A   1      44.833  35.833  28.242  1.00  0.00     0.198 A 
ATOM     64  C   UNL A   1      45.970  35.167  30.252  1.00  0.00     0.198 A 
ATOM     65  F   UNL A   1      46.045  32.898  30.861  1.00  0.00    -0.203 F 
ATOM     66  F   UNL A   1      44.472  36.790  27.377  1.00  0.00    -0.200 F 
ATOM     67  C   UNL A   1      45.569  36.161  29.372  1.00  0.00     0.200 A 
ATOM     68  F   UNL A   1      46.672  35.484  31.349  1.00  0.00    -0.200 F 
ATOM     69  F   UNL A   1      45.897  37.439  29.611  1.00  0.00    -0.200 F 
ENDBRANCH  36  59
ENDBRANCH  10  11
ENDBRANCH   3   5
ENDBRANCH   2   3
ENDBRANCH   1   2
BRANCH   1  70
ATOM     70  C   UNL A   1      38.407  20.312  25.099  1.00  0.00     0.274 C 
BRANCH  70  71
ATOM     71  O   UNL A   1      38.178  21.477  25.915  1.00  0.00    -0.462 OA
BRANCH  71  72
ATOM     72  C   UNL A   1      37.309  22.387  25.380  1.00  0.00     0.311 C 
ATOM     73  O   UNL A   1      37.548  23.576  25.274  1.00  0.00    -0.252 OA
BRANCH  72  74
ATOM     74  C   UNL A   1      36.042  21.717  24.876  1.00  0.00     0.124 C 
ATOM     75  C   UNL A   1      35.254  22.658  23.920  1.00  0.00     0.042 C 
ATOM     76  C   UNL A   1      34.985  21.405  25.958  1.00  0.00     0.100 C 
ATOM     77  C   UNL A   1      33.909  22.827  24.626  1.00  0.00     0.086 C 
ATOM     78  C   UNL A   1      34.755  22.620  26.871  1.00  0.00     0.028 C 
ATOM     79  N   UNL A   1      33.758  21.503  25.173  1.00  0.00    -0.332 N 
ATOM     80  C   UNL A   1      34.102  23.644  25.909  1.00  0.00     0.027 C 
BRANCH  79  81
ATOM     81  C   UNL A   1      32.644  20.732  25.018  1.00  0.00     0.256 C 
ATOM     82  O   UNL A   1      31.537  21.032  25.453  1.00  0.00    -0.269 OA
BRANCH  81  83
ATOM     83  C   UNL A   1      32.747  19.558  24.155  1.00  0.00     0.061 A 
ATOM     84  C   UNL A   1      33.303  18.438  24.758  1.00  0.00     0.035 A 
ATOM     85  C   UNL A   1      32.355  19.518  22.820  1.00  0.00     0.072 A 
ATOM     86  C   UNL A   1      33.379  17.296  24.003  1.00  0.00     0.112 A 
ATOM     87  C   UNL A   1      32.443  18.296  22.169  1.00  0.00     0.132 A 
ATOM     88  Cl  UNL A   1      31.834  20.892  21.936  1.00  0.00    -0.082 Cl
ATOM     89  N   UNL A   1      32.930  17.168  22.739  1.00  0.00    -0.263 NA
ENDBRANCH  81  83
ENDBRANCH  79  81
ENDBRANCH  72  74
ENDBRANCH  71  72
ENDBRANCH  70  71
ENDBRANCH   1  70
TORSDOF 13
ENDMDL
MODEL 3
REMARK VINA RESULT:     -12.2      0.268      1.631
REMARK SMILES O=C(OCCOC(=O)[C@@H]1C[C@@H]2CC[C@H]1N2C(=O)c1ccncc1Cl)c1ccc(-c2c3nc(c(-c4c(F)c(F)c(F)c(F)c4F)c4ccc([nH]4)c(-c4c(F)c(F)c(F)c(F)c4F)c4nc(c(-c5c(F)c(F)c(F)c(F)c5F)c5ccc2[nH]5)C=C4)C=C3)cc1
REMARK SMILES IDX 4 1 3 2 2 3 1 4 25 5 26 6 87 7 27 8 86 9 28 10 29 11 30 12
REMARK SMILES IDX 80 13 31 14 85 15 79 16 81 17 32 18 84 19 78 20 77 21 33 23
REMARK SMILES IDX 65 24 45 25 64 26 46 27 49 28 63 29 82 30 47 31 48 32 62 34
REMARK SMILES IDX 83 35 50 36 34 37 35 38 43 39 36 40 37 41 41 42 44 43 38 44
REMARK SMILES IDX 39 45 42 46 40 47 66 48 67 49 75 50 68 51 69 52 73 53 76 54
REMARK SMILES IDX 70 55 71 56 74 57 72 58 51 59 52 60 60 61 53 62 54 63 58 64
REMARK SMILES IDX 61 65 55 66 56 67 59 68 57 69 5 70 6 71 7 72 8 73 9 74 10 75
REMARK SMILES IDX 14 76 11 77 13 78 15 79 12 80 16 81 17 82 18 83 19 84 23 85
REMARK SMILES IDX 20 86 22 87 24 88 21 89
REMARK H PARENT 81 22 49 33
REMARK Flexibility Score: inf
ROOT
ATOM      1  C   UNL A   1      32.130  33.067  26.858  1.00  0.00     0.275 C 
ENDROOT
BRANCH   1   2
ATOM      2  O   UNL A   1      32.557  33.859  27.980  1.00  0.00    -0.458 OA
BRANCH   2   3
ATOM      3  C   UNL A   1      33.808  34.268  28.296  1.00  0.00     0.338 C 
ATOM      4  O   UNL A   1      34.175  35.392  27.959  1.00  0.00    -0.246 OA
BRANCH   3   5
ATOM      5  C   UNL A   1      34.841  33.337  28.854  1.00  0.00     0.060 A 
ATOM      6  C   UNL A   1      34.619  32.301  29.765  1.00  0.00     0.016 A 
ATOM      7  C   UNL A   1      36.157  33.533  28.398  1.00  0.00     0.016 A 
ATOM      8  C   UNL A   1      35.646  31.432  30.145  1.00  0.00     0.010 A 
ATOM      9  C   UNL A   1      37.189  32.663  28.766  1.00  0.00     0.010 A 
ATOM     10  C   UNL A   1      36.938  31.607  29.653  1.00  0.00    -0.014 A 
BRANCH  10  11
ATOM     11  C   UNL A   1      38.068  30.890  30.288  1.00  0.00     0.031 A 
ATOM     12  C   UNL A   1      38.391  31.275  31.704  1.00  0.00     0.074 A 
ATOM     13  C   UNL A   1      38.734  29.892  29.678  1.00  0.00     0.049 A 
ATOM     14  N   UNL A   1      39.357  30.865  32.480  1.00  0.00    -0.248 NA
ATOM     15  C   UNL A   1      37.483  32.251  32.333  1.00  0.00     0.031 C 
ATOM     16  C   UNL A   1      38.419  29.328  28.367  1.00  0.00     0.029 A 
ATOM     17  N   UNL A   1      39.823  29.164  30.097  1.00  0.00    -0.354 N 
ATOM     18  C   UNL A   1      39.164  31.527  33.686  1.00  0.00     0.074 A 
ATOM     19  C   UNL A   1      38.040  32.416  33.520  1.00  0.00     0.031 C 
ATOM     20  C   UNL A   1      39.309  28.357  28.084  1.00  0.00     0.029 A 
ATOM     21  C   UNL A   1      40.302  28.287  29.150  1.00  0.00     0.049 A 
ATOM     22  H   UNL A   1      40.224  29.261  30.991  1.00  0.00     0.167 HD
ATOM     23  C   UNL A   1      39.845  31.377  34.844  1.00  0.00     0.037 A 
ATOM     24  C   UNL A   1      41.441  27.564  29.143  1.00  0.00     0.037 A 
ATOM     25  C   UNL A   1      40.964  30.494  34.994  1.00  0.00     0.049 A 
ATOM     26  C   UNL A   1      42.304  27.573  30.372  1.00  0.00     0.074 A 
ATOM     27  C   UNL A   1      41.724  30.241  36.119  1.00  0.00     0.029 A 
ATOM     28  N   UNL A   1      41.494  29.727  33.965  1.00  0.00    -0.354 N 
ATOM     29  N   UNL A   1      42.132  28.217  31.499  1.00  0.00    -0.248 NA
ATOM     30  C   UNL A   1      43.497  26.715  30.339  1.00  0.00     0.031 C 
ATOM     31  C   UNL A   1      42.755  29.369  35.755  1.00  0.00     0.029 A 
ATOM     32  C   UNL A   1      42.596  29.029  34.419  1.00  0.00     0.049 A 
ATOM     33  H   UNL A   1      41.137  29.689  33.048  1.00  0.00     0.167 HD
ATOM     34  C   UNL A   1      43.166  27.811  32.328  1.00  0.00     0.074 A 
ATOM     35  C   UNL A   1      43.982  26.891  31.560  1.00  0.00     0.031 C 
ATOM     36  C   UNL A   1      43.394  28.134  33.622  1.00  0.00     0.037 A 
BRANCH  23  37
ATOM     37  C   UNL A   1      39.405  32.228  35.998  1.00  0.00     0.064 A 
ATOM     38  C   UNL A   1      40.030  33.449  36.300  1.00  0.00     0.173 A 
ATOM     39  C   UNL A   1      38.393  31.779  36.857  1.00  0.00     0.173 A 
ATOM     40  F   UNL A   1      41.024  33.909  35.523  1.00  0.00    -0.203 F 
ATOM     41  C   UNL A   1      39.697  34.159  37.449  1.00  0.00     0.198 A 
ATOM     42  C   UNL A   1      38.038  32.510  37.987  1.00  0.00     0.198 A 
ATOM     43  F   UNL A   1      37.767  30.619  36.615  1.00  0.00    -0.203 F 
ATOM     44  F   UNL A   1      40.371  35.275  37.765  1.00  0.00    -0.200 F 
ATOM     45  C   UNL A   1      38.701  33.689  38.292  1.00  0.00     0.200 A 
ATOM     46  F   UNL A   1      37.070  32.058  38.797  1.00  0.00    -0.200 F 
ATOM     47  F   UNL A   1      38.394  34.363  39.409  1.00  0.00    -0.200 F 
ENDBRANCH  23  37
BRANCH  24  48
ATOM     48  C   UNL A   1      41.909  26.832  27.934  1.00  0.00     0.064 A 
ATOM     49  C   UNL A   1      41.575  25.499  27.683  1.00  0.00     0.173 A 
ATOM     50  C   UNL A   1      42.759  27.474  27.017  1.00  0.00     0.173 A 
ATOM     51  F   UNL A   1      40.823  24.821  28.560  1.00  0.00    -0.203 F 
ATOM     52  C   UNL A   1      42.037  24.847  26.535  1.00  0.00     0.198 A 
ATOM     53  C   UNL A   1      43.201  26.831  25.861  1.00  0.00     0.198 A 
ATOM     54  F   UNL A   1      43.107  28.753  27.219  1.00  0.00    -0.203 F 
ATOM     55  F   UNL A   1      41.721  23.562  26.326  1.00  0.00    -0.200 F 
ATOM     56  C   UNL A   1      42.835  25.519  25.618  1.00  0.00     0.200 A 
ATOM     57  F   UNL A   1      43.961  27.495  24.978  1.00  0.00    -0.200 F 
ATOM     58  F   UNL A   1      43.261  24.896  24.510  1.00  0.00    -0.200 F 
ENDBRANCH  24  48
BRANCH  36  59
ATOM     59  C   UNL A   1      44.534  27.446  34.304  1.00  0.00     0.064 A 
ATOM     60  C   UNL A   1      44.391  26.185  34.895  1.00  0.00     0.173 A 
ATOM     61  C   UNL A   1      45.803  28.043  34.305  1.00  0.00     0.173 A 
ATOM     62  F   UNL A   1      43.188  25.592  34.940  1.00  0.00    -0.203 F 
ATOM     63  C   UNL A   1      45.484  25.544  35.469  1.00  0.00     0.198 A 
ATOM     64  C   UNL A   1      46.898  27.386  34.852  1.00  0.00     0.198 A 
ATOM     65  F   UNL A   1      45.983  29.253  33.755  1.00  0.00    -0.203 F 
ATOM     66  F   UNL A   1      45.324  24.352  36.060  1.00  0.00    -0.200 F 
ATOM     67  C   UNL A   1      46.738  26.139  35.436  1.00  0.00     0.200 A 
ATOM     68  F   UNL A   1      48.110  27.958  34.810  1.00  0.00    -0.200 F 
ATOM     69  F   UNL A   1      47.793  25.510  35.972  1.00  0.00    -0.200 F 
ENDBRANCH  36  59
ENDBRANCH  10  11
ENDBRANCH   3   5
ENDBRANCH   2   3
ENDBRANCH   1   2
BRANCH   1  70
ATOM     70  C   UNL A   1      32.045  31.562  27.145  1.00  0.00     0.274 C 
BRANCH  70  71
ATOM     71  O   UNL A   1      33.299  30.865  27.016  1.00  0.00    -0.462 OA
BRANCH  71  72
ATOM     72  C   UNL A   1      33.187  29.511  26.875  1.00  0.00     0.311 C 
ATOM     73  O   UNL A   1      33.839  28.703  27.512  1.00  0.00    -0.252 OA
BRANCH  72  74
ATOM     74  C   UNL A   1      32.104  29.142  25.876  1.00  0.00     0.124 C 
ATOM     75  C   UNL A   1      31.601  27.688  26.105  1.00  0.00     0.042 C 
ATOM     76  C   UNL A   1      32.556  29.093  24.399  1.00  0.00     0.100 C 
ATOM     77  C   UNL A   1      31.919  26.995  24.780  1.00  0.00     0.086 C 
ATOM     78  C   UNL A   1      33.869  28.305  24.251  1.00  0.00     0.028 C 
ATOM     79  N   UNL A   1      31.648  28.079  23.872  1.00  0.00    -0.332 N 
ATOM     80  C   UNL A   1      33.438  26.864  24.621  1.00  0.00     0.027 C 
BRANCH  79  81
ATOM     81  C   UNL A   1      30.838  27.980  22.780  1.00  0.00     0.256 C 
ATOM     82  O   UNL A   1      31.088  27.283  21.802  1.00  0.00    -0.269 OA
BRANCH  81  83
ATOM     83  C   UNL A   1      29.527  28.623  22.847  1.00  0.00     0.061 A 
ATOM     84  C   UNL A   1      29.509  29.951  22.444  1.00  0.00     0.035 A 
ATOM     85  C   UNL A   1      28.363  28.005  23.293  1.00  0.00     0.072 A 
ATOM     86  C   UNL A   1      28.293  30.586  22.445  1.00  0.00     0.112 A 
ATOM     87  C   UNL A   1      27.186  28.735  23.211  1.00  0.00     0.132 A 
ATOM     88  Cl  UNL A   1      28.318  26.436  23.983  1.00  0.00    -0.082 Cl
ATOM     89  N   UNL A   1      27.118  30.015  22.774  1.00  0.00    -0.263 NA
ENDBRANCH  81  83
ENDBRANCH  79  81
ENDBRANCH  72  74
ENDBRANCH  71  72
ENDBRANCH  70  71
ENDBRANCH   1  70
TORSDOF 13
ENDMDL
