MODEL 1
REMARK VINA RESULT:     -11.4      0.000      0.000
REMARK SMILES O=C(CCCN1C(=O)/C(=C/c2cc(Br)ccc2O)SC1=S)OCCOC(=O)c1ccc(-c2c3nc(c(-c4c(F)c(F)c(F)c(F)c4F)c4ccc([nH]4)c(-c4c(F)c(F)c(F)c(F)c4F)c4nc(c(-c5c(F)c(F)c(F)c(F)c5F)c5ccc2[nH]5)C=C4)C=C3)cc1
REMARK SMILES IDX 22 1 2 2 1 3 3 4 4 5 5 6 6 7 7 8 20 9 8 10 9 11 19 12 21 13
REMARK SMILES IDX 10 14 11 15 12 16 17 17 13 18 16 19 14 20 15 21 18 22 23 24
REMARK SMILES IDX 24 25 25 26 26 27 27 28 28 29 29 30 90 31 30 32 89 33 31 34
REMARK SMILES IDX 32 35 33 36 83 37 34 38 88 39 82 40 84 41 35 42 87 43 81 44
REMARK SMILES IDX 80 45 36 47 68 48 48 49 67 50 49 51 52 52 66 53 85 54 50 55
REMARK SMILES IDX 51 56 65 58 86 59 53 60 37 61 38 62 46 63 39 64 40 65 44 66
REMARK SMILES IDX 47 67 41 68 42 69 45 70 43 71 69 72 70 73 78 74 71 75 72 76
REMARK SMILES IDX 76 77 79 78 73 79 74 80 77 81 75 82 54 83 55 84 63 85 56 86
REMARK SMILES IDX 57 87 61 88 64 89 58 90 59 91 62 92 60 93
REMARK H PARENT 18 23 84 46 52 57
REMARK Flexibility Score: inf
ROOT
ATOM      1  O   UNL A   1      37.957  21.166  24.880  1.00  0.00    -0.462 OA
ENDROOT
BRANCH   1   2
ATOM      2  C   UNL A   1      36.809  21.847  25.114  1.00  0.00     0.305 C 
ATOM      3  O   UNL A   1      35.977  21.411  25.904  1.00  0.00    -0.252 OA
BRANCH   2   4
ATOM      4  C   UNL A   1      36.523  23.092  24.300  1.00  0.00     0.124 C 
BRANCH   4   5
ATOM      5  C   UNL A   1      35.610  22.848  23.100  1.00  0.00     0.034 C 
BRANCH   5   6
ATOM      6  C   UNL A   1      34.101  22.949  23.380  1.00  0.00     0.128 C 
BRANCH   6   7
ATOM      7  N   UNL A   1      33.630  24.148  24.097  1.00  0.00    -0.293 N 
ATOM      8  C   UNL A   1      33.618  25.386  23.471  1.00  0.00     0.266 C 
ATOM      9  C   UNL A   1      33.036  24.111  25.347  1.00  0.00     0.148 C 
ATOM     10  O   UNL A   1      33.918  25.615  22.308  1.00  0.00    -0.268 OA
ATOM     11  C   UNL A   1      33.176  26.444  24.420  1.00  0.00     0.081 C 
ATOM     12  S   UNL A   1      32.714  25.743  25.914  1.00  0.00    -0.054 SA
ATOM     13  S   UNL A   1      32.663  22.780  26.285  1.00  0.00    -0.052 S 
ATOM     14  C   UNL A   1      33.203  27.745  24.102  1.00  0.00     0.033 C 
BRANCH  14  15
ATOM     15  C   UNL A   1      32.921  28.841  25.038  1.00  0.00     0.019 A 
ATOM     16  C   UNL A   1      33.896  29.269  25.948  1.00  0.00     0.027 A 
ATOM     17  C   UNL A   1      31.674  29.484  25.021  1.00  0.00     0.122 A 
ATOM     18  C   UNL A   1      33.616  30.324  26.819  1.00  0.00     0.018 A 
ATOM     19  C   UNL A   1      31.396  30.536  25.894  1.00  0.00     0.048 A 
ATOM     20  Br  UNL A   1      34.935  30.906  28.044  1.00  0.00    -0.051 Br
ATOM     21  C   UNL A   1      32.374  30.957  26.797  1.00  0.00     0.019 A 
BRANCH  17  22
ATOM     22  O   UNL A   1      30.722  29.072  24.125  1.00  0.00    -0.507 OA
ATOM     23  H   UNL A   1      29.840  28.936  24.409  1.00  0.00     0.293 HD
ENDBRANCH  17  22
ENDBRANCH  14  15
ENDBRANCH   6   7
ENDBRANCH   5   6
ENDBRANCH   4   5
ENDBRANCH   2   4
ENDBRANCH   1   2
BRANCH   1  24
ATOM     24  C   UNL A   1      38.038  19.731  24.964  1.00  0.00     0.274 C 
BRANCH  24  25
ATOM     25  C   UNL A   1      39.293  19.243  25.686  1.00  0.00     0.275 C 
BRANCH  25  26
ATOM     26  O   UNL A   1      40.203  20.334  25.894  1.00  0.00    -0.458 OA
BRANCH  26  27
ATOM     27  C   UNL A   1      40.678  20.421  27.163  1.00  0.00     0.338 C 
ATOM     28  O   UNL A   1      40.952  19.500  27.905  1.00  0.00    -0.246 OA
BRANCH  27  29
ATOM     29  C   UNL A   1      40.996  21.830  27.477  1.00  0.00     0.060 A 
ATOM     30  C   UNL A   1      40.418  22.812  26.662  1.00  0.00     0.016 A 
ATOM     31  C   UNL A   1      41.840  22.195  28.531  1.00  0.00     0.016 A 
ATOM     32  C   UNL A   1      40.713  24.157  26.871  1.00  0.00     0.010 A 
ATOM     33  C   UNL A   1      42.142  23.547  28.733  1.00  0.00     0.010 A 
ATOM     34  C   UNL A   1      41.601  24.531  27.888  1.00  0.00    -0.014 A 
BRANCH  34  35
ATOM     35  C   UNL A   1      42.041  25.943  27.995  1.00  0.00     0.031 A 
ATOM     36  C   UNL A   1      43.362  26.345  27.402  1.00  0.00     0.074 A 
ATOM     37  C   UNL A   1      41.267  26.859  28.604  1.00  0.00     0.049 A 
ATOM     38  N   UNL A   1      43.953  27.512  27.407  1.00  0.00    -0.248 NA
ATOM     39  C   UNL A   1      44.118  25.290  26.707  1.00  0.00     0.031 C 
ATOM     40  C   UNL A   1      39.955  26.597  29.192  1.00  0.00     0.029 A 
ATOM     41  N   UNL A   1      41.484  28.194  28.840  1.00  0.00    -0.354 N 
ATOM     42  C   UNL A   1      45.148  27.333  26.725  1.00  0.00     0.074 A 
ATOM     43  C   UNL A   1      45.212  25.941  26.333  1.00  0.00     0.031 C 
ATOM     44  C   UNL A   1      39.493  27.731  29.745  1.00  0.00     0.029 A 
ATOM     45  C   UNL A   1      40.488  28.790  29.575  1.00  0.00     0.049 A 
ATOM     46  H   UNL A   1      42.276  28.678  28.515  1.00  0.00     0.167 HD
ATOM     47  C   UNL A   1      46.103  28.251  26.445  1.00  0.00     0.037 A 
ATOM     48  C   UNL A   1      40.406  30.038  30.077  1.00  0.00     0.037 A 
ATOM     49  C   UNL A   1      46.033  29.637  26.822  1.00  0.00     0.049 A 
ATOM     50  C   UNL A   1      41.522  31.017  29.813  1.00  0.00     0.074 A 
ATOM     51  C   UNL A   1      46.922  30.656  26.524  1.00  0.00     0.029 A 
ATOM     52  N   UNL A   1      45.027  30.196  27.593  1.00  0.00    -0.354 N 
ATOM     53  N   UNL A   1      42.615  30.859  29.106  1.00  0.00    -0.248 NA
ATOM     54  C   UNL A   1      41.394  32.352  30.419  1.00  0.00     0.031 C 
ATOM     55  C   UNL A   1      46.486  31.818  27.166  1.00  0.00     0.029 A 
ATOM     56  C   UNL A   1      45.300  31.535  27.823  1.00  0.00     0.049 A 
ATOM     57  H   UNL A   1      44.237  29.714  27.929  1.00  0.00     0.167 HD
ATOM     58  C   UNL A   1      43.289  32.072  29.166  1.00  0.00     0.074 A 
ATOM     59  C   UNL A   1      42.476  32.965  29.961  1.00  0.00     0.031 C 
ATOM     60  C   UNL A   1      44.480  32.415  28.614  1.00  0.00     0.037 A 
BRANCH  47  61
ATOM     61  C   UNL A   1      47.327  27.791  25.714  1.00  0.00     0.064 A 
ATOM     62  C   UNL A   1      47.373  27.736  24.314  1.00  0.00     0.173 A 
ATOM     63  C   UNL A   1      48.497  27.482  26.425  1.00  0.00     0.173 A 
ATOM     64  F   UNL A   1      46.277  28.013  23.591  1.00  0.00    -0.203 F 
ATOM     65  C   UNL A   1      48.545  27.380  23.651  1.00  0.00     0.198 A 
ATOM     66  C   UNL A   1      49.672  27.150  25.759  1.00  0.00     0.198 A 
ATOM     67  F   UNL A   1      48.503  27.525  27.766  1.00  0.00    -0.203 F 
ATOM     68  F   UNL A   1      48.562  27.311  22.313  1.00  0.00    -0.200 F 
ATOM     69  C   UNL A   1      49.695  27.097  24.373  1.00  0.00     0.200 A 
ATOM     70  F   UNL A   1      50.785  26.887  26.458  1.00  0.00    -0.200 F 
ATOM     71  F   UNL A   1      50.827  26.772  23.734  1.00  0.00    -0.200 F 
ENDBRANCH  47  61
BRANCH  48  72
ATOM     72  C   UNL A   1      39.250  30.428  30.927  1.00  0.00     0.064 A 
ATOM     73  C   UNL A   1      38.192  31.190  30.413  1.00  0.00     0.173 A 
ATOM     74  C   UNL A   1      39.212  30.095  32.289  1.00  0.00     0.173 A 
ATOM     75  F   UNL A   1      38.199  31.561  29.124  1.00  0.00    -0.203 F 
ATOM     76  C   UNL A   1      37.155  31.627  31.234  1.00  0.00     0.198 A 
ATOM     77  C   UNL A   1      38.159  30.506  33.103  1.00  0.00     0.198 A 
ATOM     78  F   UNL A   1      40.203  29.375  32.834  1.00  0.00    -0.203 F 
ATOM     79  F   UNL A   1      36.189  32.407  30.731  1.00  0.00    -0.200 F 
ATOM     80  C   UNL A   1      37.136  31.282  32.577  1.00  0.00     0.200 A 
ATOM     81  F   UNL A   1      38.142  30.165  34.398  1.00  0.00    -0.200 F 
ATOM     82  F   UNL A   1      36.144  31.711  33.369  1.00  0.00    -0.200 F 
ENDBRANCH  48  72
BRANCH  60  83
ATOM     83  C   UNL A   1      44.973  33.813  28.839  1.00  0.00     0.064 A 
ATOM     84  C   UNL A   1      45.829  34.124  29.904  1.00  0.00     0.173 A 
ATOM     85  C   UNL A   1      44.634  34.841  27.945  1.00  0.00     0.173 A 
ATOM     86  F   UNL A   1      46.169  33.180  30.794  1.00  0.00    -0.203 F 
ATOM     87  C   UNL A   1      46.319  35.417  30.075  1.00  0.00     0.198 A 
ATOM     88  C   UNL A   1      45.148  36.125  28.102  1.00  0.00     0.198 A 
ATOM     89  F   UNL A   1      43.825  34.594  26.905  1.00  0.00    -0.203 F 
ATOM     90  F   UNL A   1      47.108  35.700  31.121  1.00  0.00    -0.200 F 
ATOM     91  C   UNL A   1      45.985  36.413  29.169  1.00  0.00     0.200 A 
ATOM     92  F   UNL A   1      44.838  37.083  27.217  1.00  0.00    -0.200 F 
ATOM     93  F   UNL A   1      46.470  37.653  29.327  1.00  0.00    -0.200 F 
ENDBRANCH  60  83
ENDBRANCH  34  35
ENDBRANCH  27  29
ENDBRANCH  26  27
ENDBRANCH  25  26
ENDBRANCH  24  25
ENDBRANCH   1  24
TORSDOF 16
ENDMDL
MODEL 2
REMARK VINA RESULT:     -11.3      4.237     10.149
REMARK SMILES O=C(CCCN1C(=O)/C(=C/c2cc(Br)ccc2O)SC1=S)OCCOC(=O)c1ccc(-c2c3nc(c(-c4c(F)c(F)c(F)c(F)c4F)c4ccc([nH]4)c(-c4c(F)c(F)c(F)c(F)c4F)c4nc(c(-c5c(F)c(F)c(F)c(F)c5F)c5ccc2[nH]5)C=C4)C=C3)cc1
REMARK SMILES IDX 22 1 2 2 1 3 3 4 4 5 5 6 6 7 7 8 20 9 8 10 9 11 19 12 21 13
REMARK SMILES IDX 10 14 11 15 12 16 17 17 13 18 16 19 14 20 15 21 18 22 23 24
REMARK SMILES IDX 24 25 25 26 26 27 27 28 28 29 29 30 90 31 30 32 89 33 31 34
REMARK SMILES IDX 32 35 33 36 83 37 34 38 88 39 82 40 84 41 35 42 87 43 81 44
REMARK SMILES IDX 80 45 36 47 68 48 48 49 67 50 49 51 52 52 66 53 85 54 50 55
REMARK SMILES IDX 51 56 65 58 86 59 53 60 37 61 38 62 46 63 39 64 40 65 44 66
REMARK SMILES IDX 47 67 41 68 42 69 45 70 43 71 69 72 70 73 78 74 71 75 72 76
REMARK SMILES IDX 76 77 79 78 73 79 74 80 77 81 75 82 54 83 55 84 63 85 56 86
REMARK SMILES IDX 57 87 61 88 64 89 58 90 59 91 62 92 60 93
REMARK H PARENT 18 23 84 46 52 57
REMARK Flexibility Score: inf
ROOT
ATOM      1  O   UNL A   1      31.187  29.037  24.925  1.00  0.00    -0.462 OA
ENDROOT
BRANCH   1   2
ATOM      2  C   UNL A   1      30.949  28.546  23.685  1.00  0.00     0.305 C 
ATOM      3  O   UNL A   1      31.562  28.982  22.714  1.00  0.00    -0.252 OA
BRANCH   2   4
ATOM      4  C   UNL A   1      29.835  27.534  23.504  1.00  0.00     0.124 C 
BRANCH   4   5
ATOM      5  C   UNL A   1      30.003  26.276  24.352  1.00  0.00     0.034 C 
BRANCH   5   6
ATOM      6  C   UNL A   1      30.316  24.986  23.574  1.00  0.00     0.128 C 
BRANCH   6   7
ATOM      7  N   UNL A   1      31.693  24.469  23.659  1.00  0.00    -0.293 N 
ATOM      8  C   UNL A   1      32.036  23.526  24.617  1.00  0.00     0.266 C 
ATOM      9  C   UNL A   1      32.677  24.750  22.726  1.00  0.00     0.148 C 
ATOM     10  O   UNL A   1      31.280  22.996  25.418  1.00  0.00    -0.268 OA
ATOM     11  C   UNL A   1      33.492  23.221  24.549  1.00  0.00     0.081 C 
ATOM     12  S   UNL A   1      34.207  24.045  23.228  1.00  0.00    -0.054 SA
ATOM     13  S   UNL A   1      32.555  25.638  21.317  1.00  0.00    -0.052 S 
ATOM     14  C   UNL A   1      34.101  22.442  25.452  1.00  0.00     0.033 C 
BRANCH  14  15
ATOM     15  C   UNL A   1      35.552  22.223  25.525  1.00  0.00     0.019 A 
ATOM     16  C   UNL A   1      36.407  23.251  25.941  1.00  0.00     0.027 A 
ATOM     17  C   UNL A   1      36.097  20.973  25.195  1.00  0.00     0.122 A 
ATOM     18  C   UNL A   1      37.782  23.019  26.020  1.00  0.00     0.018 A 
ATOM     19  C   UNL A   1      37.471  20.745  25.273  1.00  0.00     0.048 A 
ATOM     20  Br  UNL A   1      38.936  24.406  26.588  1.00  0.00    -0.051 Br
ATOM     21  C   UNL A   1      38.316  21.774  25.689  1.00  0.00     0.019 A 
BRANCH  17  22
ATOM     22  O   UNL A   1      35.260  19.963  24.797  1.00  0.00    -0.507 OA
ATOM     23  H   UNL A   1      35.489  19.071  24.967  1.00  0.00     0.293 HD
ENDBRANCH  17  22
ENDBRANCH  14  15
ENDBRANCH   6   7
ENDBRANCH   5   6
ENDBRANCH   4   5
ENDBRANCH   2   4
ENDBRANCH   1   2
BRANCH   1  24
ATOM     24  C   UNL A   1      31.158  30.446  25.219  1.00  0.00     0.274 C 
BRANCH  24  25
ATOM     25  C   UNL A   1      31.717  30.782  26.601  1.00  0.00     0.275 C 
BRANCH  25  26
ATOM     26  O   UNL A   1      33.148  30.884  26.547  1.00  0.00    -0.458 OA
BRANCH  26  27
ATOM     27  C   UNL A   1      33.661  31.865  27.333  1.00  0.00     0.338 C 
ATOM     28  O   UNL A   1      33.117  32.902  27.655  1.00  0.00    -0.246 OA
BRANCH  27  29
ATOM     29  C   UNL A   1      34.945  31.416  27.912  1.00  0.00     0.060 A 
ATOM     30  C   UNL A   1      35.051  30.062  28.253  1.00  0.00     0.016 A 
ATOM     31  C   UNL A   1      36.019  32.285  28.126  1.00  0.00     0.016 A 
ATOM     32  C   UNL A   1      36.215  29.580  28.848  1.00  0.00     0.010 A 
ATOM     33  C   UNL A   1      37.185  31.800  28.731  1.00  0.00     0.010 A 
ATOM     34  C   UNL A   1      37.278  30.452  29.118  1.00  0.00    -0.014 A 
BRANCH  34  35
ATOM     35  C   UNL A   1      38.441  29.970  29.901  1.00  0.00     0.031 A 
ATOM     36  C   UNL A   1      38.642  30.480  31.301  1.00  0.00     0.074 A 
ATOM     37  C   UNL A   1      39.301  29.080  29.375  1.00  0.00     0.049 A 
ATOM     38  N   UNL A   1      39.603  30.216  32.149  1.00  0.00    -0.248 NA
ATOM     39  C   UNL A   1      37.623  31.409  31.814  1.00  0.00     0.031 C 
ATOM     40  C   UNL A   1      39.196  28.492  28.041  1.00  0.00     0.029 A 
ATOM     41  N   UNL A   1      40.444  28.527  29.900  1.00  0.00    -0.354 N 
ATOM     42  C   UNL A   1      39.309  30.948  33.291  1.00  0.00     0.074 A 
ATOM     43  C   UNL A   1      38.092  31.683  33.025  1.00  0.00     0.031 C 
ATOM     44  C   UNL A   1      40.247  27.678  27.842  1.00  0.00     0.029 A 
ATOM     45  C   UNL A   1      41.112  27.711  29.020  1.00  0.00     0.049 A 
ATOM     46  H   UNL A   1      40.754  28.700  30.818  1.00  0.00     0.167 HD
ATOM     47  C   UNL A   1      39.994  30.996  34.458  1.00  0.00     0.037 A 
ATOM     48  C   UNL A   1      42.300  27.087  29.145  1.00  0.00     0.037 A 
ATOM     49  C   UNL A   1      41.197  30.256  34.727  1.00  0.00     0.049 A 
ATOM     50  C   UNL A   1      43.076  27.220  30.431  1.00  0.00     0.074 A 
ATOM     51  C   UNL A   1      41.921  30.190  35.905  1.00  0.00     0.029 A 
ATOM     52  N   UNL A   1      41.861  29.467  33.802  1.00  0.00    -0.354 N 
ATOM     53  N   UNL A   1      42.755  27.858  31.531  1.00  0.00    -0.248 NA
ATOM     54  C   UNL A   1      44.384  26.548  30.492  1.00  0.00     0.031 C 
ATOM     55  C   UNL A   1      43.059  29.410  35.674  1.00  0.00     0.029 A 
ATOM     56  C   UNL A   1      43.015  28.949  34.369  1.00  0.00     0.049 A 
ATOM     57  H   UNL A   1      41.559  29.298  32.881  1.00  0.00     0.167 HD
ATOM     58  C   UNL A   1      43.805  27.647  32.416  1.00  0.00     0.074 A 
ATOM     59  C   UNL A   1      44.765  26.807  31.735  1.00  0.00     0.031 C 
ATOM     60  C   UNL A   1      43.962  28.112  33.680  1.00  0.00     0.037 A 
BRANCH  47  61
ATOM     61  C   UNL A   1      39.478  31.899  35.538  1.00  0.00     0.064 A 
ATOM     62  C   UNL A   1      38.548  31.455  36.488  1.00  0.00     0.173 A 
ATOM     63  C   UNL A   1      39.988  33.200  35.669  1.00  0.00     0.173 A 
ATOM     64  F   UNL A   1      38.025  30.224  36.397  1.00  0.00    -0.203 F 
ATOM     65  C   UNL A   1      38.140  32.286  37.529  1.00  0.00     0.198 A 
ATOM     66  C   UNL A   1      39.596  34.018  36.724  1.00  0.00     0.198 A 
ATOM     67  F   UNL A   1      40.883  33.667  34.786  1.00  0.00    -0.203 F 
ATOM     68  F   UNL A   1      37.233  31.851  38.415  1.00  0.00    -0.200 F 
ATOM     69  C   UNL A   1      38.671  33.562  37.652  1.00  0.00     0.200 A 
ATOM     70  F   UNL A   1      40.118  35.246  36.847  1.00  0.00    -0.200 F 
ATOM     71  F   UNL A   1      38.291  34.353  38.664  1.00  0.00    -0.200 F 
ENDBRANCH  47  61
BRANCH  48  72
ATOM     72  C   UNL A   1      42.864  26.317  28.004  1.00  0.00     0.064 A 
ATOM     73  C   UNL A   1      43.669  26.932  27.037  1.00  0.00     0.173 A 
ATOM     74  C   UNL A   1      42.557  24.959  27.829  1.00  0.00     0.173 A 
ATOM     75  F   UNL A   1      43.964  28.237  27.142  1.00  0.00    -0.203 F 
ATOM     76  C   UNL A   1      44.123  26.227  25.923  1.00  0.00     0.198 A 
ATOM     77  C   UNL A   1      43.037  24.247  26.733  1.00  0.00     0.198 A 
ATOM     78  F   UNL A   1      41.783  24.324  28.721  1.00  0.00    -0.203 F 
ATOM     79  F   UNL A   1      44.838  26.856  24.981  1.00  0.00    -0.200 F 
ATOM     80  C   UNL A   1      43.810  24.885  25.774  1.00  0.00     0.200 A 
ATOM     81  F   UNL A   1      42.737  22.949  26.596  1.00  0.00    -0.200 F 
ATOM     82  F   UNL A   1      44.238  24.209  24.699  1.00  0.00    -0.200 F 
ENDBRANCH  48  72
BRANCH  60  83
ATOM     83  C   UNL A   1      45.208  27.717  34.416  1.00  0.00     0.064 A 
ATOM     84  C   UNL A   1      46.321  28.567  34.476  1.00  0.00     0.173 A 
ATOM     85  C   UNL A   1      45.267  26.504  35.120  1.00  0.00     0.173 A 
ATOM     86  F   UNL A   1      46.320  29.730  33.808  1.00  0.00    -0.203 F 
ATOM     87  C   UNL A   1      47.455  28.211  35.202  1.00  0.00     0.198 A 
ATOM     88  C   UNL A   1      46.391  26.164  35.868  1.00  0.00     0.198 A 
ATOM     89  F   UNL A   1      44.226  25.659  35.101  1.00  0.00    -0.203 F 
ATOM     90  F   UNL A   1      48.522  29.022  35.216  1.00  0.00    -0.200 F 
ATOM     91  C   UNL A   1      47.485  27.014  35.904  1.00  0.00     0.200 A 
ATOM     92  F   UNL A   1      46.412  25.015  36.558  1.00  0.00    -0.200 F 
ATOM     93  F   UNL A   1      48.572  26.681  36.614  1.00  0.00    -0.200 F 
ENDBRANCH  60  83
ENDBRANCH  34  35
ENDBRANCH  27  29
ENDBRANCH  26  27
ENDBRANCH  25  26
ENDBRANCH  24  25
ENDBRANCH   1  24
TORSDOF 16
ENDMDL
MODEL 3
REMARK VINA RESULT:     -11.3      1.666      7.588
REMARK SMILES O=C(CCCN1C(=O)/C(=C/c2cc(Br)ccc2O)SC1=S)OCCOC(=O)c1ccc(-c2c3nc(c(-c4c(F)c(F)c(F)c(F)c4F)c4ccc([nH]4)c(-c4c(F)c(F)c(F)c(F)c4F)c4nc(c(-c5c(F)c(F)c(F)c(F)c5F)c5ccc2[nH]5)C=C4)C=C3)cc1
REMARK SMILES IDX 22 1 2 2 1 3 3 4 4 5 5 6 6 7 7 8 20 9 8 10 9 11 19 12 21 13
REMARK SMILES IDX 10 14 11 15 12 16 17 17 13 18 16 19 14 20 15 21 18 22 23 24
REMARK SMILES IDX 24 25 25 26 26 27 27 28 28 29 29 30 90 31 30 32 89 33 31 34
REMARK SMILES IDX 32 35 33 36 83 37 34 38 88 39 82 40 84 41 35 42 87 43 81 44
REMARK SMILES IDX 80 45 36 47 68 48 48 49 67 50 49 51 52 52 66 53 85 54 50 55
REMARK SMILES IDX 51 56 65 58 86 59 53 60 37 61 38 62 46 63 39 64 40 65 44 66
REMARK SMILES IDX 47 67 41 68 42 69 45 70 43 71 69 72 70 73 78 74 71 75 72 76
REMARK SMILES IDX 76 77 79 78 73 79 74 80 77 81 75 82 54 83 55 84 63 85 56 86
REMARK SMILES IDX 57 87 61 88 64 89 58 90 59 91 62 92 60 93
REMARK H PARENT 18 23 84 46 52 57
REMARK Flexibility Score: inf
ROOT
ATOM      1  O   UNL A   1      35.254  18.968  24.919  1.00  0.00    -0.462 OA
ENDROOT
BRANCH   1   2
ATOM      2  C   UNL A   1      33.935  18.989  24.611  1.00  0.00     0.305 C 
ATOM      3  O   UNL A   1      33.286  17.947  24.582  1.00  0.00    -0.252 OA
BRANCH   2   4
ATOM      4  C   UNL A   1      33.305  20.302  24.194  1.00  0.00     0.124 C 
BRANCH   4   5
ATOM      5  C   UNL A   1      32.471  20.961  25.289  1.00  0.00     0.034 C 
BRANCH   5   6
ATOM      6  C   UNL A   1      33.243  21.872  26.259  1.00  0.00     0.128 C 
BRANCH   6   7
ATOM      7  N   UNL A   1      33.172  23.324  26.016  1.00  0.00    -0.293 N 
ATOM      8  C   UNL A   1      32.165  24.087  26.589  1.00  0.00     0.266 C 
ATOM      9  C   UNL A   1      34.155  24.041  25.355  1.00  0.00     0.148 C 
ATOM     10  O   UNL A   1      31.304  23.692  27.361  1.00  0.00    -0.268 OA
ATOM     11  C   UNL A   1      32.263  25.502  26.135  1.00  0.00     0.081 C 
ATOM     12  S   UNL A   1      33.660  25.717  25.167  1.00  0.00    -0.054 SA
ATOM     13  S   UNL A   1      35.615  23.498  24.754  1.00  0.00    -0.052 S 
ATOM     14  C   UNL A   1      31.331  26.415  26.439  1.00  0.00     0.033 C 
BRANCH  14  15
ATOM     15  C   UNL A   1      31.293  27.782  25.903  1.00  0.00     0.019 A 
ATOM     16  C   UNL A   1      30.732  28.039  24.646  1.00  0.00     0.027 A 
ATOM     17  C   UNL A   1      31.805  28.851  26.653  1.00  0.00     0.122 A 
ATOM     18  C   UNL A   1      30.690  29.347  24.160  1.00  0.00     0.018 A 
ATOM     19  C   UNL A   1      31.764  30.157  26.164  1.00  0.00     0.048 A 
ATOM     20  Br  UNL A   1      29.926  29.695  22.465  1.00  0.00    -0.051 Br
ATOM     21  C   UNL A   1      31.203  30.404  24.911  1.00  0.00     0.019 A 
BRANCH  17  22
ATOM     22  O   UNL A   1      32.347  28.602  27.888  1.00  0.00    -0.507 OA
ATOM     23  H   UNL A   1      33.167  28.156  27.957  1.00  0.00     0.293 HD
ENDBRANCH  17  22
ENDBRANCH  14  15
ENDBRANCH   6   7
ENDBRANCH   5   6
ENDBRANCH   4   5
ENDBRANCH   2   4
ENDBRANCH   1   2
BRANCH   1  24
ATOM     24  C   UNL A   1      36.055  20.163  24.974  1.00  0.00     0.274 C 
BRANCH  24  25
ATOM     25  C   UNL A   1      37.556  19.878  25.001  1.00  0.00     0.275 C 
BRANCH  25  26
ATOM     26  O   UNL A   1      38.276  21.044  25.428  1.00  0.00    -0.458 OA
BRANCH  26  27
ATOM     27  C   UNL A   1      39.397  20.769  26.145  1.00  0.00     0.338 C 
ATOM     28  O   UNL A   1      39.938  19.689  26.265  1.00  0.00    -0.246 OA
BRANCH  27  29
ATOM     29  C   UNL A   1      39.995  22.030  26.633  1.00  0.00     0.060 A 
ATOM     30  C   UNL A   1      39.459  23.224  26.136  1.00  0.00     0.016 A 
ATOM     31  C   UNL A   1      41.053  22.056  27.546  1.00  0.00     0.016 A 
ATOM     32  C   UNL A   1      40.006  24.448  26.517  1.00  0.00     0.010 A 
ATOM     33  C   UNL A   1      41.606  23.287  27.921  1.00  0.00     0.010 A 
ATOM     34  C   UNL A   1      41.102  24.485  27.387  1.00  0.00    -0.014 A 
BRANCH  34  35
ATOM     35  C   UNL A   1      41.784  25.775  27.653  1.00  0.00     0.031 A 
ATOM     36  C   UNL A   1      41.045  26.855  28.391  1.00  0.00     0.074 A 
ATOM     37  C   UNL A   1      43.052  25.976  27.252  1.00  0.00     0.049 A 
ATOM     38  N   UNL A   1      41.437  28.064  28.703  1.00  0.00    -0.248 NA
ATOM     39  C   UNL A   1      39.682  26.530  28.840  1.00  0.00     0.031 C 
ATOM     40  C   UNL A   1      43.881  24.995  26.554  1.00  0.00     0.029 A 
ATOM     41  N   UNL A   1      43.858  27.083  27.363  1.00  0.00    -0.354 N 
ATOM     42  C   UNL A   1      40.372  28.644  29.377  1.00  0.00     0.074 A 
ATOM     43  C   UNL A   1      39.308  27.665  29.416  1.00  0.00     0.031 C 
ATOM     44  C   UNL A   1      45.072  25.553  26.276  1.00  0.00     0.029 A 
ATOM     45  C   UNL A   1      45.078  26.937  26.750  1.00  0.00     0.049 A 
ATOM     46  H   UNL A   1      43.586  27.902  27.836  1.00  0.00     0.167 HD
ATOM     47  C   UNL A   1      40.294  29.882  29.921  1.00  0.00     0.037 A 
ATOM     48  C   UNL A   1      46.071  27.829  26.568  1.00  0.00     0.037 A 
ATOM     49  C   UNL A   1      41.357  30.850  29.895  1.00  0.00     0.049 A 
ATOM     50  C   UNL A   1      45.924  29.225  27.120  1.00  0.00     0.074 A 
ATOM     51  C   UNL A   1      41.392  32.105  30.478  1.00  0.00     0.029 A 
ATOM     52  N   UNL A   1      42.564  30.679  29.237  1.00  0.00    -0.354 N 
ATOM     53  N   UNL A   1      44.942  29.742  27.818  1.00  0.00    -0.248 NA
ATOM     54  C   UNL A   1      47.026  30.165  26.856  1.00  0.00     0.031 C 
ATOM     55  C   UNL A   1      42.597  32.719  30.121  1.00  0.00     0.029 A 
ATOM     56  C   UNL A   1      43.332  31.826  29.358  1.00  0.00     0.049 A 
ATOM     57  H   UNL A   1      42.836  29.865  28.755  1.00  0.00     0.167 HD
ATOM     58  C   UNL A   1      45.314  31.051  28.092  1.00  0.00     0.074 A 
ATOM     59  C   UNL A   1      46.621  31.248  27.504  1.00  0.00     0.031 C 
ATOM     60  C   UNL A   1      44.633  32.008  28.769  1.00  0.00     0.037 A 
BRANCH  47  61
ATOM     61  C   UNL A   1      39.006  30.282  30.575  1.00  0.00     0.064 A 
ATOM     62  C   UNL A   1      38.807  30.142  31.956  1.00  0.00     0.173 A 
ATOM     63  C   UNL A   1      37.993  30.890  29.819  1.00  0.00     0.173 A 
ATOM     64  F   UNL A   1      39.743  29.558  32.718  1.00  0.00    -0.203 F 
ATOM     65  C   UNL A   1      37.633  30.591  32.556  1.00  0.00     0.198 A 
ATOM     66  C   UNL A   1      36.832  31.358  30.426  1.00  0.00     0.198 A 
ATOM     67  F   UNL A   1      38.140  31.049  28.495  1.00  0.00    -0.203 F 
ATOM     68  F   UNL A   1      37.451  30.429  33.874  1.00  0.00    -0.200 F 
ATOM     69  C   UNL A   1      36.652  31.207  31.793  1.00  0.00     0.200 A 
ATOM     70  F   UNL A   1      35.889  31.963  29.689  1.00  0.00    -0.200 F 
ATOM     71  F   UNL A   1      35.530  31.655  32.374  1.00  0.00    -0.200 F 
ENDBRANCH  47  61
BRANCH  48  72
ATOM     72  C   UNL A   1      47.279  27.455  25.785  1.00  0.00     0.064 A 
ATOM     73  C   UNL A   1      48.430  26.961  26.413  1.00  0.00     0.173 A 
ATOM     74  C   UNL A   1      47.323  27.641  24.395  1.00  0.00     0.173 A 
ATOM     75  F   UNL A   1      48.448  26.797  27.744  1.00  0.00    -0.203 F 
ATOM     76  C   UNL A   1      49.589  26.695  25.686  1.00  0.00     0.198 A 
ATOM     77  C   UNL A   1      48.471  27.345  23.665  1.00  0.00     0.198 A 
ATOM     78  F   UNL A   1      46.252  28.119  23.746  1.00  0.00    -0.203 F 
ATOM     79  F   UNL A   1      50.695  26.285  26.320  1.00  0.00    -0.200 F 
ATOM     80  C   UNL A   1      49.608  26.883  24.312  1.00  0.00     0.200 A 
ATOM     81  F   UNL A   1      48.483  27.522  22.336  1.00  0.00    -0.200 F 
ATOM     82  F   UNL A   1      50.725  26.636  23.614  1.00  0.00    -0.200 F 
ENDBRANCH  48  72
BRANCH  60  83
ATOM     83  C   UNL A   1      45.285  33.351  28.921  1.00  0.00     0.064 A 
ATOM     84  C   UNL A   1      46.175  33.616  29.971  1.00  0.00     0.173 A 
ATOM     85  C   UNL A   1      45.066  34.362  27.973  1.00  0.00     0.173 A 
ATOM     86  F   UNL A   1      46.405  32.687  30.911  1.00  0.00    -0.203 F 
ATOM     87  C   UNL A   1      46.811  34.850  30.075  1.00  0.00     0.198 A 
ATOM     88  C   UNL A   1      45.725  35.584  28.064  1.00  0.00     0.198 A 
ATOM     89  F   UNL A   1      44.230  34.156  26.944  1.00  0.00    -0.203 F 
ATOM     90  F   UNL A   1      47.630  35.095  31.108  1.00  0.00    -0.200 F 
ATOM     91  C   UNL A   1      46.592  35.830  29.117  1.00  0.00     0.200 A 
ATOM     92  F   UNL A   1      45.525  36.524  27.129  1.00  0.00    -0.200 F 
ATOM     93  F   UNL A   1      47.217  37.012  29.212  1.00  0.00    -0.200 F 
ENDBRANCH  60  83
ENDBRANCH  34  35
ENDBRANCH  27  29
ENDBRANCH  26  27
ENDBRANCH  25  26
ENDBRANCH  24  25
ENDBRANCH   1  24
TORSDOF 16
ENDMDL
