MODEL 1
REMARK VINA RESULT:     -11.9      0.000      0.000
REMARK SMILES C[NH2+][C@]1(C(=O)OCCOC(=O)c2ccc(-c3c4nc(c(-c5c(F)c(F)c(F)c(F)c5F)c5ccc([nH]5)c(-c5c(F)c(F)c(F)c(F)c5F)c5nc(c(-c6c(F)c(F)c(F)c(F)c6F)c6ccc3[nH]6)C=C5)C=C4)cc2)CCC[C@H](Sc2n[nH]c(=O)n2C)C1
REMARK SMILES IDX 7 1 6 2 4 3 5 4 3 5 75 6 87 7 76 8 78 9 77 10 2 11 1 12
REMARK SMILES IDX 79 15 80 16 81 17 85 18 82 19 83 20 86 21 84 23 8 24 9 25
REMARK SMILES IDX 10 26 11 27 12 28 13 29 74 30 14 31 73 32 15 33 16 34 17 35
REMARK SMILES IDX 67 36 18 37 72 38 66 39 68 40 19 41 71 42 65 43 64 44 20 46
REMARK SMILES IDX 52 47 32 48 51 49 33 50 36 51 50 52 69 53 34 54 35 55 49 57
REMARK SMILES IDX 70 58 37 59 21 60 22 61 30 62 23 63 24 64 28 65 31 66 25 67
REMARK SMILES IDX 26 68 29 69 27 70 53 71 54 72 62 73 55 74 56 75 60 76 63 77
REMARK SMILES IDX 57 78 58 79 61 80 59 81 38 82 39 83 47 84 40 85 41 86 45 87
REMARK SMILES IDX 48 88 42 89 43 90 46 91 44 92
REMARK H PARENT 2 13 2 14 82 22 68 45 36 56
REMARK Flexibility Score: inf
ROOT
ATOM      1  C   UNL A   1      36.593  22.595  23.651  1.00  0.00     0.274 C 
ENDROOT
BRANCH   1   2
ATOM      2  O   UNL A   1      35.376  23.079  24.250  1.00  0.00    -0.457 OA
BRANCH   2   3
ATOM      3  C   UNL A   1      34.473  23.655  23.406  1.00  0.00     0.368 C 
ATOM      4  O   UNL A   1      34.360  23.339  22.225  1.00  0.00    -0.245 OA
BRANCH   3   5
ATOM      5  C   UNL A   1      33.657  24.802  24.090  1.00  0.00     0.195 C 
ATOM      6  C   UNL A   1      34.366  25.315  25.375  1.00  0.00     0.081 C 
ATOM      7  C   UNL A   1      33.581  26.003  23.104  1.00  0.00     0.096 C 
ATOM      8  C   UNL A   1      33.657  26.503  26.019  1.00  0.00     0.008 C 
ATOM      9  C   UNL A   1      32.938  27.296  23.676  1.00  0.00     0.061 C 
ATOM     10  C   UNL A   1      33.564  27.660  25.034  1.00  0.00     0.015 C 
BRANCH   5  11
ATOM     11  N   UNL A   1      32.301  24.320  24.522  1.00  0.00    -0.335 N 
ATOM     12  C   UNL A   1      31.531  23.560  23.543  1.00  0.00     0.331 C 
ATOM     13  H   UNL A   1      32.431  23.727  25.341  1.00  0.00     0.347 HD
ATOM     14  H   UNL A   1      31.757  25.167  24.691  1.00  0.00     0.347 HD
ENDBRANCH   5  11
BRANCH   9  15
ATOM     15  S   UNL A   1      31.122  27.071  23.660  1.00  0.00    -0.082 SA
BRANCH  15  16
ATOM     16  C   UNL A   1      30.502  28.420  22.795  1.00  0.00     0.191 A 
ATOM     17  N   UNL A   1      31.210  29.282  22.128  1.00  0.00    -0.146 NA
ATOM     18  N   UNL A   1      29.164  28.626  22.765  1.00  0.00    -0.273 N 
ATOM     19  N   UNL A   1      30.272  30.143  21.626  1.00  0.00    -0.226 N 
ATOM     20  C   UNL A   1      28.994  29.748  22.000  1.00  0.00     0.343 A 
ATOM     21  C   UNL A   1      28.068  27.876  23.336  1.00  0.00     0.157 C 
ATOM     22  H   UNL A   1      30.475  30.933  21.074  1.00  0.00     0.195 HD
ATOM     23  O   UNL A   1      27.950  30.297  21.695  1.00  0.00    -0.246 OA
ENDBRANCH  15  16
ENDBRANCH   9  15
ENDBRANCH   3   5
ENDBRANCH   2   3
ENDBRANCH   1   2
BRANCH   1  24
ATOM     24  C   UNL A   1      37.131  21.399  24.435  1.00  0.00     0.275 C 
BRANCH  24  25
ATOM     25  O   UNL A   1      37.504  21.773  25.776  1.00  0.00    -0.458 OA
BRANCH  25  26
ATOM     26  C   UNL A   1      38.794  21.513  26.102  1.00  0.00     0.338 C 
ATOM     27  O   UNL A   1      39.408  20.475  25.925  1.00  0.00    -0.246 OA
BRANCH  26  28
ATOM     28  C   UNL A   1      39.432  22.727  26.634  1.00  0.00     0.060 A 
ATOM     29  C   UNL A   1      39.024  23.957  26.118  1.00  0.00     0.016 A 
ATOM     30  C   UNL A   1      40.487  22.667  27.545  1.00  0.00     0.016 A 
ATOM     31  C   UNL A   1      39.640  25.137  26.511  1.00  0.00     0.010 A 
ATOM     32  C   UNL A   1      41.130  23.852  27.925  1.00  0.00     0.010 A 
ATOM     33  C   UNL A   1      40.712  25.089  27.402  1.00  0.00    -0.014 A 
BRANCH  33  34
ATOM     34  C   UNL A   1      41.439  26.340  27.700  1.00  0.00     0.031 A 
ATOM     35  C   UNL A   1      40.753  27.421  28.479  1.00  0.00     0.074 A 
ATOM     36  C   UNL A   1      42.728  26.470  27.341  1.00  0.00     0.049 A 
ATOM     37  N   UNL A   1      41.185  28.613  28.799  1.00  0.00    -0.248 NA
ATOM     38  C   UNL A   1      39.404  27.111  28.976  1.00  0.00     0.031 C 
ATOM     39  C   UNL A   1      43.524  25.441  26.673  1.00  0.00     0.029 A 
ATOM     40  N   UNL A   1      43.593  27.523  27.489  1.00  0.00    -0.354 N 
ATOM     41  C   UNL A   1      40.160  29.200  29.529  1.00  0.00     0.074 A 
ATOM     42  C   UNL A   1      39.080  28.238  29.595  1.00  0.00     0.031 C 
ATOM     43  C   UNL A   1      44.757  25.924  26.448  1.00  0.00     0.029 A 
ATOM     44  C   UNL A   1      44.820  27.306  26.915  1.00  0.00     0.049 A 
ATOM     45  H   UNL A   1      43.355  28.356  27.959  1.00  0.00     0.167 HD
ATOM     46  C   UNL A   1      40.128  30.431  30.090  1.00  0.00     0.037 A 
ATOM     47  C   UNL A   1      45.860  28.146  26.755  1.00  0.00     0.037 A 
ATOM     48  C   UNL A   1      41.203  31.385  30.008  1.00  0.00     0.049 A 
ATOM     49  C   UNL A   1      45.754  29.551  27.286  1.00  0.00     0.074 A 
ATOM     50  C   UNL A   1      41.261  32.670  30.518  1.00  0.00     0.029 A 
ATOM     51  N   UNL A   1      42.411  31.155  29.364  1.00  0.00    -0.354 N 
ATOM     52  N   UNL A   1      44.775  30.114  27.952  1.00  0.00    -0.248 NA
ATOM     53  C   UNL A   1      46.897  30.442  27.037  1.00  0.00     0.031 C 
ATOM     54  C   UNL A   1      42.484  33.235  30.139  1.00  0.00     0.029 A 
ATOM     55  C   UNL A   1      43.211  32.284  29.441  1.00  0.00     0.049 A 
ATOM     56  H   UNL A   1      42.663  30.314  28.918  1.00  0.00     0.167 HD
ATOM     57  C   UNL A   1      45.191  31.410  28.225  1.00  0.00     0.074 A 
ATOM     58  C   UNL A   1      46.519  31.548  27.662  1.00  0.00     0.031 C 
ATOM     59  C   UNL A   1      44.534  32.399  28.880  1.00  0.00     0.037 A 
BRANCH  46  60
ATOM     60  C   UNL A   1      38.869  30.833  30.798  1.00  0.00     0.064 A 
ATOM     61  C   UNL A   1      38.727  30.704  32.187  1.00  0.00     0.173 A 
ATOM     62  C   UNL A   1      37.793  31.370  30.074  1.00  0.00     0.173 A 
ATOM     63  F   UNL A   1      39.720  30.180  32.922  1.00  0.00    -0.203 F 
ATOM     64  C   UNL A   1      37.545  31.078  32.824  1.00  0.00     0.198 A 
ATOM     65  C   UNL A   1      36.623  31.766  30.717  1.00  0.00     0.198 A 
ATOM     66  F   UNL A   1      37.877  31.514  28.743  1.00  0.00    -0.203 F 
ATOM     67  F   UNL A   1      37.415  30.904  34.146  1.00  0.00    -0.200 F 
ATOM     68  C   UNL A   1      36.498  31.613  32.089  1.00  0.00     0.200 A 
ATOM     69  F   UNL A   1      35.616  32.292  30.007  1.00  0.00    -0.200 F 
ATOM     70  F   UNL A   1      35.362  31.975  32.704  1.00  0.00    -0.200 F 
ENDBRANCH  46  60
BRANCH  47  71
ATOM     71  C   UNL A   1      47.071  27.697  26.022  1.00  0.00     0.064 A 
ATOM     72  C   UNL A   1      47.133  27.742  24.623  1.00  0.00     0.173 A 
ATOM     73  C   UNL A   1      48.186  27.191  26.708  1.00  0.00     0.173 A 
ATOM     74  F   UNL A   1      46.083  28.192  23.922  1.00  0.00    -0.203 F 
ATOM     75  C   UNL A   1      48.256  27.282  23.937  1.00  0.00     0.198 A 
ATOM     76  C   UNL A   1      49.320  26.759  26.024  1.00  0.00     0.198 A 
ATOM     77  F   UNL A   1      48.178  27.121  28.048  1.00  0.00    -0.203 F 
ATOM     78  F   UNL A   1      48.270  27.292  22.597  1.00  0.00    -0.200 F 
ATOM     79  C   UNL A   1      49.350  26.797  24.638  1.00  0.00     0.200 A 
ATOM     80  F   UNL A   1      50.379  26.302  26.706  1.00  0.00    -0.200 F 
ATOM     81  F   UNL A   1      50.431  26.357  23.978  1.00  0.00    -0.200 F 
ENDBRANCH  47  71
BRANCH  59  82
ATOM     82  C   UNL A   1      45.255  33.704  29.058  1.00  0.00     0.064 A 
ATOM     83  C   UNL A   1      46.079  33.945  30.167  1.00  0.00     0.173 A 
ATOM     84  C   UNL A   1      45.153  34.708  28.083  1.00  0.00     0.173 A 
ATOM     85  F   UNL A   1      46.196  33.022  31.134  1.00  0.00    -0.203 F 
ATOM     86  C   UNL A   1      46.756  35.153  30.306  1.00  0.00     0.198 A 
ATOM     87  C   UNL A   1      45.855  35.903  28.211  1.00  0.00     0.198 A 
ATOM     88  F   UNL A   1      44.384  34.524  27.001  1.00  0.00    -0.203 F 
ATOM     89  F   UNL A   1      47.501  35.380  31.396  1.00  0.00    -0.200 F 
ATOM     90  C   UNL A   1      46.651  36.127  29.323  1.00  0.00     0.200 A 
ATOM     91  F   UNL A   1      45.762  36.838  27.254  1.00  0.00    -0.200 F 
ATOM     92  F   UNL A   1      47.309  37.287  29.455  1.00  0.00    -0.200 F 
ENDBRANCH  59  82
ENDBRANCH  33  34
ENDBRANCH  26  28
ENDBRANCH  25  26
ENDBRANCH  24  25
ENDBRANCH   1  24
TORSDOF 14
ENDMDL
MODEL 2
REMARK VINA RESULT:     -11.9      4.496      9.790
REMARK SMILES C[NH2+][C@]1(C(=O)OCCOC(=O)c2ccc(-c3c4nc(c(-c5c(F)c(F)c(F)c(F)c5F)c5ccc([nH]5)c(-c5c(F)c(F)c(F)c(F)c5F)c5nc(c(-c6c(F)c(F)c(F)c(F)c6F)c6ccc3[nH]6)C=C5)C=C4)cc2)CCC[C@H](Sc2n[nH]c(=O)n2C)C1
REMARK SMILES IDX 7 1 6 2 4 3 5 4 3 5 75 6 87 7 76 8 78 9 77 10 2 11 1 12
REMARK SMILES IDX 79 15 80 16 81 17 85 18 82 19 83 20 86 21 84 23 8 24 9 25
REMARK SMILES IDX 10 26 11 27 12 28 13 29 74 30 14 31 73 32 15 33 16 34 17 35
REMARK SMILES IDX 67 36 18 37 72 38 66 39 68 40 19 41 71 42 65 43 64 44 20 46
REMARK SMILES IDX 52 47 32 48 51 49 33 50 36 51 50 52 69 53 34 54 35 55 49 57
REMARK SMILES IDX 70 58 37 59 21 60 22 61 30 62 23 63 24 64 28 65 31 66 25 67
REMARK SMILES IDX 26 68 29 69 27 70 53 71 54 72 62 73 55 74 56 75 60 76 63 77
REMARK SMILES IDX 57 78 58 79 61 80 59 81 38 82 39 83 47 84 40 85 41 86 45 87
REMARK SMILES IDX 48 88 42 89 43 90 46 91 44 92
REMARK H PARENT 2 13 2 14 82 22 68 45 36 56
REMARK Flexibility Score: inf
ROOT
ATOM      1  C   UNL A   1      31.440  29.597  24.909  1.00  0.00     0.274 C 
ENDROOT
BRANCH   1   2
ATOM      2  O   UNL A   1      32.462  28.617  24.653  1.00  0.00    -0.457 OA
BRANCH   2   3
ATOM      3  C   UNL A   1      32.310  27.862  23.528  1.00  0.00     0.368 C 
ATOM      4  O   UNL A   1      31.951  28.328  22.450  1.00  0.00    -0.245 OA
BRANCH   3   5
ATOM      5  C   UNL A   1      32.573  26.341  23.784  1.00  0.00     0.195 C 
ATOM      6  C   UNL A   1      32.565  25.532  22.456  1.00  0.00     0.081 C 
ATOM      7  C   UNL A   1      33.995  26.187  24.398  1.00  0.00     0.096 C 
ATOM      8  C   UNL A   1      32.919  24.060  22.646  1.00  0.00     0.008 C 
ATOM      9  C   UNL A   1      34.491  24.726  24.575  1.00  0.00     0.061 C 
ATOM     10  C   UNL A   1      34.299  23.925  23.274  1.00  0.00     0.015 C 
BRANCH   5  11
ATOM     11  N   UNL A   1      31.501  25.742  24.647  1.00  0.00    -0.335 N 
ATOM     12  C   UNL A   1      30.120  25.961  24.228  1.00  0.00     0.331 C 
ATOM     13  H   UNL A   1      31.658  24.735  24.681  1.00  0.00     0.347 HD
ATOM     14  H   UNL A   1      31.585  26.217  25.547  1.00  0.00     0.347 HD
ENDBRANCH   5  11
BRANCH   9  15
ATOM     15  S   UNL A   1      33.689  24.040  26.070  1.00  0.00    -0.082 SA
BRANCH  15  16
ATOM     16  C   UNL A   1      33.706  22.337  25.857  1.00  0.00     0.191 A 
ATOM     17  N   UNL A   1      34.749  21.569  25.971  1.00  0.00    -0.146 NA
ATOM     18  N   UNL A   1      32.549  21.697  25.562  1.00  0.00    -0.273 N 
ATOM     19  N   UNL A   1      34.253  20.319  25.717  1.00  0.00    -0.226 N 
ATOM     20  C   UNL A   1      32.886  20.374  25.471  1.00  0.00     0.343 A 
ATOM     21  C   UNL A   1      31.199  22.189  25.399  1.00  0.00     0.157 C 
ATOM     22  H   UNL A   1      34.790  19.494  25.711  1.00  0.00     0.195 HD
ATOM     23  O   UNL A   1      32.157  19.428  25.232  1.00  0.00    -0.246 OA
ENDBRANCH  15  16
ENDBRANCH   9  15
ENDBRANCH   3   5
ENDBRANCH   2   3
ENDBRANCH   1   2
BRANCH   1  24
ATOM     24  C   UNL A   1      31.767  30.390  26.174  1.00  0.00     0.275 C 
BRANCH  24  25
ATOM     25  O   UNL A   1      33.184  30.389  26.443  1.00  0.00    -0.458 OA
BRANCH  25  26
ATOM     26  C   UNL A   1      33.617  31.416  27.213  1.00  0.00     0.338 C 
ATOM     27  O   UNL A   1      33.026  32.450  27.470  1.00  0.00    -0.246 OA
BRANCH  26  28
ATOM     28  C   UNL A   1      34.916  31.079  27.816  1.00  0.00     0.060 A 
ATOM     29  C   UNL A   1      35.098  29.777  28.283  1.00  0.00     0.016 A 
ATOM     30  C   UNL A   1      35.906  32.040  28.022  1.00  0.00     0.016 A 
ATOM     31  C   UNL A   1      36.264  29.410  28.940  1.00  0.00     0.010 A 
ATOM     32  C   UNL A   1      37.074  31.681  28.707  1.00  0.00     0.010 A 
ATOM     33  C   UNL A   1      37.252  30.366  29.174  1.00  0.00    -0.014 A 
BRANCH  33  34
ATOM     34  C   UNL A   1      38.423  29.987  29.992  1.00  0.00     0.031 A 
ATOM     35  C   UNL A   1      39.437  29.040  29.428  1.00  0.00     0.074 A 
ATOM     36  C   UNL A   1      38.610  30.550  31.198  1.00  0.00     0.049 A 
ATOM     37  N   UNL A   1      40.503  28.534  29.992  1.00  0.00    -0.248 NA
ATOM     38  C   UNL A   1      39.232  28.617  28.034  1.00  0.00     0.031 C 
ATOM     39  C   UNL A   1      37.741  31.561  31.799  1.00  0.00     0.029 A 
ATOM     40  N   UNL A   1      39.592  30.349  32.132  1.00  0.00    -0.354 N 
ATOM     41  C   UNL A   1      41.092  27.729  29.028  1.00  0.00     0.074 A 
ATOM     42  C   UNL A   1      40.260  27.803  27.845  1.00  0.00     0.031 C 
ATOM     43  C   UNL A   1      38.219  31.877  33.014  1.00  0.00     0.029 A 
ATOM     44  C   UNL A   1      39.397  31.058  33.291  1.00  0.00     0.049 A 
ATOM     45  H   UNL A   1      40.363  29.753  31.987  1.00  0.00     0.167 HD
ATOM     46  C   UNL A   1      42.224  26.993  29.126  1.00  0.00     0.037 A 
ATOM     47  C   UNL A   1      40.074  31.018  34.453  1.00  0.00     0.037 A 
ATOM     48  C   UNL A   1      43.038  26.916  30.312  1.00  0.00     0.049 A 
ATOM     49  C   UNL A   1      41.263  30.102  34.577  1.00  0.00     0.074 A 
ATOM     50  C   UNL A   1      44.189  26.180  30.525  1.00  0.00     0.029 A 
ATOM     51  N   UNL A   1      42.776  27.600  31.491  1.00  0.00    -0.354 N 
ATOM     52  N   UNL A   1      41.804  29.320  33.674  1.00  0.00    -0.248 NA
ATOM     53  C   UNL A   1      41.933  30.058  35.883  1.00  0.00     0.031 C 
ATOM     54  C   UNL A   1      44.596  26.379  31.849  1.00  0.00     0.029 A 
ATOM     55  C   UNL A   1      43.730  27.282  32.445  1.00  0.00     0.049 A 
ATOM     56  H   UNL A   1      42.023  28.220  31.630  1.00  0.00     0.167 HD
ATOM     57  C   UNL A   1      42.889  28.714  34.291  1.00  0.00     0.074 A 
ATOM     58  C   UNL A   1      42.938  29.228  35.645  1.00  0.00     0.031 C 
ATOM     59  C   UNL A   1      43.765  27.811  33.785  1.00  0.00     0.037 A 
BRANCH  46  60
ATOM     60  C   UNL A   1      42.619  26.175  27.934  1.00  0.00     0.064 A 
ATOM     61  C   UNL A   1      42.079  24.902  27.698  1.00  0.00     0.173 A 
ATOM     62  C   UNL A   1      43.542  26.680  27.005  1.00  0.00     0.173 A 
ATOM     63  F   UNL A   1      41.206  24.367  28.565  1.00  0.00    -0.203 F 
ATOM     64  C   UNL A   1      42.465  24.156  26.586  1.00  0.00     0.198 A 
ATOM     65  C   UNL A   1      43.906  25.942  25.882  1.00  0.00     0.198 A 
ATOM     66  F   UNL A   1      44.087  27.892  27.185  1.00  0.00    -0.203 F 
ATOM     67  F   UNL A   1      41.971  22.924  26.404  1.00  0.00    -0.200 F 
ATOM     68  C   UNL A   1      43.373  24.679  25.678  1.00  0.00     0.200 A 
ATOM     69  F   UNL A   1      44.776  26.453  25.000  1.00  0.00    -0.200 F 
ATOM     70  F   UNL A   1      43.742  23.961  24.607  1.00  0.00    -0.200 F 
ENDBRANCH  46  60
BRANCH  47  71
ATOM     71  C   UNL A   1      39.618  31.835  35.607  1.00  0.00     0.064 A 
ATOM     72  C   UNL A   1      38.613  31.378  36.470  1.00  0.00     0.173 A 
ATOM     73  C   UNL A   1      40.165  33.103  35.858  1.00  0.00     0.173 A 
ATOM     74  F   UNL A   1      38.040  30.185  36.256  1.00  0.00    -0.203 F 
ATOM     75  C   UNL A   1      38.160  32.164  37.527  1.00  0.00     0.198 A 
ATOM     76  C   UNL A   1      39.733  33.876  36.932  1.00  0.00     0.198 A 
ATOM     77  F   UNL A   1      41.127  33.591  35.060  1.00  0.00    -0.203 F 
ATOM     78  F   UNL A   1      37.163  31.723  38.308  1.00  0.00    -0.200 F 
ATOM     79  C   UNL A   1      38.724  33.410  37.762  1.00  0.00     0.200 A 
ATOM     80  F   UNL A   1      40.289  35.074  37.161  1.00  0.00    -0.200 F 
ATOM     81  F   UNL A   1      38.289  34.164  38.780  1.00  0.00    -0.200 F 
ENDBRANCH  47  71
BRANCH  59  82
ATOM     82  C   UNL A   1      44.875  27.350  34.686  1.00  0.00     0.064 A 
ATOM     83  C   UNL A   1      44.747  26.204  35.485  1.00  0.00     0.173 A 
ATOM     84  C   UNL A   1      46.096  28.039  34.715  1.00  0.00     0.173 A 
ATOM     85  F   UNL A   1      43.593  25.520  35.503  1.00  0.00    -0.203 F 
ATOM     86  C   UNL A   1      45.793  25.779  36.299  1.00  0.00     0.198 A 
ATOM     87  C   UNL A   1      47.151  27.595  35.508  1.00  0.00     0.198 A 
ATOM     88  F   UNL A   1      46.272  29.136  33.965  1.00  0.00    -0.203 F 
ATOM     89  F   UNL A   1      45.634  24.709  37.089  1.00  0.00    -0.200 F 
ATOM     90  C   UNL A   1      46.997  26.470  36.303  1.00  0.00     0.200 A 
ATOM     91  F   UNL A   1      48.317  28.255  35.500  1.00  0.00    -0.200 F 
ATOM     92  F   UNL A   1      48.006  26.055  37.081  1.00  0.00    -0.200 F 
ENDBRANCH  59  82
ENDBRANCH  33  34
ENDBRANCH  26  28
ENDBRANCH  25  26
ENDBRANCH  24  25
ENDBRANCH   1  24
TORSDOF 14
ENDMDL
MODEL 3
REMARK VINA RESULT:     -11.8      1.079      2.072
REMARK SMILES C[NH2+][C@]1(C(=O)OCCOC(=O)c2ccc(-c3c4nc(c(-c5c(F)c(F)c(F)c(F)c5F)c5ccc([nH]5)c(-c5c(F)c(F)c(F)c(F)c5F)c5nc(c(-c6c(F)c(F)c(F)c(F)c6F)c6ccc3[nH]6)C=C5)C=C4)cc2)CCC[C@H](Sc2n[nH]c(=O)n2C)C1
REMARK SMILES IDX 7 1 6 2 4 3 5 4 3 5 75 6 87 7 76 8 78 9 77 10 2 11 1 12
REMARK SMILES IDX 79 15 80 16 81 17 85 18 82 19 83 20 86 21 84 23 8 24 9 25
REMARK SMILES IDX 10 26 11 27 12 28 13 29 74 30 14 31 73 32 15 33 16 34 17 35
REMARK SMILES IDX 67 36 18 37 72 38 66 39 68 40 19 41 71 42 65 43 64 44 20 46
REMARK SMILES IDX 52 47 32 48 51 49 33 50 36 51 50 52 69 53 34 54 35 55 49 57
REMARK SMILES IDX 70 58 37 59 21 60 22 61 30 62 23 63 24 64 28 65 31 66 25 67
REMARK SMILES IDX 26 68 29 69 27 70 53 71 54 72 62 73 55 74 56 75 60 76 63 77
REMARK SMILES IDX 57 78 58 79 61 80 59 81 38 82 39 83 47 84 40 85 41 86 45 87
REMARK SMILES IDX 48 88 42 89 43 90 46 91 44 92
REMARK H PARENT 2 13 2 14 82 22 68 45 36 56
REMARK Flexibility Score: inf
ROOT
ATOM      1  C   UNL A   1      35.971  20.329  25.018  1.00  0.00     0.274 C 
ENDROOT
BRANCH   1   2
ATOM      2  O   UNL A   1      35.109  21.378  25.499  1.00  0.00    -0.457 OA
BRANCH   2   3
ATOM      3  C   UNL A   1      33.876  21.460  24.924  1.00  0.00     0.368 C 
ATOM      4  O   UNL A   1      33.219  20.476  24.599  1.00  0.00    -0.245 OA
BRANCH   3   5
ATOM      5  C   UNL A   1      33.432  22.939  24.663  1.00  0.00     0.195 C 
ATOM      6  C   UNL A   1      34.562  23.943  25.022  1.00  0.00     0.081 C 
ATOM      7  C   UNL A   1      33.146  23.102  23.142  1.00  0.00     0.096 C 
ATOM      8  C   UNL A   1      34.210  25.390  24.687  1.00  0.00     0.008 C 
ATOM      9  C   UNL A   1      32.842  24.551  22.672  1.00  0.00     0.061 C 
ATOM     10  C   UNL A   1      33.905  25.529  23.202  1.00  0.00     0.015 C 
BRANCH   5  11
ATOM     11  N   UNL A   1      32.254  23.310  25.517  1.00  0.00    -0.335 N 
ATOM     12  C   UNL A   1      32.357  23.017  26.944  1.00  0.00     0.331 C 
ATOM     13  H   UNL A   1      32.104  24.313  25.417  1.00  0.00     0.347 HD
ATOM     14  H   UNL A   1      31.485  22.728  25.181  1.00  0.00     0.347 HD
ENDBRANCH   5  11
BRANCH   9  15
ATOM     15  S   UNL A   1      31.107  24.929  23.115  1.00  0.00    -0.082 SA
BRANCH  15  16
ATOM     16  C   UNL A   1      30.963  26.635  22.981  1.00  0.00     0.191 A 
ATOM     17  N   UNL A   1      30.879  27.303  21.870  1.00  0.00    -0.146 NA
ATOM     18  N   UNL A   1      30.908  27.382  24.109  1.00  0.00    -0.273 N 
ATOM     19  N   UNL A   1      30.777  28.603  22.287  1.00  0.00    -0.226 N 
ATOM     20  C   UNL A   1      30.783  28.674  23.675  1.00  0.00     0.343 A 
ATOM     21  C   UNL A   1      30.928  27.009  25.506  1.00  0.00     0.157 C 
ATOM     22  H   UNL A   1      30.708  29.380  21.687  1.00  0.00     0.195 HD
ATOM     23  O   UNL A   1      30.687  29.686  24.346  1.00  0.00    -0.246 OA
ENDBRANCH  15  16
ENDBRANCH   9  15
ENDBRANCH   3   5
ENDBRANCH   2   3
ENDBRANCH   1   2
BRANCH   1  24
ATOM     24  C   UNL A   1      37.363  20.882  24.714  1.00  0.00     0.275 C 
BRANCH  24  25
ATOM     25  O   UNL A   1      37.834  21.732  25.779  1.00  0.00    -0.458 OA
BRANCH  25  26
ATOM     26  C   UNL A   1      39.091  21.463  26.208  1.00  0.00     0.338 C 
ATOM     27  O   UNL A   1      39.690  20.405  26.129  1.00  0.00    -0.246 OA
BRANCH  26  28
ATOM     28  C   UNL A   1      39.720  22.689  26.724  1.00  0.00     0.060 A 
ATOM     29  C   UNL A   1      39.332  23.905  26.161  1.00  0.00     0.016 A 
ATOM     30  C   UNL A   1      40.748  22.651  27.665  1.00  0.00     0.016 A 
ATOM     31  C   UNL A   1      39.943  25.093  26.536  1.00  0.00     0.010 A 
ATOM     32  C   UNL A   1      41.386  23.844  28.029  1.00  0.00     0.010 A 
ATOM     33  C   UNL A   1      40.989  25.067  27.458  1.00  0.00    -0.014 A 
BRANCH  33  34
ATOM     34  C   UNL A   1      41.714  26.324  27.741  1.00  0.00     0.031 A 
ATOM     35  C   UNL A   1      41.041  27.395  28.544  1.00  0.00     0.074 A 
ATOM     36  C   UNL A   1      42.990  26.467  27.345  1.00  0.00     0.049 A 
ATOM     37  N   UNL A   1      41.471  28.590  28.857  1.00  0.00    -0.248 NA
ATOM     38  C   UNL A   1      39.710  27.071  29.079  1.00  0.00     0.031 C 
ATOM     39  C   UNL A   1      43.775  25.448  26.649  1.00  0.00     0.029 A 
ATOM     40  N   UNL A   1      43.849  27.527  27.472  1.00  0.00    -0.354 N 
ATOM     41  C   UNL A   1      40.464  29.164  29.619  1.00  0.00     0.074 A 
ATOM     42  C   UNL A   1      39.394  28.192  29.712  1.00  0.00     0.031 C 
ATOM     43  C   UNL A   1      44.997  25.942  26.391  1.00  0.00     0.029 A 
ATOM     44  C   UNL A   1      45.061  27.323  26.862  1.00  0.00     0.049 A 
ATOM     45  H   UNL A   1      43.619  28.355  27.953  1.00  0.00     0.167 HD
ATOM     46  C   UNL A   1      40.437  30.393  30.186  1.00  0.00     0.037 A 
ATOM     47  C   UNL A   1      46.088  28.174  26.675  1.00  0.00     0.037 A 
ATOM     48  C   UNL A   1      41.501  31.357  30.077  1.00  0.00     0.049 A 
ATOM     49  C   UNL A   1      45.986  29.575  27.215  1.00  0.00     0.074 A 
ATOM     50  C   UNL A   1      41.562  32.639  30.590  1.00  0.00     0.029 A 
ATOM     51  N   UNL A   1      42.691  31.140  29.397  1.00  0.00    -0.354 N 
ATOM     52  N   UNL A   1      45.022  30.127  27.912  1.00  0.00    -0.248 NA
ATOM     53  C   UNL A   1      47.113  30.477  26.937  1.00  0.00     0.031 C 
ATOM     54  C   UNL A   1      42.769  33.218  30.179  1.00  0.00     0.029 A 
ATOM     55  C   UNL A   1      43.483  32.276  29.455  1.00  0.00     0.049 A 
ATOM     56  H   UNL A   1      42.938  30.304  28.940  1.00  0.00     0.167 HD
ATOM     57  C   UNL A   1      45.434  31.425  28.178  1.00  0.00     0.074 A 
ATOM     58  C   UNL A   1      46.744  31.577  27.577  1.00  0.00     0.031 C 
ATOM     59  C   UNL A   1      44.788  32.405  28.857  1.00  0.00     0.037 A 
BRANCH  46  60
ATOM     60  C   UNL A   1      39.195  30.780  30.932  1.00  0.00     0.064 A 
ATOM     61  C   UNL A   1      38.106  31.387  30.292  1.00  0.00     0.173 A 
ATOM     62  C   UNL A   1      39.089  30.523  32.308  1.00  0.00     0.173 A 
ATOM     63  F   UNL A   1      38.163  31.670  28.982  1.00  0.00    -0.203 F 
ATOM     64  C   UNL A   1      36.963  31.744  31.007  1.00  0.00     0.198 A 
ATOM     65  C   UNL A   1      37.937  30.858  33.014  1.00  0.00     0.198 A 
ATOM     66  F   UNL A   1      40.104  29.943  32.968  1.00  0.00    -0.203 F 
ATOM     67  F   UNL A   1      35.953  32.365  30.384  1.00  0.00    -0.200 F 
ATOM     68  C   UNL A   1      36.879  31.474  32.364  1.00  0.00     0.200 A 
ATOM     69  F   UNL A   1      37.854  30.587  34.323  1.00  0.00    -0.200 F 
ATOM     70  F   UNL A   1      35.779  31.816  33.050  1.00  0.00    -0.200 F 
ENDBRANCH  46  60
BRANCH  47  71
ATOM     71  C   UNL A   1      47.282  27.738  25.905  1.00  0.00     0.064 A 
ATOM     72  C   UNL A   1      48.451  27.316  26.553  1.00  0.00     0.173 A 
ATOM     73  C   UNL A   1      47.284  27.754  24.502  1.00  0.00     0.173 A 
ATOM     74  F   UNL A   1      48.508  27.308  27.892  1.00  0.00    -0.203 F 
ATOM     75  C   UNL A   1      49.582  26.946  25.827  1.00  0.00     0.198 A 
ATOM     76  C   UNL A   1      48.404  27.355  23.777  1.00  0.00     0.198 A 
ATOM     77  F   UNL A   1      46.192  28.153  23.832  1.00  0.00    -0.203 F 
ATOM     78  F   UNL A   1      50.703  26.593  26.472  1.00  0.00    -0.200 F 
ATOM     79  C   UNL A   1      49.556  26.960  24.440  1.00  0.00     0.200 A 
ATOM     80  F   UNL A   1      48.370  27.360  22.437  1.00  0.00    -0.200 F 
ATOM     81  F   UNL A   1      50.642  26.601  23.743  1.00  0.00    -0.200 F 
ENDBRANCH  47  71
BRANCH  59  82
ATOM     82  C   UNL A   1      45.502  33.716  29.019  1.00  0.00     0.064 A 
ATOM     83  C   UNL A   1      46.376  33.950  30.090  1.00  0.00     0.173 A 
ATOM     84  C   UNL A   1      45.342  34.732  28.066  1.00  0.00     0.173 A 
ATOM     85  F   UNL A   1      46.550  33.015  31.036  1.00  0.00    -0.203 F 
ATOM     86  C   UNL A   1      47.046  35.164  30.214  1.00  0.00     0.198 A 
ATOM     87  C   UNL A   1      46.036  35.934  28.177  1.00  0.00     0.198 A 
ATOM     88  F   UNL A   1      44.523  34.556  27.019  1.00  0.00    -0.203 F 
ATOM     89  F   UNL A   1      47.841  35.384  31.270  1.00  0.00    -0.200 F 
ATOM     90  C   UNL A   1      46.882  36.151  29.253  1.00  0.00     0.200 A 
ATOM     91  F   UNL A   1      45.887  36.881  27.240  1.00  0.00    -0.200 F 
ATOM     92  F   UNL A   1      47.534  37.316  29.370  1.00  0.00    -0.200 F 
ENDBRANCH  59  82
ENDBRANCH  33  34
ENDBRANCH  26  28
ENDBRANCH  25  26
ENDBRANCH  24  25
ENDBRANCH   1  24
TORSDOF 14
ENDMDL
