MODEL 1
REMARK VINA RESULT:     -11.9      0.000      0.000
REMARK SMILES O=C(CSc1nc2[nH]cnc2c(=O)[nH]1)NCCC(=O)OCCOC(=O)c1ccc(-c2c3nc(c(-c4c(F)c(F)c(F)c(F)c4F)c4ccc([nH]4)c(-c4c(F)c(F)c(F)c(F)c4F)c4nc(c(-c5c(F)c(F)c(F)c(F)c5F)c5ccc2[nH]5)C=C4)C=C3)cc1
REMARK SMILES IDX 20 1 18 2 19 3 17 4 16 5 15 6 1 7 2 8 3 10 4 11 5 12 6 13
REMARK SMILES IDX 14 14 7 15 12 16 8 18 11 19 13 20 9 21 10 23 21 24 22 25
REMARK SMILES IDX 23 26 24 27 25 28 26 29 27 30 88 31 28 32 87 33 29 34 30 35
REMARK SMILES IDX 31 36 81 37 32 38 86 39 80 40 82 41 33 42 85 43 79 44 78 45
REMARK SMILES IDX 34 47 66 48 46 49 65 50 47 51 50 52 64 53 83 54 48 55 49 56
REMARK SMILES IDX 63 58 84 59 51 60 35 61 36 62 44 63 37 64 38 65 42 66 45 67
REMARK SMILES IDX 39 68 40 69 43 70 41 71 67 72 68 73 76 74 69 75 70 76 74 77
REMARK SMILES IDX 77 78 71 79 72 80 75 81 73 82 52 83 53 84 61 85 54 86 55 87
REMARK SMILES IDX 59 88 62 89 56 90 57 91 60 92 58 93
REMARK H PARENT 15 9 14 17 8 22 82 46 50 57
REMARK Flexibility Score: inf
ROOT
ATOM      1  O   UNL A   1      36.279  22.220  24.800  1.00  0.00    -0.462 OA
ENDROOT
BRANCH   1   2
ATOM      2  C   UNL A   1      35.634  22.693  23.700  1.00  0.00     0.307 C 
ATOM      3  O   UNL A   1      36.182  23.240  22.750  1.00  0.00    -0.252 OA
BRANCH   2   4
ATOM      4  C   UNL A   1      34.137  22.531  23.791  1.00  0.00     0.144 C 
BRANCH   4   5
ATOM      5  C   UNL A   1      33.393  23.003  22.551  1.00  0.00     0.127 C 
BRANCH   5   6
ATOM      6  N   UNL A   1      32.719  24.263  22.772  1.00  0.00    -0.355 N 
ATOM      7  O   UNL A   1      33.303  25.198  20.770  1.00  0.00    -0.274 OA
ATOM      8  C   UNL A   1      32.722  25.282  21.850  1.00  0.00     0.230 C 
ATOM      9  H   UNL A   1      32.237  24.397  23.621  1.00  0.00     0.163 HD
BRANCH   8  10
ATOM     10  C   UNL A   1      32.102  26.589  22.309  1.00  0.00     0.178 C 
BRANCH  10  11
ATOM     11  S   UNL A   1      30.711  26.399  23.457  1.00  0.00    -0.078 SA
BRANCH  11  12
ATOM     12  C   UNL A   1      29.804  27.814  23.024  1.00  0.00     0.170 A 
ATOM     13  N   UNL A   1      30.364  28.829  22.440  1.00  0.00    -0.204 NA
ATOM     14  N   UNL A   1      28.470  27.704  23.348  1.00  0.00    -0.299 N 
ATOM     15  C   UNL A   1      29.473  29.809  22.168  1.00  0.00     0.165 A 
ATOM     16  C   UNL A   1      27.534  28.695  23.091  1.00  0.00     0.279 A 
ATOM     17  H   UNL A   1      28.163  26.878  23.787  1.00  0.00     0.172 HD
ATOM     18  N   UNL A   1      29.748  30.990  21.548  1.00  0.00    -0.329 N 
ATOM     19  C   UNL A   1      28.122  29.843  22.431  1.00  0.00     0.172 A 
ATOM     20  O   UNL A   1      26.355  28.570  23.402  1.00  0.00    -0.267 OA
ATOM     21  C   UNL A   1      28.565  31.679  21.457  1.00  0.00     0.199 A 
ATOM     22  H   UNL A   1      30.629  31.292  21.227  1.00  0.00     0.169 HD
ATOM     23  N   UNL A   1      27.559  31.011  21.986  1.00  0.00    -0.229 NA
ENDBRANCH  11  12
ENDBRANCH  10  11
ENDBRANCH   8  10
ENDBRANCH   5   6
ENDBRANCH   4   5
ENDBRANCH   2   4
ENDBRANCH   1   2
BRANCH   1  24
ATOM     24  C   UNL A   1      36.238  20.792  25.002  1.00  0.00     0.274 C 
BRANCH  24  25
ATOM     25  C   UNL A   1      37.639  20.174  25.035  1.00  0.00     0.275 C 
BRANCH  25  26
ATOM     26  O   UNL A   1      38.663  21.178  25.148  1.00  0.00    -0.458 OA
BRANCH  26  27
ATOM     27  C   UNL A   1      39.526  20.993  26.171  1.00  0.00     0.338 C 
ATOM     28  O   UNL A   1      40.019  19.938  26.537  1.00  0.00    -0.246 OA
BRANCH  27  29
ATOM     29  C   UNL A   1      39.910  22.285  26.758  1.00  0.00     0.060 A 
ATOM     30  C   UNL A   1      39.318  23.443  26.245  1.00  0.00     0.016 A 
ATOM     31  C   UNL A   1      40.932  22.368  27.704  1.00  0.00     0.016 A 
ATOM     32  C   UNL A   1      39.773  24.695  26.645  1.00  0.00     0.010 A 
ATOM     33  C   UNL A   1      41.385  23.628  28.111  1.00  0.00     0.010 A 
ATOM     34  C   UNL A   1      40.831  24.797  27.559  1.00  0.00    -0.014 A 
BRANCH  34  35
ATOM     35  C   UNL A   1      41.417  26.128  27.849  1.00  0.00     0.031 A 
ATOM     36  C   UNL A   1      42.802  26.450  27.359  1.00  0.00     0.074 A 
ATOM     37  C   UNL A   1      40.703  27.056  28.511  1.00  0.00     0.049 A 
ATOM     38  N   UNL A   1      43.508  27.541  27.517  1.00  0.00    -0.248 NA
ATOM     39  C   UNL A   1      43.486  25.399  26.589  1.00  0.00     0.031 C 
ATOM     40  C   UNL A   1      39.339  26.876  29.004  1.00  0.00     0.029 A 
ATOM     41  N   UNL A   1      41.028  28.338  28.876  1.00  0.00    -0.354 N 
ATOM     42  C   UNL A   1      44.720  27.302  26.886  1.00  0.00     0.074 A 
ATOM     43  C   UNL A   1      44.666  25.955  26.359  1.00  0.00     0.031 C 
ATOM     44  C   UNL A   1      38.940  28.011  29.603  1.00  0.00     0.029 A 
ATOM     45  C   UNL A   1      40.031  28.982  29.564  1.00  0.00     0.049 A 
ATOM     46  H   UNL A   1      41.895  28.755  28.666  1.00  0.00     0.167 HD
ATOM     47  C   UNL A   1      45.782  28.134  26.751  1.00  0.00     0.037 A 
ATOM     48  C   UNL A   1      40.006  30.213  30.110  1.00  0.00     0.037 A 
ATOM     49  C   UNL A   1      45.827  29.482  27.256  1.00  0.00     0.049 A 
ATOM     50  C   UNL A   1      41.212  31.104  29.976  1.00  0.00     0.074 A 
ATOM     51  C   UNL A   1      46.848  30.410  27.150  1.00  0.00     0.029 A 
ATOM     52  N   UNL A   1      44.803  30.093  27.964  1.00  0.00    -0.354 N 
ATOM     53  N   UNL A   1      42.348  30.877  29.361  1.00  0.00    -0.248 NA
ATOM     54  C   UNL A   1      41.129  32.428  30.609  1.00  0.00     0.031 C 
ATOM     55  C   UNL A   1      46.458  31.570  27.829  1.00  0.00     0.029 A 
ATOM     56  C   UNL A   1      45.175  31.381  28.316  1.00  0.00     0.049 A 
ATOM     57  H   UNL A   1      43.940  29.674  28.184  1.00  0.00     0.167 HD
ATOM     58  C   UNL A   1      43.098  32.036  29.505  1.00  0.00     0.074 A 
ATOM     59  C   UNL A   1      42.287  32.969  30.257  1.00  0.00     0.031 C 
ATOM     60  C   UNL A   1      44.348  32.304  29.050  1.00  0.00     0.037 A 
BRANCH  47  61
ATOM     61  C   UNL A   1      46.995  27.599  26.050  1.00  0.00     0.064 A 
ATOM     62  C   UNL A   1      47.127  27.651  24.655  1.00  0.00     0.173 A 
ATOM     63  C   UNL A   1      48.054  27.050  26.790  1.00  0.00     0.173 A 
ATOM     64  F   UNL A   1      46.137  28.152  23.901  1.00  0.00    -0.203 F 
ATOM     65  C   UNL A   1      48.264  27.151  24.024  1.00  0.00     0.198 A 
ATOM     66  C   UNL A   1      49.200  26.574  26.158  1.00  0.00     0.198 A 
ATOM     67  F   UNL A   1      47.979  26.979  28.128  1.00  0.00    -0.203 F 
ATOM     68  F   UNL A   1      48.349  27.169  22.687  1.00  0.00    -0.200 F 
ATOM     69  C   UNL A   1      49.301  26.620  24.776  1.00  0.00     0.200 A 
ATOM     70  F   UNL A   1      50.205  26.071  26.887  1.00  0.00    -0.200 F 
ATOM     71  F   UNL A   1      50.396  26.141  24.168  1.00  0.00    -0.200 F 
ENDBRANCH  47  61
BRANCH  48  72
ATOM     72  C   UNL A   1      38.794  30.682  30.827  1.00  0.00     0.064 A 
ATOM     73  C   UNL A   1      38.675  30.532  32.216  1.00  0.00     0.173 A 
ATOM     74  C   UNL A   1      37.726  31.275  30.140  1.00  0.00     0.173 A 
ATOM     75  F   UNL A   1      39.660  29.947  32.913  1.00  0.00    -0.203 F 
ATOM     76  C   UNL A   1      37.526  30.944  32.888  1.00  0.00     0.198 A 
ATOM     77  C   UNL A   1      36.588  31.711  30.816  1.00  0.00     0.198 A 
ATOM     78  F   UNL A   1      37.790  31.439  28.811  1.00  0.00    -0.203 F 
ATOM     79  F   UNL A   1      37.419  30.749  34.209  1.00  0.00    -0.200 F 
ATOM     80  C   UNL A   1      36.486  31.538  32.188  1.00  0.00     0.200 A 
ATOM     81  F   UNL A   1      35.589  32.293  30.139  1.00  0.00    -0.200 F 
ATOM     82  F   UNL A   1      35.382  31.935  32.835  1.00  0.00    -0.200 F 
ENDBRANCH  48  72
BRANCH  60  83
ATOM     83  C   UNL A   1      44.892  33.679  29.308  1.00  0.00     0.064 A 
ATOM     84  C   UNL A   1      45.664  33.966  30.443  1.00  0.00     0.173 A 
ATOM     85  C   UNL A   1      44.662  34.714  28.389  1.00  0.00     0.173 A 
ATOM     86  F   UNL A   1      45.899  33.014  31.359  1.00  0.00    -0.203 F 
ATOM     87  C   UNL A   1      46.162  35.248  30.663  1.00  0.00     0.198 A 
ATOM     88  C   UNL A   1      45.185  35.986  28.599  1.00  0.00     0.198 A 
ATOM     89  F   UNL A   1      43.937  34.488  27.284  1.00  0.00    -0.203 F 
ATOM     90  F   UNL A   1      46.856  35.512  31.779  1.00  0.00    -0.200 F 
ATOM     91  C   UNL A   1      45.927  36.255  29.739  1.00  0.00     0.200 A 
ATOM     92  F   UNL A   1      44.967  36.955  27.698  1.00  0.00    -0.200 F 
ATOM     93  F   UNL A   1      46.410  37.487  29.951  1.00  0.00    -0.200 F 
ENDBRANCH  60  83
ENDBRANCH  34  35
ENDBRANCH  27  29
ENDBRANCH  26  27
ENDBRANCH  25  26
ENDBRANCH  24  25
ENDBRANCH   1  24
TORSDOF 16
ENDMDL
MODEL 2
REMARK VINA RESULT:     -11.9      4.646      8.093
REMARK SMILES O=C(CSc1nc2[nH]cnc2c(=O)[nH]1)NCCC(=O)OCCOC(=O)c1ccc(-c2c3nc(c(-c4c(F)c(F)c(F)c(F)c4F)c4ccc([nH]4)c(-c4c(F)c(F)c(F)c(F)c4F)c4nc(c(-c5c(F)c(F)c(F)c(F)c5F)c5ccc2[nH]5)C=C4)C=C3)cc1
REMARK SMILES IDX 20 1 18 2 19 3 17 4 16 5 15 6 1 7 2 8 3 10 4 11 5 12 6 13
REMARK SMILES IDX 14 14 7 15 12 16 8 18 11 19 13 20 9 21 10 23 21 24 22 25
REMARK SMILES IDX 23 26 24 27 25 28 26 29 27 30 88 31 28 32 87 33 29 34 30 35
REMARK SMILES IDX 31 36 81 37 32 38 86 39 80 40 82 41 33 42 85 43 79 44 78 45
REMARK SMILES IDX 34 47 66 48 46 49 65 50 47 51 50 52 64 53 83 54 48 55 49 56
REMARK SMILES IDX 63 58 84 59 51 60 35 61 36 62 44 63 37 64 38 65 42 66 45 67
REMARK SMILES IDX 39 68 40 69 43 70 41 71 67 72 68 73 76 74 69 75 70 76 74 77
REMARK SMILES IDX 77 78 71 79 72 80 75 81 73 82 52 83 53 84 61 85 54 86 55 87
REMARK SMILES IDX 59 88 62 89 56 90 57 91 60 92 58 93
REMARK H PARENT 15 9 14 17 8 22 82 46 50 57
REMARK Flexibility Score: inf
ROOT
ATOM      1  O   UNL A   1      30.648  29.484  24.027  1.00  0.00    -0.462 OA
ENDROOT
BRANCH   1   2
ATOM      2  C   UNL A   1      30.384  28.308  23.396  1.00  0.00     0.307 C 
ATOM      3  O   UNL A   1      29.928  28.210  22.263  1.00  0.00    -0.252 OA
BRANCH   2   4
ATOM      4  C   UNL A   1      30.656  27.108  24.269  1.00  0.00     0.144 C 
BRANCH   4   5
ATOM      5  C   UNL A   1      29.573  26.043  24.202  1.00  0.00     0.127 C 
BRANCH   5   6
ATOM      6  N   UNL A   1      30.115  24.711  24.353  1.00  0.00    -0.355 N 
ATOM      7  O   UNL A   1      30.601  24.904  26.578  1.00  0.00    -0.274 OA
ATOM      8  C   UNL A   1      30.594  24.231  25.548  1.00  0.00     0.230 C 
ATOM      9  H   UNL A   1      30.141  24.121  23.564  1.00  0.00     0.163 HD
BRANCH   8  10
ATOM     10  C   UNL A   1      31.270  22.874  25.492  1.00  0.00     0.178 C 
BRANCH  10  11
ATOM     11  S   UNL A   1      32.014  22.471  23.888  1.00  0.00    -0.078 SA
BRANCH  11  12
ATOM     12  C   UNL A   1      32.262  20.770  24.122  1.00  0.00     0.170 A 
ATOM     13  N   UNL A   1      32.438  20.263  25.304  1.00  0.00    -0.204 NA
ATOM     14  N   UNL A   1      32.224  20.064  22.939  1.00  0.00    -0.299 N 
ATOM     15  C   UNL A   1      32.585  18.920  25.262  1.00  0.00     0.165 A 
ATOM     16  C   UNL A   1      32.380  18.689  22.862  1.00  0.00     0.279 A 
ATOM     17  H   UNL A   1      32.078  20.563  22.103  1.00  0.00     0.172 HD
ATOM     18  N   UNL A   1      32.769  18.101  26.333  1.00  0.00    -0.329 N 
ATOM     19  C   UNL A   1      32.571  18.086  24.166  1.00  0.00     0.172 A 
ATOM     20  O   UNL A   1      32.351  18.092  21.791  1.00  0.00    -0.267 OA
ATOM     21  C   UNL A   1      32.852  16.820  25.849  1.00  0.00     0.199 A 
ATOM     22  H   UNL A   1      32.831  18.376  27.277  1.00  0.00     0.169 HD
ATOM     23  N   UNL A   1      32.738  16.777  24.536  1.00  0.00    -0.229 NA
ENDBRANCH  11  12
ENDBRANCH  10  11
ENDBRANCH   8  10
ENDBRANCH   5   6
ENDBRANCH   4   5
ENDBRANCH   2   4
ENDBRANCH   1   2
BRANCH   1  24
ATOM     24  C   UNL A   1      31.563  29.423  25.140  1.00  0.00     0.274 C 
BRANCH  24  25
ATOM     25  C   UNL A   1      31.658  30.758  25.884  1.00  0.00     0.275 C 
BRANCH  25  26
ATOM     26  O   UNL A   1      32.486  30.658  27.056  1.00  0.00    -0.458 OA
BRANCH  26  27
ATOM     27  C   UNL A   1      33.233  31.754  27.315  1.00  0.00     0.338 C 
ATOM     28  O   UNL A   1      32.880  32.920  27.250  1.00  0.00    -0.246 OA
BRANCH  27  29
ATOM     29  C   UNL A   1      34.560  31.363  27.814  1.00  0.00     0.060 A 
ATOM     30  C   UNL A   1      34.762  30.024  28.164  1.00  0.00     0.016 A 
ATOM     31  C   UNL A   1      35.546  32.319  28.060  1.00  0.00     0.016 A 
ATOM     32  C   UNL A   1      35.939  29.640  28.800  1.00  0.00     0.010 A 
ATOM     33  C   UNL A   1      36.731  31.931  28.694  1.00  0.00     0.010 A 
ATOM     34  C   UNL A   1      36.920  30.596  29.097  1.00  0.00    -0.014 A 
BRANCH  34  35
ATOM     35  C   UNL A   1      38.090  30.208  29.922  1.00  0.00     0.031 A 
ATOM     36  C   UNL A   1      39.126  29.282  29.348  1.00  0.00     0.074 A 
ATOM     37  C   UNL A   1      38.245  30.710  31.160  1.00  0.00     0.049 A 
ATOM     38  N   UNL A   1      40.212  28.804  29.900  1.00  0.00    -0.248 NA
ATOM     39  C   UNL A   1      38.908  28.832  27.964  1.00  0.00     0.031 C 
ATOM     40  C   UNL A   1      37.329  31.644  31.812  1.00  0.00     0.029 A 
ATOM     41  N   UNL A   1      39.237  30.507  32.086  1.00  0.00    -0.354 N 
ATOM     42  C   UNL A   1      40.794  27.984  28.943  1.00  0.00     0.074 A 
ATOM     43  C   UNL A   1      39.933  28.011  27.781  1.00  0.00     0.031 C 
ATOM     44  C   UNL A   1      37.805  31.939  33.033  1.00  0.00     0.029 A 
ATOM     45  C   UNL A   1      39.039  31.191  33.259  1.00  0.00     0.049 A 
ATOM     46  H   UNL A   1      40.014  29.925  31.925  1.00  0.00     0.167 HD
ATOM     47  C   UNL A   1      41.948  27.278  29.024  1.00  0.00     0.037 A 
ATOM     48  C   UNL A   1      39.768  31.201  34.392  1.00  0.00     0.037 A 
ATOM     49  C   UNL A   1      42.816  27.268  30.173  1.00  0.00     0.049 A 
ATOM     50  C   UNL A   1      41.027  30.380  34.468  1.00  0.00     0.074 A 
ATOM     51  C   UNL A   1      44.018  26.603  30.342  1.00  0.00     0.029 A 
ATOM     52  N   UNL A   1      42.573  27.959  31.350  1.00  0.00    -0.354 N 
ATOM     53  N   UNL A   1      41.580  29.622  33.551  1.00  0.00    -0.248 NA
ATOM     54  C   UNL A   1      41.767  30.420  35.737  1.00  0.00     0.031 C 
ATOM     55  C   UNL A   1      44.482  26.859  31.638  1.00  0.00     0.029 A 
ATOM     56  C   UNL A   1      43.594  27.722  32.257  1.00  0.00     0.049 A 
ATOM     57  H   UNL A   1      41.791  28.534  31.517  1.00  0.00     0.167 HD
ATOM     58  C   UNL A   1      42.744  29.124  34.119  1.00  0.00     0.074 A 
ATOM     59  C   UNL A   1      42.824  29.672  35.457  1.00  0.00     0.031 C 
ATOM     60  C   UNL A   1      43.668  28.290  33.580  1.00  0.00     0.037 A 
BRANCH  47  61
ATOM     61  C   UNL A   1      42.325  26.432  27.844  1.00  0.00     0.064 A 
ATOM     62  C   UNL A   1      43.221  26.886  26.865  1.00  0.00     0.173 A 
ATOM     63  C   UNL A   1      41.803  25.137  27.706  1.00  0.00     0.173 A 
ATOM     64  F   UNL A   1      43.736  28.122  26.942  1.00  0.00    -0.203 F 
ATOM     65  C   UNL A   1      43.560  26.084  25.777  1.00  0.00     0.198 A 
ATOM     66  C   UNL A   1      42.164  24.328  26.632  1.00  0.00     0.198 A 
ATOM     67  F   UNL A   1      40.945  24.654  28.617  1.00  0.00    -0.203 F 
ATOM     68  F   UNL A   1      44.381  26.556  24.830  1.00  0.00    -0.200 F 
ATOM     69  C   UNL A   1      43.037  24.805  25.666  1.00  0.00     0.200 A 
ATOM     70  F   UNL A   1      41.666  23.089  26.531  1.00  0.00    -0.200 F 
ATOM     71  F   UNL A   1      43.367  24.033  24.621  1.00  0.00    -0.200 F 
ENDBRANCH  47  61
BRANCH  48  72
ATOM     72  C   UNL A   1      39.331  32.025  35.547  1.00  0.00     0.064 A 
ATOM     73  C   UNL A   1      39.784  33.342  35.705  1.00  0.00     0.173 A 
ATOM     74  C   UNL A   1      38.464  31.511  36.522  1.00  0.00     0.173 A 
ATOM     75  F   UNL A   1      40.635  33.869  34.812  1.00  0.00    -0.203 F 
ATOM     76  C   UNL A   1      39.400  34.108  36.804  1.00  0.00     0.198 A 
ATOM     77  C   UNL A   1      38.059  32.286  37.606  1.00  0.00     0.198 A 
ATOM     78  F   UNL A   1      38.004  30.256  36.417  1.00  0.00    -0.203 F 
ATOM     79  F   UNL A   1      39.883  35.349  36.955  1.00  0.00    -0.200 F 
ATOM     80  C   UNL A   1      38.534  33.581  37.750  1.00  0.00     0.200 A 
ATOM     81  F   UNL A   1      37.215  31.778  38.514  1.00  0.00    -0.200 F 
ATOM     82  F   UNL A   1      38.164  34.319  38.806  1.00  0.00    -0.200 F 
ENDBRANCH  48  72
BRANCH  60  83
ATOM     83  C   UNL A   1      44.869  27.961  34.416  1.00  0.00     0.064 A 
ATOM     84  C   UNL A   1      46.022  28.760  34.400  1.00  0.00     0.173 A 
ATOM     85  C   UNL A   1      44.853  26.846  35.268  1.00  0.00     0.173 A 
ATOM     86  F   UNL A   1      46.092  29.827  33.591  1.00  0.00    -0.203 F 
ATOM     87  C   UNL A   1      47.125  28.437  35.186  1.00  0.00     0.198 A 
ATOM     88  C   UNL A   1      45.947  26.544  36.073  1.00  0.00     0.198 A 
ATOM     89  F   UNL A   1      43.771  26.055  35.326  1.00  0.00    -0.203 F 
ATOM     90  F   UNL A   1      48.234  29.187  35.118  1.00  0.00    -0.200 F 
ATOM     91  C   UNL A   1      47.085  27.334  36.025  1.00  0.00     0.200 A 
ATOM     92  F   UNL A   1      45.902  25.483  36.892  1.00  0.00    -0.200 F 
ATOM     93  F   UNL A   1      48.148  27.027  36.782  1.00  0.00    -0.200 F 
ENDBRANCH  60  83
ENDBRANCH  34  35
ENDBRANCH  27  29
ENDBRANCH  26  27
ENDBRANCH  25  26
ENDBRANCH  24  25
ENDBRANCH   1  24
TORSDOF 16
ENDMDL
MODEL 3
REMARK VINA RESULT:     -11.7      4.763     10.351
REMARK SMILES O=C(CSc1nc2[nH]cnc2c(=O)[nH]1)NCCC(=O)OCCOC(=O)c1ccc(-c2c3nc(c(-c4c(F)c(F)c(F)c(F)c4F)c4ccc([nH]4)c(-c4c(F)c(F)c(F)c(F)c4F)c4nc(c(-c5c(F)c(F)c(F)c(F)c5F)c5ccc2[nH]5)C=C4)C=C3)cc1
REMARK SMILES IDX 20 1 18 2 19 3 17 4 16 5 15 6 1 7 2 8 3 10 4 11 5 12 6 13
REMARK SMILES IDX 14 14 7 15 12 16 8 18 11 19 13 20 9 21 10 23 21 24 22 25
REMARK SMILES IDX 23 26 24 27 25 28 26 29 27 30 88 31 28 32 87 33 29 34 30 35
REMARK SMILES IDX 31 36 81 37 32 38 86 39 80 40 82 41 33 42 85 43 79 44 78 45
REMARK SMILES IDX 34 47 66 48 46 49 65 50 47 51 50 52 64 53 83 54 48 55 49 56
REMARK SMILES IDX 63 58 84 59 51 60 35 61 36 62 44 63 37 64 38 65 42 66 45 67
REMARK SMILES IDX 39 68 40 69 43 70 41 71 67 72 68 73 76 74 69 75 70 76 74 77
REMARK SMILES IDX 77 78 71 79 72 80 75 81 73 82 52 83 53 84 61 85 54 86 55 87
REMARK SMILES IDX 59 88 62 89 56 90 57 91 60 92 58 93
REMARK H PARENT 15 9 14 17 8 22 82 46 50 57
REMARK Flexibility Score: inf
ROOT
ATOM      1  O   UNL A   1      32.467  28.338  24.237  1.00  0.00    -0.462 OA
ENDROOT
BRANCH   1   2
ATOM      2  C   UNL A   1      32.994  27.165  23.795  1.00  0.00     0.307 C 
ATOM      3  O   UNL A   1      32.953  26.773  22.635  1.00  0.00    -0.252 OA
BRANCH   2   4
ATOM      4  C   UNL A   1      33.598  26.344  24.908  1.00  0.00     0.144 C 
BRANCH   4   5
ATOM      5  C   UNL A   1      34.400  25.147  24.422  1.00  0.00     0.127 C 
BRANCH   5   6
ATOM      6  N   UNL A   1      33.579  23.965  24.288  1.00  0.00    -0.355 N 
ATOM      7  O   UNL A   1      34.011  23.626  22.069  1.00  0.00    -0.274 OA
ATOM      8  C   UNL A   1      33.445  23.279  23.105  1.00  0.00     0.230 C 
ATOM      9  H   UNL A   1      33.094  23.636  25.080  1.00  0.00     0.163 HD
BRANCH   8  10
ATOM     10  C   UNL A   1      32.422  22.158  23.103  1.00  0.00     0.178 C 
BRANCH  10  11
ATOM     11  S   UNL A   1      31.939  21.580  24.753  1.00  0.00    -0.078 SA
BRANCH  11  12
ATOM     12  C   UNL A   1      32.371  19.907  24.593  1.00  0.00     0.170 A 
ATOM     13  N   UNL A   1      32.733  19.196  25.618  1.00  0.00    -0.204 NA
ATOM     14  N   UNL A   1      32.260  19.455  23.297  1.00  0.00    -0.299 N 
ATOM     15  C   UNL A   1      32.999  17.916  25.276  1.00  0.00     0.165 A 
ATOM     16  C   UNL A   1      32.534  18.152  22.913  1.00  0.00     0.279 A 
ATOM     17  H   UNL A   1      31.970  20.092  22.604  1.00  0.00     0.172 HD
ATOM     18  N   UNL A   1      33.385  16.925  26.125  1.00  0.00    -0.329 N 
ATOM     19  C   UNL A   1      32.934  17.325  24.034  1.00  0.00     0.172 A 
ATOM     20  O   UNL A   1      32.435  17.784  21.747  1.00  0.00    -0.267 OA
ATOM     21  C   UNL A   1      33.530  15.786  25.373  1.00  0.00     0.199 A 
ATOM     22  H   UNL A   1      33.532  17.009  27.095  1.00  0.00     0.169 HD
ATOM     23  N   UNL A   1      33.266  15.996  24.098  1.00  0.00    -0.229 NA
ENDBRANCH  11  12
ENDBRANCH  10  11
ENDBRANCH   8  10
ENDBRANCH   5   6
ENDBRANCH   4   5
ENDBRANCH   2   4
ENDBRANCH   1   2
BRANCH   1  24
ATOM     24  C   UNL A   1      32.769  28.704  25.599  1.00  0.00     0.274 C 
BRANCH  24  25
ATOM     25  C   UNL A   1      32.711  30.219  25.816  1.00  0.00     0.275 C 
BRANCH  25  26
ATOM     26  O   UNL A   1      32.744  30.560  27.214  1.00  0.00    -0.458 OA
BRANCH  26  27
ATOM     27  C   UNL A   1      33.549  31.600  27.523  1.00  0.00     0.338 C 
ATOM     28  O   UNL A   1      33.246  32.782  27.557  1.00  0.00    -0.246 OA
BRANCH  27  29
ATOM     29  C   UNL A   1      34.873  31.118  27.941  1.00  0.00     0.060 A 
ATOM     30  C   UNL A   1      34.984  29.791  28.370  1.00  0.00     0.016 A 
ATOM     31  C   UNL A   1      35.958  31.989  28.037  1.00  0.00     0.016 A 
ATOM     32  C   UNL A   1      36.172  29.339  28.936  1.00  0.00     0.010 A 
ATOM     33  C   UNL A   1      37.155  31.532  28.601  1.00  0.00     0.010 A 
ATOM     34  C   UNL A   1      37.257  30.214  29.084  1.00  0.00    -0.014 A 
BRANCH  34  35
ATOM     35  C   UNL A   1      38.454  29.771  29.838  1.00  0.00     0.031 A 
ATOM     36  C   UNL A   1      38.682  30.284  31.233  1.00  0.00     0.074 A 
ATOM     37  C   UNL A   1      39.310  28.886  29.296  1.00  0.00     0.049 A 
ATOM     38  N   UNL A   1      39.668  30.039  32.059  1.00  0.00    -0.248 NA
ATOM     39  C   UNL A   1      37.661  31.198  31.771  1.00  0.00     0.031 C 
ATOM     40  C   UNL A   1      39.177  28.290  27.968  1.00  0.00     0.029 A 
ATOM     41  N   UNL A   1      40.459  28.332  29.802  1.00  0.00    -0.354 N 
ATOM     42  C   UNL A   1      39.398  30.781  33.201  1.00  0.00     0.074 A 
ATOM     43  C   UNL A   1      38.167  31.502  32.957  1.00  0.00     0.031 C 
ATOM     44  C   UNL A   1      40.203  27.446  27.766  1.00  0.00     0.029 A 
ATOM     45  C   UNL A   1      41.079  27.469  28.935  1.00  0.00     0.049 A 
ATOM     46  H   UNL A   1      40.805  28.536  30.701  1.00  0.00     0.167 HD
ATOM     47  C   UNL A   1      40.110  30.849  34.352  1.00  0.00     0.037 A 
ATOM     48  C   UNL A   1      42.231  26.784  29.067  1.00  0.00     0.037 A 
ATOM     49  C   UNL A   1      41.323  30.115  34.602  1.00  0.00     0.049 A 
ATOM     50  C   UNL A   1      43.020  26.904  30.343  1.00  0.00     0.074 A 
ATOM     51  C   UNL A   1      42.104  30.100  35.745  1.00  0.00     0.029 A 
ATOM     52  N   UNL A   1      41.931  29.264  33.691  1.00  0.00    -0.354 N 
ATOM     53  N   UNL A   1      42.748  27.594  31.424  1.00  0.00    -0.248 NA
ATOM     54  C   UNL A   1      44.277  26.146  30.417  1.00  0.00     0.031 C 
ATOM     55  C   UNL A   1      43.207  29.270  35.511  1.00  0.00     0.029 A 
ATOM     56  C   UNL A   1      43.087  28.731  34.241  1.00  0.00     0.049 A 
ATOM     57  H   UNL A   1      41.592  29.066  32.789  1.00  0.00     0.167 HD
ATOM     58  C   UNL A   1      43.778  27.327  32.316  1.00  0.00     0.074 A 
ATOM     59  C   UNL A   1      44.677  26.406  31.654  1.00  0.00     0.031 C 
ATOM     60  C   UNL A   1      43.962  27.801  33.574  1.00  0.00     0.037 A 
BRANCH  47  61
ATOM     61  C   UNL A   1      39.608  31.773  35.421  1.00  0.00     0.064 A 
ATOM     62  C   UNL A   1      40.067  33.093  35.535  1.00  0.00     0.173 A 
ATOM     63  C   UNL A   1      38.630  31.337  36.329  1.00  0.00     0.173 A 
ATOM     64  F   UNL A   1      41.012  33.554  34.701  1.00  0.00    -0.203 F 
ATOM     65  C   UNL A   1      39.585  33.935  36.535  1.00  0.00     0.198 A 
ATOM     66  C   UNL A   1      38.132  32.190  37.311  1.00  0.00     0.198 A 
ATOM     67  F   UNL A   1      38.155  30.084  36.261  1.00  0.00    -0.203 F 
ATOM     68  F   UNL A   1      40.072  35.178  36.653  1.00  0.00    -0.200 F 
ATOM     69  C   UNL A   1      38.614  33.485  37.416  1.00  0.00     0.200 A 
ATOM     70  F   UNL A   1      37.186  31.757  38.155  1.00  0.00    -0.200 F 
ATOM     71  F   UNL A   1      38.149  34.298  38.375  1.00  0.00    -0.200 F 
ENDBRANCH  47  61
BRANCH  48  72
ATOM     72  C   UNL A   1      42.705  25.912  27.963  1.00  0.00     0.064 A 
ATOM     73  C   UNL A   1      43.594  26.396  26.993  1.00  0.00     0.173 A 
ATOM     74  C   UNL A   1      42.270  24.584  27.846  1.00  0.00     0.173 A 
ATOM     75  F   UNL A   1      44.018  27.667  27.048  1.00  0.00    -0.203 F 
ATOM     76  C   UNL A   1      44.018  25.589  25.938  1.00  0.00     0.198 A 
ATOM     77  C   UNL A   1      42.715  23.770  26.807  1.00  0.00     0.198 A 
ATOM     78  F   UNL A   1      41.418  24.075  28.747  1.00  0.00    -0.203 F 
ATOM     79  F   UNL A   1      44.832  26.090  25.000  1.00  0.00    -0.200 F 
ATOM     80  C   UNL A   1      43.582  24.276  25.849  1.00  0.00     0.200 A 
ATOM     81  F   UNL A   1      42.300  22.498  26.728  1.00  0.00    -0.200 F 
ATOM     82  F   UNL A   1      43.991  23.500  24.836  1.00  0.00    -0.200 F 
ENDBRANCH  48  72
BRANCH  60  83
ATOM     83  C   UNL A   1      45.150  27.290  34.334  1.00  0.00     0.064 A 
ATOM     84  C   UNL A   1      46.381  27.962  34.320  1.00  0.00     0.173 A 
ATOM     85  C   UNL A   1      45.044  26.127  35.113  1.00  0.00     0.173 A 
ATOM     86  F   UNL A   1      46.537  29.069  33.578  1.00  0.00    -0.203 F 
ATOM     87  C   UNL A   1      47.471  27.472  35.034  1.00  0.00     0.198 A 
ATOM     88  C   UNL A   1      46.128  25.657  35.848  1.00  0.00     0.198 A 
ATOM     89  F   UNL A   1      43.886  25.453  35.167  1.00  0.00    -0.203 F 
ATOM     90  F   UNL A   1      48.652  28.103  34.966  1.00  0.00    -0.200 F 
ATOM     91  C   UNL A   1      47.343  26.324  35.801  1.00  0.00     0.200 A 
ATOM     92  F   UNL A   1      45.999  24.553  36.599  1.00  0.00    -0.200 F 
ATOM     93  F   UNL A   1      48.393  25.856  36.491  1.00  0.00    -0.200 F 
ENDBRANCH  60  83
ENDBRANCH  34  35
ENDBRANCH  27  29
ENDBRANCH  26  27
ENDBRANCH  25  26
ENDBRANCH  24  25
ENDBRANCH   1  24
TORSDOF 16
ENDMDL
