MODEL 1
REMARK VINA RESULT:     -13.2      0.000      0.000
REMARK SMILES O=C(/C=C/c1ccc(S(=O)(=O)Nc2ccc3c(c2)OCCO3)cc1)OCCOC(=O)c1ccc(-c2c3nc(c(-c4c(F)c(F)c(F)c(F)c4F)c4ccc([nH]4)c(-c4c(F)c(F)c(F)c(F)c4F)c4nc(c(-c5c(F)c(F)c(F)c(F)c5F)c5ccc2[nH]5)C=C4)C=C3)cc1
REMARK SMILES IDX 26 1 25 2 2 3 1 4 3 5 4 6 5 7 6 8 24 9 7 10 23 11 8 12 9 13
REMARK SMILES IDX 10 14 11 15 12 16 13 18 14 19 18 20 15 21 17 22 16 23 19 24
REMARK SMILES IDX 22 25 20 26 21 27 27 28 28 29 29 30 30 31 31 32 32 33 93 34
REMARK SMILES IDX 33 35 92 36 34 37 35 38 36 39 86 40 37 41 91 42 85 43 87 44
REMARK SMILES IDX 38 45 90 46 84 47 83 48 39 50 71 51 51 52 70 53 52 54 55 55
REMARK SMILES IDX 69 56 88 57 53 58 54 59 68 61 89 62 56 63 40 64 41 65 49 66
REMARK SMILES IDX 42 67 43 68 47 69 50 70 44 71 45 72 48 73 46 74 72 75 73 76
REMARK SMILES IDX 81 77 74 78 75 79 79 80 82 81 76 82 77 83 80 84 78 85 57 86
REMARK SMILES IDX 58 87 66 88 59 89 60 90 64 91 67 92 61 93 62 94 65 95 63 96
REMARK H PARENT 12 17 87 49 55 60
REMARK Flexibility Score: inf
ROOT
ATOM      1  C   UNL A   1      42.837  20.165  25.828  1.00  0.00     0.275 C 
ENDROOT
BRANCH   1   2
ATOM      2  O   UNL A   1      41.425  20.443  25.724  1.00  0.00    -0.459 OA
BRANCH   2   3
ATOM      3  C   UNL A   1      40.619  20.998  26.657  1.00  0.00     0.330 C 
ATOM      4  O   UNL A   1      40.733  20.706  27.844  1.00  0.00    -0.247 OA
BRANCH   3   5
ATOM      5  C   UNL A   1      39.440  21.785  26.252  1.00  0.00     0.094 C 
ATOM      6  C   UNL A   1      38.473  21.429  25.396  1.00  0.00     0.015 C 
BRANCH   6   7
ATOM      7  C   UNL A   1      37.242  22.189  25.109  1.00  0.00    -0.025 A 
ATOM      8  C   UNL A   1      36.791  22.208  23.782  1.00  0.00     0.009 A 
ATOM      9  C   UNL A   1      36.507  22.897  26.069  1.00  0.00     0.009 A 
ATOM     10  C   UNL A   1      35.704  23.000  23.405  1.00  0.00     0.023 A 
ATOM     11  C   UNL A   1      35.375  23.640  25.709  1.00  0.00     0.023 A 
ATOM     12  C   UNL A   1      35.026  23.754  24.365  1.00  0.00     0.087 A 
BRANCH  12  13
ATOM     13  S   UNL A   1      33.867  24.990  23.786  1.00  0.00     0.261 S 
ATOM     14  O   UNL A   1      34.039  26.155  24.629  1.00  0.00    -0.201 OA
ATOM     15  O   UNL A   1      34.027  25.069  22.350  1.00  0.00    -0.201 OA
BRANCH  13  16
ATOM     16  N   UNL A   1      32.298  24.404  24.062  1.00  0.00    -0.279 N 
ATOM     17  H   UNL A   1      31.581  25.023  24.331  1.00  0.00     0.180 HD
BRANCH  16  18
ATOM     18  C   UNL A   1      32.018  23.015  23.903  1.00  0.00     0.053 A 
ATOM     19  C   UNL A   1      31.971  22.524  22.596  1.00  0.00     0.031 A 
ATOM     20  C   UNL A   1      31.994  22.135  24.985  1.00  0.00     0.077 A 
ATOM     21  C   UNL A   1      32.074  21.156  22.367  1.00  0.00     0.052 A 
ATOM     22  C   UNL A   1      32.186  20.776  24.751  1.00  0.00     0.163 A 
ATOM     23  C   UNL A   1      32.278  20.301  23.439  1.00  0.00     0.161 A 
ATOM     24  O   UNL A   1      32.405  19.987  25.849  1.00  0.00    -0.486 OA
ATOM     25  O   UNL A   1      32.676  19.023  23.141  1.00  0.00    -0.486 OA
ATOM     26  C   UNL A   1      32.784  18.644  25.518  1.00  0.00     0.271 C 
ATOM     27  C   UNL A   1      33.530  18.563  24.196  1.00  0.00     0.271 C 
ENDBRANCH  16  18
ENDBRANCH  13  16
ENDBRANCH  12  13
ENDBRANCH   6   7
ENDBRANCH   3   5
ENDBRANCH   2   3
ENDBRANCH   1   2
BRANCH   1  28
ATOM     28  C   UNL A   1      43.763  21.328  25.457  1.00  0.00     0.275 C 
BRANCH  28  29
ATOM     29  O   UNL A   1      43.063  22.461  24.918  1.00  0.00    -0.458 OA
BRANCH  29  30
ATOM     30  C   UNL A   1      43.771  23.622  24.922  1.00  0.00     0.338 C 
ATOM     31  O   UNL A   1      44.660  23.930  24.157  1.00  0.00    -0.246 OA
BRANCH  30  32
ATOM     32  C   UNL A   1      43.200  24.567  25.916  1.00  0.00     0.060 A 
ATOM     33  C   UNL A   1      43.861  25.788  26.103  1.00  0.00     0.016 A 
ATOM     34  C   UNL A   1      42.043  24.285  26.645  1.00  0.00     0.016 A 
ATOM     35  C   UNL A   1      43.377  26.723  27.025  1.00  0.00     0.010 A 
ATOM     36  C   UNL A   1      41.558  25.224  27.568  1.00  0.00     0.010 A 
ATOM     37  C   UNL A   1      42.228  26.447  27.777  1.00  0.00    -0.014 A 
BRANCH  37  38
ATOM     38  C   UNL A   1      41.797  27.361  28.871  1.00  0.00     0.031 A 
ATOM     39  C   UNL A   1      42.513  27.304  30.195  1.00  0.00     0.074 A 
ATOM     40  C   UNL A   1      40.811  28.265  28.711  1.00  0.00     0.049 A 
ATOM     41  N   UNL A   1      42.278  27.970  31.297  1.00  0.00    -0.248 NA
ATOM     42  C   UNL A   1      43.657  26.383  30.280  1.00  0.00     0.031 C 
ATOM     43  C   UNL A   1      40.082  28.530  27.474  1.00  0.00     0.029 A 
ATOM     44  N   UNL A   1      40.247  29.134  29.621  1.00  0.00    -0.354 N 
ATOM     45  C   UNL A   1      43.263  27.577  32.192  1.00  0.00     0.074 A 
ATOM     46  C   UNL A   1      44.051  26.557  31.532  1.00  0.00     0.031 C 
ATOM     47  C   UNL A   1      39.150  29.470  27.711  1.00  0.00     0.029 A 
ATOM     48  C   UNL A   1      39.171  29.828  29.126  1.00  0.00     0.049 A 
ATOM     49  H   UNL A   1      40.585  29.247  30.538  1.00  0.00     0.167 HD
ATOM     50  C   UNL A   1      43.519  28.046  33.437  1.00  0.00     0.037 A 
ATOM     51  C   UNL A   1      38.277  30.624  29.744  1.00  0.00     0.037 A 
ATOM     52  C   UNL A   1      42.749  29.058  34.110  1.00  0.00     0.049 A 
ATOM     53  C   UNL A   1      38.450  30.975  31.193  1.00  0.00     0.074 A 
ATOM     54  C   UNL A   1      42.979  29.634  35.349  1.00  0.00     0.029 A 
ATOM     55  N   UNL A   1      41.592  29.633  33.613  1.00  0.00    -0.354 N 
ATOM     56  N   UNL A   1      39.394  30.612  32.023  1.00  0.00    -0.248 NA
ATOM     57  C   UNL A   1      37.445  31.875  31.780  1.00  0.00     0.031 C 
ATOM     58  C   UNL A   1      41.927  30.512  35.628  1.00  0.00     0.029 A 
ATOM     59  C   UNL A   1      41.071  30.524  34.539  1.00  0.00     0.049 A 
ATOM     60  H   UNL A   1      41.196  29.436  32.733  1.00  0.00     0.167 HD
ATOM     61  C   UNL A   1      39.132  31.280  33.210  1.00  0.00     0.074 A 
ATOM     62  C   UNL A   1      37.919  32.045  33.007  1.00  0.00     0.031 C 
ATOM     63  C   UNL A   1      39.861  31.282  34.352  1.00  0.00     0.037 A 
BRANCH  50  64
ATOM     64  C   UNL A   1      44.697  27.463  34.157  1.00  0.00     0.064 A 
ATOM     65  C   UNL A   1      45.971  28.043  34.064  1.00  0.00     0.173 A 
ATOM     66  C   UNL A   1      44.544  26.330  34.968  1.00  0.00     0.173 A 
ATOM     67  F   UNL A   1      46.168  29.122  33.289  1.00  0.00    -0.203 F 
ATOM     68  C   UNL A   1      47.058  27.491  34.737  1.00  0.00     0.198 A 
ATOM     69  C   UNL A   1      45.627  25.798  35.661  1.00  0.00     0.198 A 
ATOM     70  F   UNL A   1      43.344  25.743  35.091  1.00  0.00    -0.203 F 
ATOM     71  F   UNL A   1      48.276  28.033  34.596  1.00  0.00    -0.200 F 
ATOM     72  C   UNL A   1      46.883  26.374  35.538  1.00  0.00     0.200 A 
ATOM     73  F   UNL A   1      45.456  24.725  36.444  1.00  0.00    -0.200 F 
ATOM     74  F   UNL A   1      47.930  25.846  36.188  1.00  0.00    -0.200 F 
ENDBRANCH  50  64
BRANCH  51  75
ATOM     75  C   UNL A   1      37.067  31.086  29.022  1.00  0.00     0.064 A 
ATOM     76  C   UNL A   1      36.910  32.408  28.598  1.00  0.00     0.173 A 
ATOM     77  C   UNL A   1      36.005  30.196  28.807  1.00  0.00     0.173 A 
ATOM     78  F   UNL A   1      37.875  33.307  28.840  1.00  0.00    -0.203 F 
ATOM     79  C   UNL A   1      35.736  32.822  27.968  1.00  0.00     0.198 A 
ATOM     80  C   UNL A   1      34.845  30.600  28.155  1.00  0.00     0.198 A 
ATOM     81  F   UNL A   1      36.089  28.939  29.265  1.00  0.00    -0.203 F 
ATOM     82  F   UNL A   1      35.589  34.102  27.605  1.00  0.00    -0.200 F 
ATOM     83  C   UNL A   1      34.710  31.915  27.737  1.00  0.00     0.200 A 
ATOM     84  F   UNL A   1      33.854  29.723  27.950  1.00  0.00    -0.200 F 
ATOM     85  F   UNL A   1      33.582  32.316  27.134  1.00  0.00    -0.200 F 
ENDBRANCH  51  75
BRANCH  63  86
ATOM     86  C   UNL A   1      39.409  32.184  35.462  1.00  0.00     0.064 A 
ATOM     87  C   UNL A   1      38.555  31.740  36.480  1.00  0.00     0.173 A 
ATOM     88  C   UNL A   1      39.869  33.510  35.522  1.00  0.00     0.173 A 
ATOM     89  F   UNL A   1      38.069  30.491  36.455  1.00  0.00    -0.203 F 
ATOM     90  C   UNL A   1      38.165  32.594  37.510  1.00  0.00     0.198 A 
ATOM     91  C   UNL A   1      39.501  34.352  36.566  1.00  0.00     0.198 A 
ATOM     92  F   UNL A   1      40.687  33.985  34.570  1.00  0.00    -0.203 F 
ATOM     93  F   UNL A   1      37.315  32.162  38.451  1.00  0.00    -0.200 F 
ATOM     94  C   UNL A   1      38.645  33.896  37.557  1.00  0.00     0.200 A 
ATOM     95  F   UNL A   1      39.973  35.605  36.614  1.00  0.00    -0.200 F 
ATOM     96  F   UNL A   1      38.274  34.713  38.553  1.00  0.00    -0.200 F 
ENDBRANCH  63  86
ENDBRANCH  37  38
ENDBRANCH  30  32
ENDBRANCH  29  30
ENDBRANCH  28  29
ENDBRANCH   1  28
TORSDOF 15
ENDMDL
MODEL 2
REMARK VINA RESULT:     -13.1      1.856      2.979
REMARK SMILES O=C(/C=C/c1ccc(S(=O)(=O)Nc2ccc3c(c2)OCCO3)cc1)OCCOC(=O)c1ccc(-c2c3nc(c(-c4c(F)c(F)c(F)c(F)c4F)c4ccc([nH]4)c(-c4c(F)c(F)c(F)c(F)c4F)c4nc(c(-c5c(F)c(F)c(F)c(F)c5F)c5ccc2[nH]5)C=C4)C=C3)cc1
REMARK SMILES IDX 26 1 25 2 2 3 1 4 3 5 4 6 5 7 6 8 24 9 7 10 23 11 8 12 9 13
REMARK SMILES IDX 10 14 11 15 12 16 13 18 14 19 18 20 15 21 17 22 16 23 19 24
REMARK SMILES IDX 22 25 20 26 21 27 27 28 28 29 29 30 30 31 31 32 32 33 93 34
REMARK SMILES IDX 33 35 92 36 34 37 35 38 36 39 86 40 37 41 91 42 85 43 87 44
REMARK SMILES IDX 38 45 90 46 84 47 83 48 39 50 71 51 51 52 70 53 52 54 55 55
REMARK SMILES IDX 69 56 88 57 53 58 54 59 68 61 89 62 56 63 40 64 41 65 49 66
REMARK SMILES IDX 42 67 43 68 47 69 50 70 44 71 45 72 48 73 46 74 72 75 73 76
REMARK SMILES IDX 81 77 74 78 75 79 79 80 82 81 76 82 77 83 80 84 78 85 57 86
REMARK SMILES IDX 58 87 66 88 59 89 60 90 64 91 67 92 61 93 62 94 65 95 63 96
REMARK H PARENT 12 17 87 49 55 60
REMARK Flexibility Score: inf
ROOT
ATOM      1  C   UNL A   1      42.904  20.306  26.072  1.00  0.00     0.275 C 
ENDROOT
BRANCH   1   2
ATOM      2  O   UNL A   1      41.488  20.333  25.797  1.00  0.00    -0.459 OA
BRANCH   2   3
ATOM      3  C   UNL A   1      40.518  20.956  26.504  1.00  0.00     0.330 C 
ATOM      4  O   UNL A   1      40.562  21.005  27.730  1.00  0.00    -0.247 OA
BRANCH   3   5
ATOM      5  C   UNL A   1      39.273  21.388  25.843  1.00  0.00     0.094 C 
ATOM      6  C   UNL A   1      38.527  22.464  26.123  1.00  0.00     0.015 C 
BRANCH   6   7
ATOM      7  C   UNL A   1      37.356  22.934  25.360  1.00  0.00    -0.025 A 
ATOM      8  C   UNL A   1      36.517  23.872  25.978  1.00  0.00     0.009 A 
ATOM      9  C   UNL A   1      37.025  22.498  24.070  1.00  0.00     0.009 A 
ATOM     10  C   UNL A   1      35.325  24.277  25.374  1.00  0.00     0.023 A 
ATOM     11  C   UNL A   1      35.864  22.952  23.430  1.00  0.00     0.023 A 
ATOM     12  C   UNL A   1      34.977  23.778  24.117  1.00  0.00     0.087 A 
BRANCH  12  13
ATOM     13  S   UNL A   1      33.306  24.066  23.541  1.00  0.00     0.261 S 
ATOM     14  O   UNL A   1      33.099  23.196  22.401  1.00  0.00    -0.201 OA
ATOM     15  O   UNL A   1      32.449  24.000  24.704  1.00  0.00    -0.201 OA
BRANCH  13  16
ATOM     16  N   UNL A   1      33.219  25.663  22.971  1.00  0.00    -0.279 N 
ATOM     17  H   UNL A   1      33.802  25.955  22.233  1.00  0.00     0.180 HD
BRANCH  16  18
ATOM     18  C   UNL A   1      32.300  26.580  23.561  1.00  0.00     0.053 A 
ATOM     19  C   UNL A   1      32.835  27.554  24.408  1.00  0.00     0.031 A 
ATOM     20  C   UNL A   1      30.965  26.649  23.165  1.00  0.00     0.077 A 
ATOM     21  C   UNL A   1      32.088  28.684  24.721  1.00  0.00     0.052 A 
ATOM     22  C   UNL A   1      30.253  27.821  23.407  1.00  0.00     0.163 A 
ATOM     23  C   UNL A   1      30.841  28.856  24.140  1.00  0.00     0.161 A 
ATOM     24  O   UNL A   1      29.037  27.941  22.786  1.00  0.00    -0.486 OA
ATOM     25  O   UNL A   1      30.285  30.107  24.232  1.00  0.00    -0.486 OA
ATOM     26  C   UNL A   1      28.454  29.245  22.925  1.00  0.00     0.271 C 
ATOM     27  C   UNL A   1      29.504  30.337  23.053  1.00  0.00     0.271 C 
ENDBRANCH  16  18
ENDBRANCH  13  16
ENDBRANCH  12  13
ENDBRANCH   6   7
ENDBRANCH   3   5
ENDBRANCH   2   3
ENDBRANCH   1   2
BRANCH   1  28
ATOM     28  C   UNL A   1      43.742  21.326  25.296  1.00  0.00     0.275 C 
BRANCH  28  29
ATOM     29  O   UNL A   1      43.008  22.506  24.933  1.00  0.00    -0.458 OA
BRANCH  29  30
ATOM     30  C   UNL A   1      43.725  23.661  24.986  1.00  0.00     0.338 C 
ATOM     31  O   UNL A   1      44.636  23.981  24.252  1.00  0.00    -0.246 OA
BRANCH  30  32
ATOM     32  C   UNL A   1      43.136  24.585  25.989  1.00  0.00     0.060 A 
ATOM     33  C   UNL A   1      43.699  25.863  26.102  1.00  0.00     0.016 A 
ATOM     34  C   UNL A   1      42.054  24.229  26.796  1.00  0.00     0.016 A 
ATOM     35  C   UNL A   1      43.193  26.782  27.028  1.00  0.00     0.010 A 
ATOM     36  C   UNL A   1      41.546  25.153  27.723  1.00  0.00     0.010 A 
ATOM     37  C   UNL A   1      42.119  26.433  27.858  1.00  0.00    -0.014 A 
BRANCH  37  38
ATOM     38  C   UNL A   1      41.679  27.342  28.953  1.00  0.00     0.031 A 
ATOM     39  C   UNL A   1      42.376  27.270  30.286  1.00  0.00     0.074 A 
ATOM     40  C   UNL A   1      40.700  28.253  28.786  1.00  0.00     0.049 A 
ATOM     41  N   UNL A   1      42.129  27.930  31.390  1.00  0.00    -0.248 NA
ATOM     42  C   UNL A   1      43.513  26.343  30.380  1.00  0.00     0.031 C 
ATOM     43  C   UNL A   1      39.990  28.530  27.541  1.00  0.00     0.029 A 
ATOM     44  N   UNL A   1      40.128  29.117  29.695  1.00  0.00    -0.354 N 
ATOM     45  C   UNL A   1      43.099  27.523  32.295  1.00  0.00     0.074 A 
ATOM     46  C   UNL A   1      43.890  26.504  31.639  1.00  0.00     0.031 C 
ATOM     47  C   UNL A   1      39.060  29.474  27.772  1.00  0.00     0.029 A 
ATOM     48  C   UNL A   1      39.063  29.821  29.190  1.00  0.00     0.049 A 
ATOM     49  H   UNL A   1      40.454  29.222  30.617  1.00  0.00     0.167 HD
ATOM     50  C   UNL A   1      43.340  27.982  33.547  1.00  0.00     0.037 A 
ATOM     51  C   UNL A   1      38.165  30.617  29.802  1.00  0.00     0.037 A 
ATOM     52  C   UNL A   1      42.567  28.994  34.217  1.00  0.00     0.049 A 
ATOM     53  C   UNL A   1      38.319  30.956  31.256  1.00  0.00     0.074 A 
ATOM     54  C   UNL A   1      42.782  29.558  35.463  1.00  0.00     0.029 A 
ATOM     55  N   UNL A   1      41.419  29.578  33.709  1.00  0.00    -0.354 N 
ATOM     56  N   UNL A   1      39.250  30.582  32.095  1.00  0.00    -0.248 NA
ATOM     57  C   UNL A   1      37.311  31.858  31.836  1.00  0.00     0.031 C 
ATOM     58  C   UNL A   1      41.731  30.440  35.734  1.00  0.00     0.029 A 
ATOM     59  C   UNL A   1      40.891  30.466  34.634  1.00  0.00     0.049 A 
ATOM     60  H   UNL A   1      41.035  29.391  32.822  1.00  0.00     0.167 HD
ATOM     61  C   UNL A   1      38.975  31.243  33.284  1.00  0.00     0.074 A 
ATOM     62  C   UNL A   1      37.770  32.016  33.070  1.00  0.00     0.031 C 
ATOM     63  C   UNL A   1      39.687  31.232  34.436  1.00  0.00     0.037 A 
BRANCH  50  64
ATOM     64  C   UNL A   1      44.505  27.387  34.279  1.00  0.00     0.064 A 
ATOM     65  C   UNL A   1      45.784  27.958  34.205  1.00  0.00     0.173 A 
ATOM     66  C   UNL A   1      44.334  26.251  35.082  1.00  0.00     0.173 A 
ATOM     67  F   UNL A   1      45.999  29.039  33.438  1.00  0.00    -0.203 F 
ATOM     68  C   UNL A   1      46.858  27.395  34.888  1.00  0.00     0.198 A 
ATOM     69  C   UNL A   1      45.403  25.708  35.786  1.00  0.00     0.198 A 
ATOM     70  F   UNL A   1      43.128  25.673  35.187  1.00  0.00    -0.203 F 
ATOM     71  F   UNL A   1      48.082  27.928  34.766  1.00  0.00    -0.200 F 
ATOM     72  C   UNL A   1      46.665  26.275  35.682  1.00  0.00     0.200 A 
ATOM     73  F   UNL A   1      45.215  24.632  36.562  1.00  0.00    -0.200 F 
ATOM     74  F   UNL A   1      47.700  25.736  36.343  1.00  0.00    -0.200 F 
ENDBRANCH  50  64
BRANCH  51  75
ATOM     75  C   UNL A   1      36.968  31.092  29.066  1.00  0.00     0.064 A 
ATOM     76  C   UNL A   1      36.827  32.417  28.645  1.00  0.00     0.173 A 
ATOM     77  C   UNL A   1      35.901  30.211  28.835  1.00  0.00     0.173 A 
ATOM     78  F   UNL A   1      37.797  33.306  28.900  1.00  0.00    -0.203 F 
ATOM     79  C   UNL A   1      35.664  32.842  28.001  1.00  0.00     0.198 A 
ATOM     80  C   UNL A   1      34.752  30.628  28.171  1.00  0.00     0.198 A 
ATOM     81  F   UNL A   1      35.968  28.953  29.291  1.00  0.00    -0.203 F 
ATOM     82  F   UNL A   1      35.532  34.125  27.641  1.00  0.00    -0.200 F 
ATOM     83  C   UNL A   1      34.633  31.944  27.755  1.00  0.00     0.200 A 
ATOM     84  F   UNL A   1      33.756  29.759  27.951  1.00  0.00    -0.200 F 
ATOM     85  F   UNL A   1      33.516  32.356  27.140  1.00  0.00    -0.200 F 
ENDBRANCH  51  75
BRANCH  63  86
ATOM     86  C   UNL A   1      39.226  32.128  35.546  1.00  0.00     0.064 A 
ATOM     87  C   UNL A   1      38.345  31.685  36.542  1.00  0.00     0.173 A 
ATOM     88  C   UNL A   1      39.703  33.446  35.630  1.00  0.00     0.173 A 
ATOM     89  F   UNL A   1      37.842  30.443  36.493  1.00  0.00    -0.203 F 
ATOM     90  C   UNL A   1      37.945  32.533  37.573  1.00  0.00     0.198 A 
ATOM     91  C   UNL A   1      39.324  34.282  36.676  1.00  0.00     0.198 A 
ATOM     92  F   UNL A   1      40.546  33.920  34.701  1.00  0.00    -0.203 F 
ATOM     93  F   UNL A   1      37.069  32.103  38.491  1.00  0.00    -0.200 F 
ATOM     94  C   UNL A   1      38.442  33.828  37.644  1.00  0.00     0.200 A 
ATOM     95  F   UNL A   1      39.812  35.528  36.747  1.00  0.00    -0.200 F 
ATOM     96  F   UNL A   1      38.062  34.639  38.641  1.00  0.00    -0.200 F 
ENDBRANCH  63  86
ENDBRANCH  37  38
ENDBRANCH  30  32
ENDBRANCH  29  30
ENDBRANCH  28  29
ENDBRANCH   1  28
TORSDOF 15
ENDMDL
MODEL 3
REMARK VINA RESULT:     -13.0      1.415      2.908
REMARK SMILES O=C(/C=C/c1ccc(S(=O)(=O)Nc2ccc3c(c2)OCCO3)cc1)OCCOC(=O)c1ccc(-c2c3nc(c(-c4c(F)c(F)c(F)c(F)c4F)c4ccc([nH]4)c(-c4c(F)c(F)c(F)c(F)c4F)c4nc(c(-c5c(F)c(F)c(F)c(F)c5F)c5ccc2[nH]5)C=C4)C=C3)cc1
REMARK SMILES IDX 26 1 25 2 2 3 1 4 3 5 4 6 5 7 6 8 24 9 7 10 23 11 8 12 9 13
REMARK SMILES IDX 10 14 11 15 12 16 13 18 14 19 18 20 15 21 17 22 16 23 19 24
REMARK SMILES IDX 22 25 20 26 21 27 27 28 28 29 29 30 30 31 31 32 32 33 93 34
REMARK SMILES IDX 33 35 92 36 34 37 35 38 36 39 86 40 37 41 91 42 85 43 87 44
REMARK SMILES IDX 38 45 90 46 84 47 83 48 39 50 71 51 51 52 70 53 52 54 55 55
REMARK SMILES IDX 69 56 88 57 53 58 54 59 68 61 89 62 56 63 40 64 41 65 49 66
REMARK SMILES IDX 42 67 43 68 47 69 50 70 44 71 45 72 48 73 46 74 72 75 73 76
REMARK SMILES IDX 81 77 74 78 75 79 79 80 82 81 76 82 77 83 80 84 78 85 57 86
REMARK SMILES IDX 58 87 66 88 59 89 60 90 64 91 67 92 61 93 62 94 65 95 63 96
REMARK H PARENT 12 17 87 49 55 60
REMARK Flexibility Score: inf
ROOT
ATOM      1  C   UNL A   1      42.687  20.399  26.121  1.00  0.00     0.275 C 
ENDROOT
BRANCH   1   2
ATOM      2  O   UNL A   1      41.276  20.539  25.857  1.00  0.00    -0.459 OA
BRANCH   2   3
ATOM      3  C   UNL A   1      40.360  21.218  26.584  1.00  0.00     0.330 C 
ATOM      4  O   UNL A   1      40.405  21.222  27.811  1.00  0.00    -0.247 OA
BRANCH   3   5
ATOM      5  C   UNL A   1      39.158  21.776  25.938  1.00  0.00     0.094 C 
ATOM      6  C   UNL A   1      38.146  21.105  25.373  1.00  0.00     0.015 C 
BRANCH   6   7
ATOM      7  C   UNL A   1      36.900  21.692  24.847  1.00  0.00    -0.025 A 
ATOM      8  C   UNL A   1      35.697  21.046  25.167  1.00  0.00     0.009 A 
ATOM      9  C   UNL A   1      36.842  22.839  24.044  1.00  0.00     0.009 A 
ATOM     10  C   UNL A   1      34.487  21.467  24.612  1.00  0.00     0.023 A 
ATOM     11  C   UNL A   1      35.622  23.306  23.538  1.00  0.00     0.023 A 
ATOM     12  C   UNL A   1      34.458  22.570  23.758  1.00  0.00     0.087 A 
BRANCH  12  13
ATOM     13  S   UNL A   1      32.959  22.862  22.824  1.00  0.00     0.261 S 
ATOM     14  O   UNL A   1      33.344  23.577  21.624  1.00  0.00    -0.201 OA
ATOM     15  O   UNL A   1      32.260  21.598  22.756  1.00  0.00    -0.201 OA
BRANCH  13  16
ATOM     16  N   UNL A   1      31.975  23.907  23.731  1.00  0.00    -0.279 N 
ATOM     17  H   UNL A   1      31.413  23.549  24.456  1.00  0.00     0.180 HD
BRANCH  16  18
ATOM     18  C   UNL A   1      31.963  25.303  23.442  1.00  0.00     0.053 A 
ATOM     19  C   UNL A   1      30.851  25.798  22.755  1.00  0.00     0.031 A 
ATOM     20  C   UNL A   1      32.899  26.181  23.986  1.00  0.00     0.077 A 
ATOM     21  C   UNL A   1      30.586  27.163  22.760  1.00  0.00     0.052 A 
ATOM     22  C   UNL A   1      32.585  27.535  24.065  1.00  0.00     0.163 A 
ATOM     23  C   UNL A   1      31.400  28.010  23.496  1.00  0.00     0.161 A 
ATOM     24  O   UNL A   1      33.415  28.316  24.827  1.00  0.00    -0.486 OA
ATOM     25  O   UNL A   1      30.928  29.279  23.719  1.00  0.00    -0.486 OA
ATOM     26  C   UNL A   1      32.922  29.650  25.018  1.00  0.00     0.271 C 
ATOM     27  C   UNL A   1      31.404  29.714  24.999  1.00  0.00     0.271 C 
ENDBRANCH  16  18
ENDBRANCH  13  16
ENDBRANCH  12  13
ENDBRANCH   6   7
ENDBRANCH   3   5
ENDBRANCH   2   3
ENDBRANCH   1   2
BRANCH   1  28
ATOM     28  C   UNL A   1      43.601  21.323  25.308  1.00  0.00     0.275 C 
BRANCH  28  29
ATOM     29  O   UNL A   1      42.946  22.523  24.867  1.00  0.00    -0.458 OA
BRANCH  29  30
ATOM     30  C   UNL A   1      43.703  23.649  24.955  1.00  0.00     0.338 C 
ATOM     31  O   UNL A   1      44.643  23.947  24.249  1.00  0.00    -0.246 OA
BRANCH  30  32
ATOM     32  C   UNL A   1      43.123  24.579  25.958  1.00  0.00     0.060 A 
ATOM     33  C   UNL A   1      43.706  25.847  26.080  1.00  0.00     0.016 A 
ATOM     34  C   UNL A   1      42.030  24.237  26.758  1.00  0.00     0.016 A 
ATOM     35  C   UNL A   1      43.209  26.771  27.006  1.00  0.00     0.010 A 
ATOM     36  C   UNL A   1      41.532  25.166  27.685  1.00  0.00     0.010 A 
ATOM     37  C   UNL A   1      42.125  26.437  27.828  1.00  0.00    -0.014 A 
BRANCH  37  38
ATOM     38  C   UNL A   1      41.693  27.348  28.924  1.00  0.00     0.031 A 
ATOM     39  C   UNL A   1      42.403  27.282  30.251  1.00  0.00     0.074 A 
ATOM     40  C   UNL A   1      40.711  28.256  28.763  1.00  0.00     0.049 A 
ATOM     41  N   UNL A   1      42.165  27.945  31.355  1.00  0.00    -0.248 NA
ATOM     42  C   UNL A   1      43.542  26.358  30.337  1.00  0.00     0.031 C 
ATOM     43  C   UNL A   1      39.989  28.528  27.523  1.00  0.00     0.029 A 
ATOM     44  N   UNL A   1      40.146  29.123  29.674  1.00  0.00    -0.354 N 
ATOM     45  C   UNL A   1      43.143  27.544  32.252  1.00  0.00     0.074 A 
ATOM     46  C   UNL A   1      43.931  26.525  31.593  1.00  0.00     0.031 C 
ATOM     47  C   UNL A   1      39.059  29.471  27.760  1.00  0.00     0.029 A 
ATOM     48  C   UNL A   1      39.075  29.823  29.177  1.00  0.00     0.049 A 
ATOM     49  H   UNL A   1      40.480  29.232  30.593  1.00  0.00     0.167 HD
ATOM     50  C   UNL A   1      43.395  28.008  33.500  1.00  0.00     0.037 A 
ATOM     51  C   UNL A   1      38.181  30.620  29.794  1.00  0.00     0.037 A 
ATOM     52  C   UNL A   1      42.626  29.020  34.174  1.00  0.00     0.049 A 
ATOM     53  C   UNL A   1      38.347  30.964  31.245  1.00  0.00     0.074 A 
ATOM     54  C   UNL A   1      42.852  29.590  35.417  1.00  0.00     0.029 A 
ATOM     55  N   UNL A   1      41.473  29.601  33.675  1.00  0.00    -0.354 N 
ATOM     56  N   UNL A   1      39.286  30.595  32.077  1.00  0.00    -0.248 NA
ATOM     57  C   UNL A   1      37.343  31.865  31.831  1.00  0.00     0.031 C 
ATOM     58  C   UNL A   1      41.802  30.470  35.694  1.00  0.00     0.029 A 
ATOM     59  C   UNL A   1      40.951  30.490  34.602  1.00  0.00     0.049 A 
ATOM     60  H   UNL A   1      41.081  29.409  32.792  1.00  0.00     0.167 HD
ATOM     61  C   UNL A   1      39.021  31.259  33.267  1.00  0.00     0.074 A 
ATOM     62  C   UNL A   1      37.812  32.029  33.060  1.00  0.00     0.031 C 
ATOM     63  C   UNL A   1      39.744  31.253  34.412  1.00  0.00     0.037 A 
BRANCH  50  64
ATOM     64  C   UNL A   1      44.568  27.417  34.224  1.00  0.00     0.064 A 
ATOM     65  C   UNL A   1      44.430  26.278  35.031  1.00  0.00     0.173 A 
ATOM     66  C   UNL A   1      45.844  27.979  34.086  1.00  0.00     0.173 A 
ATOM     67  F   UNL A   1      43.224  25.713  35.203  1.00  0.00    -0.203 F 
ATOM     68  C   UNL A   1      45.526  25.739  35.699  1.00  0.00     0.198 A 
ATOM     69  C   UNL A   1      46.942  27.421  34.733  1.00  0.00     0.198 A 
ATOM     70  F   UNL A   1      46.026  29.066  33.321  1.00  0.00    -0.203 F 
ATOM     71  F   UNL A   1      45.364  24.679  36.503  1.00  0.00    -0.200 F 
ATOM     72  C   UNL A   1      46.781  26.307  35.544  1.00  0.00     0.200 A 
ATOM     73  F   UNL A   1      48.157  27.963  34.574  1.00  0.00    -0.200 F 
ATOM     74  F   UNL A   1      47.836  25.785  36.185  1.00  0.00    -0.200 F 
ENDBRANCH  50  64
BRANCH  51  75
ATOM     75  C   UNL A   1      36.976  31.089  29.068  1.00  0.00     0.064 A 
ATOM     76  C   UNL A   1      36.832  32.411  28.636  1.00  0.00     0.173 A 
ATOM     77  C   UNL A   1      35.905  30.208  28.857  1.00  0.00     0.173 A 
ATOM     78  F   UNL A   1      37.806  33.301  28.873  1.00  0.00    -0.203 F 
ATOM     79  C   UNL A   1      35.663  32.832  28.002  1.00  0.00     0.198 A 
ATOM     80  C   UNL A   1      34.749  30.620  28.202  1.00  0.00     0.198 A 
ATOM     81  F   UNL A   1      35.976  28.954  29.323  1.00  0.00    -0.203 F 
ATOM     82  F   UNL A   1      35.528  34.111  27.632  1.00  0.00    -0.200 F 
ATOM     83  C   UNL A   1      34.628  31.933  27.776  1.00  0.00     0.200 A 
ATOM     84  F   UNL A   1      33.750  29.751  28.001  1.00  0.00    -0.200 F 
ATOM     85  F   UNL A   1      33.504  32.341  27.170  1.00  0.00    -0.200 F 
ENDBRANCH  51  75
BRANCH  63  86
ATOM     86  C   UNL A   1      39.291  32.153  35.523  1.00  0.00     0.064 A 
ATOM     87  C   UNL A   1      38.442  31.703  36.544  1.00  0.00     0.173 A 
ATOM     88  C   UNL A   1      39.744  33.480  35.582  1.00  0.00     0.173 A 
ATOM     89  F   UNL A   1      37.963  30.451  36.520  1.00  0.00    -0.203 F 
ATOM     90  C   UNL A   1      38.050  32.555  37.574  1.00  0.00     0.198 A 
ATOM     91  C   UNL A   1      39.374  34.321  36.628  1.00  0.00     0.198 A 
ATOM     92  F   UNL A   1      40.556  33.961  34.629  1.00  0.00    -0.203 F 
ATOM     93  F   UNL A   1      37.205  32.118  38.517  1.00  0.00    -0.200 F 
ATOM     94  C   UNL A   1      38.523  33.859  37.621  1.00  0.00     0.200 A 
ATOM     95  F   UNL A   1      39.838  35.576  36.675  1.00  0.00    -0.200 F 
ATOM     96  F   UNL A   1      38.150  34.674  38.618  1.00  0.00    -0.200 F 
ENDBRANCH  63  86
ENDBRANCH  37  38
ENDBRANCH  30  32
ENDBRANCH  29  30
ENDBRANCH  28  29
ENDBRANCH   1  28
TORSDOF 15
ENDMDL
