MODEL 1
REMARK VINA RESULT:     -12.8      0.000      0.000
REMARK SMILES Cc1cc(Br)cc2c1O[C@H](C(F)(F)F)C(C(=O)OCCOC(=O)c1ccc(-c3c4nc(c(-c5c(F)c(F)c(F)c(F)c5F)c5ccc([nH]5)c(-c5c(F)c(F)c(F)c(F)c5F)c5nc(c(-c6c(F)c(F)c(F)c(F)c6F)c6ccc3[nH]6)C=C5)C=C4)cc1)=C2
REMARK SMILES IDX 20 1 19 2 18 3 16 4 17 5 15 6 1 7 2 8 3 9 8 10 4 11 7 12
REMARK SMILES IDX 9 13 5 14 6 15 87 16 10 17 11 18 12 19 13 20 14 21 21 22
REMARK SMILES IDX 22 23 23 24 24 25 25 26 86 27 26 28 85 29 27 30 28 31 29 32
REMARK SMILES IDX 79 33 30 34 84 35 78 36 80 37 31 38 83 39 77 40 76 41 32 43
REMARK SMILES IDX 64 44 44 45 63 46 45 47 48 48 62 49 81 50 46 51 47 52 61 54
REMARK SMILES IDX 82 55 49 56 33 57 34 58 42 59 35 60 36 61 40 62 43 63 37 64
REMARK SMILES IDX 38 65 41 66 39 67 65 68 66 69 74 70 67 71 68 72 72 73 75 74
REMARK SMILES IDX 69 75 70 76 73 77 71 78 50 79 51 80 59 81 52 82 53 83 57 84
REMARK SMILES IDX 60 85 54 86 55 87 58 88 56 89
REMARK H PARENT 80 42 48 53
REMARK Flexibility Score: inf
ROOT
ATOM      1  C   UNL A   1      31.749  30.128  25.516  1.00  0.00     0.275 C 
ENDROOT
BRANCH   1   2
ATOM      2  C   UNL A   1      31.710  28.732  24.895  1.00  0.00     0.275 C 
BRANCH   2   3
ATOM      3  O   UNL A   1      32.442  27.778  25.697  1.00  0.00    -0.459 OA
BRANCH   3   4
ATOM      4  C   UNL A   1      31.689  26.843  26.319  1.00  0.00     0.338 C 
ATOM      5  O   UNL A   1      30.744  27.045  27.067  1.00  0.00    -0.246 OA
BRANCH   4   6
ATOM      6  C   UNL A   1      32.138  25.487  25.953  1.00  0.00     0.087 C 
ATOM      7  C   UNL A   1      32.611  20.813  23.862  1.00  0.00     0.048 C 
ATOM      8  C   UNL A   1      33.526  21.805  24.519  1.00  0.00    -0.007 A 
ATOM      9  C   UNL A   1      34.909  21.552  24.540  1.00  0.00     0.023 A 
ATOM     10  C   UNL A   1      33.041  23.016  25.039  1.00  0.00     0.130 A 
ATOM     11  C   UNL A   1      35.786  22.475  25.107  1.00  0.00     0.019 A 
ATOM     12  C   UNL A   1      33.932  23.939  25.590  1.00  0.00     0.019 A 
ATOM     13  O   UNL A   1      31.690  23.229  24.992  1.00  0.00    -0.475 OA
ATOM     14  Br  UNL A   1      37.642  22.122  25.135  1.00  0.00    -0.051 Br
ATOM     15  C   UNL A   1      35.304  23.665  25.638  1.00  0.00     0.027 A 
ATOM     16  C   UNL A   1      33.439  25.209  26.081  1.00  0.00     0.027 C 
ATOM     17  C   UNL A   1      31.158  24.543  25.322  1.00  0.00     0.316 C 
BRANCH  17  18
ATOM     18  C   UNL A   1      30.532  25.156  24.059  1.00  0.00     0.430 C 
ATOM     19  F   UNL A   1      30.055  24.200  23.229  1.00  0.00    -0.167 F 
ATOM     20  F   UNL A   1      29.485  25.961  24.365  1.00  0.00    -0.167 F 
ATOM     21  F   UNL A   1      31.421  25.897  23.359  1.00  0.00    -0.167 F 
ENDBRANCH  17  18
ENDBRANCH   4   6
ENDBRANCH   3   4
ENDBRANCH   2   3
ENDBRANCH   1   2
BRANCH   1  22
ATOM     22  O   UNL A   1      32.430  30.093  26.785  1.00  0.00    -0.458 OA
BRANCH  22  23
ATOM     23  C   UNL A   1      33.036  31.246  27.144  1.00  0.00     0.338 C 
ATOM     24  O   UNL A   1      32.541  32.357  27.220  1.00  0.00    -0.246 OA
BRANCH  23  25
ATOM     25  C   UNL A   1      34.429  30.987  27.544  1.00  0.00     0.060 A 
ATOM     26  C   UNL A   1      34.816  29.674  27.774  1.00  0.00     0.016 A 
ATOM     27  C   UNL A   1      35.274  32.034  27.899  1.00  0.00     0.016 A 
ATOM     28  C   UNL A   1      35.957  29.407  28.524  1.00  0.00     0.010 A 
ATOM     29  C   UNL A   1      36.504  31.750  28.508  1.00  0.00     0.010 A 
ATOM     30  C   UNL A   1      36.837  30.435  28.884  1.00  0.00    -0.014 A 
BRANCH  30  31
ATOM     31  C   UNL A   1      38.071  30.134  29.671  1.00  0.00     0.031 A 
ATOM     32  C   UNL A   1      39.175  29.296  29.071  1.00  0.00     0.074 A 
ATOM     33  C   UNL A   1      38.231  30.638  30.914  1.00  0.00     0.049 A 
ATOM     34  N   UNL A   1      40.227  28.771  29.652  1.00  0.00    -0.248 NA
ATOM     35  C   UNL A   1      39.083  28.997  27.632  1.00  0.00     0.031 C 
ATOM     36  C   UNL A   1      37.281  31.515  31.604  1.00  0.00     0.029 A 
ATOM     37  N   UNL A   1      39.260  30.504  31.816  1.00  0.00    -0.354 N 
ATOM     38  C   UNL A   1      40.883  28.041  28.668  1.00  0.00     0.074 A 
ATOM     39  C   UNL A   1      40.110  28.177  27.454  1.00  0.00     0.031 C 
ATOM     40  C   UNL A   1      37.799  31.893  32.781  1.00  0.00     0.029 A 
ATOM     41  C   UNL A   1      39.057  31.190  32.990  1.00  0.00     0.049 A 
ATOM     42  H   UNL A   1      40.065  29.966  31.639  1.00  0.00     0.167 HD
ATOM     43  C   UNL A   1      42.031  27.327  28.771  1.00  0.00     0.037 A 
ATOM     44  C   UNL A   1      39.770  31.216  34.133  1.00  0.00     0.037 A 
ATOM     45  C   UNL A   1      42.832  27.248  29.965  1.00  0.00     0.049 A 
ATOM     46  C   UNL A   1      41.001  30.362  34.241  1.00  0.00     0.074 A 
ATOM     47  C   UNL A   1      44.010  26.549  30.168  1.00  0.00     0.029 A 
ATOM     48  N   UNL A   1      42.553  27.913  31.149  1.00  0.00    -0.354 N 
ATOM     49  N   UNL A   1      41.567  29.612  33.329  1.00  0.00    -0.248 NA
ATOM     50  C   UNL A   1      41.676  30.335  35.546  1.00  0.00     0.031 C 
ATOM     51  C   UNL A   1      44.423  26.760  31.487  1.00  0.00     0.029 A 
ATOM     52  C   UNL A   1      43.529  27.628  32.091  1.00  0.00     0.049 A 
ATOM     53  H   UNL A   1      41.777  28.500  31.299  1.00  0.00     0.167 HD
ATOM     54  C   UNL A   1      42.668  29.033  33.944  1.00  0.00     0.074 A 
ATOM     55  C   UNL A   1      42.707  29.539  35.300  1.00  0.00     0.031 C 
ATOM     56  C   UNL A   1      43.560  28.152  33.432  1.00  0.00     0.037 A 
BRANCH  43  57
ATOM     57  C   UNL A   1      42.502  26.558  27.568  1.00  0.00     0.064 A 
ATOM     58  C   UNL A   1      43.469  27.072  26.694  1.00  0.00     0.173 A 
ATOM     59  C   UNL A   1      42.046  25.248  27.346  1.00  0.00     0.173 A 
ATOM     60  F   UNL A   1      43.930  28.321  26.856  1.00  0.00    -0.203 F 
ATOM     61  C   UNL A   1      43.958  26.307  25.637  1.00  0.00     0.198 A 
ATOM     62  C   UNL A   1      42.558  24.477  26.306  1.00  0.00     0.198 A 
ATOM     63  F   UNL A   1      41.127  24.705  28.157  1.00  0.00    -0.203 F 
ATOM     64  F   UNL A   1      44.865  26.828  24.799  1.00  0.00    -0.200 F 
ATOM     65  C   UNL A   1      43.512  25.007  25.451  1.00  0.00     0.200 A 
ATOM     66  F   UNL A   1      42.136  23.215  26.139  1.00  0.00    -0.200 F 
ATOM     67  F   UNL A   1      44.001  24.265  24.449  1.00  0.00    -0.200 F 
ENDBRANCH  43  57
BRANCH  44  68
ATOM     68  C   UNL A   1      39.310  32.044  35.282  1.00  0.00     0.064 A 
ATOM     69  C   UNL A   1      39.670  33.394  35.385  1.00  0.00     0.173 A 
ATOM     70  C   UNL A   1      38.497  31.510  36.294  1.00  0.00     0.173 A 
ATOM     71  F   UNL A   1      40.468  33.947  34.459  1.00  0.00    -0.203 F 
ATOM     72  C   UNL A   1      39.243  34.174  36.459  1.00  0.00     0.198 A 
ATOM     73  C   UNL A   1      38.040  32.298  37.347  1.00  0.00     0.198 A 
ATOM     74  F   UNL A   1      38.125  30.221  36.247  1.00  0.00    -0.203 F 
ATOM     75  F   UNL A   1      39.640  35.450  36.556  1.00  0.00    -0.200 F 
ATOM     76  C   UNL A   1      38.420  33.629  37.432  1.00  0.00     0.200 A 
ATOM     77  F   UNL A   1      37.231  31.770  38.275  1.00  0.00    -0.200 F 
ATOM     78  F   UNL A   1      38.000  34.382  38.457  1.00  0.00    -0.200 F 
ENDBRANCH  44  68
BRANCH  56  79
ATOM     79  C   UNL A   1      44.673  27.694  34.328  1.00  0.00     0.064 A 
ATOM     80  C   UNL A   1      45.863  28.425  34.445  1.00  0.00     0.173 A 
ATOM     81  C   UNL A   1      44.518  26.552  35.128  1.00  0.00     0.173 A 
ATOM     82  F   UNL A   1      46.063  29.516  33.690  1.00  0.00    -0.203 F 
ATOM     83  C   UNL A   1      46.865  28.022  35.323  1.00  0.00     0.198 A 
ATOM     84  C   UNL A   1      45.509  26.168  36.025  1.00  0.00     0.198 A 
ATOM     85  F   UNL A   1      43.394  25.823  35.056  1.00  0.00    -0.203 F 
ATOM     86  F   UNL A   1      48.009  28.715  35.394  1.00  0.00    -0.200 F 
ATOM     87  C   UNL A   1      46.683  26.900  36.119  1.00  0.00     0.200 A 
ATOM     88  F   UNL A   1      45.325  25.093  36.804  1.00  0.00    -0.200 F 
ATOM     89  F   UNL A   1      47.642  26.523  36.976  1.00  0.00    -0.200 F 
ENDBRANCH  56  79
ENDBRANCH  30  31
ENDBRANCH  23  25
ENDBRANCH  22  23
ENDBRANCH   1  22
TORSDOF 12
ENDMDL
MODEL 2
REMARK VINA RESULT:     -12.8      0.103      1.144
REMARK SMILES Cc1cc(Br)cc2c1O[C@H](C(F)(F)F)C(C(=O)OCCOC(=O)c1ccc(-c3c4nc(c(-c5c(F)c(F)c(F)c(F)c5F)c5ccc([nH]5)c(-c5c(F)c(F)c(F)c(F)c5F)c5nc(c(-c6c(F)c(F)c(F)c(F)c6F)c6ccc3[nH]6)C=C5)C=C4)cc1)=C2
REMARK SMILES IDX 20 1 19 2 18 3 16 4 17 5 15 6 1 7 2 8 3 9 8 10 4 11 7 12
REMARK SMILES IDX 9 13 5 14 6 15 87 16 10 17 11 18 12 19 13 20 14 21 21 22
REMARK SMILES IDX 22 23 23 24 24 25 25 26 86 27 26 28 85 29 27 30 28 31 29 32
REMARK SMILES IDX 79 33 30 34 84 35 78 36 80 37 31 38 83 39 77 40 76 41 32 43
REMARK SMILES IDX 64 44 44 45 63 46 45 47 48 48 62 49 81 50 46 51 47 52 61 54
REMARK SMILES IDX 82 55 49 56 33 57 34 58 42 59 35 60 36 61 40 62 43 63 37 64
REMARK SMILES IDX 38 65 41 66 39 67 65 68 66 69 74 70 67 71 68 72 72 73 75 74
REMARK SMILES IDX 69 75 70 76 73 77 71 78 50 79 51 80 59 81 52 82 53 83 57 84
REMARK SMILES IDX 60 85 54 86 55 87 58 88 56 89
REMARK H PARENT 80 42 48 53
REMARK Flexibility Score: inf
ROOT
ATOM      1  C   UNL A   1      31.832  30.084  25.413  1.00  0.00     0.275 C 
ENDROOT
BRANCH   1   2
ATOM      2  C   UNL A   1      31.763  28.669  24.839  1.00  0.00     0.275 C 
BRANCH   2   3
ATOM      3  O   UNL A   1      32.508  27.735  25.653  1.00  0.00    -0.459 OA
BRANCH   3   4
ATOM      4  C   UNL A   1      31.765  26.813  26.307  1.00  0.00     0.338 C 
ATOM      5  O   UNL A   1      30.839  27.030  27.072  1.00  0.00    -0.246 OA
BRANCH   4   6
ATOM      6  C   UNL A   1      32.199  25.449  25.951  1.00  0.00     0.087 C 
ATOM      7  C   UNL A   1      32.638  20.765  23.875  1.00  0.00     0.048 C 
ATOM      8  C   UNL A   1      33.556  21.744  24.547  1.00  0.00    -0.007 A 
ATOM      9  C   UNL A   1      34.935  21.469  24.594  1.00  0.00     0.023 A 
ATOM     10  C   UNL A   1      33.081  22.963  25.056  1.00  0.00     0.130 A 
ATOM     11  C   UNL A   1      35.815  22.379  25.176  1.00  0.00     0.019 A 
ATOM     12  C   UNL A   1      33.976  23.873  25.623  1.00  0.00     0.019 A 
ATOM     13  O   UNL A   1      31.734  23.197  24.984  1.00  0.00    -0.475 OA
ATOM     14  Br  UNL A   1      37.665  21.998  25.238  1.00  0.00    -0.051 Br
ATOM     15  C   UNL A   1      35.343  23.578  25.696  1.00  0.00     0.027 A 
ATOM     16  C   UNL A   1      33.493  25.151  26.102  1.00  0.00     0.027 C 
ATOM     17  C   UNL A   1      31.217  24.520  25.303  1.00  0.00     0.316 C 
BRANCH  17  18
ATOM     18  C   UNL A   1      30.624  25.141  24.028  1.00  0.00     0.430 C 
ATOM     19  F   UNL A   1      30.080  24.197  23.225  1.00  0.00    -0.167 F 
ATOM     20  F   UNL A   1      29.635  26.020  24.318  1.00  0.00    -0.167 F 
ATOM     21  F   UNL A   1      31.555  25.803  23.304  1.00  0.00    -0.167 F 
ENDBRANCH  17  18
ENDBRANCH   4   6
ENDBRANCH   3   4
ENDBRANCH   2   3
ENDBRANCH   1   2
BRANCH   1  22
ATOM     22  O   UNL A   1      32.406  30.063  26.733  1.00  0.00    -0.458 OA
BRANCH  22  23
ATOM     23  C   UNL A   1      32.987  31.218  27.126  1.00  0.00     0.338 C 
ATOM     24  O   UNL A   1      32.469  32.317  27.227  1.00  0.00    -0.246 OA
BRANCH  23  25
ATOM     25  C   UNL A   1      34.382  30.976  27.529  1.00  0.00     0.060 A 
ATOM     26  C   UNL A   1      34.797  29.665  27.718  1.00  0.00     0.016 A 
ATOM     27  C   UNL A   1      35.201  32.029  27.926  1.00  0.00     0.016 A 
ATOM     28  C   UNL A   1      35.937  29.397  28.469  1.00  0.00     0.010 A 
ATOM     29  C   UNL A   1      36.432  31.752  28.536  1.00  0.00     0.010 A 
ATOM     30  C   UNL A   1      36.792  30.433  28.870  1.00  0.00    -0.014 A 
BRANCH  30  31
ATOM     31  C   UNL A   1      38.025  30.131  29.658  1.00  0.00     0.031 A 
ATOM     32  C   UNL A   1      39.129  29.291  29.059  1.00  0.00     0.074 A 
ATOM     33  C   UNL A   1      38.186  30.638  30.899  1.00  0.00     0.049 A 
ATOM     34  N   UNL A   1      40.180  28.767  29.641  1.00  0.00    -0.248 NA
ATOM     35  C   UNL A   1      39.036  28.989  27.621  1.00  0.00     0.031 C 
ATOM     36  C   UNL A   1      37.238  31.517  31.588  1.00  0.00     0.029 A 
ATOM     37  N   UNL A   1      39.215  30.505  31.801  1.00  0.00    -0.354 N 
ATOM     38  C   UNL A   1      40.835  28.033  28.658  1.00  0.00     0.074 A 
ATOM     39  C   UNL A   1      40.061  28.168  27.444  1.00  0.00     0.031 C 
ATOM     40  C   UNL A   1      37.756  31.898  32.763  1.00  0.00     0.029 A 
ATOM     41  C   UNL A   1      39.014  31.195  32.973  1.00  0.00     0.049 A 
ATOM     42  H   UNL A   1      40.020  29.966  31.624  1.00  0.00     0.167 HD
ATOM     43  C   UNL A   1      41.983  27.319  28.762  1.00  0.00     0.037 A 
ATOM     44  C   UNL A   1      39.728  31.223  34.116  1.00  0.00     0.037 A 
ATOM     45  C   UNL A   1      42.784  27.242  29.956  1.00  0.00     0.049 A 
ATOM     46  C   UNL A   1      40.957  30.368  34.226  1.00  0.00     0.074 A 
ATOM     47  C   UNL A   1      43.961  26.542  30.159  1.00  0.00     0.029 A 
ATOM     48  N   UNL A   1      42.506  27.910  31.138  1.00  0.00    -0.354 N 
ATOM     49  N   UNL A   1      41.523  29.614  33.315  1.00  0.00    -0.248 NA
ATOM     50  C   UNL A   1      41.633  30.343  35.531  1.00  0.00     0.031 C 
ATOM     51  C   UNL A   1      44.375  26.756  31.477  1.00  0.00     0.029 A 
ATOM     52  C   UNL A   1      43.483  27.626  32.080  1.00  0.00     0.049 A 
ATOM     53  H   UNL A   1      41.731  28.498  31.287  1.00  0.00     0.167 HD
ATOM     54  C   UNL A   1      42.624  29.037  33.930  1.00  0.00     0.074 A 
ATOM     55  C   UNL A   1      42.663  29.545  35.285  1.00  0.00     0.031 C 
ATOM     56  C   UNL A   1      43.515  28.153  33.420  1.00  0.00     0.037 A 
BRANCH  43  57
ATOM     57  C   UNL A   1      42.452  26.547  27.561  1.00  0.00     0.064 A 
ATOM     58  C   UNL A   1      43.429  27.053  26.691  1.00  0.00     0.173 A 
ATOM     59  C   UNL A   1      41.985  25.242  27.334  1.00  0.00     0.173 A 
ATOM     60  F   UNL A   1      43.900  28.297  26.857  1.00  0.00    -0.203 F 
ATOM     61  C   UNL A   1      43.915  26.284  25.636  1.00  0.00     0.198 A 
ATOM     62  C   UNL A   1      42.494  24.467  26.296  1.00  0.00     0.198 A 
ATOM     63  F   UNL A   1      41.057  24.706  28.141  1.00  0.00    -0.203 F 
ATOM     64  F   UNL A   1      44.831  26.797  24.803  1.00  0.00    -0.200 F 
ATOM     65  C   UNL A   1      43.457  24.989  25.447  1.00  0.00     0.200 A 
ATOM     66  F   UNL A   1      42.062  23.209  26.125  1.00  0.00    -0.200 F 
ATOM     67  F   UNL A   1      43.945  24.243  24.446  1.00  0.00    -0.200 F 
ENDBRANCH  43  57
BRANCH  44  68
ATOM     68  C   UNL A   1      39.269  32.053  35.263  1.00  0.00     0.064 A 
ATOM     69  C   UNL A   1      39.607  33.410  35.349  1.00  0.00     0.173 A 
ATOM     70  C   UNL A   1      38.479  31.515  36.291  1.00  0.00     0.173 A 
ATOM     71  F   UNL A   1      40.383  33.968  34.407  1.00  0.00    -0.203 F 
ATOM     72  C   UNL A   1      39.181  34.193  36.421  1.00  0.00     0.198 A 
ATOM     73  C   UNL A   1      38.023  32.306  37.343  1.00  0.00     0.198 A 
ATOM     74  F   UNL A   1      38.129  30.220  36.262  1.00  0.00    -0.203 F 
ATOM     75  F   UNL A   1      39.557  35.477  36.501  1.00  0.00    -0.200 F 
ATOM     76  C   UNL A   1      38.381  33.643  37.411  1.00  0.00     0.200 A 
ATOM     77  F   UNL A   1      37.236  31.773  38.287  1.00  0.00    -0.200 F 
ATOM     78  F   UNL A   1      37.961  34.399  38.434  1.00  0.00    -0.200 F 
ENDBRANCH  44  68
BRANCH  56  79
ATOM     79  C   UNL A   1      44.627  27.696  34.317  1.00  0.00     0.064 A 
ATOM     80  C   UNL A   1      44.515  26.527  35.081  1.00  0.00     0.173 A 
ATOM     81  C   UNL A   1      45.841  28.398  34.357  1.00  0.00     0.173 A 
ATOM     82  F   UNL A   1      43.369  25.830  35.086  1.00  0.00    -0.203 F 
ATOM     83  C   UNL A   1      45.576  26.082  35.866  1.00  0.00     0.198 A 
ATOM     84  C   UNL A   1      46.909  27.936  35.120  1.00  0.00     0.198 A 
ATOM     85  F   UNL A   1      45.998  29.520  33.639  1.00  0.00    -0.203 F 
ATOM     86  F   UNL A   1      45.436  24.982  36.616  1.00  0.00    -0.200 F 
ATOM     87  C   UNL A   1      46.775  26.782  35.876  1.00  0.00     0.200 A 
ATOM     88  F   UNL A   1      48.071  28.603  35.116  1.00  0.00    -0.200 F 
ATOM     89  F   UNL A   1      47.800  26.342  36.618  1.00  0.00    -0.200 F 
ENDBRANCH  56  79
ENDBRANCH  30  31
ENDBRANCH  23  25
ENDBRANCH  22  23
ENDBRANCH   1  22
TORSDOF 12
ENDMDL
MODEL 3
REMARK VINA RESULT:     -12.7      4.235      9.536
REMARK SMILES Cc1cc(Br)cc2c1O[C@H](C(F)(F)F)C(C(=O)OCCOC(=O)c1ccc(-c3c4nc(c(-c5c(F)c(F)c(F)c(F)c5F)c5ccc([nH]5)c(-c5c(F)c(F)c(F)c(F)c5F)c5nc(c(-c6c(F)c(F)c(F)c(F)c6F)c6ccc3[nH]6)C=C5)C=C4)cc1)=C2
REMARK SMILES IDX 20 1 19 2 18 3 16 4 17 5 15 6 1 7 2 8 3 9 8 10 4 11 7 12
REMARK SMILES IDX 9 13 5 14 6 15 87 16 10 17 11 18 12 19 13 20 14 21 21 22
REMARK SMILES IDX 22 23 23 24 24 25 25 26 86 27 26 28 85 29 27 30 28 31 29 32
REMARK SMILES IDX 79 33 30 34 84 35 78 36 80 37 31 38 83 39 77 40 76 41 32 43
REMARK SMILES IDX 64 44 44 45 63 46 45 47 48 48 62 49 81 50 46 51 47 52 61 54
REMARK SMILES IDX 82 55 49 56 33 57 34 58 42 59 35 60 36 61 40 62 43 63 37 64
REMARK SMILES IDX 38 65 41 66 39 67 65 68 66 69 74 70 67 71 68 72 72 73 75 74
REMARK SMILES IDX 69 75 70 76 73 77 71 78 50 79 51 80 59 81 52 82 53 83 57 84
REMARK SMILES IDX 60 85 54 86 55 87 58 88 56 89
REMARK H PARENT 80 42 48 53
REMARK Flexibility Score: inf
ROOT
ATOM      1  C   UNL A   1      36.509  20.389  24.997  1.00  0.00     0.275 C 
ENDROOT
BRANCH   1   2
ATOM      2  C   UNL A   1      35.057  20.828  25.186  1.00  0.00     0.275 C 
BRANCH   2   3
ATOM      3  O   UNL A   1      34.977  22.122  25.824  1.00  0.00    -0.459 OA
BRANCH   3   4
ATOM      4  C   UNL A   1      33.759  22.708  25.800  1.00  0.00     0.338 C 
ATOM      5  O   UNL A   1      32.709  22.229  26.198  1.00  0.00    -0.246 OA
BRANCH   4   6
ATOM      6  C   UNL A   1      33.849  24.070  25.239  1.00  0.00     0.087 C 
ATOM      7  C   UNL A   1      33.871  28.161  22.125  1.00  0.00     0.048 C 
ATOM      8  C   UNL A   1      33.665  27.915  23.592  1.00  0.00    -0.007 A 
ATOM      9  C   UNL A   1      33.272  28.984  24.417  1.00  0.00     0.023 A 
ATOM     10  C   UNL A   1      33.776  26.628  24.140  1.00  0.00     0.130 A 
ATOM     11  C   UNL A   1      33.035  28.776  25.774  1.00  0.00     0.019 A 
ATOM     12  C   UNL A   1      33.520  26.430  25.499  1.00  0.00     0.019 A 
ATOM     13  O   UNL A   1      34.152  25.613  23.303  1.00  0.00    -0.475 OA
ATOM     14  Br  UNL A   1      32.513  30.220  26.875  1.00  0.00    -0.051 Br
ATOM     15  C   UNL A   1      33.163  27.505  26.321  1.00  0.00     0.027 A 
ATOM     16  C   UNL A   1      33.586  25.095  26.055  1.00  0.00     0.027 C 
ATOM     17  C   UNL A   1      34.081  24.235  23.767  1.00  0.00     0.316 C 
BRANCH  17  18
ATOM     18  C   UNL A   1      33.011  23.492  22.950  1.00  0.00     0.430 C 
ATOM     19  F   UNL A   1      32.895  24.005  21.704  1.00  0.00    -0.167 F 
ATOM     20  F   UNL A   1      33.322  22.181  22.802  1.00  0.00    -0.167 F 
ATOM     21  F   UNL A   1      31.791  23.556  23.533  1.00  0.00    -0.167 F 
ENDBRANCH  17  18
ENDBRANCH   4   6
ENDBRANCH   3   4
ENDBRANCH   2   3
ENDBRANCH   1   2
BRANCH   1  22
ATOM     22  O   UNL A   1      37.399  21.504  25.187  1.00  0.00    -0.458 OA
BRANCH  22  23
ATOM     23  C   UNL A   1      38.578  21.206  25.776  1.00  0.00     0.338 C 
ATOM     24  O   UNL A   1      39.197  20.158  25.715  1.00  0.00    -0.246 OA
BRANCH  23  25
ATOM     25  C   UNL A   1      39.113  22.385  26.476  1.00  0.00     0.060 A 
ATOM     26  C   UNL A   1      38.580  23.630  26.173  1.00  0.00     0.016 A 
ATOM     27  C   UNL A   1      40.266  22.291  27.249  1.00  0.00     0.016 A 
ATOM     28  C   UNL A   1      39.292  24.786  26.479  1.00  0.00     0.010 A 
ATOM     29  C   UNL A   1      40.891  23.463  27.698  1.00  0.00     0.010 A 
ATOM     30  C   UNL A   1      40.447  24.728  27.269  1.00  0.00    -0.014 A 
BRANCH  30  31
ATOM     31  C   UNL A   1      41.192  25.978  27.610  1.00  0.00     0.031 A 
ATOM     32  C   UNL A   1      40.549  27.043  28.467  1.00  0.00     0.074 A 
ATOM     33  C   UNL A   1      42.463  26.154  27.188  1.00  0.00     0.049 A 
ATOM     34  N   UNL A   1      40.953  28.265  28.714  1.00  0.00    -0.248 NA
ATOM     35  C   UNL A   1      39.278  26.695  29.125  1.00  0.00     0.031 C 
ATOM     36  C   UNL A   1      43.241  25.190  26.407  1.00  0.00     0.029 A 
ATOM     37  N   UNL A   1      43.338  27.199  27.372  1.00  0.00    -0.354 N 
ATOM     38  C   UNL A   1      39.965  28.843  29.503  1.00  0.00     0.074 A 
ATOM     39  C   UNL A   1      38.934  27.845  29.688  1.00  0.00     0.031 C 
ATOM     40  C   UNL A   1      44.487  25.653  26.241  1.00  0.00     0.029 A 
ATOM     41  C   UNL A   1      44.567  26.999  26.790  1.00  0.00     0.049 A 
ATOM     42  H   UNL A   1      43.105  28.015  27.873  1.00  0.00     0.167 HD
ATOM     43  C   UNL A   1      39.929  30.091  30.030  1.00  0.00     0.037 A 
ATOM     44  C   UNL A   1      45.628  27.819  26.661  1.00  0.00     0.037 A 
ATOM     45  C   UNL A   1      40.988  31.058  29.898  1.00  0.00     0.049 A 
ATOM     46  C   UNL A   1      45.533  29.220  27.195  1.00  0.00     0.074 A 
ATOM     47  C   UNL A   1      41.042  32.349  30.394  1.00  0.00     0.029 A 
ATOM     48  N   UNL A   1      42.190  30.829  29.246  1.00  0.00    -0.354 N 
ATOM     49  N   UNL A   1      44.560  29.782  27.869  1.00  0.00    -0.248 NA
ATOM     50  C   UNL A   1      46.670  30.111  26.925  1.00  0.00     0.031 C 
ATOM     51  C   UNL A   1      42.261  32.915  30.009  1.00  0.00     0.029 A 
ATOM     52  C   UNL A   1      42.986  31.961  29.315  1.00  0.00     0.049 A 
ATOM     53  H   UNL A   1      42.441  29.988  28.801  1.00  0.00     0.167 HD
ATOM     54  C   UNL A   1      44.970  31.084  28.114  1.00  0.00     0.074 A 
ATOM     55  C   UNL A   1      46.292  31.224  27.538  1.00  0.00     0.031 C 
ATOM     56  C   UNL A   1      44.305  32.079  28.749  1.00  0.00     0.037 A 
BRANCH  43  57
ATOM     57  C   UNL A   1      38.704  30.505  30.796  1.00  0.00     0.064 A 
ATOM     58  C   UNL A   1      38.653  30.451  32.196  1.00  0.00     0.173 A 
ATOM     59  C   UNL A   1      37.602  31.055  30.120  1.00  0.00     0.173 A 
ATOM     60  F   UNL A   1      39.674  29.925  32.888  1.00  0.00    -0.203 F 
ATOM     61  C   UNL A   1      37.542  30.924  32.891  1.00  0.00     0.198 A 
ATOM     62  C   UNL A   1      36.506  31.553  30.820  1.00  0.00     0.198 A 
ATOM     63  F   UNL A   1      37.602  31.139  28.782  1.00  0.00    -0.203 F 
ATOM     64  F   UNL A   1      37.505  30.839  34.228  1.00  0.00    -0.200 F 
ATOM     65  C   UNL A   1      36.476  31.486  32.204  1.00  0.00     0.200 A 
ATOM     66  F   UNL A   1      35.484  32.111  30.154  1.00  0.00    -0.200 F 
ATOM     67  F   UNL A   1      35.419  31.963  32.877  1.00  0.00    -0.200 F 
ENDBRANCH  43  57
BRANCH  44  68
ATOM     68  C   UNL A   1      46.852  27.351  25.955  1.00  0.00     0.064 A 
ATOM     69  C   UNL A   1      47.014  27.564  24.579  1.00  0.00     0.173 A 
ATOM     70  C   UNL A   1      47.886  26.691  26.636  1.00  0.00     0.173 A 
ATOM     71  F   UNL A   1      46.044  28.166  23.876  1.00  0.00    -0.203 F 
ATOM     72  C   UNL A   1      48.158  27.128  23.912  1.00  0.00     0.198 A 
ATOM     73  C   UNL A   1      49.045  26.287  25.977  1.00  0.00     0.198 A 
ATOM     74  F   UNL A   1      47.782  26.456  27.953  1.00  0.00    -0.203 F 
ATOM     75  F   UNL A   1      48.267  27.305  22.588  1.00  0.00    -0.200 F 
ATOM     76  C   UNL A   1      49.176  26.500  24.613  1.00  0.00     0.200 A 
ATOM     77  F   UNL A   1      50.033  25.697  26.663  1.00  0.00    -0.200 F 
ATOM     78  F   UNL A   1      50.281  26.092  23.974  1.00  0.00    -0.200 F 
ENDBRANCH  44  68
BRANCH  56  79
ATOM     79  C   UNL A   1      45.000  33.401  28.882  1.00  0.00     0.064 A 
ATOM     80  C   UNL A   1      44.815  34.422  27.940  1.00  0.00     0.173 A 
ATOM     81  C   UNL A   1      45.805  33.671  29.999  1.00  0.00     0.173 A 
ATOM     82  F   UNL A   1      44.065  34.205  26.847  1.00  0.00    -0.203 F 
ATOM     83  C   UNL A   1      45.420  35.664  28.104  1.00  0.00     0.198 A 
ATOM     84  C   UNL A   1      46.385  34.924  30.175  1.00  0.00     0.198 A 
ATOM     85  F   UNL A   1      46.008  32.729  30.931  1.00  0.00    -0.203 F 
ATOM     86  F   UNL A   1      45.258  36.615  27.175  1.00  0.00    -0.200 F 
ATOM     87  C   UNL A   1      46.196  35.917  29.227  1.00  0.00     0.200 A 
ATOM     88  F   UNL A   1      47.121  35.171  31.267  1.00  0.00    -0.200 F 
ATOM     89  F   UNL A   1      46.764  37.120  29.392  1.00  0.00    -0.200 F 
ENDBRANCH  56  79
ENDBRANCH  30  31
ENDBRANCH  23  25
ENDBRANCH  22  23
ENDBRANCH   1  22
TORSDOF 12
ENDMDL
