MODEL 1
REMARK VINA RESULT:     -12.0      0.000      0.000
REMARK SMILES CCn1cc(CNC(=O)[C@H]2CC=CC[C@H]2C(=O)OCCOC(=O)c2ccc(-c3c4nc(c(-c5c(F)c(F)c(F)c(F)c5F)c5ccc([nH]5)c(-c5c(F)c(F)c(F)c(F)c5F)c5nc(c(-c6c(F)c(F)c(F)c(F)c6F)c6ccc3[nH]6)C=C5)C=C4)cc2)cn1
REMARK SMILES IDX 19 1 18 2 16 3 17 4 15 5 10 6 11 7 12 8 14 9 13 10 8 11 7 12
REMARK SMILES IDX 9 14 6 15 5 16 3 17 4 18 88 19 87 20 2 21 1 22 20 23 21 24
REMARK SMILES IDX 22 25 23 26 24 27 25 28 86 29 26 30 85 31 27 32 28 33 29 34
REMARK SMILES IDX 79 35 30 36 84 37 78 38 80 39 31 40 83 41 77 42 76 43 32 45
REMARK SMILES IDX 64 46 44 47 63 48 45 49 48 50 62 51 81 52 46 53 47 54 61 56
REMARK SMILES IDX 82 57 49 58 33 59 34 60 42 61 35 62 36 63 40 64 43 65 37 66
REMARK SMILES IDX 38 67 41 68 39 69 65 70 66 71 74 72 67 73 68 74 72 75 75 76
REMARK SMILES IDX 69 77 70 78 73 79 71 80 50 81 51 82 59 83 52 84 53 85 57 86
REMARK SMILES IDX 60 87 54 88 55 89 58 90 56 91
REMARK H PARENT 7 13 80 44 48 55
REMARK Flexibility Score: inf
ROOT
ATOM      1  C   UNL A   1      36.009  21.629  25.665  1.00  0.00     0.274 C 
ENDROOT
BRANCH   1   2
ATOM      2  O   UNL A   1      35.590  22.780  24.912  1.00  0.00    -0.462 OA
BRANCH   2   3
ATOM      3  C   UNL A   1      34.663  23.580  25.482  1.00  0.00     0.310 C 
ATOM      4  O   UNL A   1      34.050  23.306  26.510  1.00  0.00    -0.252 OA
BRANCH   3   5
ATOM      5  C   UNL A   1      34.375  24.839  24.690  1.00  0.00     0.115 C 
ATOM      6  C   UNL A   1      33.485  24.730  23.432  1.00  0.00     0.096 C 
ATOM      7  C   UNL A   1      33.527  26.089  22.692  1.00  0.00     0.041 C 
ATOM      8  C   UNL A   1      33.435  27.287  23.592  1.00  0.00    -0.030 C 
ATOM      9  C   UNL A   1      33.955  25.958  25.645  1.00  0.00     0.043 C 
ATOM     10  C   UNL A   1      33.600  27.223  24.920  1.00  0.00    -0.030 C 
BRANCH   6  11
ATOM     11  C   UNL A   1      32.032  24.300  23.677  1.00  0.00     0.224 C 
ATOM     12  N   UNL A   1      31.674  22.994  23.465  1.00  0.00    -0.352 N 
ATOM     13  H   UNL A   1      30.796  22.728  23.823  1.00  0.00     0.163 HD
ATOM     14  O   UNL A   1      31.152  25.077  24.045  1.00  0.00    -0.275 OA
BRANCH  12  15
ATOM     15  C   UNL A   1      32.414  21.956  22.786  1.00  0.00     0.155 C 
BRANCH  15  16
ATOM     16  C   UNL A   1      32.368  20.685  23.543  1.00  0.00     0.009 A 
ATOM     17  N   UNL A   1      32.490  18.573  24.157  1.00  0.00    -0.273 N 
ATOM     18  C   UNL A   1      32.401  19.390  23.063  1.00  0.00     0.114 A 
ATOM     19  N   UNL A   1      32.479  19.250  25.320  1.00  0.00    -0.181 NA
ATOM     20  C   UNL A   1      32.390  20.529  24.947  1.00  0.00     0.140 A 
BRANCH  17  21
ATOM     21  C   UNL A   1      32.719  17.139  24.137  1.00  0.00     0.141 C 
ATOM     22  C   UNL A   1      34.014  16.713  23.463  1.00  0.00     0.029 C 
ENDBRANCH  17  21
ENDBRANCH  15  16
ENDBRANCH  12  15
ENDBRANCH   6  11
ENDBRANCH   3   5
ENDBRANCH   2   3
ENDBRANCH   1   2
BRANCH   1  23
ATOM     23  C   UNL A   1      37.400  21.165  25.257  1.00  0.00     0.275 C 
BRANCH  23  24
ATOM     24  O   UNL A   1      38.360  22.223  25.311  1.00  0.00    -0.458 OA
BRANCH  24  25
ATOM     25  C   UNL A   1      39.454  21.963  26.054  1.00  0.00     0.338 C 
ATOM     26  O   UNL A   1      40.095  20.919  26.096  1.00  0.00    -0.246 OA
BRANCH  25  27
ATOM     27  C   UNL A   1      39.710  23.065  26.987  1.00  0.00     0.060 A 
ATOM     28  C   UNL A   1      38.884  24.190  26.902  1.00  0.00     0.016 A 
ATOM     29  C   UNL A   1      40.877  23.073  27.762  1.00  0.00     0.016 A 
ATOM     30  C   UNL A   1      39.289  25.368  27.501  1.00  0.00     0.010 A 
ATOM     31  C   UNL A   1      41.283  24.252  28.355  1.00  0.00     0.010 A 
ATOM     32  C   UNL A   1      40.513  25.403  28.174  1.00  0.00    -0.014 A 
BRANCH  32  33
ATOM     33  C   UNL A   1      40.945  26.670  28.741  1.00  0.00     0.031 A 
ATOM     34  C   UNL A   1      42.214  27.209  28.199  1.00  0.00     0.074 A 
ATOM     35  C   UNL A   1      40.172  27.389  29.578  1.00  0.00     0.049 A 
ATOM     36  N   UNL A   1      43.262  27.593  28.850  1.00  0.00    -0.248 NA
ATOM     37  C   UNL A   1      42.347  27.290  26.735  1.00  0.00     0.031 C 
ATOM     38  C   UNL A   1      38.777  27.114  29.933  1.00  0.00     0.029 A 
ATOM     39  N   UNL A   1      40.429  28.583  30.190  1.00  0.00    -0.354 N 
ATOM     40  C   UNL A   1      44.119  28.127  27.894  1.00  0.00     0.074 A 
ATOM     41  C   UNL A   1      43.564  27.815  26.603  1.00  0.00     0.031 C 
ATOM     42  C   UNL A   1      38.248  28.212  30.515  1.00  0.00     0.029 A 
ATOM     43  C   UNL A   1      39.293  29.210  30.678  1.00  0.00     0.049 A 
ATOM     44  H   UNL A   1      41.333  28.963  30.274  1.00  0.00     0.167 HD
ATOM     45  C   UNL A   1      45.091  29.010  28.235  1.00  0.00     0.037 A 
ATOM     46  C   UNL A   1      39.191  30.482  31.126  1.00  0.00     0.037 A 
ATOM     47  C   UNL A   1      45.417  28.953  29.632  1.00  0.00     0.049 A 
ATOM     48  C   UNL A   1      40.542  30.966  31.494  1.00  0.00     0.074 A 
ATOM     49  C   UNL A   1      46.024  28.045  30.472  1.00  0.00     0.029 A 
ATOM     50  N   UNL A   1      44.793  29.876  30.424  1.00  0.00    -0.354 N 
ATOM     51  N   UNL A   1      41.227  30.532  32.516  1.00  0.00    -0.248 NA
ATOM     52  C   UNL A   1      41.284  31.804  30.559  1.00  0.00     0.031 C 
ATOM     53  C   UNL A   1      45.506  28.306  31.775  1.00  0.00     0.029 A 
ATOM     54  C   UNL A   1      44.597  29.359  31.678  1.00  0.00     0.049 A 
ATOM     55  H   UNL A   1      44.524  30.778  30.137  1.00  0.00     0.167 HD
ATOM     56  C   UNL A   1      42.545  30.677  32.129  1.00  0.00     0.074 A 
ATOM     57  C   UNL A   1      42.520  31.635  31.038  1.00  0.00     0.031 C 
ATOM     58  C   UNL A   1      43.482  29.761  32.507  1.00  0.00     0.037 A 
BRANCH  45  59
ATOM     59  C   UNL A   1      45.431  30.213  27.392  1.00  0.00     0.064 A 
ATOM     60  C   UNL A   1      46.778  30.555  27.179  1.00  0.00     0.173 A 
ATOM     61  C   UNL A   1      44.484  31.208  27.061  1.00  0.00     0.173 A 
ATOM     62  F   UNL A   1      47.758  29.700  27.510  1.00  0.00    -0.203 F 
ATOM     63  C   UNL A   1      47.150  31.817  26.707  1.00  0.00     0.198 A 
ATOM     64  C   UNL A   1      44.854  32.445  26.540  1.00  0.00     0.198 A 
ATOM     65  F   UNL A   1      43.181  31.064  27.341  1.00  0.00    -0.203 F 
ATOM     66  F   UNL A   1      48.447  32.142  26.625  1.00  0.00    -0.200 F 
ATOM     67  C   UNL A   1      46.188  32.759  26.387  1.00  0.00     0.200 A 
ATOM     68  F   UNL A   1      43.910  33.355  26.265  1.00  0.00    -0.200 F 
ATOM     69  F   UNL A   1      46.545  33.986  25.984  1.00  0.00    -0.200 F 
ENDBRANCH  45  59
BRANCH  46  70
ATOM     70  C   UNL A   1      38.015  31.381  31.094  1.00  0.00     0.064 A 
ATOM     71  C   UNL A   1      37.518  31.879  29.880  1.00  0.00     0.173 A 
ATOM     72  C   UNL A   1      37.203  31.570  32.229  1.00  0.00     0.173 A 
ATOM     73  F   UNL A   1      38.206  31.701  28.743  1.00  0.00    -0.203 F 
ATOM     74  C   UNL A   1      36.272  32.507  29.801  1.00  0.00     0.198 A 
ATOM     75  C   UNL A   1      35.967  32.214  32.153  1.00  0.00     0.198 A 
ATOM     76  F   UNL A   1      37.546  31.056  33.419  1.00  0.00    -0.203 F 
ATOM     77  F   UNL A   1      35.801  32.906  28.612  1.00  0.00    -0.200 F 
ATOM     78  C   UNL A   1      35.495  32.667  30.936  1.00  0.00     0.200 A 
ATOM     79  F   UNL A   1      35.212  32.335  33.253  1.00  0.00    -0.200 F 
ATOM     80  F   UNL A   1      34.277  33.220  30.852  1.00  0.00    -0.200 F 
ENDBRANCH  46  70
BRANCH  58  81
ATOM     81  C   UNL A   1      43.199  28.974  33.752  1.00  0.00     0.064 A 
ATOM     82  C   UNL A   1      42.404  27.819  33.796  1.00  0.00     0.173 A 
ATOM     83  C   UNL A   1      43.797  29.395  34.948  1.00  0.00     0.173 A 
ATOM     84  F   UNL A   1      41.881  27.296  32.679  1.00  0.00    -0.203 F 
ATOM     85  C   UNL A   1      42.159  27.161  35.001  1.00  0.00     0.198 A 
ATOM     86  C   UNL A   1      43.588  28.711  36.140  1.00  0.00     0.198 A 
ATOM     87  F   UNL A   1      44.612  30.464  34.955  1.00  0.00    -0.203 F 
ATOM     88  F   UNL A   1      41.360  26.084  35.029  1.00  0.00    -0.200 F 
ATOM     89  C   UNL A   1      42.753  27.607  36.171  1.00  0.00     0.200 A 
ATOM     90  F   UNL A   1      44.203  29.118  37.260  1.00  0.00    -0.200 F 
ATOM     91  F   UNL A   1      42.535  26.961  37.325  1.00  0.00    -0.200 F 
ENDBRANCH  58  81
ENDBRANCH  32  33
ENDBRANCH  25  27
ENDBRANCH  24  25
ENDBRANCH  23  24
ENDBRANCH   1  23
TORSDOF 15
ENDMDL
MODEL 2
REMARK VINA RESULT:     -11.9      0.575      1.365
REMARK SMILES CCn1cc(CNC(=O)[C@H]2CC=CC[C@H]2C(=O)OCCOC(=O)c2ccc(-c3c4nc(c(-c5c(F)c(F)c(F)c(F)c5F)c5ccc([nH]5)c(-c5c(F)c(F)c(F)c(F)c5F)c5nc(c(-c6c(F)c(F)c(F)c(F)c6F)c6ccc3[nH]6)C=C5)C=C4)cc2)cn1
REMARK SMILES IDX 19 1 18 2 16 3 17 4 15 5 10 6 11 7 12 8 14 9 13 10 8 11 7 12
REMARK SMILES IDX 9 14 6 15 5 16 3 17 4 18 88 19 87 20 2 21 1 22 20 23 21 24
REMARK SMILES IDX 22 25 23 26 24 27 25 28 86 29 26 30 85 31 27 32 28 33 29 34
REMARK SMILES IDX 79 35 30 36 84 37 78 38 80 39 31 40 83 41 77 42 76 43 32 45
REMARK SMILES IDX 64 46 44 47 63 48 45 49 48 50 62 51 81 52 46 53 47 54 61 56
REMARK SMILES IDX 82 57 49 58 33 59 34 60 42 61 35 62 36 63 40 64 43 65 37 66
REMARK SMILES IDX 38 67 41 68 39 69 65 70 66 71 74 72 67 73 68 74 72 75 75 76
REMARK SMILES IDX 69 77 70 78 73 79 71 80 50 81 51 82 59 83 52 84 53 85 57 86
REMARK SMILES IDX 60 87 54 88 55 89 58 90 56 91
REMARK H PARENT 7 13 80 44 48 55
REMARK Flexibility Score: inf
ROOT
ATOM      1  C   UNL A   1      36.280  21.043  25.114  1.00  0.00     0.274 C 
ENDROOT
BRANCH   1   2
ATOM      2  O   UNL A   1      35.476  22.052  24.480  1.00  0.00    -0.462 OA
BRANCH   2   3
ATOM      3  C   UNL A   1      34.852  22.935  25.289  1.00  0.00     0.310 C 
ATOM      4  O   UNL A   1      34.504  22.692  26.442  1.00  0.00    -0.252 OA
BRANCH   3   5
ATOM      5  C   UNL A   1      34.534  24.256  24.620  1.00  0.00     0.115 C 
ATOM      6  C   UNL A   1      33.504  24.271  23.469  1.00  0.00     0.096 C 
ATOM      7  C   UNL A   1      33.525  25.676  22.820  1.00  0.00     0.041 C 
ATOM      8  C   UNL A   1      33.591  26.810  23.801  1.00  0.00    -0.030 C 
ATOM      9  C   UNL A   1      34.278  25.322  25.688  1.00  0.00     0.043 C 
ATOM     10  C   UNL A   1      33.902  26.647  25.094  1.00  0.00    -0.030 C 
BRANCH   6  11
ATOM     11  C   UNL A   1      32.069  23.882  23.852  1.00  0.00     0.224 C 
ATOM     12  N   UNL A   1      31.651  22.591  23.661  1.00  0.00    -0.352 N 
ATOM     13  H   UNL A   1      30.805  22.346  24.102  1.00  0.00     0.163 HD
ATOM     14  O   UNL A   1      31.256  24.679  24.317  1.00  0.00    -0.275 OA
BRANCH  12  15
ATOM     15  C   UNL A   1      32.286  21.542  22.898  1.00  0.00     0.155 C 
BRANCH  15  16
ATOM     16  C   UNL A   1      32.364  20.286  23.679  1.00  0.00     0.009 A 
ATOM     17  N   UNL A   1      32.715  18.214  24.339  1.00  0.00    -0.273 N 
ATOM     18  C   UNL A   1      32.570  18.997  23.227  1.00  0.00     0.114 A 
ATOM     19  N   UNL A   1      32.579  18.903  25.487  1.00  0.00    -0.181 NA
ATOM     20  C   UNL A   1      32.352  20.156  25.085  1.00  0.00     0.140 A 
BRANCH  17  21
ATOM     21  C   UNL A   1      33.114  16.818  24.356  1.00  0.00     0.141 C 
ATOM     22  C   UNL A   1      34.136  16.438  23.297  1.00  0.00     0.029 C 
ENDBRANCH  17  21
ENDBRANCH  15  16
ENDBRANCH  12  15
ENDBRANCH   6  11
ENDBRANCH   3   5
ENDBRANCH   2   3
ENDBRANCH   1   2
BRANCH   1  23
ATOM     23  C   UNL A   1      37.761  21.392  25.066  1.00  0.00     0.275 C 
BRANCH  23  24
ATOM     24  O   UNL A   1      38.168  22.174  26.192  1.00  0.00    -0.458 OA
BRANCH  24  25
ATOM     25  C   UNL A   1      39.460  22.032  26.548  1.00  0.00     0.338 C 
ATOM     26  O   UNL A   1      40.064  20.985  26.753  1.00  0.00    -0.246 OA
BRANCH  25  27
ATOM     27  C   UNL A   1      40.052  23.338  26.849  1.00  0.00     0.060 A 
ATOM     28  C   UNL A   1      41.102  23.377  27.772  1.00  0.00     0.016 A 
ATOM     29  C   UNL A   1      39.429  24.512  26.403  1.00  0.00     0.016 A 
ATOM     30  C   UNL A   1      41.453  24.587  28.341  1.00  0.00     0.010 A 
ATOM     31  C   UNL A   1      39.776  25.718  26.978  1.00  0.00     0.010 A 
ATOM     32  C   UNL A   1      40.748  25.738  27.981  1.00  0.00    -0.014 A 
BRANCH  32  33
ATOM     33  C   UNL A   1      41.095  26.986  28.640  1.00  0.00     0.031 A 
ATOM     34  C   UNL A   1      42.330  27.641  28.151  1.00  0.00     0.074 A 
ATOM     35  C   UNL A   1      40.272  27.594  29.517  1.00  0.00     0.049 A 
ATOM     36  N   UNL A   1      43.348  28.043  28.839  1.00  0.00    -0.248 NA
ATOM     37  C   UNL A   1      42.467  27.833  26.698  1.00  0.00     0.031 C 
ATOM     38  C   UNL A   1      38.894  27.208  29.836  1.00  0.00     0.029 A 
ATOM     39  N   UNL A   1      40.448  28.756  30.214  1.00  0.00    -0.354 N 
ATOM     40  C   UNL A   1      44.175  28.695  27.933  1.00  0.00     0.074 A 
ATOM     41  C   UNL A   1      43.649  28.441  26.617  1.00  0.00     0.031 C 
ATOM     42  C   UNL A   1      38.293  28.227  30.487  1.00  0.00     0.029 A 
ATOM     43  C   UNL A   1      39.272  29.274  30.732  1.00  0.00     0.049 A 
ATOM     44  H   UNL A   1      41.326  29.186  30.334  1.00  0.00     0.167 HD
ATOM     45  C   UNL A   1      45.087  29.612  28.345  1.00  0.00     0.037 A 
ATOM     46  C   UNL A   1      39.087  30.503  31.267  1.00  0.00     0.037 A 
ATOM     47  C   UNL A   1      45.406  29.477  29.738  1.00  0.00     0.049 A 
ATOM     48  C   UNL A   1      40.402  31.044  31.683  1.00  0.00     0.074 A 
ATOM     49  C   UNL A   1      46.065  28.552  30.519  1.00  0.00     0.029 A 
ATOM     50  N   UNL A   1      44.720  30.301  30.586  1.00  0.00    -0.354 N 
ATOM     51  N   UNL A   1      41.106  30.582  32.679  1.00  0.00    -0.248 NA
ATOM     52  C   UNL A   1      41.096  31.990  30.817  1.00  0.00     0.031 C 
ATOM     53  C   UNL A   1      45.522  28.687  31.831  1.00  0.00     0.029 A 
ATOM     54  C   UNL A   1      44.549  29.685  31.798  1.00  0.00     0.049 A 
ATOM     55  H   UNL A   1      44.397  31.202  30.360  1.00  0.00     0.167 HD
ATOM     56  C   UNL A   1      42.415  30.836  32.318  1.00  0.00     0.074 A 
ATOM     57  C   UNL A   1      42.336  31.865  31.296  1.00  0.00     0.031 C 
ATOM     58  C   UNL A   1      43.406  29.956  32.641  1.00  0.00     0.037 A 
BRANCH  45  59
ATOM     59  C   UNL A   1      45.356  30.891  27.592  1.00  0.00     0.064 A 
ATOM     60  C   UNL A   1      46.658  31.171  27.140  1.00  0.00     0.173 A 
ATOM     61  C   UNL A   1      44.454  31.977  27.585  1.00  0.00     0.173 A 
ATOM     62  F   UNL A   1      47.604  30.219  27.157  1.00  0.00    -0.203 F 
ATOM     63  C   UNL A   1      47.037  32.457  26.747  1.00  0.00     0.198 A 
ATOM     64  C   UNL A   1      44.820  33.246  27.141  1.00  0.00     0.198 A 
ATOM     65  F   UNL A   1      43.227  31.882  28.115  1.00  0.00    -0.203 F 
ATOM     66  F   UNL A   1      48.314  32.708  26.431  1.00  0.00    -0.200 F 
ATOM     67  C   UNL A   1      46.118  33.492  26.747  1.00  0.00     0.200 A 
ATOM     68  F   UNL A   1      43.924  34.242  27.178  1.00  0.00    -0.200 F 
ATOM     69  F   UNL A   1      46.494  34.736  26.421  1.00  0.00    -0.200 F 
ENDBRANCH  45  59
BRANCH  46  70
ATOM     70  C   UNL A   1      37.856  31.327  31.285  1.00  0.00     0.064 A 
ATOM     71  C   UNL A   1      37.131  31.518  32.470  1.00  0.00     0.173 A 
ATOM     72  C   UNL A   1      37.504  32.146  30.194  1.00  0.00     0.173 A 
ATOM     73  F   UNL A   1      37.432  30.812  33.570  1.00  0.00    -0.203 F 
ATOM     74  C   UNL A   1      36.130  32.489  32.568  1.00  0.00     0.198 A 
ATOM     75  C   UNL A   1      36.492  33.102  30.287  1.00  0.00     0.198 A 
ATOM     76  F   UNL A   1      38.193  32.102  29.045  1.00  0.00    -0.203 F 
ATOM     77  F   UNL A   1      35.508  32.690  33.738  1.00  0.00    -0.200 F 
ATOM     78  C   UNL A   1      35.817  33.284  31.479  1.00  0.00     0.200 A 
ATOM     79  F   UNL A   1      36.220  33.886  29.235  1.00  0.00    -0.200 F 
ATOM     80  F   UNL A   1      34.896  34.252  31.588  1.00  0.00    -0.200 F 
ENDBRANCH  46  70
BRANCH  58  81
ATOM     81  C   UNL A   1      43.165  29.068  33.824  1.00  0.00     0.064 A 
ATOM     82  C   UNL A   1      42.475  27.847  33.772  1.00  0.00     0.173 A 
ATOM     83  C   UNL A   1      43.695  29.460  35.062  1.00  0.00     0.173 A 
ATOM     84  F   UNL A   1      42.028  27.355  32.609  1.00  0.00    -0.203 F 
ATOM     85  C   UNL A   1      42.262  27.092  34.925  1.00  0.00     0.198 A 
ATOM     86  C   UNL A   1      43.519  28.683  36.202  1.00  0.00     0.198 A 
ATOM     87  F   UNL A   1      44.410  30.593  35.160  1.00  0.00    -0.203 F 
ATOM     88  F   UNL A   1      41.561  25.950  34.861  1.00  0.00    -0.200 F 
ATOM     89  C   UNL A   1      42.785  27.510  36.138  1.00  0.00     0.200 A 
ATOM     90  F   UNL A   1      44.068  29.068  37.363  1.00  0.00    -0.200 F 
ATOM     91  F   UNL A   1      42.599  26.773  37.241  1.00  0.00    -0.200 F 
ENDBRANCH  58  81
ENDBRANCH  32  33
ENDBRANCH  25  27
ENDBRANCH  24  25
ENDBRANCH  23  24
ENDBRANCH   1  23
TORSDOF 15
ENDMDL
MODEL 3
REMARK VINA RESULT:     -11.3      1.852      3.952
REMARK SMILES CCn1cc(CNC(=O)[C@H]2CC=CC[C@H]2C(=O)OCCOC(=O)c2ccc(-c3c4nc(c(-c5c(F)c(F)c(F)c(F)c5F)c5ccc([nH]5)c(-c5c(F)c(F)c(F)c(F)c5F)c5nc(c(-c6c(F)c(F)c(F)c(F)c6F)c6ccc3[nH]6)C=C5)C=C4)cc2)cn1
REMARK SMILES IDX 19 1 18 2 16 3 17 4 15 5 10 6 11 7 12 8 14 9 13 10 8 11 7 12
REMARK SMILES IDX 9 14 6 15 5 16 3 17 4 18 88 19 87 20 2 21 1 22 20 23 21 24
REMARK SMILES IDX 22 25 23 26 24 27 25 28 86 29 26 30 85 31 27 32 28 33 29 34
REMARK SMILES IDX 79 35 30 36 84 37 78 38 80 39 31 40 83 41 77 42 76 43 32 45
REMARK SMILES IDX 64 46 44 47 63 48 45 49 48 50 62 51 81 52 46 53 47 54 61 56
REMARK SMILES IDX 82 57 49 58 33 59 34 60 42 61 35 62 36 63 40 64 43 65 37 66
REMARK SMILES IDX 38 67 41 68 39 69 65 70 66 71 74 72 67 73 68 74 72 75 75 76
REMARK SMILES IDX 69 77 70 78 73 79 71 80 50 81 51 82 59 83 52 84 53 85 57 86
REMARK SMILES IDX 60 87 54 88 55 89 58 90 56 91
REMARK H PARENT 7 13 80 44 48 55
REMARK Flexibility Score: inf
ROOT
ATOM      1  C   UNL A   1      36.823  22.255  24.143  1.00  0.00     0.274 C 
ENDROOT
BRANCH   1   2
ATOM      2  O   UNL A   1      35.486  22.046  24.627  1.00  0.00    -0.462 OA
BRANCH   2   3
ATOM      3  C   UNL A   1      34.861  23.110  25.177  1.00  0.00     0.310 C 
ATOM      4  O   UNL A   1      35.389  23.893  25.961  1.00  0.00    -0.252 OA
BRANCH   3   5
ATOM      5  C   UNL A   1      33.397  23.216  24.805  1.00  0.00     0.115 C 
ATOM      6  C   UNL A   1      32.661  24.547  25.078  1.00  0.00     0.096 C 
ATOM      7  C   UNL A   1      31.151  24.326  24.821  1.00  0.00     0.041 C 
ATOM      8  C   UNL A   1      30.845  23.522  23.590  1.00  0.00    -0.030 C 
ATOM      9  C   UNL A   1      33.189  22.679  23.388  1.00  0.00     0.043 C 
ATOM     10  C   UNL A   1      31.765  22.805  22.932  1.00  0.00    -0.030 C 
BRANCH   6  11
ATOM     11  C   UNL A   1      33.166  25.763  24.288  1.00  0.00     0.224 C 
ATOM     12  N   UNL A   1      33.139  27.002  24.873  1.00  0.00    -0.352 N 
ATOM     13  H   UNL A   1      33.652  27.704  24.411  1.00  0.00     0.163 HD
ATOM     14  O   UNL A   1      33.588  25.689  23.135  1.00  0.00    -0.275 OA
BRANCH  12  15
ATOM     15  C   UNL A   1      32.458  27.414  26.079  1.00  0.00     0.155 C 
BRANCH  15  16
ATOM     16  C   UNL A   1      33.121  28.587  26.691  1.00  0.00     0.009 A 
ATOM     17  N   UNL A   1      34.593  30.066  27.398  1.00  0.00    -0.273 N 
ATOM     18  C   UNL A   1      34.458  28.765  26.995  1.00  0.00     0.114 A 
ATOM     19  N   UNL A   1      33.426  30.735  27.413  1.00  0.00    -0.181 NA
ATOM     20  C   UNL A   1      32.533  29.834  26.998  1.00  0.00     0.140 A 
BRANCH  17  21
ATOM     21  C   UNL A   1      35.846  30.754  27.657  1.00  0.00     0.141 C 
ATOM     22  C   UNL A   1      37.049  29.840  27.820  1.00  0.00     0.029 C 
ENDBRANCH  17  21
ENDBRANCH  15  16
ENDBRANCH  12  15
ENDBRANCH   6  11
ENDBRANCH   3   5
ENDBRANCH   2   3
ENDBRANCH   1   2
BRANCH   1  23
ATOM     23  C   UNL A   1      37.838  21.425  24.917  1.00  0.00     0.275 C 
BRANCH  23  24
ATOM     24  O   UNL A   1      38.236  22.057  26.136  1.00  0.00    -0.458 OA
BRANCH  24  25
ATOM     25  C   UNL A   1      39.564  22.242  26.276  1.00  0.00     0.338 C 
ATOM     26  O   UNL A   1      40.464  21.542  25.825  1.00  0.00    -0.246 OA
BRANCH  25  27
ATOM     27  C   UNL A   1      39.830  23.332  27.218  1.00  0.00     0.060 A 
ATOM     28  C   UNL A   1      38.940  24.411  27.229  1.00  0.00     0.016 A 
ATOM     29  C   UNL A   1      41.051  23.387  27.903  1.00  0.00     0.016 A 
ATOM     30  C   UNL A   1      39.324  25.594  27.830  1.00  0.00     0.010 A 
ATOM     31  C   UNL A   1      41.437  24.572  28.497  1.00  0.00     0.010 A 
ATOM     32  C   UNL A   1      40.594  25.682  28.409  1.00  0.00    -0.014 A 
BRANCH  32  33
ATOM     33  C   UNL A   1      40.998  26.957  28.979  1.00  0.00     0.031 A 
ATOM     34  C   UNL A   1      42.224  27.552  28.399  1.00  0.00     0.074 A 
ATOM     35  C   UNL A   1      40.230  27.633  29.855  1.00  0.00     0.049 A 
ATOM     36  N   UNL A   1      43.281  27.966  29.017  1.00  0.00    -0.248 NA
ATOM     37  C   UNL A   1      42.299  27.657  26.932  1.00  0.00     0.031 C 
ATOM     38  C   UNL A   1      38.860  27.301  30.256  1.00  0.00     0.029 A 
ATOM     39  N   UNL A   1      40.464  28.829  30.475  1.00  0.00    -0.354 N 
ATOM     40  C   UNL A   1      44.081  28.545  28.039  1.00  0.00     0.074 A 
ATOM     41  C   UNL A   1      43.490  28.230  26.765  1.00  0.00     0.031 C 
ATOM     42  C   UNL A   1      38.312  28.369  30.873  1.00  0.00     0.029 A 
ATOM     43  C   UNL A   1      39.324  29.405  31.013  1.00  0.00     0.049 A 
ATOM     44  H   UNL A   1      41.355  29.242  30.531  1.00  0.00     0.167 HD
ATOM     45  C   UNL A   1      45.031  29.460  28.357  1.00  0.00     0.037 A 
ATOM     46  C   UNL A   1      39.191  30.666  31.484  1.00  0.00     0.037 A 
ATOM     47  C   UNL A   1      45.410  29.397  29.740  1.00  0.00     0.049 A 
ATOM     48  C   UNL A   1      40.535  31.196  31.810  1.00  0.00     0.074 A 
ATOM     49  C   UNL A   1      46.082  28.502  30.543  1.00  0.00     0.029 A 
ATOM     50  N   UNL A   1      44.782  30.285  30.568  1.00  0.00    -0.354 N 
ATOM     51  N   UNL A   1      41.273  30.775  32.798  1.00  0.00    -0.248 NA
ATOM     52  C   UNL A   1      41.210  32.075  30.861  1.00  0.00     0.031 C 
ATOM     53  C   UNL A   1      45.603  28.725  31.868  1.00  0.00     0.029 A 
ATOM     54  C   UNL A   1      44.652  29.744  31.821  1.00  0.00     0.049 A 
ATOM     55  H   UNL A   1      44.468  31.180  30.304  1.00  0.00     0.167 HD
ATOM     56  C   UNL A   1      42.570  30.975  32.366  1.00  0.00     0.074 A 
ATOM     57  C   UNL A   1      42.468  31.946  31.291  1.00  0.00     0.031 C 
ATOM     58  C   UNL A   1      43.554  30.091  32.696  1.00  0.00     0.037 A 
BRANCH  45  59
ATOM     59  C   UNL A   1      45.293  30.687  27.520  1.00  0.00     0.064 A 
ATOM     60  C   UNL A   1      46.602  30.967  27.088  1.00  0.00     0.173 A 
ATOM     61  C   UNL A   1      44.367  31.747  27.406  1.00  0.00     0.173 A 
ATOM     62  F   UNL A   1      47.568  30.044  27.203  1.00  0.00    -0.203 F 
ATOM     63  C   UNL A   1      46.964  32.230  26.613  1.00  0.00     0.198 A 
ATOM     64  C   UNL A   1      44.718  32.989  26.881  1.00  0.00     0.198 A 
ATOM     65  F   UNL A   1      43.126  31.660  27.905  1.00  0.00    -0.203 F 
ATOM     66  F   UNL A   1      48.244  32.490  26.317  1.00  0.00    -0.200 F 
ATOM     67  C   UNL A   1      46.021  33.239  26.508  1.00  0.00     0.200 A 
ATOM     68  F   UNL A   1      43.798  33.963  26.818  1.00  0.00    -0.200 F 
ATOM     69  F   UNL A   1      46.378  34.465  26.103  1.00  0.00    -0.200 F 
ENDBRANCH  45  59
BRANCH  46  70
ATOM     70  C   UNL A   1      37.981  31.520  31.508  1.00  0.00     0.064 A 
ATOM     71  C   UNL A   1      37.241  31.692  32.688  1.00  0.00     0.173 A 
ATOM     72  C   UNL A   1      37.668  32.382  30.439  1.00  0.00     0.173 A 
ATOM     73  F   UNL A   1      37.505  30.944  33.769  1.00  0.00    -0.203 F 
ATOM     74  C   UNL A   1      36.263  32.685  32.800  1.00  0.00     0.198 A 
ATOM     75  C   UNL A   1      36.679  33.360  30.547  1.00  0.00     0.198 A 
ATOM     76  F   UNL A   1      38.375  32.357  29.301  1.00  0.00    -0.203 F 
ATOM     77  F   UNL A   1      35.626  32.863  33.966  1.00  0.00    -0.200 F 
ATOM     78  C   UNL A   1      35.988  33.521  31.733  1.00  0.00     0.200 A 
ATOM     79  F   UNL A   1      36.444  34.183  29.516  1.00  0.00    -0.200 F 
ATOM     80  F   UNL A   1      35.089  34.508  31.858  1.00  0.00    -0.200 F 
ENDBRANCH  46  70
BRANCH  58  81
ATOM     81  C   UNL A   1      43.347  29.277  33.938  1.00  0.00     0.064 A 
ATOM     82  C   UNL A   1      43.779  29.660  35.218  1.00  0.00     0.173 A 
ATOM     83  C   UNL A   1      42.643  28.071  33.826  1.00  0.00     0.173 A 
ATOM     84  F   UNL A   1      44.368  30.845  35.422  1.00  0.00    -0.203 F 
ATOM     85  C   UNL A   1      43.578  28.832  36.321  1.00  0.00     0.198 A 
ATOM     86  C   UNL A   1      42.405  27.267  34.936  1.00  0.00     0.198 A 
ATOM     87  F   UNL A   1      42.159  27.680  32.635  1.00  0.00    -0.203 F 
ATOM     88  F   UNL A   1      44.038  29.195  37.527  1.00  0.00    -0.200 F 
ATOM     89  C   UNL A   1      42.890  27.637  36.179  1.00  0.00     0.200 A 
ATOM     90  F   UNL A   1      41.697  26.136  34.802  1.00  0.00    -0.200 F 
ATOM     91  F   UNL A   1      42.678  26.852  37.244  1.00  0.00    -0.200 F 
ENDBRANCH  58  81
ENDBRANCH  32  33
ENDBRANCH  25  27
ENDBRANCH  24  25
ENDBRANCH  23  24
ENDBRANCH   1  23
TORSDOF 15
ENDMDL
