MODEL 1
REMARK VINA RESULT:     -11.2      0.000      0.000
REMARK SMILES Cc1ncn(CC[C@@H]2CCC[C@@]2([NH3+])C(=O)OCCOC(=O)c2ccc(-c3c4nc(c(-c5c(F)c(F)c(F)c(F)c5F)c5ccc([nH]5)c(-c5c(F)c(F)c(F)c(F)c5F)c5nc(c(-c6c(F)c(F)c(F)c(F)c6F)c6ccc3[nH]6)C=C5)C=C4)cc2)c1C
REMARK SMILES IDX 17 1 16 2 14 3 15 4 12 5 8 6 9 7 10 8 11 9 7 10 6 11 5 12
REMARK SMILES IDX 1 13 2 14 3 15 85 16 4 17 86 18 13 19 18 23 19 24 20 25
REMARK SMILES IDX 21 26 22 27 23 28 84 29 24 30 83 31 25 32 26 33 27 34 77 35
REMARK SMILES IDX 28 36 82 37 76 38 78 39 29 40 81 41 75 42 74 43 30 45 62 46
REMARK SMILES IDX 42 47 61 48 43 49 46 50 60 51 79 52 44 53 45 54 59 56 80 57
REMARK SMILES IDX 47 58 31 59 32 60 40 61 33 62 34 63 38 64 41 65 35 66 36 67
REMARK SMILES IDX 39 68 37 69 63 70 64 71 72 72 65 73 66 74 70 75 73 76 67 77
REMARK SMILES IDX 68 78 71 79 69 80 48 81 49 82 57 83 50 84 51 85 55 86 58 87
REMARK SMILES IDX 52 88 53 89 56 90 54 91
REMARK H PARENT 13 20 13 21 13 22 78 44 46 55
REMARK Flexibility Score: inf
ROOT
ATOM      1  C   UNL A   1      41.371  19.568  26.514  1.00  0.00     0.274 C 
ENDROOT
BRANCH   1   2
ATOM      2  O   UNL A   1      42.188  19.151  25.404  1.00  0.00    -0.457 OA
BRANCH   2   3
ATOM      3  C   UNL A   1      43.389  18.588  25.739  1.00  0.00     0.368 C 
ATOM      4  O   UNL A   1      43.521  17.710  26.583  1.00  0.00    -0.245 OA
BRANCH   3   5
ATOM      5  C   UNL A   1      44.552  19.204  24.919  1.00  0.00     0.195 C 
ATOM      6  C   UNL A   1      44.837  20.674  25.287  1.00  0.00     0.064 C 
ATOM      7  C   UNL A   1      46.288  20.859  24.794  1.00  0.00     0.011 C 
ATOM      8  C   UNL A   1      46.981  19.514  24.979  1.00  0.00     0.008 C 
ATOM      9  C   UNL A   1      45.877  18.522  25.318  1.00  0.00     0.081 C 
BRANCH   6  10
ATOM     10  C   UNL A   1      43.860  21.721  24.705  1.00  0.00     0.032 C 
BRANCH  10  11
ATOM     11  C   UNL A   1      43.214  22.641  25.757  1.00  0.00     0.124 C 
BRANCH  11  12
ATOM     12  N   UNL A   1      43.923  23.886  25.960  1.00  0.00    -0.335 N 
ATOM     13  C   UNL A   1      46.623  25.960  27.187  1.00  0.00     0.069 C 
ATOM     14  C   UNL A   1      45.437  25.323  26.572  1.00  0.00     0.058 A 
ATOM     15  N   UNL A   1      44.999  25.714  25.331  1.00  0.00    -0.242 NA
ATOM     16  C   UNL A   1      44.689  24.256  27.043  1.00  0.00     0.037 A 
ATOM     17  C   UNL A   1      44.066  24.852  25.002  1.00  0.00     0.199 A 
ATOM     18  C   UNL A   1      44.775  23.524  28.332  1.00  0.00     0.066 C 
ENDBRANCH  11  12
ENDBRANCH  10  11
ENDBRANCH   6  10
BRANCH   5  19
ATOM     19  N   UNL A   1      44.358  19.019  23.470  1.00  0.00    -0.343 N 
ATOM     20  H   UNL A   1      43.361  18.929  23.271  1.00  0.00     0.345 HD
ATOM     21  H   UNL A   1      44.843  18.175  23.168  1.00  0.00     0.345 HD
ATOM     22  H   UNL A   1      44.733  19.826  22.972  1.00  0.00     0.345 HD
ENDBRANCH   5  19
ENDBRANCH   3   5
ENDBRANCH   2   3
ENDBRANCH   1   2
BRANCH   1  23
ATOM     23  C   UNL A   1      40.186  20.419  26.061  1.00  0.00     0.275 C 
BRANCH  23  24
ATOM     24  O   UNL A   1      39.810  21.391  27.038  1.00  0.00    -0.458 OA
BRANCH  24  25
ATOM     25  C   UNL A   1      39.179  22.470  26.519  1.00  0.00     0.338 C 
ATOM     26  O   UNL A   1      38.160  22.465  25.832  1.00  0.00    -0.246 OA
BRANCH  25  27
ATOM     27  C   UNL A   1      39.933  23.690  26.822  1.00  0.00     0.060 A 
ATOM     28  C   UNL A   1      40.810  23.676  27.914  1.00  0.00     0.016 A 
ATOM     29  C   UNL A   1      39.625  24.880  26.154  1.00  0.00     0.016 A 
ATOM     30  C   UNL A   1      41.306  24.865  28.410  1.00  0.00     0.010 A 
ATOM     31  C   UNL A   1      40.096  26.073  26.664  1.00  0.00     0.010 A 
ATOM     32  C   UNL A   1      40.882  26.054  27.824  1.00  0.00    -0.014 A 
BRANCH  32  33
ATOM     33  C   UNL A   1      41.181  27.298  28.515  1.00  0.00     0.031 A 
ATOM     34  C   UNL A   1      42.407  28.026  28.098  1.00  0.00     0.074 A 
ATOM     35  C   UNL A   1      40.261  27.801  29.362  1.00  0.00     0.049 A 
ATOM     36  N   UNL A   1      43.286  28.619  28.841  1.00  0.00    -0.248 NA
ATOM     37  C   UNL A   1      42.703  28.084  26.655  1.00  0.00     0.031 C 
ATOM     38  C   UNL A   1      38.910  27.273  29.599  1.00  0.00     0.029 A 
ATOM     39  N   UNL A   1      40.270  28.966  30.071  1.00  0.00    -0.354 N 
ATOM     40  C   UNL A   1      44.152  29.263  27.959  1.00  0.00     0.074 A 
ATOM     41  C   UNL A   1      43.808  28.826  26.632  1.00  0.00     0.031 C 
ATOM     42  C   UNL A   1      38.163  28.222  30.196  1.00  0.00     0.029 A 
ATOM     43  C   UNL A   1      39.006  29.373  30.471  1.00  0.00     0.049 A 
ATOM     44  H   UNL A   1      41.092  29.466  30.278  1.00  0.00     0.167 HD
ATOM     45  C   UNL A   1      44.953  30.286  28.352  1.00  0.00     0.037 A 
ATOM     46  C   UNL A   1      38.645  30.607  30.895  1.00  0.00     0.037 A 
ATOM     47  C   UNL A   1      45.227  30.256  29.759  1.00  0.00     0.049 A 
ATOM     48  C   UNL A   1      39.872  31.342  31.275  1.00  0.00     0.074 A 
ATOM     49  C   UNL A   1      45.864  29.373  30.605  1.00  0.00     0.029 A 
ATOM     50  N   UNL A   1      44.563  31.141  30.568  1.00  0.00    -0.354 N 
ATOM     51  N   UNL A   1      40.612  31.069  32.312  1.00  0.00    -0.248 NA
ATOM     52  C   UNL A   1      40.492  32.205  30.280  1.00  0.00     0.031 C 
ATOM     53  C   UNL A   1      45.210  29.512  31.864  1.00  0.00     0.029 A 
ATOM     54  C   UNL A   1      44.213  30.476  31.714  1.00  0.00     0.049 A 
ATOM     55  H   UNL A   1      44.371  32.084  30.362  1.00  0.00     0.167 HD
ATOM     56  C   UNL A   1      41.905  31.374  31.913  1.00  0.00     0.074 A 
ATOM     57  C   UNL A   1      41.750  32.198  30.723  1.00  0.00     0.031 C 
ATOM     58  C   UNL A   1      42.973  30.694  32.420  1.00  0.00     0.037 A 
BRANCH  45  59
ATOM     59  C   UNL A   1      45.199  31.502  27.500  1.00  0.00     0.064 A 
ATOM     60  C   UNL A   1      46.492  31.770  27.013  1.00  0.00     0.173 A 
ATOM     61  C   UNL A   1      44.271  32.563  27.394  1.00  0.00     0.173 A 
ATOM     62  F   UNL A   1      47.459  30.845  27.106  1.00  0.00    -0.203 F 
ATOM     63  C   UNL A   1      46.839  33.024  26.502  1.00  0.00     0.198 A 
ATOM     64  C   UNL A   1      44.607  33.794  26.835  1.00  0.00     0.198 A 
ATOM     65  F   UNL A   1      43.044  32.485  27.927  1.00  0.00    -0.203 F 
ATOM     66  F   UNL A   1      48.110  33.272  26.155  1.00  0.00    -0.200 F 
ATOM     67  C   UNL A   1      45.898  34.034  26.414  1.00  0.00     0.200 A 
ATOM     68  F   UNL A   1      43.686  34.767  26.782  1.00  0.00    -0.200 F 
ATOM     69  F   UNL A   1      46.243  35.251  25.976  1.00  0.00    -0.200 F 
ENDBRANCH  45  59
BRANCH  46  70
ATOM     70  C   UNL A   1      37.333  31.269  30.716  1.00  0.00     0.064 A 
ATOM     71  C   UNL A   1      36.513  31.565  31.814  1.00  0.00     0.173 A 
ATOM     72  C   UNL A   1      36.956  31.832  29.480  1.00  0.00     0.173 A 
ATOM     73  F   UNL A   1      36.833  31.114  33.036  1.00  0.00    -0.203 F 
ATOM     74  C   UNL A   1      35.381  32.376  31.683  1.00  0.00     0.198 A 
ATOM     75  C   UNL A   1      35.817  32.626  29.346  1.00  0.00     0.198 A 
ATOM     76  F   UNL A   1      37.730  31.698  28.394  1.00  0.00    -0.203 F 
ATOM     77  F   UNL A   1      34.650  32.683  32.764  1.00  0.00    -0.200 F 
ATOM     78  C   UNL A   1      35.035  32.907  30.450  1.00  0.00     0.200 A 
ATOM     79  F   UNL A   1      35.515  33.159  28.154  1.00  0.00    -0.200 F 
ATOM     80  F   UNL A   1      33.976  33.718  30.332  1.00  0.00    -0.200 F 
ENDBRANCH  46  70
BRANCH  58  81
ATOM     81  C   UNL A   1      42.747  29.882  33.661  1.00  0.00     0.064 A 
ATOM     82  C   UNL A   1      42.833  30.406  34.961  1.00  0.00     0.173 A 
ATOM     83  C   UNL A   1      42.304  28.560  33.523  1.00  0.00     0.173 A 
ATOM     84  F   UNL A   1      43.147  31.692  35.165  1.00  0.00    -0.203 F 
ATOM     85  C   UNL A   1      42.539  29.624  36.074  1.00  0.00     0.198 A 
ATOM     86  C   UNL A   1      41.974  27.791  34.636  1.00  0.00     0.198 A 
ATOM     87  F   UNL A   1      42.143  28.028  32.301  1.00  0.00    -0.203 F 
ATOM     88  F   UNL A   1      42.644  30.141  37.308  1.00  0.00    -0.200 F 
ATOM     89  C   UNL A   1      42.103  28.318  35.910  1.00  0.00     0.200 A 
ATOM     90  F   UNL A   1      41.504  26.547  34.471  1.00  0.00    -0.200 F 
ATOM     91  F   UNL A   1      41.782  27.577  36.980  1.00  0.00    -0.200 F 
ENDBRANCH  58  81
ENDBRANCH  32  33
ENDBRANCH  25  27
ENDBRANCH  24  25
ENDBRANCH  23  24
ENDBRANCH   1  23
TORSDOF 15
ENDMDL
MODEL 2
REMARK VINA RESULT:     -11.1      4.156     11.529
REMARK SMILES Cc1ncn(CC[C@@H]2CCC[C@@]2([NH3+])C(=O)OCCOC(=O)c2ccc(-c3c4nc(c(-c5c(F)c(F)c(F)c(F)c5F)c5ccc([nH]5)c(-c5c(F)c(F)c(F)c(F)c5F)c5nc(c(-c6c(F)c(F)c(F)c(F)c6F)c6ccc3[nH]6)C=C5)C=C4)cc2)c1C
REMARK SMILES IDX 17 1 16 2 14 3 15 4 12 5 8 6 9 7 10 8 11 9 7 10 6 11 5 12
REMARK SMILES IDX 1 13 2 14 3 15 85 16 4 17 86 18 13 19 18 23 19 24 20 25
REMARK SMILES IDX 21 26 22 27 23 28 84 29 24 30 83 31 25 32 26 33 27 34 77 35
REMARK SMILES IDX 28 36 82 37 76 38 78 39 29 40 81 41 75 42 74 43 30 45 62 46
REMARK SMILES IDX 42 47 61 48 43 49 46 50 60 51 79 52 44 53 45 54 59 56 80 57
REMARK SMILES IDX 47 58 31 59 32 60 40 61 33 62 34 63 38 64 41 65 35 66 36 67
REMARK SMILES IDX 39 68 37 69 63 70 64 71 72 72 65 73 66 74 70 75 73 76 67 77
REMARK SMILES IDX 68 78 71 79 69 80 48 81 49 82 57 83 50 84 51 85 55 86 58 87
REMARK SMILES IDX 52 88 53 89 56 90 54 91
REMARK H PARENT 13 20 13 21 13 22 78 44 46 55
REMARK Flexibility Score: inf
ROOT
ATOM      1  C   UNL A   1      34.135  34.329  28.923  1.00  0.00     0.274 C 
ENDROOT
BRANCH   1   2
ATOM      2  O   UNL A   1      33.198  34.314  30.016  1.00  0.00    -0.457 OA
BRANCH   2   3
ATOM      3  C   UNL A   1      32.827  35.544  30.487  1.00  0.00     0.368 C 
ATOM      4  O   UNL A   1      32.413  36.452  29.776  1.00  0.00    -0.245 OA
BRANCH   3   5
ATOM      5  C   UNL A   1      33.001  35.639  32.025  1.00  0.00     0.195 C 
ATOM      6  C   UNL A   1      34.299  34.975  32.527  1.00  0.00     0.064 C 
ATOM      7  C   UNL A   1      34.507  35.658  33.896  1.00  0.00     0.011 C 
ATOM      8  C   UNL A   1      33.967  37.076  33.756  1.00  0.00     0.008 C 
ATOM      9  C   UNL A   1      33.230  37.111  32.425  1.00  0.00     0.081 C 
BRANCH   6  10
ATOM     10  C   UNL A   1      34.282  33.432  32.615  1.00  0.00     0.032 C 
BRANCH  10  11
ATOM     11  C   UNL A   1      35.438  32.740  31.868  1.00  0.00     0.124 C 
BRANCH  11  12
ATOM     12  N   UNL A   1      36.743  33.286  32.174  1.00  0.00    -0.335 N 
ATOM     13  C   UNL A   1      40.233  33.111  33.114  1.00  0.00     0.069 C 
ATOM     14  C   UNL A   1      38.849  33.429  32.697  1.00  0.00     0.058 A 
ATOM     15  N   UNL A   1      38.610  34.393  31.748  1.00  0.00    -0.242 NA
ATOM     16  C   UNL A   1      37.668  32.808  33.074  1.00  0.00     0.037 A 
ATOM     17  C   UNL A   1      37.329  34.306  31.477  1.00  0.00     0.199 A 
ATOM     18  C   UNL A   1      37.429  31.740  34.076  1.00  0.00     0.066 C 
ENDBRANCH  11  12
ENDBRANCH  10  11
ENDBRANCH   6  10
BRANCH   5  19
ATOM     19  N   UNL A   1      31.811  35.148  32.741  1.00  0.00    -0.343 N 
ATOM     20  H   UNL A   1      32.019  35.078  33.737  1.00  0.00     0.345 HD
ATOM     21  H   UNL A   1      31.554  34.228  32.382  1.00  0.00     0.345 HD
ATOM     22  H   UNL A   1      31.038  35.798  32.600  1.00  0.00     0.345 HD
ENDBRANCH   5  19
ENDBRANCH   3   5
ENDBRANCH   2   3
ENDBRANCH   1   2
BRANCH   1  23
ATOM     23  C   UNL A   1      33.779  33.297  27.854  1.00  0.00     0.275 C 
BRANCH  23  24
ATOM     24  O   UNL A   1      34.907  32.517  27.456  1.00  0.00    -0.458 OA
BRANCH  24  25
ATOM     25  C   UNL A   1      34.838  31.222  27.844  1.00  0.00     0.338 C 
ATOM     26  O   UNL A   1      33.897  30.450  27.665  1.00  0.00    -0.246 OA
BRANCH  25  27
ATOM     27  C   UNL A   1      36.038  30.857  28.603  1.00  0.00     0.060 A 
ATOM     28  C   UNL A   1      37.032  31.827  28.781  1.00  0.00     0.016 A 
ATOM     29  C   UNL A   1      36.254  29.521  28.960  1.00  0.00     0.016 A 
ATOM     30  C   UNL A   1      38.285  31.451  29.222  1.00  0.00     0.010 A 
ATOM     31  C   UNL A   1      37.513  29.137  29.373  1.00  0.00     0.010 A 
ATOM     32  C   UNL A   1      38.531  30.098  29.440  1.00  0.00    -0.014 A 
BRANCH  32  33
ATOM     33  C   UNL A   1      39.910  29.680  29.631  1.00  0.00     0.031 A 
ATOM     34  C   UNL A   1      40.442  29.713  31.017  1.00  0.00     0.074 A 
ATOM     35  C   UNL A   1      40.567  29.132  28.588  1.00  0.00     0.049 A 
ATOM     36  N   UNL A   1      41.604  30.111  31.428  1.00  0.00    -0.248 NA
ATOM     37  C   UNL A   1      39.548  29.259  32.097  1.00  0.00     0.031 C 
ATOM     38  C   UNL A   1      40.002  28.812  27.270  1.00  0.00     0.029 A 
ATOM     39  N   UNL A   1      41.824  28.607  28.525  1.00  0.00    -0.354 N 
ATOM     40  C   UNL A   1      41.649  29.806  32.786  1.00  0.00     0.074 A 
ATOM     41  C   UNL A   1      40.331  29.373  33.168  1.00  0.00     0.031 C 
ATOM     42  C   UNL A   1      40.822  27.952  26.635  1.00  0.00     0.029 A 
ATOM     43  C   UNL A   1      42.005  27.746  27.454  1.00  0.00     0.049 A 
ATOM     44  H   UNL A   1      42.532  28.820  29.176  1.00  0.00     0.167 HD
ATOM     45  C   UNL A   1      42.821  29.713  33.467  1.00  0.00     0.037 A 
ATOM     46  C   UNL A   1      42.998  26.841  27.296  1.00  0.00     0.037 A 
ATOM     47  C   UNL A   1      43.873  30.466  32.848  1.00  0.00     0.049 A 
ATOM     48  C   UNL A   1      44.097  27.194  28.223  1.00  0.00     0.074 A 
ATOM     49  C   UNL A   1      44.081  31.803  32.580  1.00  0.00     0.029 A 
ATOM     50  N   UNL A   1      44.824  29.785  32.134  1.00  0.00    -0.354 N 
ATOM     51  N   UNL A   1      44.865  28.240  28.101  1.00  0.00    -0.248 NA
ATOM     52  C   UNL A   1      44.133  26.544  29.525  1.00  0.00     0.031 C 
ATOM     53  C   UNL A   1      44.869  31.835  31.393  1.00  0.00     0.029 A 
ATOM     54  C   UNL A   1      45.099  30.515  31.007  1.00  0.00     0.049 A 
ATOM     55  H   UNL A   1      45.234  28.927  32.386  1.00  0.00     0.167 HD
ATOM     56  C   UNL A   1      45.155  28.617  29.404  1.00  0.00     0.074 A 
ATOM     57  C   UNL A   1      44.805  27.464  30.220  1.00  0.00     0.031 C 
ATOM     58  C   UNL A   1      45.380  29.925  29.720  1.00  0.00     0.037 A 
BRANCH  45  59
ATOM     59  C   UNL A   1      43.078  28.655  34.506  1.00  0.00     0.064 A 
ATOM     60  C   UNL A   1      43.491  29.026  35.799  1.00  0.00     0.173 A 
ATOM     61  C   UNL A   1      43.217  27.286  34.186  1.00  0.00     0.173 A 
ATOM     62  F   UNL A   1      43.441  30.309  36.188  1.00  0.00    -0.203 F 
ATOM     63  C   UNL A   1      44.045  28.099  36.687  1.00  0.00     0.198 A 
ATOM     64  C   UNL A   1      43.720  26.356  35.093  1.00  0.00     0.198 A 
ATOM     65  F   UNL A   1      42.977  26.820  32.952  1.00  0.00    -0.203 F 
ATOM     66  F   UNL A   1      44.529  28.515  37.865  1.00  0.00    -0.200 F 
ATOM     67  C   UNL A   1      44.160  26.767  36.333  1.00  0.00     0.200 A 
ATOM     68  F   UNL A   1      43.846  25.074  34.721  1.00  0.00    -0.200 F 
ATOM     69  F   UNL A   1      44.740  25.889  37.161  1.00  0.00    -0.200 F 
ENDBRANCH  45  59
BRANCH  46  70
ATOM     70  C   UNL A   1      42.922  25.536  26.599  1.00  0.00     0.064 A 
ATOM     71  C   UNL A   1      43.772  25.236  25.526  1.00  0.00     0.173 A 
ATOM     72  C   UNL A   1      42.164  24.467  27.119  1.00  0.00     0.173 A 
ATOM     73  F   UNL A   1      44.568  26.184  25.010  1.00  0.00    -0.203 F 
ATOM     74  C   UNL A   1      43.858  23.942  25.002  1.00  0.00     0.198 A 
ATOM     75  C   UNL A   1      42.237  23.182  26.585  1.00  0.00     0.198 A 
ATOM     76  F   UNL A   1      41.403  24.627  28.211  1.00  0.00    -0.203 F 
ATOM     77  F   UNL A   1      44.722  23.678  24.011  1.00  0.00    -0.200 F 
ATOM     78  C   UNL A   1      43.093  22.916  25.534  1.00  0.00     0.200 A 
ATOM     79  F   UNL A   1      41.515  22.193  27.132  1.00  0.00    -0.200 F 
ATOM     80  F   UNL A   1      43.207  21.668  25.061  1.00  0.00    -0.200 F 
ENDBRANCH  46  70
BRANCH  58  81
ATOM     81  C   UNL A   1      45.664  30.869  28.589  1.00  0.00     0.064 A 
ATOM     82  C   UNL A   1      44.664  31.526  27.853  1.00  0.00     0.173 A 
ATOM     83  C   UNL A   1      46.996  31.217  28.329  1.00  0.00     0.173 A 
ATOM     84  F   UNL A   1      43.368  31.322  28.120  1.00  0.00    -0.203 F 
ATOM     85  C   UNL A   1      44.988  32.450  26.864  1.00  0.00     0.198 A 
ATOM     86  C   UNL A   1      47.315  32.170  27.365  1.00  0.00     0.198 A 
ATOM     87  F   UNL A   1      47.988  30.667  29.046  1.00  0.00    -0.203 F 
ATOM     88  F   UNL A   1      44.016  33.053  26.162  1.00  0.00    -0.200 F 
ATOM     89  C   UNL A   1      46.313  32.776  26.624  1.00  0.00     0.200 A 
ATOM     90  F   UNL A   1      48.595  32.521  27.172  1.00  0.00    -0.200 F 
ATOM     91  F   UNL A   1      46.623  33.695  25.699  1.00  0.00    -0.200 F 
ENDBRANCH  58  81
ENDBRANCH  32  33
ENDBRANCH  25  27
ENDBRANCH  24  25
ENDBRANCH  23  24
ENDBRANCH   1  23
TORSDOF 15
ENDMDL
MODEL 3
REMARK VINA RESULT:     -11.1      5.646     11.517
REMARK SMILES Cc1ncn(CC[C@@H]2CCC[C@@]2([NH3+])C(=O)OCCOC(=O)c2ccc(-c3c4nc(c(-c5c(F)c(F)c(F)c(F)c5F)c5ccc([nH]5)c(-c5c(F)c(F)c(F)c(F)c5F)c5nc(c(-c6c(F)c(F)c(F)c(F)c6F)c6ccc3[nH]6)C=C5)C=C4)cc2)c1C
REMARK SMILES IDX 17 1 16 2 14 3 15 4 12 5 8 6 9 7 10 8 11 9 7 10 6 11 5 12
REMARK SMILES IDX 1 13 2 14 3 15 85 16 4 17 86 18 13 19 18 23 19 24 20 25
REMARK SMILES IDX 21 26 22 27 23 28 84 29 24 30 83 31 25 32 26 33 27 34 77 35
REMARK SMILES IDX 28 36 82 37 76 38 78 39 29 40 81 41 75 42 74 43 30 45 62 46
REMARK SMILES IDX 42 47 61 48 43 49 46 50 60 51 79 52 44 53 45 54 59 56 80 57
REMARK SMILES IDX 47 58 31 59 32 60 40 61 33 62 34 63 38 64 41 65 35 66 36 67
REMARK SMILES IDX 39 68 37 69 63 70 64 71 72 72 65 73 66 74 70 75 73 76 67 77
REMARK SMILES IDX 68 78 71 79 69 80 48 81 49 82 57 83 50 84 51 85 55 86 58 87
REMARK SMILES IDX 52 88 53 89 56 90 54 91
REMARK H PARENT 13 20 13 21 13 22 78 44 46 55
REMARK Flexibility Score: inf
ROOT
ATOM      1  C   UNL A   1      33.326  30.262  27.151  1.00  0.00     0.274 C 
ENDROOT
BRANCH   1   2
ATOM      2  O   UNL A   1      33.478  28.864  26.840  1.00  0.00    -0.457 OA
BRANCH   2   3
ATOM      3  C   UNL A   1      32.346  28.108  26.976  1.00  0.00     0.368 C 
ATOM      4  O   UNL A   1      31.403  28.412  27.696  1.00  0.00    -0.245 OA
BRANCH   3   5
ATOM      5  C   UNL A   1      32.414  26.823  26.110  1.00  0.00     0.195 C 
ATOM      6  C   UNL A   1      31.884  27.033  24.677  1.00  0.00     0.064 C 
ATOM      7  C   UNL A   1      32.545  25.867  23.910  1.00  0.00     0.011 C 
ATOM      8  C   UNL A   1      33.898  25.630  24.571  1.00  0.00     0.008 C 
ATOM      9  C   UNL A   1      33.890  26.461  25.846  1.00  0.00     0.081 C 
BRANCH   6  10
ATOM     10  C   UNL A   1      30.347  27.069  24.520  1.00  0.00     0.032 C 
BRANCH  10  11
ATOM     11  C   UNL A   1      29.860  27.202  23.065  1.00  0.00     0.124 C 
BRANCH  11  12
ATOM     12  N   UNL A   1      29.427  28.538  22.713  1.00  0.00    -0.335 N 
ATOM     13  C   UNL A   1      27.588  31.619  23.181  1.00  0.00     0.069 C 
ATOM     14  C   UNL A   1      28.444  30.476  22.791  1.00  0.00     0.058 A 
ATOM     15  N   UNL A   1      29.697  30.688  22.271  1.00  0.00    -0.242 NA
ATOM     16  C   UNL A   1      28.204  29.121  22.957  1.00  0.00     0.037 A 
ATOM     17  C   UNL A   1      30.253  29.502  22.204  1.00  0.00     0.199 A 
ATOM     18  C   UNL A   1      26.994  28.420  23.454  1.00  0.00     0.066 C 
ENDBRANCH  11  12
ENDBRANCH  10  11
ENDBRANCH   6  10
BRANCH   5  19
ATOM     19  N   UNL A   1      31.772  25.678  26.779  1.00  0.00    -0.343 N 
ATOM     20  H   UNL A   1      30.967  25.374  26.233  1.00  0.00     0.345 HD
ATOM     21  H   UNL A   1      31.465  25.958  27.711  1.00  0.00     0.345 HD
ATOM     22  H   UNL A   1      32.440  24.912  26.857  1.00  0.00     0.345 HD
ENDBRANCH   5  19
ENDBRANCH   3   5
ENDBRANCH   2   3
ENDBRANCH   1   2
BRANCH   1  23
ATOM     23  C   UNL A   1      34.618  30.866  27.701  1.00  0.00     0.275 C 
BRANCH  23  24
ATOM     24  O   UNL A   1      35.754  30.035  27.454  1.00  0.00    -0.458 OA
BRANCH  24  25
ATOM     25  C   UNL A   1      36.879  30.450  28.082  1.00  0.00     0.338 C 
ATOM     26  O   UNL A   1      37.029  31.500  28.704  1.00  0.00    -0.246 OA
BRANCH  25  27
ATOM     27  C   UNL A   1      37.966  29.493  27.856  1.00  0.00     0.060 A 
ATOM     28  C   UNL A   1      37.934  28.274  28.545  1.00  0.00     0.016 A 
ATOM     29  C   UNL A   1      39.093  29.883  27.124  1.00  0.00     0.016 A 
ATOM     30  C   UNL A   1      39.064  27.483  28.592  1.00  0.00     0.010 A 
ATOM     31  C   UNL A   1      40.234  29.110  27.193  1.00  0.00     0.010 A 
ATOM     32  C   UNL A   1      40.223  27.949  27.977  1.00  0.00    -0.014 A 
BRANCH  32  33
ATOM     33  C   UNL A   1      41.469  27.257  28.263  1.00  0.00     0.031 A 
ATOM     34  C   UNL A   1      42.119  27.544  29.568  1.00  0.00     0.074 A 
ATOM     35  C   UNL A   1      41.873  26.283  27.422  1.00  0.00     0.049 A 
ATOM     36  N   UNL A   1      43.376  27.724  29.822  1.00  0.00    -0.248 NA
ATOM     37  C   UNL A   1      41.245  27.667  30.748  1.00  0.00     0.031 C 
ATOM     38  C   UNL A   1      41.126  25.760  26.269  1.00  0.00     0.029 A 
ATOM     39  N   UNL A   1      42.951  25.452  27.499  1.00  0.00    -0.354 N 
ATOM     40  C   UNL A   1      43.471  27.818  31.208  1.00  0.00     0.074 A 
ATOM     41  C   UNL A   1      42.128  27.872  31.722  1.00  0.00     0.031 C 
ATOM     42  C   UNL A   1      41.648  24.571  25.908  1.00  0.00     0.029 A 
ATOM     43  C   UNL A   1      42.815  24.306  26.732  1.00  0.00     0.049 A 
ATOM     44  H   UNL A   1      43.746  25.648  28.045  1.00  0.00     0.167 HD
ATOM     45  C   UNL A   1      44.642  27.620  31.867  1.00  0.00     0.037 A 
ATOM     46  C   UNL A   1      43.537  23.166  26.837  1.00  0.00     0.037 A 
ATOM     47  C   UNL A   1      45.785  27.863  31.035  1.00  0.00     0.049 A 
ATOM     48  C   UNL A   1      44.770  23.468  27.598  1.00  0.00     0.074 A 
ATOM     49  C   UNL A   1      46.289  28.965  30.376  1.00  0.00     0.029 A 
ATOM     50  N   UNL A   1      46.469  26.782  30.543  1.00  0.00    -0.354 N 
ATOM     51  N   UNL A   1      45.756  24.197  27.157  1.00  0.00    -0.248 NA
ATOM     52  C   UNL A   1      44.766  23.231  29.034  1.00  0.00     0.031 C 
ATOM     53  C   UNL A   1      46.947  28.450  29.222  1.00  0.00     0.029 A 
ATOM     54  C   UNL A   1      46.810  27.062  29.245  1.00  0.00     0.049 A 
ATOM     55  H   UNL A   1      46.678  25.955  31.033  1.00  0.00     0.167 HD
ATOM     56  C   UNL A   1      46.249  24.840  28.282  1.00  0.00     0.074 A 
ATOM     57  C   UNL A   1      45.704  24.101  29.412  1.00  0.00     0.031 C 
ATOM     58  C   UNL A   1      46.816  26.077  28.189  1.00  0.00     0.037 A 
BRANCH  45  59
ATOM     59  C   UNL A   1      44.728  26.873  33.171  1.00  0.00     0.064 A 
ATOM     60  C   UNL A   1      44.367  25.515  33.229  1.00  0.00     0.173 A 
ATOM     61  C   UNL A   1      44.869  27.525  34.417  1.00  0.00     0.173 A 
ATOM     62  F   UNL A   1      44.165  24.815  32.102  1.00  0.00    -0.203 F 
ATOM     63  C   UNL A   1      44.121  24.872  34.445  1.00  0.00     0.198 A 
ATOM     64  C   UNL A   1      44.676  26.866  35.629  1.00  0.00     0.198 A 
ATOM     65  F   UNL A   1      45.090  28.844  34.504  1.00  0.00    -0.203 F 
ATOM     66  F   UNL A   1      43.670  23.610  34.451  1.00  0.00    -0.200 F 
ATOM     67  C   UNL A   1      44.275  25.547  35.643  1.00  0.00     0.200 A 
ATOM     68  F   UNL A   1      44.805  27.546  36.777  1.00  0.00    -0.200 F 
ATOM     69  F   UNL A   1      43.987  24.948  36.805  1.00  0.00    -0.200 F 
ENDBRANCH  45  59
BRANCH  46  70
ATOM     70  C   UNL A   1      43.079  21.784  26.564  1.00  0.00     0.064 A 
ATOM     71  C   UNL A   1      43.721  20.982  25.611  1.00  0.00     0.173 A 
ATOM     72  C   UNL A   1      42.140  21.142  27.396  1.00  0.00     0.173 A 
ATOM     73  F   UNL A   1      44.668  21.503  24.817  1.00  0.00    -0.203 F 
ATOM     74  C   UNL A   1      43.440  19.616  25.497  1.00  0.00     0.198 A 
ATOM     75  C   UNL A   1      41.846  19.785  27.269  1.00  0.00     0.198 A 
ATOM     76  F   UNL A   1      41.551  21.797  28.407  1.00  0.00    -0.203 F 
ATOM     77  F   UNL A   1      44.112  18.867  24.611  1.00  0.00    -0.200 F 
ATOM     78  C   UNL A   1      42.504  19.019  26.327  1.00  0.00     0.200 A 
ATOM     79  F   UNL A   1      40.964  19.216  28.103  1.00  0.00    -0.200 F 
ATOM     80  F   UNL A   1      42.266  17.704  26.247  1.00  0.00    -0.200 F 
ENDBRANCH  46  70
BRANCH  58  81
ATOM     81  C   UNL A   1      47.217  26.551  26.823  1.00  0.00     0.064 A 
ATOM     82  C   UNL A   1      48.470  26.289  26.244  1.00  0.00     0.173 A 
ATOM     83  C   UNL A   1      46.252  27.180  26.025  1.00  0.00     0.173 A 
ATOM     84  F   UNL A   1      49.404  25.599  26.910  1.00  0.00    -0.203 F 
ATOM     85  C   UNL A   1      48.760  26.689  24.942  1.00  0.00     0.198 A 
ATOM     86  C   UNL A   1      46.532  27.545  24.711  1.00  0.00     0.198 A 
ATOM     87  F   UNL A   1      45.018  27.398  26.506  1.00  0.00    -0.203 F 
ATOM     88  F   UNL A   1      49.969  26.443  24.416  1.00  0.00    -0.200 F 
ATOM     89  C   UNL A   1      47.788  27.310  24.174  1.00  0.00     0.200 A 
ATOM     90  F   UNL A   1      45.574  28.099  23.954  1.00  0.00    -0.200 F 
ATOM     91  F   UNL A   1      48.054  27.660  22.908  1.00  0.00    -0.200 F 
ENDBRANCH  58  81
ENDBRANCH  32  33
ENDBRANCH  25  27
ENDBRANCH  24  25
ENDBRANCH  23  24
ENDBRANCH   1  23
TORSDOF 15
ENDMDL
