MODEL 1
REMARK VINA RESULT:     -13.5      0.000      0.000
REMARK SMILES NC(=O)c1c(-c2ccc(Cl)cc2)csc1NC(=O)[C@H]1[C@@H](C(=O)OCCOC(=O)c2ccc(-c3c4nc(c(-c5c(F)c(F)c(F)c(F)c5F)c5ccc([nH]5)c(-c5c(F)c(F)c(F)c(F)c5F)c5nc(c(-c6c(F)c(F)c(F)c(F)c6F)c6ccc3[nH]6)C=C5)C=C4)cc2)[C@@H]2CC[C@H]1O2
REMARK SMILES IDX 24 1 23 2 21 3 22 4 20 5 19 6 95 7 92 8 94 9 96 10 93 11
REMARK SMILES IDX 17 12 16 13 18 15 15 16 4 17 5 18 13 19 14 20 2 21 1 22 3 25
REMARK SMILES IDX 6 26 7 27 12 28 8 29 11 30 9 31 10 32 25 33 26 34 27 35
REMARK SMILES IDX 28 36 29 37 30 38 91 39 31 40 90 41 32 42 33 43 34 44 84 45
REMARK SMILES IDX 35 46 89 47 83 48 85 49 36 50 88 51 82 52 81 53 37 55 69 56
REMARK SMILES IDX 49 57 68 58 50 59 53 60 67 61 86 62 51 63 52 64 66 66 87 67
REMARK SMILES IDX 54 68 38 69 39 70 47 71 40 72 41 73 45 74 48 75 42 76 43 77
REMARK SMILES IDX 46 78 44 79 70 80 71 81 79 82 72 83 73 84 77 85 80 86 74 87
REMARK SMILES IDX 75 88 78 89 76 90 55 91 56 92 64 93 57 94 58 95 62 96 65 97
REMARK SMILES IDX 59 98 60 99 63 100 61 101
REMARK H PARENT 16 14 1 23 1 24 85 54 53 65
REMARK Flexibility Score: inf
ROOT
ATOM      1  C   UNL A   1      31.780  28.524  26.610  1.00  0.00     0.274 C 
ENDROOT
BRANCH   1   2
ATOM      2  O   UNL A   1      31.032  27.813  25.600  1.00  0.00    -0.462 OA
BRANCH   2   3
ATOM      3  C   UNL A   1      31.204  26.462  25.601  1.00  0.00     0.312 C 
ATOM      4  O   UNL A   1      31.304  25.802  26.629  1.00  0.00    -0.252 OA
BRANCH   3   5
ATOM      5  C   UNL A   1      31.449  25.909  24.204  1.00  0.00     0.143 C 
ATOM      6  C   UNL A   1      32.788  25.233  23.823  1.00  0.00     0.124 C 
ATOM      7  C   UNL A   1      33.418  26.304  22.888  1.00  0.00     0.132 C 
ATOM      8  C   UNL A   1      31.434  27.102  23.233  1.00  0.00     0.133 C 
ATOM      9  C   UNL A   1      32.794  26.207  21.497  1.00  0.00     0.035 C 
ATOM     10  O   UNL A   1      32.806  27.536  23.330  1.00  0.00    -0.373 OA
ATOM     11  C   UNL A   1      31.355  26.637  21.776  1.00  0.00     0.036 C 
BRANCH   6  12
ATOM     12  C   UNL A   1      33.787  24.760  24.872  1.00  0.00     0.231 C 
ATOM     13  N   UNL A   1      34.099  23.453  25.091  1.00  0.00    -0.317 N 
ATOM     14  H   UNL A   1      34.726  23.322  25.838  1.00  0.00     0.170 HD
ATOM     15  O   UNL A   1      34.422  25.582  25.541  1.00  0.00    -0.274 OA
BRANCH  13  16
ATOM     16  C   UNL A   1      33.719  22.273  24.484  1.00  0.00     0.108 A 
ATOM     17  C   UNL A   1      34.310  21.024  24.676  1.00  0.00     0.082 A 
ATOM     18  C   UNL A   1      33.390  20.000  24.218  1.00  0.00     0.007 A 
ATOM     19  C   UNL A   1      32.385  20.533  23.432  1.00  0.00     0.076 A 
ATOM     20  S   UNL A   1      32.509  22.218  23.303  1.00  0.00    -0.125 S 
BRANCH  17  21
ATOM     21  C   UNL A   1      35.607  20.898  25.347  1.00  0.00     0.252 C 
ATOM     22  N   UNL A   1      36.415  19.856  25.000  1.00  0.00    -0.365 N 
ATOM     23  H   UNL A   1      37.291  19.748  25.434  1.00  0.00     0.159 HD
ATOM     24  H   UNL A   1      36.120  19.213  24.316  1.00  0.00     0.159 HD
ATOM     25  O   UNL A   1      36.019  21.733  26.149  1.00  0.00    -0.269 OA
ENDBRANCH  17  21
BRANCH  18  26
ATOM     26  C   UNL A   1      33.341  18.578  24.525  1.00  0.00    -0.017 A 
ATOM     27  C   UNL A   1      33.870  17.635  23.638  1.00  0.00     0.010 A 
ATOM     28  C   UNL A   1      32.685  18.143  25.686  1.00  0.00     0.010 A 
ATOM     29  C   UNL A   1      33.736  16.271  23.904  1.00  0.00     0.021 A 
ATOM     30  C   UNL A   1      32.556  16.779  25.954  1.00  0.00     0.021 A 
ATOM     31  C   UNL A   1      33.078  15.849  25.059  1.00  0.00     0.041 A 
ATOM     32  Cl  UNL A   1      32.901  14.169  25.376  1.00  0.00    -0.084 Cl
ENDBRANCH  18  26
ENDBRANCH  13  16
ENDBRANCH   6  12
ENDBRANCH   3   5
ENDBRANCH   2   3
ENDBRANCH   1   2
BRANCH   1  33
ATOM     33  C   UNL A   1      31.775  30.030  26.363  1.00  0.00     0.275 C 
BRANCH  33  34
ATOM     34  O   UNL A   1      33.124  30.503  26.258  1.00  0.00    -0.458 OA
BRANCH  34  35
ATOM     35  C   UNL A   1      33.464  31.502  27.101  1.00  0.00     0.338 C 
ATOM     36  O   UNL A   1      32.845  32.539  27.285  1.00  0.00    -0.246 OA
BRANCH  35  37
ATOM     37  C   UNL A   1      34.730  31.175  27.783  1.00  0.00     0.060 A 
ATOM     38  C   UNL A   1      35.714  32.147  27.972  1.00  0.00     0.016 A 
ATOM     39  C   UNL A   1      34.970  29.859  28.176  1.00  0.00     0.016 A 
ATOM     40  C   UNL A   1      36.953  31.801  28.498  1.00  0.00     0.010 A 
ATOM     41  C   UNL A   1      36.175  29.533  28.804  1.00  0.00     0.010 A 
ATOM     42  C   UNL A   1      37.178  30.503  28.968  1.00  0.00    -0.014 A 
BRANCH  42  43
ATOM     43  C   UNL A   1      38.425  30.182  29.702  1.00  0.00     0.031 A 
ATOM     44  C   UNL A   1      39.453  29.269  29.104  1.00  0.00     0.074 A 
ATOM     45  C   UNL A   1      38.598  30.686  30.939  1.00  0.00     0.049 A 
ATOM     46  N   UNL A   1      40.478  28.693  29.679  1.00  0.00    -0.248 NA
ATOM     47  C   UNL A   1      39.303  28.949  27.676  1.00  0.00     0.031 C 
ATOM     48  C   UNL A   1      37.683  31.612  31.612  1.00  0.00     0.029 A 
ATOM     49  N   UNL A   1      39.598  30.487  31.858  1.00  0.00    -0.354 N 
ATOM     50  C   UNL A   1      41.066  27.904  28.700  1.00  0.00     0.074 A 
ATOM     51  C   UNL A   1      40.289  28.080  27.491  1.00  0.00     0.031 C 
ATOM     52  C   UNL A   1      38.171  31.917  32.821  1.00  0.00     0.029 A 
ATOM     53  C   UNL A   1      39.382  31.140  33.046  1.00  0.00     0.049 A 
ATOM     54  H   UNL A   1      40.390  29.929  31.683  1.00  0.00     0.167 HD
ATOM     55  C   UNL A   1      42.151  27.102  28.817  1.00  0.00     0.037 A 
ATOM     56  C   UNL A   1      40.054  31.082  34.209  1.00  0.00     0.037 A 
ATOM     57  C   UNL A   1      42.937  26.973  30.018  1.00  0.00     0.049 A 
ATOM     58  C   UNL A   1      41.240  30.173  34.314  1.00  0.00     0.074 A 
ATOM     59  C   UNL A   1      44.062  26.196  30.237  1.00  0.00     0.029 A 
ATOM     60  N   UNL A   1      42.683  27.650  31.202  1.00  0.00    -0.354 N 
ATOM     61  N   UNL A   1      41.758  29.386  33.404  1.00  0.00    -0.248 NA
ATOM     62  C   UNL A   1      41.925  30.128  35.612  1.00  0.00     0.031 C 
ATOM     63  C   UNL A   1      44.471  26.383  31.563  1.00  0.00     0.029 A 
ATOM     64  C   UNL A   1      43.625  27.303  32.159  1.00  0.00     0.049 A 
ATOM     65  H   UNL A   1      41.943  28.284  31.343  1.00  0.00     0.167 HD
ATOM     66  C   UNL A   1      42.830  28.754  34.011  1.00  0.00     0.074 A 
ATOM     67  C   UNL A   1      42.904  29.268  35.365  1.00  0.00     0.031 C 
ATOM     68  C   UNL A   1      43.673  27.826  33.499  1.00  0.00     0.037 A 
BRANCH  55  69
ATOM     69  C   UNL A   1      42.539  26.272  27.629  1.00  0.00     0.064 A 
ATOM     70  C   UNL A   1      43.456  26.728  26.673  1.00  0.00     0.173 A 
ATOM     71  C   UNL A   1      42.031  24.971  27.484  1.00  0.00     0.173 A 
ATOM     72  F   UNL A   1      43.966  27.966  26.762  1.00  0.00    -0.203 F 
ATOM     73  C   UNL A   1      43.843  25.918  25.607  1.00  0.00     0.198 A 
ATOM     74  C   UNL A   1      42.436  24.156  26.430  1.00  0.00     0.198 A 
ATOM     75  F   UNL A   1      41.156  24.483  28.375  1.00  0.00    -0.203 F 
ATOM     76  F   UNL A   1      44.702  26.383  24.690  1.00  0.00    -0.200 F 
ATOM     77  C   UNL A   1      43.338  24.630  25.490  1.00  0.00     0.200 A 
ATOM     78  F   UNL A   1      41.959  22.907  26.327  1.00  0.00    -0.200 F 
ATOM     79  F   UNL A   1      43.723  23.847  24.473  1.00  0.00    -0.200 F 
ENDBRANCH  55  69
BRANCH  56  80
ATOM     80  C   UNL A   1      39.581  31.881  35.368  1.00  0.00     0.064 A 
ATOM     81  C   UNL A   1      40.048  33.183  35.582  1.00  0.00     0.173 A 
ATOM     82  C   UNL A   1      38.623  31.374  36.260  1.00  0.00     0.173 A 
ATOM     83  F   UNL A   1      40.981  33.702  34.769  1.00  0.00    -0.203 F 
ATOM     84  C   UNL A   1      39.577  33.950  36.645  1.00  0.00     0.198 A 
ATOM     85  C   UNL A   1      38.131  32.151  37.304  1.00  0.00     0.198 A 
ATOM     86  F   UNL A   1      38.142  30.133  36.096  1.00  0.00    -0.203 F 
ATOM     87  F   UNL A   1      40.063  35.182  36.847  1.00  0.00    -0.200 F 
ATOM     88  C   UNL A   1      38.612  33.437  37.500  1.00  0.00     0.200 A 
ATOM     89  F   UNL A   1      37.187  31.658  38.118  1.00  0.00    -0.200 F 
ATOM     90  F   UNL A   1      38.149  34.181  38.513  1.00  0.00    -0.200 F 
ENDBRANCH  56  80
BRANCH  68  91
ATOM     91  C   UNL A   1      44.757  27.330  34.406  1.00  0.00     0.064 A 
ATOM     92  C   UNL A   1      45.997  27.979  34.485  1.00  0.00     0.173 A 
ATOM     93  C   UNL A   1      44.546  26.203  35.213  1.00  0.00     0.173 A 
ATOM     94  F   UNL A   1      46.249  29.049  33.716  1.00  0.00    -0.203 F 
ATOM     95  C   UNL A   1      47.000  27.501  35.323  1.00  0.00     0.198 A 
ATOM     96  C   UNL A   1      45.543  25.741  36.067  1.00  0.00     0.198 A 
ATOM     97  F   UNL A   1      43.374  25.551  35.173  1.00  0.00    -0.203 F 
ATOM     98  F   UNL A   1      48.195  28.107  35.350  1.00  0.00    -0.200 F 
ATOM     99  C   UNL A   1      46.770  26.386  36.117  1.00  0.00     0.200 A 
ATOM    100  F   UNL A   1      45.319  24.668  36.838  1.00  0.00    -0.200 F 
ATOM    101  F   UNL A   1      47.738  25.926  36.921  1.00  0.00    -0.200 F 
ENDBRANCH  68  91
ENDBRANCH  42  43
ENDBRANCH  35  37
ENDBRANCH  34  35
ENDBRANCH  33  34
ENDBRANCH   1  33
TORSDOF 15
ENDMDL
MODEL 2
REMARK VINA RESULT:     -13.5      0.281      1.896
REMARK SMILES NC(=O)c1c(-c2ccc(Cl)cc2)csc1NC(=O)[C@H]1[C@@H](C(=O)OCCOC(=O)c2ccc(-c3c4nc(c(-c5c(F)c(F)c(F)c(F)c5F)c5ccc([nH]5)c(-c5c(F)c(F)c(F)c(F)c5F)c5nc(c(-c6c(F)c(F)c(F)c(F)c6F)c6ccc3[nH]6)C=C5)C=C4)cc2)[C@@H]2CC[C@H]1O2
REMARK SMILES IDX 24 1 23 2 21 3 22 4 20 5 19 6 95 7 92 8 94 9 96 10 93 11
REMARK SMILES IDX 17 12 16 13 18 15 15 16 4 17 5 18 13 19 14 20 2 21 1 22 3 25
REMARK SMILES IDX 6 26 7 27 12 28 8 29 11 30 9 31 10 32 25 33 26 34 27 35
REMARK SMILES IDX 28 36 29 37 30 38 91 39 31 40 90 41 32 42 33 43 34 44 84 45
REMARK SMILES IDX 35 46 89 47 83 48 85 49 36 50 88 51 82 52 81 53 37 55 69 56
REMARK SMILES IDX 49 57 68 58 50 59 53 60 67 61 86 62 51 63 52 64 66 66 87 67
REMARK SMILES IDX 54 68 38 69 39 70 47 71 40 72 41 73 45 74 48 75 42 76 43 77
REMARK SMILES IDX 46 78 44 79 70 80 71 81 79 82 72 83 73 84 77 85 80 86 74 87
REMARK SMILES IDX 75 88 78 89 76 90 55 91 56 92 64 93 57 94 58 95 62 96 65 97
REMARK SMILES IDX 59 98 60 99 63 100 61 101
REMARK H PARENT 16 14 1 23 1 24 85 54 53 65
REMARK Flexibility Score: inf
ROOT
ATOM      1  C   UNL A   1      31.617  28.590  26.377  1.00  0.00     0.274 C 
ENDROOT
BRANCH   1   2
ATOM      2  O   UNL A   1      30.872  27.754  25.466  1.00  0.00    -0.462 OA
BRANCH   2   3
ATOM      3  C   UNL A   1      31.192  26.431  25.507  1.00  0.00     0.312 C 
ATOM      4  O   UNL A   1      31.394  25.825  26.553  1.00  0.00    -0.252 OA
BRANCH   3   5
ATOM      5  C   UNL A   1      31.455  25.856  24.122  1.00  0.00     0.143 C 
ATOM      6  C   UNL A   1      32.800  25.175  23.771  1.00  0.00     0.124 C 
ATOM      7  C   UNL A   1      33.443  26.231  22.828  1.00  0.00     0.132 C 
ATOM      8  C   UNL A   1      31.454  27.034  23.133  1.00  0.00     0.133 C 
ATOM      9  C   UNL A   1      32.839  26.113  21.430  1.00  0.00     0.035 C 
ATOM     10  O   UNL A   1      32.826  27.470  23.243  1.00  0.00    -0.373 OA
ATOM     11  C   UNL A   1      31.396  26.547  21.683  1.00  0.00     0.036 C 
BRANCH   6  12
ATOM     12  C   UNL A   1      33.784  24.717  24.840  1.00  0.00     0.231 C 
ATOM     13  N   UNL A   1      34.091  23.414  25.085  1.00  0.00    -0.317 N 
ATOM     14  H   UNL A   1      34.709  23.294  25.842  1.00  0.00     0.170 HD
ATOM     15  O   UNL A   1      34.411  25.549  25.505  1.00  0.00    -0.274 OA
BRANCH  13  16
ATOM     16  C   UNL A   1      33.719  22.224  24.491  1.00  0.00     0.108 A 
ATOM     17  C   UNL A   1      34.313  20.980  24.703  1.00  0.00     0.082 A 
ATOM     18  C   UNL A   1      33.399  19.947  24.253  1.00  0.00     0.007 A 
ATOM     19  C   UNL A   1      32.396  20.467  23.456  1.00  0.00     0.076 A 
ATOM     20  S   UNL A   1      32.515  22.150  23.305  1.00  0.00    -0.125 S 
BRANCH  17  21
ATOM     21  C   UNL A   1      35.607  20.868  25.382  1.00  0.00     0.252 C 
ATOM     22  N   UNL A   1      36.440  19.852  25.019  1.00  0.00    -0.365 N 
ATOM     23  H   UNL A   1      37.315  19.753  25.457  1.00  0.00     0.159 HD
ATOM     24  H   UNL A   1      36.165  19.218  24.318  1.00  0.00     0.159 HD
ATOM     25  O   UNL A   1      35.994  21.693  26.206  1.00  0.00    -0.269 OA
ENDBRANCH  17  21
BRANCH  18  26
ATOM     26  C   UNL A   1      33.353  18.529  24.580  1.00  0.00    -0.017 A 
ATOM     27  C   UNL A   1      33.907  17.578  23.716  1.00  0.00     0.010 A 
ATOM     28  C   UNL A   1      32.675  18.105  25.732  1.00  0.00     0.010 A 
ATOM     29  C   UNL A   1      33.777  16.217  23.999  1.00  0.00     0.021 A 
ATOM     30  C   UNL A   1      32.550  16.745  26.016  1.00  0.00     0.021 A 
ATOM     31  C   UNL A   1      33.097  15.806  25.145  1.00  0.00     0.041 A 
ATOM     32  Cl  UNL A   1      32.925  14.129  25.481  1.00  0.00    -0.084 Cl
ENDBRANCH  18  26
ENDBRANCH  13  16
ENDBRANCH   6  12
ENDBRANCH   3   5
ENDBRANCH   2   3
ENDBRANCH   1   2
BRANCH   1  33
ATOM     33  C   UNL A   1      31.887  29.971  25.786  1.00  0.00     0.275 C 
BRANCH  33  34
ATOM     34  O   UNL A   1      33.247  30.345  26.042  1.00  0.00    -0.458 OA
BRANCH  34  35
ATOM     35  C   UNL A   1      33.430  31.268  27.011  1.00  0.00     0.338 C 
ATOM     36  O   UNL A   1      32.685  32.200  27.277  1.00  0.00    -0.246 OA
BRANCH  35  37
ATOM     37  C   UNL A   1      34.696  31.008  27.721  1.00  0.00     0.060 A 
ATOM     38  C   UNL A   1      35.595  32.042  27.985  1.00  0.00     0.016 A 
ATOM     39  C   UNL A   1      35.026  29.697  28.064  1.00  0.00     0.016 A 
ATOM     40  C   UNL A   1      36.841  31.768  28.538  1.00  0.00     0.010 A 
ATOM     41  C   UNL A   1      36.233  29.435  28.716  1.00  0.00     0.010 A 
ATOM     42  C   UNL A   1      37.152  30.470  28.958  1.00  0.00    -0.014 A 
BRANCH  42  43
ATOM     43  C   UNL A   1      38.397  30.211  29.719  1.00  0.00     0.031 A 
ATOM     44  C   UNL A   1      39.471  29.331  29.154  1.00  0.00     0.074 A 
ATOM     45  C   UNL A   1      38.528  30.742  30.949  1.00  0.00     0.049 A 
ATOM     46  N   UNL A   1      40.508  28.806  29.756  1.00  0.00    -0.248 NA
ATOM     47  C   UNL A   1      39.360  28.981  27.729  1.00  0.00     0.031 C 
ATOM     48  C   UNL A   1      37.565  31.642  31.590  1.00  0.00     0.029 A 
ATOM     49  N   UNL A   1      39.518  30.598  31.889  1.00  0.00    -0.354 N 
ATOM     50  C   UNL A   1      41.144  28.025  28.802  1.00  0.00     0.074 A 
ATOM     51  C   UNL A   1      40.383  28.150  27.576  1.00  0.00     0.031 C 
ATOM     52  C   UNL A   1      38.018  31.986  32.803  1.00  0.00     0.029 A 
ATOM     53  C   UNL A   1      39.255  31.262  33.061  1.00  0.00     0.049 A 
ATOM     54  H   UNL A   1      40.334  30.070  31.737  1.00  0.00     0.167 HD
ATOM     55  C   UNL A   1      42.259  27.269  28.951  1.00  0.00     0.037 A 
ATOM     56  C   UNL A   1      39.907  31.250  34.237  1.00  0.00     0.037 A 
ATOM     57  C   UNL A   1      43.027  27.191  30.168  1.00  0.00     0.049 A 
ATOM     58  C   UNL A   1      41.127  30.391  34.378  1.00  0.00     0.074 A 
ATOM     59  C   UNL A   1      44.178  26.464  30.420  1.00  0.00     0.029 A 
ATOM     60  N   UNL A   1      42.725  27.877  31.336  1.00  0.00    -0.354 N 
ATOM     61  N   UNL A   1      41.692  29.610  33.491  1.00  0.00    -0.248 NA
ATOM     62  C   UNL A   1      41.789  30.394  35.689  1.00  0.00     0.031 C 
ATOM     63  C   UNL A   1      44.555  26.689  31.749  1.00  0.00     0.029 A 
ATOM     64  C   UNL A   1      43.662  27.584  32.314  1.00  0.00     0.049 A 
ATOM     65  H   UNL A   1      41.958  28.484  31.453  1.00  0.00     0.167 HD
ATOM     66  C   UNL A   1      42.777  29.032  34.128  1.00  0.00     0.074 A 
ATOM     67  C   UNL A   1      42.806  29.570  35.474  1.00  0.00     0.031 C 
ATOM     68  C   UNL A   1      43.666  28.130  33.646  1.00  0.00     0.037 A 
BRANCH  55  69
ATOM     69  C   UNL A   1      42.701  26.436  27.785  1.00  0.00     0.064 A 
ATOM     70  C   UNL A   1      42.130  25.186  27.507  1.00  0.00     0.173 A 
ATOM     71  C   UNL A   1      43.667  26.929  26.894  1.00  0.00     0.173 A 
ATOM     72  F   UNL A   1      41.207  24.666  28.332  1.00  0.00    -0.203 F 
ATOM     73  C   UNL A   1      42.518  24.454  26.387  1.00  0.00     0.198 A 
ATOM     74  C   UNL A   1      44.037  26.205  25.763  1.00  0.00     0.198 A 
ATOM     75  F   UNL A   1      44.239  28.122  27.109  1.00  0.00    -0.203 F 
ATOM     76  F   UNL A   1      41.979  23.249  26.154  1.00  0.00    -0.200 F 
ATOM     77  C   UNL A   1      43.466  24.967  25.512  1.00  0.00     0.200 A 
ATOM     78  F   UNL A   1      44.941  26.709  24.911  1.00  0.00    -0.200 F 
ATOM     79  F   UNL A   1      43.827  24.268  24.427  1.00  0.00    -0.200 F 
ENDBRANCH  55  69
BRANCH  56  80
ATOM     80  C   UNL A   1      39.382  32.048  35.373  1.00  0.00     0.064 A 
ATOM     81  C   UNL A   1      38.536  31.471  36.328  1.00  0.00     0.173 A 
ATOM     82  C   UNL A   1      39.748  33.392  35.550  1.00  0.00     0.173 A 
ATOM     83  F   UNL A   1      38.139  30.198  36.188  1.00  0.00    -0.203 F 
ATOM     84  C   UNL A   1      38.073  32.207  37.416  1.00  0.00     0.198 A 
ATOM     85  C   UNL A   1      39.310  34.118  36.654  1.00  0.00     0.198 A 
ATOM     86  F   UNL A   1      40.559  33.990  34.665  1.00  0.00    -0.203 F 
ATOM     87  F   UNL A   1      37.238  31.642  38.298  1.00  0.00    -0.200 F 
ATOM     88  C   UNL A   1      38.468  33.527  37.583  1.00  0.00     0.200 A 
ATOM     89  F   UNL A   1      39.706  35.387  36.821  1.00  0.00    -0.200 F 
ATOM     90  F   UNL A   1      38.034  34.229  38.638  1.00  0.00    -0.200 F 
ENDBRANCH  56  80
BRANCH  68  91
ATOM     91  C   UNL A   1      44.751  27.693  34.580  1.00  0.00     0.064 A 
ATOM     92  C   UNL A   1      44.579  26.596  35.436  1.00  0.00     0.173 A 
ATOM     93  C   UNL A   1      45.978  28.371  34.610  1.00  0.00     0.173 A 
ATOM     94  F   UNL A   1      43.414  25.931  35.456  1.00  0.00    -0.203 F 
ATOM     95  C   UNL A   1      45.591  26.208  36.309  1.00  0.00     0.198 A 
ATOM     96  C   UNL A   1      46.996  27.966  35.468  1.00  0.00     0.198 A 
ATOM     97  F   UNL A   1      46.188  29.426  33.808  1.00  0.00    -0.203 F 
ATOM     98  F   UNL A   1      45.391  25.186  37.153  1.00  0.00    -0.200 F 
ATOM     99  C   UNL A   1      46.800  26.889  36.321  1.00  0.00     0.200 A 
ATOM    100  F   UNL A   1      48.165  28.621  35.474  1.00  0.00    -0.200 F 
ATOM    101  F   UNL A   1      47.772  26.515  37.163  1.00  0.00    -0.200 F 
ENDBRANCH  68  91
ENDBRANCH  42  43
ENDBRANCH  35  37
ENDBRANCH  34  35
ENDBRANCH  33  34
ENDBRANCH   1  33
TORSDOF 15
ENDMDL
MODEL 3
REMARK VINA RESULT:     -13.3      1.847      2.991
REMARK SMILES NC(=O)c1c(-c2ccc(Cl)cc2)csc1NC(=O)[C@H]1[C@@H](C(=O)OCCOC(=O)c2ccc(-c3c4nc(c(-c5c(F)c(F)c(F)c(F)c5F)c5ccc([nH]5)c(-c5c(F)c(F)c(F)c(F)c5F)c5nc(c(-c6c(F)c(F)c(F)c(F)c6F)c6ccc3[nH]6)C=C5)C=C4)cc2)[C@@H]2CC[C@H]1O2
REMARK SMILES IDX 24 1 23 2 21 3 22 4 20 5 19 6 95 7 92 8 94 9 96 10 93 11
REMARK SMILES IDX 17 12 16 13 18 15 15 16 4 17 5 18 13 19 14 20 2 21 1 22 3 25
REMARK SMILES IDX 6 26 7 27 12 28 8 29 11 30 9 31 10 32 25 33 26 34 27 35
REMARK SMILES IDX 28 36 29 37 30 38 91 39 31 40 90 41 32 42 33 43 34 44 84 45
REMARK SMILES IDX 35 46 89 47 83 48 85 49 36 50 88 51 82 52 81 53 37 55 69 56
REMARK SMILES IDX 49 57 68 58 50 59 53 60 67 61 86 62 51 63 52 64 66 66 87 67
REMARK SMILES IDX 54 68 38 69 39 70 47 71 40 72 41 73 45 74 48 75 42 76 43 77
REMARK SMILES IDX 46 78 44 79 70 80 71 81 79 82 72 83 73 84 77 85 80 86 74 87
REMARK SMILES IDX 75 88 78 89 76 90 55 91 56 92 64 93 57 94 58 95 62 96 65 97
REMARK SMILES IDX 59 98 60 99 63 100 61 101
REMARK H PARENT 16 14 1 23 1 24 85 54 53 65
REMARK Flexibility Score: inf
ROOT
ATOM      1  C   UNL A   1      32.594  31.154  27.009  1.00  0.00     0.274 C 
ENDROOT
BRANCH   1   2
ATOM      2  O   UNL A   1      31.785  30.363  26.110  1.00  0.00    -0.462 OA
BRANCH   2   3
ATOM      3  C   UNL A   1      31.588  29.073  26.500  1.00  0.00     0.312 C 
ATOM      4  O   UNL A   1      31.870  28.662  27.620  1.00  0.00    -0.252 OA
BRANCH   3   5
ATOM      5  C   UNL A   1      31.168  28.177  25.343  1.00  0.00     0.143 C 
ATOM      6  C   UNL A   1      32.141  27.145  24.723  1.00  0.00     0.124 C 
ATOM      7  C   UNL A   1      32.453  27.804  23.350  1.00  0.00     0.132 C 
ATOM      8  C   UNL A   1      30.898  29.091  24.136  1.00  0.00     0.133 C 
ATOM      9  C   UNL A   1      31.306  27.540  22.376  1.00  0.00     0.035 C 
ATOM     10  O   UNL A   1      32.230  29.211  23.594  1.00  0.00    -0.373 OA
ATOM     11  C   UNL A   1      30.172  28.339  23.016  1.00  0.00     0.036 C 
BRANCH   6  12
ATOM     12  C   UNL A   1      33.417  26.706  25.428  1.00  0.00     0.231 C 
ATOM     13  N   UNL A   1      33.705  25.415  25.750  1.00  0.00    -0.317 N 
ATOM     14  H   UNL A   1      34.549  25.315  26.245  1.00  0.00     0.170 HD
ATOM     15  O   UNL A   1      34.302  27.531  25.685  1.00  0.00    -0.274 OA
BRANCH  13  16
ATOM     16  C   UNL A   1      33.059  24.216  25.524  1.00  0.00     0.108 A 
ATOM     17  C   UNL A   1      33.390  23.276  24.548  1.00  0.00     0.082 A 
ATOM     18  C   UNL A   1      32.780  22.007  24.899  1.00  0.00     0.007 A 
ATOM     19  C   UNL A   1      31.800  22.163  25.862  1.00  0.00     0.076 A 
ATOM     20  S   UNL A   1      31.663  23.773  26.372  1.00  0.00    -0.125 S 
BRANCH  17  21
ATOM     21  C   UNL A   1      34.307  23.614  23.455  1.00  0.00     0.252 C 
ATOM     22  N   UNL A   1      35.496  22.953  23.382  1.00  0.00    -0.365 N 
ATOM     23  H   UNL A   1      36.130  23.159  22.659  1.00  0.00     0.159 HD
ATOM     24  H   UNL A   1      35.720  22.268  24.053  1.00  0.00     0.159 HD
ATOM     25  O   UNL A   1      34.011  24.413  22.570  1.00  0.00    -0.269 OA
ENDBRANCH  17  21
BRANCH  18  26
ATOM     26  C   UNL A   1      33.102  20.658  24.457  1.00  0.00    -0.017 A 
ATOM     27  C   UNL A   1      32.253  19.970  23.583  1.00  0.00     0.010 A 
ATOM     28  C   UNL A   1      34.233  20.011  24.975  1.00  0.00     0.010 A 
ATOM     29  C   UNL A   1      32.528  18.646  23.238  1.00  0.00     0.021 A 
ATOM     30  C   UNL A   1      34.510  18.688  24.626  1.00  0.00     0.021 A 
ATOM     31  C   UNL A   1      33.653  18.009  23.763  1.00  0.00     0.041 A 
ATOM     32  Cl  UNL A   1      33.981  16.374  23.349  1.00  0.00    -0.084 Cl
ENDBRANCH  18  26
ENDBRANCH  13  16
ENDBRANCH   6  12
ENDBRANCH   3   5
ENDBRANCH   2   3
ENDBRANCH   1   2
BRANCH   1  33
ATOM     33  C   UNL A   1      32.002  32.543  27.228  1.00  0.00     0.275 C 
BRANCH  33  34
ATOM     34  O   UNL A   1      33.053  33.518  27.221  1.00  0.00    -0.458 OA
BRANCH  34  35
ATOM     35  C   UNL A   1      33.224  34.204  28.372  1.00  0.00     0.338 C 
ATOM     36  O   UNL A   1      32.528  35.120  28.784  1.00  0.00    -0.246 OA
BRANCH  35  37
ATOM     37  C   UNL A   1      34.412  33.699  29.085  1.00  0.00     0.060 A 
ATOM     38  C   UNL A   1      34.296  32.703  30.057  1.00  0.00     0.016 A 
ATOM     39  C   UNL A   1      35.655  34.279  28.833  1.00  0.00     0.016 A 
ATOM     40  C   UNL A   1      35.399  32.325  30.813  1.00  0.00     0.010 A 
ATOM     41  C   UNL A   1      36.783  33.825  29.518  1.00  0.00     0.010 A 
ATOM     42  C   UNL A   1      36.663  32.843  30.516  1.00  0.00    -0.014 A 
BRANCH  42  43
ATOM     43  C   UNL A   1      37.868  32.301  31.190  1.00  0.00     0.031 A 
ATOM     44  C   UNL A   1      38.672  31.205  30.558  1.00  0.00     0.074 A 
ATOM     45  C   UNL A   1      38.202  32.779  32.404  1.00  0.00     0.049 A 
ATOM     46  N   UNL A   1      39.602  30.453  31.090  1.00  0.00    -0.248 NA
ATOM     47  C   UNL A   1      38.384  30.902  29.148  1.00  0.00     0.031 C 
ATOM     48  C   UNL A   1      37.515  33.868  33.104  1.00  0.00     0.029 A 
ATOM     49  N   UNL A   1      39.197  32.406  33.273  1.00  0.00    -0.354 N 
ATOM     50  C   UNL A   1      39.976  29.556  30.100  1.00  0.00     0.074 A 
ATOM     51  C   UNL A   1      39.179  29.861  28.929  1.00  0.00     0.031 C 
ATOM     52  C   UNL A   1      38.119  34.090  34.279  1.00  0.00     0.029 A 
ATOM     53  C   UNL A   1      39.174  33.102  34.456  1.00  0.00     0.049 A 
ATOM     54  H   UNL A   1      39.859  31.707  33.068  1.00  0.00     0.167 HD
ATOM     55  C   UNL A   1      40.897  28.566  30.176  1.00  0.00     0.037 A 
ATOM     56  C   UNL A   1      39.888  32.933  35.583  1.00  0.00     0.037 A 
ATOM     57  C   UNL A   1      41.711  28.306  31.337  1.00  0.00     0.049 A 
ATOM     58  C   UNL A   1      40.887  31.818  35.644  1.00  0.00     0.074 A 
ATOM     59  C   UNL A   1      42.682  27.334  31.513  1.00  0.00     0.029 A 
ATOM     60  N   UNL A   1      41.655  29.033  32.517  1.00  0.00    -0.354 N 
ATOM     61  N   UNL A   1      41.196  30.937  34.726  1.00  0.00    -0.248 NA
ATOM     62  C   UNL A   1      41.624  31.660  36.905  1.00  0.00     0.031 C 
ATOM     63  C   UNL A   1      43.193  27.456  32.810  1.00  0.00     0.029 A 
ATOM     64  C   UNL A   1      42.568  28.526  33.430  1.00  0.00     0.049 A 
ATOM     65  H   UNL A   1      41.056  29.796  32.683  1.00  0.00     0.167 HD
ATOM     66  C   UNL A   1      42.164  30.122  35.290  1.00  0.00     0.074 A 
ATOM     67  C   UNL A   1      42.409  30.629  36.626  1.00  0.00     0.031 C 
ATOM     68  C   UNL A   1      42.789  29.047  34.753  1.00  0.00     0.037 A 
BRANCH  55  69
ATOM     69  C   UNL A   1      41.055  27.664  28.988  1.00  0.00     0.064 A 
ATOM     70  C   UNL A   1      40.180  26.596  28.746  1.00  0.00     0.173 A 
ATOM     71  C   UNL A   1      42.063  27.914  28.044  1.00  0.00     0.173 A 
ATOM     72  F   UNL A   1      39.204  26.310  29.622  1.00  0.00    -0.203 F 
ATOM     73  C   UNL A   1      40.314  25.805  27.607  1.00  0.00     0.198 A 
ATOM     74  C   UNL A   1      42.181  27.135  26.896  1.00  0.00     0.198 A 
ATOM     75  F   UNL A   1      42.922  28.928  28.224  1.00  0.00    -0.203 F 
ATOM     76  F   UNL A   1      39.482  24.773  27.406  1.00  0.00    -0.200 F 
ATOM     77  C   UNL A   1      41.309  26.079  26.679  1.00  0.00     0.200 A 
ATOM     78  F   UNL A   1      43.133  27.412  25.993  1.00  0.00    -0.200 F 
ATOM     79  F   UNL A   1      41.427  25.327  25.577  1.00  0.00    -0.200 F 
ENDBRANCH  55  69
BRANCH  56  80
ATOM     80  C   UNL A   1      39.639  33.820  36.747  1.00  0.00     0.064 A 
ATOM     81  C   UNL A   1      38.808  33.413  37.797  1.00  0.00     0.173 A 
ATOM     82  C   UNL A   1      40.258  35.075  36.851  1.00  0.00     0.173 A 
ATOM     83  F   UNL A   1      38.175  32.232  37.731  1.00  0.00    -0.203 F 
ATOM     84  C   UNL A   1      38.603  34.227  38.909  1.00  0.00     0.198 A 
ATOM     85  C   UNL A   1      40.077  35.875  37.975  1.00  0.00     0.198 A 
ATOM     86  F   UNL A   1      41.066  35.510  35.873  1.00  0.00    -0.203 F 
ATOM     87  F   UNL A   1      37.778  33.828  39.886  1.00  0.00    -0.200 F 
ATOM     88  C   UNL A   1      39.245  35.453  39.001  1.00  0.00     0.200 A 
ATOM     89  F   UNL A   1      40.712  37.052  38.069  1.00  0.00    -0.200 F 
ATOM     90  F   UNL A   1      39.059  36.229  40.078  1.00  0.00    -0.200 F 
ENDBRANCH  56  80
BRANCH  68  91
ATOM     91  C   UNL A   1      43.810  28.367  35.613  1.00  0.00     0.064 A 
ATOM     92  C   UNL A   1      45.169  28.698  35.531  1.00  0.00     0.173 A 
ATOM     93  C   UNL A   1      43.421  27.384  36.535  1.00  0.00     0.173 A 
ATOM     94  F   UNL A   1      45.589  29.617  34.649  1.00  0.00    -0.203 F 
ATOM     95  C   UNL A   1      46.110  28.049  36.327  1.00  0.00     0.198 A 
ATOM     96  C   UNL A   1      44.361  26.755  37.346  1.00  0.00     0.198 A 
ATOM     97  F   UNL A   1      42.130  27.037  36.649  1.00  0.00    -0.203 F 
ATOM     98  F   UNL A   1      47.411  28.346  36.201  1.00  0.00    -0.200 F 
ATOM     99  C   UNL A   1      45.705  27.083  37.236  1.00  0.00     0.200 A 
ATOM    100  F   UNL A   1      43.968  25.826  38.227  1.00  0.00    -0.200 F 
ATOM    101  F   UNL A   1      46.611  26.459  37.999  1.00  0.00    -0.200 F 
ENDBRANCH  68  91
ENDBRANCH  42  43
ENDBRANCH  35  37
ENDBRANCH  34  35
ENDBRANCH  33  34
ENDBRANCH   1  33
TORSDOF 15
ENDMDL
