MODEL 1
REMARK VINA RESULT:     -11.3      0.000      0.000
REMARK SMILES Cn1cc(SCC[C@H]2CCC[C@]2([NH2+]C2CC2)C(=O)OCCOC(=O)c2ccc(-c3c4nc(c(-c5c(F)c(F)c(F)c(F)c5F)c5ccc([nH]5)c(-c5c(F)c(F)c(F)c(F)c5F)c5nc(c(-c6c(F)c(F)c(F)c(F)c6F)c6ccc3[nH]6)C=C5)C=C4)cc2)cn1
REMARK SMILES IDX 20 1 19 2 17 3 18 4 12 5 8 6 9 7 10 8 11 9 7 10 6 11 5 12
REMARK SMILES IDX 4 13 1 14 2 15 3 16 89 17 88 18 13 19 14 22 15 23 16 24
REMARK SMILES IDX 21 25 22 26 23 27 24 28 25 29 26 30 87 31 27 32 86 33 28 34
REMARK SMILES IDX 29 35 30 36 80 37 31 38 85 39 79 40 81 41 32 42 84 43 78 44
REMARK SMILES IDX 77 45 33 47 65 48 45 49 64 50 46 51 49 52 63 53 82 54 47 55
REMARK SMILES IDX 48 56 62 58 83 59 50 60 34 61 35 62 43 63 36 64 37 65 41 66
REMARK SMILES IDX 44 67 38 68 39 69 42 70 40 71 66 72 67 73 75 74 68 75 69 76
REMARK SMILES IDX 73 77 76 78 70 79 71 80 74 81 72 82 51 83 52 84 60 85 53 86
REMARK SMILES IDX 54 87 58 88 61 89 55 90 56 91 59 92 57 93
REMARK H PARENT 13 20 13 21 81 46 49 57
REMARK Flexibility Score: inf
ROOT
ATOM      1  C   UNL A   1      36.654  22.488  23.561  1.00  0.00     0.274 C 
ENDROOT
BRANCH   1   2
ATOM      2  O   UNL A   1      35.772  23.503  24.084  1.00  0.00    -0.457 OA
BRANCH   2   3
ATOM      3  C   UNL A   1      34.576  23.633  23.438  1.00  0.00     0.368 C 
ATOM      4  O   UNL A   1      34.443  23.437  22.234  1.00  0.00    -0.245 OA
BRANCH   3   5
ATOM      5  C   UNL A   1      33.402  24.059  24.402  1.00  0.00     0.197 C 
ATOM      6  C   UNL A   1      32.714  25.377  23.846  1.00  0.00     0.063 C 
ATOM      7  C   UNL A   1      33.786  26.385  24.251  1.00  0.00     0.011 C 
ATOM      8  C   UNL A   1      34.024  26.075  25.708  1.00  0.00     0.008 C 
ATOM      9  C   UNL A   1      33.951  24.556  25.778  1.00  0.00     0.081 C 
BRANCH   6  10
ATOM     10  C   UNL A   1      31.320  25.734  24.443  1.00  0.00     0.022 C 
BRANCH  10  11
ATOM     11  C   UNL A   1      30.484  26.848  23.760  1.00  0.00     0.075 C 
BRANCH  11  12
ATOM     12  S   UNL A   1      30.813  28.560  24.267  1.00  0.00    -0.123 SA
BRANCH  12  13
ATOM     13  C   UNL A   1      29.867  29.602  23.236  1.00  0.00     0.045 A 
ATOM     14  C   UNL A   1      28.474  32.639  22.003  1.00  0.00     0.173 C 
ATOM     15  N   UNL A   1      28.831  31.266  22.275  1.00  0.00    -0.275 N 
ATOM     16  C   UNL A   1      29.084  30.702  23.500  1.00  0.00     0.123 A 
ATOM     17  N   UNL A   1      29.105  30.438  21.251  1.00  0.00    -0.181 NA
ATOM     18  C   UNL A   1      29.756  29.430  21.841  1.00  0.00     0.150 A 
ENDBRANCH  12  13
ENDBRANCH  11  12
ENDBRANCH  10  11
ENDBRANCH   6  10
BRANCH   5  19
ATOM     19  N   UNL A   1      32.509  22.899  24.587  1.00  0.00    -0.329 N 
ATOM     20  H   UNL A   1      31.879  22.878  23.784  1.00  0.00     0.347 HD
ATOM     21  H   UNL A   1      32.089  23.062  25.501  1.00  0.00     0.347 HD
BRANCH  19  22
ATOM     22  C   UNL A   1      33.091  21.541  24.711  1.00  0.00     0.183 C 
ATOM     23  C   UNL A   1      32.484  20.330  25.371  1.00  0.00     0.071 C 
ATOM     24  C   UNL A   1      32.498  20.422  23.884  1.00  0.00     0.071 C 
ENDBRANCH  19  22
ENDBRANCH   5  19
ENDBRANCH   3   5
ENDBRANCH   2   3
ENDBRANCH   1   2
BRANCH   1  25
ATOM     25  C   UNL A   1      36.777  21.296  24.518  1.00  0.00     0.275 C 
BRANCH  25  26
ATOM     26  O   UNL A   1      37.283  21.729  25.792  1.00  0.00    -0.458 OA
BRANCH  26  27
ATOM     27  C   UNL A   1      38.611  21.563  25.995  1.00  0.00     0.338 C 
ATOM     28  O   UNL A   1      39.276  20.587  25.691  1.00  0.00    -0.246 OA
BRANCH  27  29
ATOM     29  C   UNL A   1      39.212  22.785  26.590  1.00  0.00     0.060 A 
ATOM     30  C   UNL A   1      38.768  24.056  26.233  1.00  0.00     0.016 A 
ATOM     31  C   UNL A   1      40.325  22.669  27.426  1.00  0.00     0.016 A 
ATOM     32  C   UNL A   1      39.485  25.192  26.612  1.00  0.00     0.010 A 
ATOM     33  C   UNL A   1      40.987  23.818  27.886  1.00  0.00     0.010 A 
ATOM     34  C   UNL A   1      40.597  25.097  27.455  1.00  0.00    -0.014 A 
BRANCH  34  35
ATOM     35  C   UNL A   1      41.348  26.317  27.871  1.00  0.00     0.031 A 
ATOM     36  C   UNL A   1      40.687  27.378  28.713  1.00  0.00     0.074 A 
ATOM     37  C   UNL A   1      42.637  26.484  27.508  1.00  0.00     0.049 A 
ATOM     38  N   UNL A   1      41.083  28.601  28.970  1.00  0.00    -0.248 NA
ATOM     39  C   UNL A   1      39.409  27.020  29.350  1.00  0.00     0.031 C 
ATOM     40  C   UNL A   1      43.441  25.517  26.757  1.00  0.00     0.029 A 
ATOM     41  N   UNL A   1      43.500  27.531  27.721  1.00  0.00    -0.354 N 
ATOM     42  C   UNL A   1      40.078  29.175  29.740  1.00  0.00     0.074 A 
ATOM     43  C   UNL A   1      39.060  28.163  29.925  1.00  0.00     0.031 C 
ATOM     44  C   UNL A   1      44.682  25.996  26.606  1.00  0.00     0.029 A 
ATOM     45  C   UNL A   1      44.733  27.351  27.143  1.00  0.00     0.049 A 
ATOM     46  H   UNL A   1      43.258  28.334  28.238  1.00  0.00     0.167 HD
ATOM     47  C   UNL A   1      40.012  30.435  30.235  1.00  0.00     0.037 A 
ATOM     48  C   UNL A   1      45.770  28.195  26.994  1.00  0.00     0.037 A 
ATOM     49  C   UNL A   1      41.052  31.422  30.094  1.00  0.00     0.049 A 
ATOM     50  C   UNL A   1      45.651  29.604  27.494  1.00  0.00     0.074 A 
ATOM     51  C   UNL A   1      41.077  32.726  30.563  1.00  0.00     0.029 A 
ATOM     52  N   UNL A   1      42.261  31.210  29.449  1.00  0.00    -0.354 N 
ATOM     53  N   UNL A   1      44.656  30.171  28.130  1.00  0.00    -0.248 NA
ATOM     54  C   UNL A   1      46.785  30.498  27.226  1.00  0.00     0.031 C 
ATOM     55  C   UNL A   1      42.287  33.312  30.174  1.00  0.00     0.029 A 
ATOM     56  C   UNL A   1      43.032  32.361  29.497  1.00  0.00     0.049 A 
ATOM     57  H   UNL A   1      42.532  30.366  29.021  1.00  0.00     0.167 HD
ATOM     58  C   UNL A   1      45.041  31.487  28.339  1.00  0.00     0.074 A 
ATOM     59  C   UNL A   1      46.371  31.628  27.782  1.00  0.00     0.031 C 
ATOM     60  C   UNL A   1      44.349  32.489  28.932  1.00  0.00     0.037 A 
BRANCH  47  61
ATOM     61  C   UNL A   1      38.756  30.844  30.949  1.00  0.00     0.064 A 
ATOM     62  C   UNL A   1      38.653  30.816  32.346  1.00  0.00     0.173 A 
ATOM     63  C   UNL A   1      37.665  31.341  30.218  1.00  0.00     0.173 A 
ATOM     64  F   UNL A   1      39.662  30.337  33.088  1.00  0.00    -0.203 F 
ATOM     65  C   UNL A   1      37.498  31.261  32.986  1.00  0.00     0.198 A 
ATOM     66  C   UNL A   1      36.521  31.806  30.862  1.00  0.00     0.198 A 
ATOM     67  F   UNL A   1      37.716  31.394  28.879  1.00  0.00    -0.203 F 
ATOM     68  F   UNL A   1      37.408  31.200  34.322  1.00  0.00    -0.200 F 
ATOM     69  C   UNL A   1      36.438  31.764  32.245  1.00  0.00     0.200 A 
ATOM     70  F   UNL A   1      35.504  32.301  30.144  1.00  0.00    -0.200 F 
ATOM     71  F   UNL A   1      35.334  32.204  32.865  1.00  0.00    -0.200 F 
ENDBRANCH  47  61
BRANCH  48  72
ATOM     72  C   UNL A   1      46.986  27.738  26.271  1.00  0.00     0.064 A 
ATOM     73  C   UNL A   1      48.086  27.222  26.968  1.00  0.00     0.173 A 
ATOM     74  C   UNL A   1      47.054  27.774  24.871  1.00  0.00     0.173 A 
ATOM     75  F   UNL A   1      48.077  27.194  28.307  1.00  0.00    -0.203 F 
ATOM     76  C   UNL A   1      49.208  26.753  26.287  1.00  0.00     0.198 A 
ATOM     77  C   UNL A   1      48.162  27.276  24.191  1.00  0.00     0.198 A 
ATOM     78  F   UNL A   1      46.026  28.262  24.160  1.00  0.00    -0.203 F 
ATOM     79  F   UNL A   1      50.258  26.286  26.975  1.00  0.00    -0.200 F 
ATOM     80  C   UNL A   1      49.239  26.768  24.900  1.00  0.00     0.200 A 
ATOM     81  F   UNL A   1      48.181  27.278  22.851  1.00  0.00    -0.200 F 
ATOM     82  F   UNL A   1      50.310  26.296  24.247  1.00  0.00    -0.200 F 
ENDBRANCH  48  72
BRANCH  60  83
ATOM     83  C   UNL A   1      45.031  33.821  29.021  1.00  0.00     0.064 A 
ATOM     84  C   UNL A   1      44.861  34.796  28.028  1.00  0.00     0.173 A 
ATOM     85  C   UNL A   1      45.853  34.127  30.114  1.00  0.00     0.173 A 
ATOM     86  F   UNL A   1      44.099  34.539  26.955  1.00  0.00    -0.203 F 
ATOM     87  C   UNL A   1      45.512  36.024  28.116  1.00  0.00     0.198 A 
ATOM     88  C   UNL A   1      46.485  35.364  30.209  1.00  0.00     0.198 A 
ATOM     89  F   UNL A   1      46.044  33.227  31.090  1.00  0.00    -0.203 F 
ATOM     90  F   UNL A   1      45.373  36.924  27.133  1.00  0.00    -0.200 F 
ATOM     91  C   UNL A   1      46.319  36.308  29.206  1.00  0.00     0.200 A 
ATOM     92  F   UNL A   1      47.260  35.640  31.267  1.00  0.00    -0.200 F 
ATOM     93  F   UNL A   1      46.948  37.488  29.286  1.00  0.00    -0.200 F 
ENDBRANCH  60  83
ENDBRANCH  34  35
ENDBRANCH  27  29
ENDBRANCH  26  27
ENDBRANCH  25  26
ENDBRANCH   1  25
TORSDOF 17
ENDMDL
MODEL 2
REMARK VINA RESULT:     -11.3      4.533     10.038
REMARK SMILES Cn1cc(SCC[C@H]2CCC[C@]2([NH2+]C2CC2)C(=O)OCCOC(=O)c2ccc(-c3c4nc(c(-c5c(F)c(F)c(F)c(F)c5F)c5ccc([nH]5)c(-c5c(F)c(F)c(F)c(F)c5F)c5nc(c(-c6c(F)c(F)c(F)c(F)c6F)c6ccc3[nH]6)C=C5)C=C4)cc2)cn1
REMARK SMILES IDX 20 1 19 2 17 3 18 4 12 5 8 6 9 7 10 8 11 9 7 10 6 11 5 12
REMARK SMILES IDX 4 13 1 14 2 15 3 16 89 17 88 18 13 19 14 22 15 23 16 24
REMARK SMILES IDX 21 25 22 26 23 27 24 28 25 29 26 30 87 31 27 32 86 33 28 34
REMARK SMILES IDX 29 35 30 36 80 37 31 38 85 39 79 40 81 41 32 42 84 43 78 44
REMARK SMILES IDX 77 45 33 47 65 48 45 49 64 50 46 51 49 52 63 53 82 54 47 55
REMARK SMILES IDX 48 56 62 58 83 59 50 60 34 61 35 62 43 63 36 64 37 65 41 66
REMARK SMILES IDX 44 67 38 68 39 69 42 70 40 71 66 72 67 73 75 74 68 75 69 76
REMARK SMILES IDX 73 77 76 78 70 79 71 80 74 81 72 82 51 83 52 84 60 85 53 86
REMARK SMILES IDX 54 87 58 88 61 89 55 90 56 91 59 92 57 93
REMARK H PARENT 13 20 13 21 81 46 49 57
REMARK Flexibility Score: inf
ROOT
ATOM      1  C   UNL A   1      31.751  28.242  26.239  1.00  0.00     0.274 C 
ENDROOT
BRANCH   1   2
ATOM      2  O   UNL A   1      31.483  27.228  25.248  1.00  0.00    -0.457 OA
BRANCH   2   3
ATOM      3  C   UNL A   1      32.280  26.121  25.307  1.00  0.00     0.368 C 
ATOM      4  O   UNL A   1      33.192  25.998  26.119  1.00  0.00    -0.245 OA
BRANCH   3   5
ATOM      5  C   UNL A   1      31.901  25.035  24.228  1.00  0.00     0.197 C 
ATOM      6  C   UNL A   1      33.209  24.253  23.783  1.00  0.00     0.063 C 
ATOM      7  C   UNL A   1      33.827  25.327  22.891  1.00  0.00     0.011 C 
ATOM      8  C   UNL A   1      32.692  25.717  21.977  1.00  0.00     0.008 C 
ATOM      9  C   UNL A   1      31.467  25.700  22.883  1.00  0.00     0.081 C 
BRANCH   6  10
ATOM     10  C   UNL A   1      32.989  22.914  23.019  1.00  0.00     0.022 C 
BRANCH  10  11
ATOM     11  C   UNL A   1      33.552  21.606  23.636  1.00  0.00     0.075 C 
BRANCH  11  12
ATOM     12  S   UNL A   1      32.367  20.276  23.984  1.00  0.00    -0.123 SA
BRANCH  12  13
ATOM     13  C   UNL A   1      33.239  18.768  23.918  1.00  0.00     0.045 A 
ATOM     14  C   UNL A   1      35.042  15.944  25.128  1.00  0.00     0.173 C 
ATOM     15  N   UNL A   1      34.395  16.962  24.334  1.00  0.00    -0.275 N 
ATOM     16  C   UNL A   1      34.349  18.309  24.590  1.00  0.00     0.123 A 
ATOM     17  N   UNL A   1      33.612  16.599  23.303  1.00  0.00    -0.181 NA
ATOM     18  C   UNL A   1      32.893  17.701  23.063  1.00  0.00     0.150 A 
ENDBRANCH  12  13
ENDBRANCH  11  12
ENDBRANCH  10  11
ENDBRANCH   6  10
BRANCH   5  19
ATOM     19  N   UNL A   1      30.811  24.201  24.772  1.00  0.00    -0.329 N 
ATOM     20  H   UNL A   1      30.891  23.284  24.331  1.00  0.00     0.347 HD
ATOM     21  H   UNL A   1      29.971  24.741  24.567  1.00  0.00     0.347 HD
BRANCH  19  22
ATOM     22  C   UNL A   1      30.727  23.971  26.233  1.00  0.00     0.183 C 
ATOM     23  C   UNL A   1      29.900  22.943  26.963  1.00  0.00     0.071 C 
ATOM     24  C   UNL A   1      31.367  22.725  26.807  1.00  0.00     0.071 C 
ENDBRANCH  19  22
ENDBRANCH   5  19
ENDBRANCH   3   5
ENDBRANCH   2   3
ENDBRANCH   1   2
BRANCH   1  25
ATOM     25  C   UNL A   1      31.679  29.652  25.641  1.00  0.00     0.275 C 
BRANCH  25  26
ATOM     26  O   UNL A   1      32.969  30.286  25.702  1.00  0.00    -0.458 OA
BRANCH  26  27
ATOM     27  C   UNL A   1      33.190  31.087  26.770  1.00  0.00     0.338 C 
ATOM     28  O   UNL A   1      32.407  31.888  27.253  1.00  0.00    -0.246 OA
BRANCH  27  29
ATOM     29  C   UNL A   1      34.527  30.821  27.362  1.00  0.00     0.060 A 
ATOM     30  C   UNL A   1      34.948  29.524  27.643  1.00  0.00     0.016 A 
ATOM     31  C   UNL A   1      35.330  31.892  27.761  1.00  0.00     0.016 A 
ATOM     32  C   UNL A   1      36.094  29.297  28.407  1.00  0.00     0.010 A 
ATOM     33  C   UNL A   1      36.533  31.658  28.445  1.00  0.00     0.010 A 
ATOM     34  C   UNL A   1      36.914  30.356  28.810  1.00  0.00    -0.014 A 
BRANCH  34  35
ATOM     35  C   UNL A   1      38.148  30.106  29.611  1.00  0.00     0.031 A 
ATOM     36  C   UNL A   1      39.266  29.259  29.058  1.00  0.00     0.074 A 
ATOM     37  C   UNL A   1      38.286  30.644  30.840  1.00  0.00     0.049 A 
ATOM     38  N   UNL A   1      40.293  28.733  29.678  1.00  0.00    -0.248 NA
ATOM     39  C   UNL A   1      39.223  28.961  27.618  1.00  0.00     0.031 C 
ATOM     40  C   UNL A   1      37.330  31.545  31.487  1.00  0.00     0.029 A 
ATOM     41  N   UNL A   1      39.289  30.511  31.770  1.00  0.00    -0.354 N 
ATOM     42  C   UNL A   1      40.980  27.993  28.723  1.00  0.00     0.074 A 
ATOM     43  C   UNL A   1      40.263  28.151  27.474  1.00  0.00     0.031 C 
ATOM     44  C   UNL A   1      37.806  31.911  32.683  1.00  0.00     0.029 A 
ATOM     45  C   UNL A   1      39.041  31.182  32.942  1.00  0.00     0.049 A 
ATOM     46  H   UNL A   1      40.106  29.984  31.611  1.00  0.00     0.167 HD
ATOM     47  C   UNL A   1      42.098  27.244  28.880  1.00  0.00     0.037 A 
ATOM     48  C   UNL A   1      39.689  31.168  34.122  1.00  0.00     0.037 A 
ATOM     49  C   UNL A   1      42.839  27.133  30.111  1.00  0.00     0.049 A 
ATOM     50  C   UNL A   1      40.888  30.283  34.293  1.00  0.00     0.074 A 
ATOM     51  C   UNL A   1      43.986  26.399  30.368  1.00  0.00     0.029 A 
ATOM     52  N   UNL A   1      42.515  27.788  31.290  1.00  0.00    -0.354 N 
ATOM     53  N   UNL A   1      41.470  29.506  33.415  1.00  0.00    -0.248 NA
ATOM     54  C   UNL A   1      41.498  30.249  35.629  1.00  0.00     0.031 C 
ATOM     55  C   UNL A   1      44.338  26.586  31.710  1.00  0.00     0.029 A 
ATOM     56  C   UNL A   1      43.433  27.466  32.279  1.00  0.00     0.049 A 
ATOM     57  H   UNL A   1      41.747  28.393  31.407  1.00  0.00     0.167 HD
ATOM     58  C   UNL A   1      42.515  28.890  34.087  1.00  0.00     0.074 A 
ATOM     59  C   UNL A   1      42.500  29.401  35.443  1.00  0.00     0.031 C 
ATOM     60  C   UNL A   1      43.400  27.976  33.624  1.00  0.00     0.037 A 
BRANCH  47  61
ATOM     61  C   UNL A   1      42.582  26.447  27.703  1.00  0.00     0.064 A 
ATOM     62  C   UNL A   1      43.583  26.921  26.844  1.00  0.00     0.173 A 
ATOM     63  C   UNL A   1      42.081  25.154  27.480  1.00  0.00     0.173 A 
ATOM     64  F   UNL A   1      44.083  28.154  27.008  1.00  0.00    -0.203 F 
ATOM     65  C   UNL A   1      44.057  26.134  25.797  1.00  0.00     0.198 A 
ATOM     66  C   UNL A   1      42.573  24.362  26.445  1.00  0.00     0.198 A 
ATOM     67  F   UNL A   1      41.126  24.652  28.276  1.00  0.00    -0.203 F 
ATOM     68  F   UNL A   1      44.995  26.617  24.970  1.00  0.00    -0.200 F 
ATOM     69  C   UNL A   1      43.559  24.853  25.604  1.00  0.00     0.200 A 
ATOM     70  F   UNL A   1      42.099  23.122  26.269  1.00  0.00    -0.200 F 
ATOM     71  F   UNL A   1      44.028  24.094  24.604  1.00  0.00    -0.200 F 
ENDBRANCH  47  61
BRANCH  48  72
ATOM     72  C   UNL A   1      39.160  31.971  35.255  1.00  0.00     0.064 A 
ATOM     73  C   UNL A   1      38.402  31.374  36.270  1.00  0.00     0.173 A 
ATOM     74  C   UNL A   1      39.435  33.343  35.363  1.00  0.00     0.173 A 
ATOM     75  F   UNL A   1      38.091  30.073  36.194  1.00  0.00    -0.203 F 
ATOM     76  C   UNL A   1      37.944  32.120  37.354  1.00  0.00     0.198 A 
ATOM     77  C   UNL A   1      39.004  34.080  36.462  1.00  0.00     0.198 A 
ATOM     78  F   UNL A   1      40.156  33.960  34.414  1.00  0.00    -0.203 F 
ATOM     79  F   UNL A   1      37.199  31.532  38.300  1.00  0.00    -0.200 F 
ATOM     80  C   UNL A   1      38.256  33.468  37.455  1.00  0.00     0.200 A 
ATOM     81  F   UNL A   1      39.322  35.377  36.564  1.00  0.00    -0.200 F 
ATOM     82  F   UNL A   1      37.833  34.178  38.510  1.00  0.00    -0.200 F 
ENDBRANCH  48  72
BRANCH  60  83
ATOM     83  C   UNL A   1      44.436  27.487  34.591  1.00  0.00     0.064 A 
ATOM     84  C   UNL A   1      44.222  26.342  35.372  1.00  0.00     0.173 A 
ATOM     85  C   UNL A   1      45.656  28.163  34.729  1.00  0.00     0.173 A 
ATOM     86  F   UNL A   1      43.062  25.674  35.286  1.00  0.00    -0.203 F 
ATOM     87  C   UNL A   1      45.186  25.906  36.277  1.00  0.00     0.198 A 
ATOM     88  C   UNL A   1      46.626  27.712  35.619  1.00  0.00     0.198 A 
ATOM     89  F   UNL A   1      45.906  29.262  34.001  1.00  0.00    -0.203 F 
ATOM     90  F   UNL A   1      44.943  24.837  37.048  1.00  0.00    -0.200 F 
ATOM     91  C   UNL A   1      46.387  26.589  36.398  1.00  0.00     0.200 A 
ATOM     92  F   UNL A   1      47.789  28.368  35.731  1.00  0.00    -0.200 F 
ATOM     93  F   UNL A   1      47.312  26.171  37.272  1.00  0.00    -0.200 F 
ENDBRANCH  60  83
ENDBRANCH  34  35
ENDBRANCH  27  29
ENDBRANCH  26  27
ENDBRANCH  25  26
ENDBRANCH   1  25
TORSDOF 17
ENDMDL
MODEL 3
REMARK VINA RESULT:     -11.2      4.585     10.023
REMARK SMILES Cn1cc(SCC[C@H]2CCC[C@]2([NH2+]C2CC2)C(=O)OCCOC(=O)c2ccc(-c3c4nc(c(-c5c(F)c(F)c(F)c(F)c5F)c5ccc([nH]5)c(-c5c(F)c(F)c(F)c(F)c5F)c5nc(c(-c6c(F)c(F)c(F)c(F)c6F)c6ccc3[nH]6)C=C5)C=C4)cc2)cn1
REMARK SMILES IDX 20 1 19 2 17 3 18 4 12 5 8 6 9 7 10 8 11 9 7 10 6 11 5 12
REMARK SMILES IDX 4 13 1 14 2 15 3 16 89 17 88 18 13 19 14 22 15 23 16 24
REMARK SMILES IDX 21 25 22 26 23 27 24 28 25 29 26 30 87 31 27 32 86 33 28 34
REMARK SMILES IDX 29 35 30 36 80 37 31 38 85 39 79 40 81 41 32 42 84 43 78 44
REMARK SMILES IDX 77 45 33 47 65 48 45 49 64 50 46 51 49 52 63 53 82 54 47 55
REMARK SMILES IDX 48 56 62 58 83 59 50 60 34 61 35 62 43 63 36 64 37 65 41 66
REMARK SMILES IDX 44 67 38 68 39 69 42 70 40 71 66 72 67 73 75 74 68 75 69 76
REMARK SMILES IDX 73 77 76 78 70 79 71 80 74 81 72 82 51 83 52 84 60 85 53 86
REMARK SMILES IDX 54 87 58 88 61 89 55 90 56 91 59 92 57 93
REMARK H PARENT 13 20 13 21 81 46 49 57
REMARK Flexibility Score: inf
ROOT
ATOM      1  C   UNL A   1      31.655  28.088  26.745  1.00  0.00     0.274 C 
ENDROOT
BRANCH   1   2
ATOM      2  O   UNL A   1      32.525  26.946  26.600  1.00  0.00    -0.457 OA
BRANCH   2   3
ATOM      3  C   UNL A   1      31.911  25.777  26.254  1.00  0.00     0.368 C 
ATOM      4  O   UNL A   1      30.836  25.422  26.728  1.00  0.00    -0.245 OA
BRANCH   3   5
ATOM      5  C   UNL A   1      32.729  24.946  25.192  1.00  0.00     0.197 C 
ATOM      6  C   UNL A   1      32.616  23.399  25.530  1.00  0.00     0.063 C 
ATOM      7  C   UNL A   1      33.575  23.353  26.717  1.00  0.00     0.011 C 
ATOM      8  C   UNL A   1      34.811  24.043  26.195  1.00  0.00     0.008 C 
ATOM      9  C   UNL A   1      34.265  25.185  25.347  1.00  0.00     0.081 C 
BRANCH   6  10
ATOM     10  C   UNL A   1      33.036  22.412  24.401  1.00  0.00     0.022 C 
BRANCH  10  11
ATOM     11  C   UNL A   1      33.173  20.905  24.746  1.00  0.00     0.075 C 
BRANCH  11  12
ATOM     12  S   UNL A   1      32.411  19.720  23.601  1.00  0.00    -0.123 SA
BRANCH  12  13
ATOM     13  C   UNL A   1      32.896  18.122  24.103  1.00  0.00     0.045 A 
ATOM     14  C   UNL A   1      32.641  14.945  25.694  1.00  0.00     0.173 C 
ATOM     15  N   UNL A   1      33.064  16.134  24.990  1.00  0.00    -0.275 N 
ATOM     16  C   UNL A   1      32.733  17.432  25.283  1.00  0.00     0.123 A 
ATOM     17  N   UNL A   1      33.732  16.013  23.829  1.00  0.00    -0.181 NA
ATOM     18  C   UNL A   1      33.611  17.227  23.281  1.00  0.00     0.150 A 
ENDBRANCH  12  13
ENDBRANCH  11  12
ENDBRANCH  10  11
ENDBRANCH   6  10
BRANCH   5  19
ATOM     19  N   UNL A   1      32.276  25.342  23.844  1.00  0.00    -0.329 N 
ATOM     20  H   UNL A   1      31.534  26.032  23.971  1.00  0.00     0.347 HD
ATOM     21  H   UNL A   1      32.016  24.458  23.409  1.00  0.00     0.347 HD
BRANCH  19  22
ATOM     22  C   UNL A   1      33.247  25.926  22.889  1.00  0.00     0.183 C 
ATOM     23  C   UNL A   1      32.991  26.398  21.480  1.00  0.00     0.071 C 
ATOM     24  C   UNL A   1      33.150  27.402  22.571  1.00  0.00     0.071 C 
ENDBRANCH  19  22
ENDBRANCH   5  19
ENDBRANCH   3   5
ENDBRANCH   2   3
ENDBRANCH   1   2
BRANCH   1  25
ATOM     25  C   UNL A   1      31.901  29.131  25.649  1.00  0.00     0.275 C 
BRANCH  25  26
ATOM     26  O   UNL A   1      33.199  29.730  25.813  1.00  0.00    -0.458 OA
BRANCH  26  27
ATOM     27  C   UNL A   1      33.266  30.787  26.656  1.00  0.00     0.338 C 
ATOM     28  O   UNL A   1      32.481  31.719  26.719  1.00  0.00    -0.246 OA
BRANCH  27  29
ATOM     29  C   UNL A   1      34.414  30.646  27.590  1.00  0.00     0.060 A 
ATOM     30  C   UNL A   1      35.204  31.739  27.934  1.00  0.00     0.016 A 
ATOM     31  C   UNL A   1      34.789  29.376  28.034  1.00  0.00     0.016 A 
ATOM     32  C   UNL A   1      36.408  31.560  28.616  1.00  0.00     0.010 A 
ATOM     33  C   UNL A   1      35.950  29.209  28.804  1.00  0.00     0.010 A 
ATOM     34  C   UNL A   1      36.797  30.297  29.075  1.00  0.00    -0.014 A 
BRANCH  34  35
ATOM     35  C   UNL A   1      38.077  30.115  29.820  1.00  0.00     0.031 A 
ATOM     36  C   UNL A   1      39.193  29.282  29.242  1.00  0.00     0.074 A 
ATOM     37  C   UNL A   1      38.259  30.703  31.021  1.00  0.00     0.049 A 
ATOM     38  N   UNL A   1      40.266  28.811  29.827  1.00  0.00    -0.248 NA
ATOM     39  C   UNL A   1      39.088  28.929  27.817  1.00  0.00     0.031 C 
ATOM     40  C   UNL A   1      37.308  31.598  31.683  1.00  0.00     0.029 A 
ATOM     41  N   UNL A   1      39.312  30.635  31.902  1.00  0.00    -0.354 N 
ATOM     42  C   UNL A   1      40.928  28.057  28.865  1.00  0.00     0.074 A 
ATOM     43  C   UNL A   1      40.145  28.146  27.649  1.00  0.00     0.031 C 
ATOM     44  C   UNL A   1      37.832  32.023  32.839  1.00  0.00     0.029 A 
ATOM     45  C   UNL A   1      39.101  31.342  33.061  1.00  0.00     0.049 A 
ATOM     46  H   UNL A   1      40.136  30.128  31.721  1.00  0.00     0.167 HD
ATOM     47  C   UNL A   1      42.076  27.349  28.991  1.00  0.00     0.037 A 
ATOM     48  C   UNL A   1      39.807  31.391  34.205  1.00  0.00     0.037 A 
ATOM     49  C   UNL A   1      42.881  27.306  30.186  1.00  0.00     0.049 A 
ATOM     50  C   UNL A   1      41.041  30.550  34.346  1.00  0.00     0.074 A 
ATOM     51  C   UNL A   1      44.062  26.618  30.409  1.00  0.00     0.029 A 
ATOM     52  N   UNL A   1      42.596  27.995  31.355  1.00  0.00    -0.354 N 
ATOM     53  N   UNL A   1      41.604  29.759  33.468  1.00  0.00    -0.248 NA
ATOM     54  C   UNL A   1      41.719  30.585  35.649  1.00  0.00     0.031 C 
ATOM     55  C   UNL A   1      44.475  26.865  31.724  1.00  0.00     0.029 A 
ATOM     56  C   UNL A   1      43.572  27.738  32.306  1.00  0.00     0.049 A 
ATOM     57  H   UNL A   1      41.815  28.581  31.490  1.00  0.00     0.167 HD
ATOM     58  C   UNL A   1      42.700  29.200  34.107  1.00  0.00     0.074 A 
ATOM     59  C   UNL A   1      42.737  29.762  35.443  1.00  0.00     0.031 C 
ATOM     60  C   UNL A   1      43.590  28.297  33.632  1.00  0.00     0.037 A 
BRANCH  47  61
ATOM     61  C   UNL A   1      42.526  26.523  27.820  1.00  0.00     0.064 A 
ATOM     62  C   UNL A   1      41.997  25.253  27.558  1.00  0.00     0.173 A 
ATOM     63  C   UNL A   1      43.452  27.052  26.906  1.00  0.00     0.173 A 
ATOM     64  F   UNL A   1      41.120  24.699  28.408  1.00  0.00    -0.203 F 
ATOM     65  C   UNL A   1      42.387  24.535  26.429  1.00  0.00     0.198 A 
ATOM     66  C   UNL A   1      43.823  26.341  25.767  1.00  0.00     0.198 A 
ATOM     67  F   UNL A   1      43.984  28.266  27.108  1.00  0.00    -0.203 F 
ATOM     68  F   UNL A   1      41.889  23.310  26.212  1.00  0.00    -0.200 F 
ATOM     69  C   UNL A   1      43.291  25.083  25.531  1.00  0.00     0.200 A 
ATOM     70  F   UNL A   1      44.688  26.878  24.896  1.00  0.00    -0.200 F 
ATOM     71  F   UNL A   1      43.653  24.396  24.438  1.00  0.00    -0.200 F 
ENDBRANCH  47  61
BRANCH  48  72
ATOM     72  C   UNL A   1      39.311  32.220  35.335  1.00  0.00     0.064 A 
ATOM     73  C   UNL A   1      38.517  31.661  36.344  1.00  0.00     0.173 A 
ATOM     74  C   UNL A   1      39.651  33.577  35.444  1.00  0.00     0.173 A 
ATOM     75  F   UNL A   1      38.144  30.377  36.267  1.00  0.00    -0.203 F 
ATOM     76  C   UNL A   1      38.088  32.429  37.425  1.00  0.00     0.198 A 
ATOM     77  C   UNL A   1      39.248  34.335  36.539  1.00  0.00     0.198 A 
ATOM     78  F   UNL A   1      40.407  34.158  34.500  1.00  0.00    -0.203 F 
ATOM     79  F   UNL A   1      37.310  31.879  38.366  1.00  0.00    -0.200 F 
ATOM     80  C   UNL A   1      38.465  33.760  37.528  1.00  0.00     0.200 A 
ATOM     81  F   UNL A   1      39.629  35.615  36.643  1.00  0.00    -0.200 F 
ATOM     82  F   UNL A   1      38.070  34.491  38.580  1.00  0.00    -0.200 F 
ENDBRANCH  48  72
BRANCH  60  83
ATOM     83  C   UNL A   1      44.688  27.876  34.562  1.00  0.00     0.064 A 
ATOM     84  C   UNL A   1      45.896  28.585  34.632  1.00  0.00     0.173 A 
ATOM     85  C   UNL A   1      44.527  26.760  35.394  1.00  0.00     0.173 A 
ATOM     86  F   UNL A   1      46.101  29.648  33.840  1.00  0.00    -0.203 F 
ATOM     87  C   UNL A   1      46.914  28.175  35.489  1.00  0.00     0.198 A 
ATOM     88  C   UNL A   1      45.538  26.366  36.265  1.00  0.00     0.198 A 
ATOM     89  F   UNL A   1      43.388  26.051  35.363  1.00  0.00    -0.203 F 
ATOM     90  F   UNL A   1      48.078  28.839  35.508  1.00  0.00    -0.200 F 
ATOM     91  C   UNL A   1      46.734  27.069  36.307  1.00  0.00     0.200 A 
ATOM     92  F   UNL A   1      45.361  25.301  37.059  1.00  0.00    -0.200 F 
ATOM     93  F   UNL A   1      47.716  26.674  37.127  1.00  0.00    -0.200 F 
ENDBRANCH  60  83
ENDBRANCH  34  35
ENDBRANCH  27  29
ENDBRANCH  26  27
ENDBRANCH  25  26
ENDBRANCH   1  25
TORSDOF 17
ENDMDL
