MODEL 1
REMARK VINA RESULT:     -14.2      0.000      0.000
REMARK SMILES Cc1ccc2[nH]cc([C@@H](C(=O)OCCOC(=O)c3ccc(-c4c5nc(c(-c6c(F)c(F)c(F)c(F)c6F)c6ccc([nH]6)c(-c6c(F)c(F)c(F)c(F)c6F)c6nc(c(-c7c(F)c(F)c(F)c(F)c7F)c7ccc4[nH]7)C=C6)C=C5)cc3)[NH+]3CCN(c4ccc(F)cc4)CC3)c2c1
REMARK SMILES IDX 13 1 12 2 10 3 11 4 9 5 8 6 1 7 2 8 3 9 95 10 4 11 94 12
REMARK SMILES IDX 5 13 6 14 7 15 81 17 82 18 93 19 83 21 92 22 84 23 85 24
REMARK SMILES IDX 86 25 91 26 87 27 90 28 88 29 89 30 14 31 15 32 16 33 17 34
REMARK SMILES IDX 18 35 19 36 80 37 20 38 79 39 21 40 22 41 23 42 73 43 24 44
REMARK SMILES IDX 78 45 72 46 74 47 25 48 77 49 71 50 70 51 26 53 58 54 38 55
REMARK SMILES IDX 57 56 39 57 42 58 56 59 75 60 40 61 41 62 55 64 76 65 43 66
REMARK SMILES IDX 27 67 28 68 36 69 29 70 30 71 34 72 37 73 31 74 32 75 35 76
REMARK SMILES IDX 33 77 59 78 60 79 68 80 61 81 62 82 66 83 69 84 63 85 64 86
REMARK SMILES IDX 67 87 65 88 44 89 45 90 53 91 46 92 47 93 51 94 54 95 48 96
REMARK SMILES IDX 49 97 52 98 50 99
REMARK H PARENT 6 16 81 20 74 52 42 63
REMARK Flexibility Score: inf
ROOT
ATOM      1  C   UNL A   1      31.796  28.754  27.285  1.00  0.00     0.274 C 
ENDROOT
BRANCH   1   2
ATOM      2  O   UNL A   1      32.290  27.536  26.692  1.00  0.00    -0.457 OA
BRANCH   2   3
ATOM      3  C   UNL A   1      31.393  26.789  25.986  1.00  0.00     0.370 C 
ATOM      4  O   UNL A   1      30.358  26.339  26.476  1.00  0.00    -0.245 OA
BRANCH   3   5
ATOM      5  C   UNL A   1      31.840  26.498  24.531  1.00  0.00     0.328 C 
BRANCH   5   6
ATOM      6  C   UNL A   1      31.648  27.613  23.537  1.00  0.00     0.046 A 
ATOM      7  C   UNL A   1      26.583  28.312  23.358  1.00  0.00     0.044 C 
ATOM      8  C   UNL A   1      28.000  28.691  23.044  1.00  0.00    -0.050 A 
ATOM      9  C   UNL A   1      28.293  29.800  22.245  1.00  0.00     0.005 A 
ATOM     10  C   UNL A   1      29.046  27.896  23.535  1.00  0.00     0.014 A 
ATOM     11  C   UNL A   1      29.609  30.115  21.889  1.00  0.00     0.027 A 
ATOM     12  C   UNL A   1      30.382  28.191  23.189  1.00  0.00     0.009 A 
ATOM     13  C   UNL A   1      30.626  29.276  22.352  1.00  0.00     0.046 A 
ATOM     14  N   UNL A   1      31.979  29.308  22.117  1.00  0.00    -0.361 N 
ATOM     15  C   UNL A   1      32.596  28.281  22.779  1.00  0.00     0.094 A 
ATOM     16  H   UNL A   1      32.438  29.971  21.553  1.00  0.00     0.166 HD
ENDBRANCH   5   6
BRANCH   5  17
ATOM     17  N   UNL A   1      31.287  25.212  24.048  1.00  0.00    -0.316 N 
ATOM     18  C   UNL A   1      31.974  24.557  22.932  1.00  0.00     0.284 C 
ATOM     19  C   UNL A   1      30.869  24.248  25.077  1.00  0.00     0.284 C 
ATOM     20  H   UNL A   1      30.426  25.575  23.641  1.00  0.00     0.349 HD
ATOM     21  C   UNL A   1      32.961  23.416  23.240  1.00  0.00     0.178 C 
ATOM     22  C   UNL A   1      31.865  23.113  25.431  1.00  0.00     0.178 C 
ATOM     23  N   UNL A   1      32.388  22.482  24.208  1.00  0.00    -0.360 N 
BRANCH  23  24
ATOM     24  C   UNL A   1      33.033  21.259  24.358  1.00  0.00     0.037 A 
ATOM     25  C   UNL A   1      34.361  21.155  24.798  1.00  0.00     0.029 A 
ATOM     26  C   UNL A   1      32.351  20.083  24.017  1.00  0.00     0.029 A 
ATOM     27  C   UNL A   1      35.001  19.917  24.864  1.00  0.00     0.041 A 
ATOM     28  C   UNL A   1      32.990  18.841  24.074  1.00  0.00     0.041 A 
ATOM     29  C   UNL A   1      34.311  18.771  24.492  1.00  0.00     0.123 A 
ATOM     30  F   UNL A   1      34.932  17.586  24.534  1.00  0.00    -0.207 F 
ENDBRANCH  23  24
ENDBRANCH   5  17
ENDBRANCH   3   5
ENDBRANCH   2   3
ENDBRANCH   1   2
BRANCH   1  31
ATOM     31  C   UNL A   1      31.790  29.883  26.256  1.00  0.00     0.275 C 
BRANCH  31  32
ATOM     32  O   UNL A   1      33.116  30.428  26.142  1.00  0.00    -0.458 OA
BRANCH  32  33
ATOM     33  C   UNL A   1      33.475  31.340  27.069  1.00  0.00     0.338 C 
ATOM     34  O   UNL A   1      32.799  32.285  27.467  1.00  0.00    -0.246 OA
BRANCH  33  35
ATOM     35  C   UNL A   1      34.817  31.031  27.612  1.00  0.00     0.060 A 
ATOM     36  C   UNL A   1      35.173  29.726  27.957  1.00  0.00     0.016 A 
ATOM     37  C   UNL A   1      35.693  32.078  27.906  1.00  0.00     0.016 A 
ATOM     38  C   UNL A   1      36.336  29.487  28.691  1.00  0.00     0.010 A 
ATOM     39  C   UNL A   1      36.913  31.816  28.542  1.00  0.00     0.010 A 
ATOM     40  C   UNL A   1      37.239  30.519  28.974  1.00  0.00    -0.014 A 
BRANCH  40  41
ATOM     41  C   UNL A   1      38.508  30.266  29.721  1.00  0.00     0.031 A 
ATOM     42  C   UNL A   1      39.586  29.401  29.121  1.00  0.00     0.074 A 
ATOM     43  C   UNL A   1      38.702  30.782  30.952  1.00  0.00     0.049 A 
ATOM     44  N   UNL A   1      40.581  28.786  29.712  1.00  0.00    -0.248 NA
ATOM     45  C   UNL A   1      39.529  29.188  27.667  1.00  0.00     0.031 C 
ATOM     46  C   UNL A   1      37.798  31.696  31.649  1.00  0.00     0.029 A 
ATOM     47  N   UNL A   1      39.733  30.598  31.844  1.00  0.00    -0.354 N 
ATOM     48  C   UNL A   1      41.215  28.050  28.719  1.00  0.00     0.074 A 
ATOM     49  C   UNL A   1      40.511  28.315  27.482  1.00  0.00     0.031 C 
ATOM     50  C   UNL A   1      38.326  32.023  32.836  1.00  0.00     0.029 A 
ATOM     51  C   UNL A   1      39.542  31.247  33.039  1.00  0.00     0.049 A 
ATOM     52  H   UNL A   1      40.529  30.054  31.645  1.00  0.00     0.167 HD
ATOM     53  C   UNL A   1      42.280  27.219  28.840  1.00  0.00     0.037 A 
ATOM     54  C   UNL A   1      40.219  31.176  34.201  1.00  0.00     0.037 A 
ATOM     55  C   UNL A   1      43.027  27.024  30.057  1.00  0.00     0.049 A 
ATOM     56  C   UNL A   1      41.378  30.233  34.323  1.00  0.00     0.074 A 
ATOM     57  C   UNL A   1      44.122  26.206  30.279  1.00  0.00     0.029 A 
ATOM     58  N   UNL A   1      42.777  27.686  31.249  1.00  0.00    -0.354 N 
ATOM     59  N   UNL A   1      41.889  29.432  33.421  1.00  0.00    -0.248 NA
ATOM     60  C   UNL A   1      42.031  30.155  35.638  1.00  0.00     0.031 C 
ATOM     61  C   UNL A   1      44.521  26.356  31.612  1.00  0.00     0.029 A 
ATOM     62  C   UNL A   1      43.696  27.294  32.209  1.00  0.00     0.049 A 
ATOM     63  H   UNL A   1      42.053  28.338  31.392  1.00  0.00     0.167 HD
ATOM     64  C   UNL A   1      42.920  28.755  34.055  1.00  0.00     0.074 A 
ATOM     65  C   UNL A   1      42.978  29.254  35.413  1.00  0.00     0.031 C 
ATOM     66  C   UNL A   1      43.739  27.798  33.557  1.00  0.00     0.037 A 
BRANCH  53  67
ATOM     67  C   UNL A   1      42.685  26.416  27.639  1.00  0.00     0.064 A 
ATOM     68  C   UNL A   1      43.685  26.847  26.756  1.00  0.00     0.173 A 
ATOM     69  C   UNL A   1      42.107  25.156  27.412  1.00  0.00     0.173 A 
ATOM     70  F   UNL A   1      44.262  28.047  26.924  1.00  0.00    -0.203 F 
ATOM     71  C   UNL A   1      44.083  26.052  25.684  1.00  0.00     0.198 A 
ATOM     72  C   UNL A   1      42.524  24.354  26.354  1.00  0.00     0.198 A 
ATOM     73  F   UNL A   1      41.152  24.694  28.233  1.00  0.00    -0.203 F 
ATOM     74  F   UNL A   1      45.023  26.493  24.837  1.00  0.00    -0.200 F 
ATOM     75  C   UNL A   1      43.508  24.803  25.489  1.00  0.00     0.200 A 
ATOM     76  F   UNL A   1      41.978  23.143  26.176  1.00  0.00    -0.200 F 
ATOM     77  F   UNL A   1      43.905  24.034  24.465  1.00  0.00    -0.200 F 
ENDBRANCH  53  67
BRANCH  54  78
ATOM     78  C   UNL A   1      39.757  31.977  35.363  1.00  0.00     0.064 A 
ATOM     79  C   UNL A   1      40.263  33.262  35.598  1.00  0.00     0.173 A 
ATOM     80  C   UNL A   1      38.775  31.488  36.239  1.00  0.00     0.173 A 
ATOM     81  F   UNL A   1      41.224  33.758  34.804  1.00  0.00    -0.203 F 
ATOM     82  C   UNL A   1      39.800  34.030  36.663  1.00  0.00     0.198 A 
ATOM     83  C   UNL A   1      38.292  32.270  37.285  1.00  0.00     0.198 A 
ATOM     84  F   UNL A   1      38.262  30.262  36.057  1.00  0.00    -0.203 F 
ATOM     85  F   UNL A   1      40.318  35.246  36.883  1.00  0.00    -0.200 F 
ATOM     86  C   UNL A   1      38.807  33.540  37.498  1.00  0.00     0.200 A 
ATOM     87  F   UNL A   1      37.321  31.797  38.078  1.00  0.00    -0.200 F 
ATOM     88  F   UNL A   1      38.348  34.288  38.510  1.00  0.00    -0.200 F 
ENDBRANCH  54  78
BRANCH  66  89
ATOM     89  C   UNL A   1      44.781  27.248  34.481  1.00  0.00     0.064 A 
ATOM     90  C   UNL A   1      46.038  27.855  34.606  1.00  0.00     0.173 A 
ATOM     91  C   UNL A   1      44.512  26.115  35.261  1.00  0.00     0.173 A 
ATOM     92  F   UNL A   1      46.345  28.931  33.865  1.00  0.00    -0.203 F 
ATOM     93  C   UNL A   1      46.999  27.334  35.468  1.00  0.00     0.198 A 
ATOM     94  C   UNL A   1      45.468  25.608  36.137  1.00  0.00     0.198 A 
ATOM     95  F   UNL A   1      43.321  25.502  35.175  1.00  0.00    -0.203 F 
ATOM     96  F   UNL A   1      48.208  27.906  35.545  1.00  0.00    -0.200 F 
ATOM     97  C   UNL A   1      46.711  26.215  36.235  1.00  0.00     0.200 A 
ATOM     98  F   UNL A   1      45.188  24.529  36.880  1.00  0.00    -0.200 F 
ATOM     99  F   UNL A   1      47.638  25.713  37.064  1.00  0.00    -0.200 F 
ENDBRANCH  66  89
ENDBRANCH  40  41
ENDBRANCH  33  35
ENDBRANCH  32  33
ENDBRANCH  31  32
ENDBRANCH   1  31
TORSDOF 14
ENDMDL
MODEL 2
REMARK VINA RESULT:     -14.0      1.330      2.099
REMARK SMILES Cc1ccc2[nH]cc([C@@H](C(=O)OCCOC(=O)c3ccc(-c4c5nc(c(-c6c(F)c(F)c(F)c(F)c6F)c6ccc([nH]6)c(-c6c(F)c(F)c(F)c(F)c6F)c6nc(c(-c7c(F)c(F)c(F)c(F)c7F)c7ccc4[nH]7)C=C6)C=C5)cc3)[NH+]3CCN(c4ccc(F)cc4)CC3)c2c1
REMARK SMILES IDX 13 1 12 2 10 3 11 4 9 5 8 6 1 7 2 8 3 9 95 10 4 11 94 12
REMARK SMILES IDX 5 13 6 14 7 15 81 17 82 18 93 19 83 21 92 22 84 23 85 24
REMARK SMILES IDX 86 25 91 26 87 27 90 28 88 29 89 30 14 31 15 32 16 33 17 34
REMARK SMILES IDX 18 35 19 36 80 37 20 38 79 39 21 40 22 41 23 42 73 43 24 44
REMARK SMILES IDX 78 45 72 46 74 47 25 48 77 49 71 50 70 51 26 53 58 54 38 55
REMARK SMILES IDX 57 56 39 57 42 58 56 59 75 60 40 61 41 62 55 64 76 65 43 66
REMARK SMILES IDX 27 67 28 68 36 69 29 70 30 71 34 72 37 73 31 74 32 75 35 76
REMARK SMILES IDX 33 77 59 78 60 79 68 80 61 81 62 82 66 83 69 84 63 85 64 86
REMARK SMILES IDX 67 87 65 88 44 89 45 90 53 91 46 92 47 93 51 94 54 95 48 96
REMARK SMILES IDX 49 97 52 98 50 99
REMARK H PARENT 6 16 81 20 74 52 42 63
REMARK Flexibility Score: inf
ROOT
ATOM      1  C   UNL A   1      32.742  29.042  24.885  1.00  0.00     0.274 C 
ENDROOT
BRANCH   1   2
ATOM      2  O   UNL A   1      32.229  27.695  24.833  1.00  0.00    -0.457 OA
BRANCH   2   3
ATOM      3  C   UNL A   1      32.577  26.947  23.747  1.00  0.00     0.370 C 
ATOM      4  O   UNL A   1      33.658  27.060  23.170  1.00  0.00    -0.245 OA
BRANCH   3   5
ATOM      5  C   UNL A   1      31.454  25.994  23.267  1.00  0.00     0.328 C 
BRANCH   5   6
ATOM      6  C   UNL A   1      30.042  26.411  23.584  1.00  0.00     0.046 A 
ATOM      7  C   UNL A   1      29.528  30.989  21.358  1.00  0.00     0.044 C 
ATOM      8  C   UNL A   1      28.999  29.774  22.063  1.00  0.00    -0.050 A 
ATOM      9  C   UNL A   1      27.652  29.674  22.421  1.00  0.00     0.005 A 
ATOM     10  C   UNL A   1      29.884  28.738  22.395  1.00  0.00     0.014 A 
ATOM     11  C   UNL A   1      27.169  28.577  23.143  1.00  0.00     0.027 A 
ATOM     12  C   UNL A   1      29.423  27.621  23.124  1.00  0.00     0.009 A 
ATOM     13  C   UNL A   1      28.084  27.583  23.503  1.00  0.00     0.046 A 
ATOM     14  N   UNL A   1      27.907  26.442  24.248  1.00  0.00    -0.361 N 
ATOM     15  C   UNL A   1      29.089  25.759  24.349  1.00  0.00     0.094 A 
ATOM     16  H   UNL A   1      27.055  26.158  24.652  1.00  0.00     0.166 HD
ENDBRANCH   5   6
BRANCH   5  17
ATOM     17  N   UNL A   1      31.731  24.595  23.667  1.00  0.00    -0.316 N 
ATOM     18  C   UNL A   1      32.560  23.787  22.769  1.00  0.00     0.284 C 
ATOM     19  C   UNL A   1      32.071  24.370  25.080  1.00  0.00     0.284 C 
ATOM     20  H   UNL A   1      30.788  24.227  23.546  1.00  0.00     0.349 HD
ATOM     21  C   UNL A   1      34.057  23.624  23.095  1.00  0.00     0.178 C 
ATOM     22  C   UNL A   1      33.575  24.242  25.436  1.00  0.00     0.178 C 
ATOM     23  N   UNL A   1      34.249  23.316  24.511  1.00  0.00    -0.360 N 
BRANCH  23  24
ATOM     24  C   UNL A   1      35.505  22.854  24.888  1.00  0.00     0.037 A 
ATOM     25  C   UNL A   1      36.479  23.693  25.452  1.00  0.00     0.029 A 
ATOM     26  C   UNL A   1      35.835  21.511  24.661  1.00  0.00     0.029 A 
ATOM     27  C   UNL A   1      37.756  23.213  25.749  1.00  0.00     0.041 A 
ATOM     28  C   UNL A   1      37.114  21.028  24.949  1.00  0.00     0.041 A 
ATOM     29  C   UNL A   1      38.065  21.886  25.485  1.00  0.00     0.123 A 
ATOM     30  F   UNL A   1      39.296  21.431  25.749  1.00  0.00    -0.207 F 
ENDBRANCH  23  24
ENDBRANCH   5  17
ENDBRANCH   3   5
ENDBRANCH   2   3
ENDBRANCH   1   2
BRANCH   1  31
ATOM     31  C   UNL A   1      31.784  29.948  25.655  1.00  0.00     0.275 C 
BRANCH  31  32
ATOM     32  O   UNL A   1      32.300  30.166  26.980  1.00  0.00    -0.458 OA
BRANCH  32  33
ATOM     33  C   UNL A   1      32.976  31.316  27.183  1.00  0.00     0.338 C 
ATOM     34  O   UNL A   1      32.550  32.455  27.019  1.00  0.00    -0.246 OA
BRANCH  33  35
ATOM     35  C   UNL A   1      34.337  31.036  27.694  1.00  0.00     0.060 A 
ATOM     36  C   UNL A   1      34.740  29.735  28.001  1.00  0.00     0.016 A 
ATOM     37  C   UNL A   1      35.186  32.102  27.999  1.00  0.00     0.016 A 
ATOM     38  C   UNL A   1      35.922  29.514  28.709  1.00  0.00     0.010 A 
ATOM     39  C   UNL A   1      36.424  31.864  28.608  1.00  0.00     0.010 A 
ATOM     40  C   UNL A   1      36.798  30.568  29.002  1.00  0.00    -0.014 A 
BRANCH  40  41
ATOM     41  C   UNL A   1      38.087  30.337  29.720  1.00  0.00     0.031 A 
ATOM     42  C   UNL A   1      39.160  29.477  29.104  1.00  0.00     0.074 A 
ATOM     43  C   UNL A   1      38.306  30.868  30.940  1.00  0.00     0.049 A 
ATOM     44  N   UNL A   1      40.175  28.878  29.677  1.00  0.00    -0.248 NA
ATOM     45  C   UNL A   1      39.070  29.246  27.654  1.00  0.00     0.031 C 
ATOM     46  C   UNL A   1      37.409  31.782  31.649  1.00  0.00     0.029 A 
ATOM     47  N   UNL A   1      39.360  30.706  31.809  1.00  0.00    -0.354 N 
ATOM     48  C   UNL A   1      40.793  28.138  28.677  1.00  0.00     0.074 A 
ATOM     49  C   UNL A   1      40.057  28.381  27.455  1.00  0.00     0.031 C 
ATOM     50  C   UNL A   1      37.962  32.127  32.819  1.00  0.00     0.029 A 
ATOM     51  C   UNL A   1      39.191  31.367  33.001  1.00  0.00     0.049 A 
ATOM     52  H   UNL A   1      40.157  30.168  31.597  1.00  0.00     0.167 HD
ATOM     53  C   UNL A   1      41.869  27.320  28.782  1.00  0.00     0.037 A 
ATOM     54  C   UNL A   1      39.897  31.316  34.147  1.00  0.00     0.037 A 
ATOM     55  C   UNL A   1      42.648  27.147  29.982  1.00  0.00     0.049 A 
ATOM     56  C   UNL A   1      41.069  30.387  34.251  1.00  0.00     0.074 A 
ATOM     57  C   UNL A   1      43.757  26.343  30.186  1.00  0.00     0.029 A 
ATOM     58  N   UNL A   1      42.420  27.819  31.172  1.00  0.00    -0.354 N 
ATOM     59  N   UNL A   1      41.566  29.581  33.346  1.00  0.00    -0.248 NA
ATOM     60  C   UNL A   1      41.755  30.331  35.550  1.00  0.00     0.031 C 
ATOM     61  C   UNL A   1      44.187  26.513  31.507  1.00  0.00     0.029 A 
ATOM     62  C   UNL A   1      43.367  27.449  32.114  1.00  0.00     0.049 A 
ATOM     63  H   UNL A   1      41.693  28.466  31.326  1.00  0.00     0.167 HD
ATOM     64  C   UNL A   1      42.619  28.923  33.962  1.00  0.00     0.074 A 
ATOM     65  C   UNL A   1      42.706  29.437  35.313  1.00  0.00     0.031 C 
ATOM     66  C   UNL A   1      43.437  27.969  33.455  1.00  0.00     0.037 A 
BRANCH  53  67
ATOM     67  C   UNL A   1      42.255  26.507  27.580  1.00  0.00     0.064 A 
ATOM     68  C   UNL A   1      43.258  26.919  26.692  1.00  0.00     0.173 A 
ATOM     69  C   UNL A   1      41.653  25.258  27.359  1.00  0.00     0.173 A 
ATOM     70  F   UNL A   1      43.856  28.108  26.855  1.00  0.00    -0.203 F 
ATOM     71  C   UNL A   1      43.635  26.114  25.619  1.00  0.00     0.198 A 
ATOM     72  C   UNL A   1      42.050  24.446  26.301  1.00  0.00     0.198 A 
ATOM     73  F   UNL A   1      40.694  24.814  28.186  1.00  0.00    -0.203 F 
ATOM     74  F   UNL A   1      44.579  26.536  24.766  1.00  0.00    -0.200 F 
ATOM     75  C   UNL A   1      43.037  24.876  25.429  1.00  0.00     0.200 A 
ATOM     76  F   UNL A   1      41.481  23.245  26.128  1.00  0.00    -0.200 F 
ATOM     77  F   UNL A   1      43.415  24.097  24.405  1.00  0.00    -0.200 F 
ENDBRANCH  53  67
BRANCH  54  78
ATOM     78  C   UNL A   1      39.455  32.126  35.311  1.00  0.00     0.064 A 
ATOM     79  C   UNL A   1      39.872  33.454  35.463  1.00  0.00     0.173 A 
ATOM     80  C   UNL A   1      38.578  31.599  36.272  1.00  0.00     0.173 A 
ATOM     81  F   UNL A   1      40.732  33.990  34.585  1.00  0.00    -0.203 F 
ATOM     82  C   UNL A   1      39.424  34.227  36.531  1.00  0.00     0.198 A 
ATOM     83  C   UNL A   1      38.108  32.383  37.322  1.00  0.00     0.198 A 
ATOM     84  F   UNL A   1      38.153  30.331  36.170  1.00  0.00    -0.203 F 
ATOM     85  F   UNL A   1      39.858  35.487  36.671  1.00  0.00    -0.200 F 
ATOM     86  C   UNL A   1      38.534  33.695  37.453  1.00  0.00     0.200 A 
ATOM     87  F   UNL A   1      37.236  31.869  38.200  1.00  0.00    -0.200 F 
ATOM     88  F   UNL A   1      38.089  34.447  38.469  1.00  0.00    -0.200 F 
ENDBRANCH  54  78
BRANCH  66  89
ATOM     89  C   UNL A   1      44.507  27.440  34.359  1.00  0.00     0.064 A 
ATOM     90  C   UNL A   1      44.291  26.311  35.162  1.00  0.00     0.173 A 
ATOM     91  C   UNL A   1      45.764  28.058  34.410  1.00  0.00     0.173 A 
ATOM     92  F   UNL A   1      43.097  25.699  35.158  1.00  0.00    -0.203 F 
ATOM     93  C   UNL A   1      45.293  25.829  35.998  1.00  0.00     0.198 A 
ATOM     94  C   UNL A   1      46.770  27.562  35.233  1.00  0.00     0.198 A 
ATOM     95  F   UNL A   1      46.016  29.141  33.658  1.00  0.00    -0.203 F 
ATOM     96  F   UNL A   1      45.054  24.772  36.786  1.00  0.00    -0.200 F 
ATOM     97  C   UNL A   1      46.532  26.452  36.030  1.00  0.00     0.200 A 
ATOM     98  F   UNL A   1      47.968  28.161  35.260  1.00  0.00    -0.200 F 
ATOM     99  F   UNL A   1      47.496  25.988  36.838  1.00  0.00    -0.200 F 
ENDBRANCH  66  89
ENDBRANCH  40  41
ENDBRANCH  33  35
ENDBRANCH  32  33
ENDBRANCH  31  32
ENDBRANCH   1  31
TORSDOF 14
ENDMDL
MODEL 3
REMARK VINA RESULT:     -14.0      2.083      4.814
REMARK SMILES Cc1ccc2[nH]cc([C@@H](C(=O)OCCOC(=O)c3ccc(-c4c5nc(c(-c6c(F)c(F)c(F)c(F)c6F)c6ccc([nH]6)c(-c6c(F)c(F)c(F)c(F)c6F)c6nc(c(-c7c(F)c(F)c(F)c(F)c7F)c7ccc4[nH]7)C=C6)C=C5)cc3)[NH+]3CCN(c4ccc(F)cc4)CC3)c2c1
REMARK SMILES IDX 13 1 12 2 10 3 11 4 9 5 8 6 1 7 2 8 3 9 95 10 4 11 94 12
REMARK SMILES IDX 5 13 6 14 7 15 81 17 82 18 93 19 83 21 92 22 84 23 85 24
REMARK SMILES IDX 86 25 91 26 87 27 90 28 88 29 89 30 14 31 15 32 16 33 17 34
REMARK SMILES IDX 18 35 19 36 80 37 20 38 79 39 21 40 22 41 23 42 73 43 24 44
REMARK SMILES IDX 78 45 72 46 74 47 25 48 77 49 71 50 70 51 26 53 58 54 38 55
REMARK SMILES IDX 57 56 39 57 42 58 56 59 75 60 40 61 41 62 55 64 76 65 43 66
REMARK SMILES IDX 27 67 28 68 36 69 29 70 30 71 34 72 37 73 31 74 32 75 35 76
REMARK SMILES IDX 33 77 59 78 60 79 68 80 61 81 62 82 66 83 69 84 63 85 64 86
REMARK SMILES IDX 67 87 65 88 44 89 45 90 53 91 46 92 47 93 51 94 54 95 48 96
REMARK SMILES IDX 49 97 52 98 50 99
REMARK H PARENT 6 16 81 20 74 52 42 63
REMARK Flexibility Score: inf
ROOT
ATOM      1  C   UNL A   1      33.622  28.517  24.610  1.00  0.00     0.274 C 
ENDROOT
BRANCH   1   2
ATOM      2  O   UNL A   1      33.358  27.207  25.153  1.00  0.00    -0.457 OA
BRANCH   2   3
ATOM      3  C   UNL A   1      33.605  26.142  24.337  1.00  0.00     0.370 C 
ATOM      4  O   UNL A   1      34.397  26.184  23.397  1.00  0.00    -0.245 OA
BRANCH   3   5
ATOM      5  C   UNL A   1      32.739  24.900  24.663  1.00  0.00     0.328 C 
BRANCH   5   6
ATOM      6  C   UNL A   1      33.388  23.557  24.451  1.00  0.00     0.046 A 
ATOM      7  C   UNL A   1      38.080  24.078  26.425  1.00  0.00     0.044 C 
ATOM      8  C   UNL A   1      36.949  23.277  25.849  1.00  0.00    -0.050 A 
ATOM      9  C   UNL A   1      37.077  21.904  25.623  1.00  0.00     0.005 A 
ATOM     10  C   UNL A   1      35.757  23.929  25.502  1.00  0.00     0.014 A 
ATOM     11  C   UNL A   1      36.053  21.166  25.018  1.00  0.00     0.027 A 
ATOM     12  C   UNL A   1      34.709  23.209  24.890  1.00  0.00     0.009 A 
ATOM     13  C   UNL A   1      34.896  21.852  24.638  1.00  0.00     0.046 A 
ATOM     14  N   UNL A   1      33.773  21.405  23.985  1.00  0.00    -0.361 N 
ATOM     15  C   UNL A   1      32.884  22.433  23.819  1.00  0.00     0.094 A 
ATOM     16  H   UNL A   1      33.628  20.480  23.680  1.00  0.00     0.166 HD
ENDBRANCH   5   6
BRANCH   5  17
ATOM     17  N   UNL A   1      31.410  24.990  24.016  1.00  0.00    -0.316 N 
ATOM     18  C   UNL A   1      30.318  25.581  24.794  1.00  0.00     0.284 C 
ATOM     19  C   UNL A   1      31.388  25.435  22.614  1.00  0.00     0.284 C 
ATOM     20  H   UNL A   1      31.198  23.993  23.994  1.00  0.00     0.349 HD
ATOM     21  C   UNL A   1      29.954  27.058  24.552  1.00  0.00     0.178 C 
ATOM     22  C   UNL A   1      31.063  26.929  22.351  1.00  0.00     0.178 C 
ATOM     23  N   UNL A   1      29.880  27.346  23.121  1.00  0.00    -0.360 N 
BRANCH  23  24
ATOM     24  C   UNL A   1      29.280  28.544  22.752  1.00  0.00     0.037 A 
ATOM     25  C   UNL A   1      29.950  29.524  22.004  1.00  0.00     0.029 A 
ATOM     26  C   UNL A   1      27.970  28.810  23.176  1.00  0.00     0.029 A 
ATOM     27  C   UNL A   1      29.343  30.748  21.716  1.00  0.00     0.041 A 
ATOM     28  C   UNL A   1      27.361  30.037  22.897  1.00  0.00     0.041 A 
ATOM     29  C   UNL A   1      28.057  30.996  22.174  1.00  0.00     0.123 A 
ATOM     30  F   UNL A   1      27.483  32.178  21.917  1.00  0.00    -0.207 F 
ENDBRANCH  23  24
ENDBRANCH   5  17
ENDBRANCH   3   5
ENDBRANCH   2   3
ENDBRANCH   1   2
BRANCH   1  31
ATOM     31  C   UNL A   1      32.497  29.482  24.978  1.00  0.00     0.275 C 
BRANCH  31  32
ATOM     32  O   UNL A   1      32.475  29.661  26.406  1.00  0.00    -0.458 OA
BRANCH  32  33
ATOM     33  C   UNL A   1      32.986  30.817  26.877  1.00  0.00     0.338 C 
ATOM     34  O   UNL A   1      32.422  31.907  26.911  1.00  0.00    -0.246 OA
BRANCH  33  35
ATOM     35  C   UNL A   1      34.348  30.603  27.417  1.00  0.00     0.060 A 
ATOM     36  C   UNL A   1      34.782  29.333  27.799  1.00  0.00     0.016 A 
ATOM     37  C   UNL A   1      35.164  31.708  27.670  1.00  0.00     0.016 A 
ATOM     38  C   UNL A   1      35.961  29.184  28.529  1.00  0.00     0.010 A 
ATOM     39  C   UNL A   1      36.402  31.537  28.303  1.00  0.00     0.010 A 
ATOM     40  C   UNL A   1      36.805  30.276  28.772  1.00  0.00    -0.014 A 
BRANCH  40  41
ATOM     41  C   UNL A   1      38.092  30.120  29.515  1.00  0.00     0.031 A 
ATOM     42  C   UNL A   1      39.197  29.261  28.955  1.00  0.00     0.074 A 
ATOM     43  C   UNL A   1      38.281  30.720  30.708  1.00  0.00     0.049 A 
ATOM     44  N   UNL A   1      40.222  28.723  29.569  1.00  0.00    -0.248 NA
ATOM     45  C   UNL A   1      39.130  28.953  27.518  1.00  0.00     0.031 C 
ATOM     46  C   UNL A   1      37.350  31.642  31.358  1.00  0.00     0.029 A 
ATOM     47  N   UNL A   1      39.329  30.634  31.594  1.00  0.00    -0.354 N 
ATOM     48  C   UNL A   1      40.872  27.950  28.616  1.00  0.00     0.074 A 
ATOM     49  C   UNL A   1      40.144  28.108  27.375  1.00  0.00     0.031 C 
ATOM     50  C   UNL A   1      37.879  32.065  32.515  1.00  0.00     0.029 A 
ATOM     51  C   UNL A   1      39.127  31.351  32.749  1.00  0.00     0.049 A 
ATOM     52  H   UNL A   1      40.144  30.110  31.419  1.00  0.00     0.167 HD
ATOM     53  C   UNL A   1      41.970  27.170  28.774  1.00  0.00     0.037 A 
ATOM     54  C   UNL A   1      39.820  31.381  33.902  1.00  0.00     0.037 A 
ATOM     55  C   UNL A   1      42.739  27.083  29.989  1.00  0.00     0.049 A 
ATOM     56  C   UNL A   1      41.017  30.492  34.067  1.00  0.00     0.074 A 
ATOM     57  C   UNL A   1      43.868  26.323  30.247  1.00  0.00     0.029 A 
ATOM     58  N   UNL A   1      42.478  27.809  31.140  1.00  0.00    -0.354 N 
ATOM     59  N   UNL A   1      41.548  29.656  33.211  1.00  0.00    -0.248 NA
ATOM     60  C   UNL A   1      41.689  30.524  35.374  1.00  0.00     0.031 C 
ATOM     61  C   UNL A   1      44.278  26.574  31.562  1.00  0.00     0.029 A 
ATOM     62  C   UNL A   1      43.424  27.516  32.110  1.00  0.00     0.049 A 
ATOM     63  H   UNL A   1      41.731  28.441  31.253  1.00  0.00     0.167 HD
ATOM     64  C   UNL A   1      42.613  29.061  33.871  1.00  0.00     0.074 A 
ATOM     65  C   UNL A   1      42.668  29.648  35.194  1.00  0.00     0.031 C 
ATOM     66  C   UNL A   1      43.463  28.107  33.422  1.00  0.00     0.037 A 
BRANCH  53  67
ATOM     67  C   UNL A   1      42.393  26.309  27.620  1.00  0.00     0.064 A 
ATOM     68  C   UNL A   1      43.414  26.690  26.739  1.00  0.00     0.173 A 
ATOM     69  C   UNL A   1      41.807  25.044  27.441  1.00  0.00     0.173 A 
ATOM     70  F   UNL A   1      43.998  27.890  26.863  1.00  0.00    -0.203 F 
ATOM     71  C   UNL A   1      43.826  25.841  25.714  1.00  0.00     0.198 A 
ATOM     72  C   UNL A   1      42.238  24.190  26.431  1.00  0.00     0.198 A 
ATOM     73  F   UNL A   1      40.832  24.629  28.263  1.00  0.00    -0.203 F 
ATOM     74  F   UNL A   1      44.787  26.234  24.866  1.00  0.00    -0.200 F 
ATOM     75  C   UNL A   1      43.244  24.590  25.566  1.00  0.00     0.200 A 
ATOM     76  F   UNL A   1      41.684  22.977  26.299  1.00  0.00    -0.200 F 
ATOM     77  F   UNL A   1      43.654  23.769  24.588  1.00  0.00    -0.200 F 
ENDBRANCH  53  67
BRANCH  54  78
ATOM     78  C   UNL A   1      39.342  32.236  35.018  1.00  0.00     0.064 A 
ATOM     79  C   UNL A   1      38.550  31.703  36.044  1.00  0.00     0.173 A 
ATOM     80  C   UNL A   1      39.697  33.591  35.098  1.00  0.00     0.173 A 
ATOM     81  F   UNL A   1      38.163  30.421  35.993  1.00  0.00    -0.203 F 
ATOM     82  C   UNL A   1      38.137  32.495  37.112  1.00  0.00     0.198 A 
ATOM     83  C   UNL A   1      39.307  34.373  36.183  1.00  0.00     0.198 A 
ATOM     84  F   UNL A   1      40.451  34.147  34.138  1.00  0.00    -0.203 F 
ATOM     85  F   UNL A   1      37.358  31.970  38.068  1.00  0.00    -0.200 F 
ATOM     86  C   UNL A   1      38.525  33.825  37.188  1.00  0.00     0.200 A 
ATOM     87  F   UNL A   1      39.699  35.652  36.259  1.00  0.00    -0.200 F 
ATOM     88  F   UNL A   1      38.142  34.579  38.227  1.00  0.00    -0.200 F 
ENDBRANCH  54  78
BRANCH  66  89
ATOM     89  C   UNL A   1      44.537  27.657  34.364  1.00  0.00     0.064 A 
ATOM     90  C   UNL A   1      45.767  28.325  34.438  1.00  0.00     0.173 A 
ATOM     91  C   UNL A   1      44.326  26.561  35.212  1.00  0.00     0.173 A 
ATOM     92  F   UNL A   1      46.020  29.368  33.633  1.00  0.00    -0.203 F 
ATOM     93  C   UNL A   1      46.758  27.898  35.318  1.00  0.00     0.198 A 
ATOM     94  C   UNL A   1      45.311  26.148  36.104  1.00  0.00     0.198 A 
ATOM     95  F   UNL A   1      43.163  25.893  35.176  1.00  0.00    -0.203 F 
ATOM     96  F   UNL A   1      47.942  28.525  35.347  1.00  0.00    -0.200 F 
ATOM     97  C   UNL A   1      46.527  26.813  36.152  1.00  0.00     0.200 A 
ATOM     98  F   UNL A   1      45.086  25.104  36.913  1.00  0.00    -0.200 F 
ATOM     99  F   UNL A   1      47.483  26.402  36.997  1.00  0.00    -0.200 F 
ENDBRANCH  66  89
ENDBRANCH  40  41
ENDBRANCH  33  35
ENDBRANCH  32  33
ENDBRANCH  31  32
ENDBRANCH   1  31
TORSDOF 14
ENDMDL
