MODEL 1
REMARK VINA RESULT:     -13.0      0.000      0.000
REMARK SMILES CCC(=O)N1CCc2cc(C(=O)NC3(C(=O)OCCOC(=O)c4ccc(-c5c6nc(c(-c7c(F)c(F)c(F)c(F)c7F)c7ccc([nH]7)c(-c7c(F)c(F)c(F)c(F)c7F)c7nc(c(-c8c(F)c(F)c(F)c(F)c8F)c8ccc5[nH]8)C=C7)C=C6)cc4)CCCC3)ccc21
REMARK SMILES IDX 18 1 17 2 15 3 16 4 14 5 86 6 89 7 87 8 88 9 13 10 11 11
REMARK SMILES IDX 12 12 10 14 5 15 6 16 92 17 7 18 8 19 91 20 9 21 90 22 3 23
REMARK SMILES IDX 4 24 2 25 1 26 19 27 20 28 21 29 22 30 23 31 24 32 85 33
REMARK SMILES IDX 25 34 84 35 26 36 27 37 28 38 78 39 29 40 83 41 77 42 79 43
REMARK SMILES IDX 30 44 82 45 76 46 75 47 31 49 63 50 43 51 62 52 44 53 47 54
REMARK SMILES IDX 61 55 80 56 45 57 46 58 60 60 81 61 48 62 32 63 33 64 41 65
REMARK SMILES IDX 34 66 35 67 39 68 42 69 36 70 37 71 40 72 38 73 64 74 65 75
REMARK SMILES IDX 73 76 66 77 67 78 71 79 74 80 68 81 69 82 72 83 70 84 49 85
REMARK SMILES IDX 50 86 58 87 51 88 52 89 56 90 59 91 53 92 54 93 57 94 55 95
REMARK H PARENT 13 13 79 48 47 59
REMARK Flexibility Score: inf
ROOT
ATOM      1  C   UNL A   1      31.096  30.247  25.057  1.00  0.00     0.274 C 
ENDROOT
BRANCH   1   2
ATOM      2  O   UNL A   1      32.110  29.392  24.490  1.00  0.00    -0.460 OA
BRANCH   2   3
ATOM      3  C   UNL A   1      31.714  28.542  23.504  1.00  0.00     0.331 C 
ATOM      4  O   UNL A   1      31.059  28.891  22.526  1.00  0.00    -0.249 OA
BRANCH   3   5
ATOM      5  C   UNL A   1      32.072  27.048  23.797  1.00  0.00     0.138 C 
ATOM      6  C   UNL A   1      30.800  26.496  24.458  1.00  0.00     0.040 C 
ATOM      7  C   UNL A   1      33.202  26.888  24.830  1.00  0.00     0.040 C 
ATOM      8  C   UNL A   1      31.045  26.695  25.949  1.00  0.00     0.003 C 
ATOM      9  C   UNL A   1      32.537  26.476  26.139  1.00  0.00     0.003 C 
BRANCH   5  10
ATOM     10  N   UNL A   1      32.502  26.442  22.507  1.00  0.00    -0.336 N 
ATOM     11  C   UNL A   1      32.942  25.239  22.029  1.00  0.00     0.252 C 
ATOM     12  O   UNL A   1      33.264  25.169  20.844  1.00  0.00    -0.269 OA
ATOM     13  H   UNL A   1      32.456  27.106  21.781  1.00  0.00     0.165 HD
BRANCH  11  14
ATOM     14  C   UNL A   1      32.958  24.010  22.838  1.00  0.00     0.040 A 
ATOM     15  N   UNL A   1      33.482  20.233  24.393  1.00  0.00    -0.312 N 
ATOM     16  C   UNL A   1      34.810  20.305  25.007  1.00  0.00     0.130 C 
ATOM     17  C   UNL A   1      33.121  21.511  23.971  1.00  0.00     0.047 A 
ATOM     18  C   UNL A   1      35.436  21.626  24.525  1.00  0.00     0.059 C 
ATOM     19  C   UNL A   1      34.251  22.323  23.929  1.00  0.00    -0.022 A 
ATOM     20  C   UNL A   1      31.870  22.006  23.660  1.00  0.00     0.027 A 
ATOM     21  C   UNL A   1      34.196  23.569  23.330  1.00  0.00     0.019 A 
ATOM     22  C   UNL A   1      31.787  23.290  23.116  1.00  0.00     0.016 A 
BRANCH  15  23
ATOM     23  C   UNL A   1      32.806  19.044  24.283  1.00  0.00     0.226 C 
ATOM     24  O   UNL A   1      32.152  18.596  25.229  1.00  0.00    -0.275 OA
BRANCH  23  25
ATOM     25  C   UNL A   1      33.216  18.095  23.152  1.00  0.00     0.097 C 
ATOM     26  C   UNL A   1      33.999  16.834  23.442  1.00  0.00     0.014 C 
ENDBRANCH  23  25
ENDBRANCH  15  23
ENDBRANCH  11  14
ENDBRANCH   5  10
ENDBRANCH   3   5
ENDBRANCH   2   3
ENDBRANCH   1   2
BRANCH   1  27
ATOM     27  C   UNL A   1      31.488  30.735  26.451  1.00  0.00     0.275 C 
BRANCH  27  28
ATOM     28  O   UNL A   1      32.913  30.661  26.635  1.00  0.00    -0.458 OA
BRANCH  28  29
ATOM     29  C   UNL A   1      33.472  31.732  27.240  1.00  0.00     0.338 C 
ATOM     30  O   UNL A   1      32.972  32.826  27.431  1.00  0.00    -0.246 OA
BRANCH  29  31
ATOM     31  C   UNL A   1      34.794  31.369  27.767  1.00  0.00     0.060 A 
ATOM     32  C   UNL A   1      34.997  30.051  28.165  1.00  0.00     0.016 A 
ATOM     33  C   UNL A   1      35.761  32.336  28.024  1.00  0.00     0.016 A 
ATOM     34  C   UNL A   1      36.106  29.705  28.921  1.00  0.00     0.010 A 
ATOM     35  C   UNL A   1      36.935  31.965  28.691  1.00  0.00     0.010 A 
ATOM     36  C   UNL A   1      37.102  30.654  29.176  1.00  0.00    -0.014 A 
BRANCH  36  37
ATOM     37  C   UNL A   1      38.290  30.273  29.984  1.00  0.00     0.031 A 
ATOM     38  C   UNL A   1      39.362  29.411  29.380  1.00  0.00     0.074 A 
ATOM     39  C   UNL A   1      38.431  30.728  31.244  1.00  0.00     0.049 A 
ATOM     40  N   UNL A   1      40.362  28.802  29.965  1.00  0.00    -0.248 NA
ATOM     41  C   UNL A   1      39.292  29.192  27.927  1.00  0.00     0.031 C 
ATOM     42  C   UNL A   1      37.505  31.631  31.929  1.00  0.00     0.029 A 
ATOM     43  N   UNL A   1      39.419  30.504  32.170  1.00  0.00    -0.354 N 
ATOM     44  C   UNL A   1      40.996  28.075  28.966  1.00  0.00     0.074 A 
ATOM     45  C   UNL A   1      40.280  28.330  27.734  1.00  0.00     0.031 C 
ATOM     46  C   UNL A   1      37.989  31.920  33.147  1.00  0.00     0.029 A 
ATOM     47  C   UNL A   1      39.211  31.152  33.363  1.00  0.00     0.049 A 
ATOM     48  H   UNL A   1      40.202  29.933  31.996  1.00  0.00     0.167 HD
ATOM     49  C   UNL A   1      42.073  27.262  29.077  1.00  0.00     0.037 A 
ATOM     50  C   UNL A   1      39.902  31.102  34.516  1.00  0.00     0.037 A 
ATOM     51  C   UNL A   1      42.822  27.070  30.291  1.00  0.00     0.049 A 
ATOM     52  C   UNL A   1      41.094  30.195  34.614  1.00  0.00     0.074 A 
ATOM     53  C   UNL A   1      43.919  26.257  30.513  1.00  0.00     0.029 A 
ATOM     54  N   UNL A   1      42.564  27.730  31.483  1.00  0.00    -0.354 N 
ATOM     55  N   UNL A   1      41.620  29.422  33.697  1.00  0.00    -0.248 NA
ATOM     56  C   UNL A   1      41.769  30.129  35.917  1.00  0.00     0.031 C 
ATOM     57  C   UNL A   1      44.316  26.413  31.846  1.00  0.00     0.029 A 
ATOM     58  C   UNL A   1      43.483  27.343  32.446  1.00  0.00     0.049 A 
ATOM     59  H   UNL A   1      41.836  28.377  31.626  1.00  0.00     0.167 HD
ATOM     60  C   UNL A   1      42.682  28.774  34.309  1.00  0.00     0.074 A 
ATOM     61  C   UNL A   1      42.743  29.265  35.671  1.00  0.00     0.031 C 
ATOM     62  C   UNL A   1      43.522  27.844  33.794  1.00  0.00     0.037 A 
BRANCH  49  63
ATOM     63  C   UNL A   1      42.476  26.480  27.863  1.00  0.00     0.064 A 
ATOM     64  C   UNL A   1      43.454  26.942  26.972  1.00  0.00     0.173 A 
ATOM     65  C   UNL A   1      41.886  25.233  27.606  1.00  0.00     0.173 A 
ATOM     66  F   UNL A   1      44.032  28.137  27.165  1.00  0.00    -0.203 F 
ATOM     67  C   UNL A   1      43.815  26.190  25.857  1.00  0.00     0.198 A 
ATOM     68  C   UNL A   1      42.266  24.474  26.504  1.00  0.00     0.198 A 
ATOM     69  F   UNL A   1      40.946  24.747  28.432  1.00  0.00    -0.203 F 
ATOM     70  F   UNL A   1      44.725  26.667  24.996  1.00  0.00    -0.200 F 
ATOM     71  C   UNL A   1      43.226  24.956  25.626  1.00  0.00     0.200 A 
ATOM     72  F   UNL A   1      41.700  23.278  26.287  1.00  0.00    -0.200 F 
ATOM     73  F   UNL A   1      43.577  24.232  24.555  1.00  0.00    -0.200 F 
ENDBRANCH  49  63
BRANCH  50  74
ATOM     74  C   UNL A   1      39.448  31.904  35.681  1.00  0.00     0.064 A 
ATOM     75  C   UNL A   1      39.966  33.182  35.920  1.00  0.00     0.173 A 
ATOM     76  C   UNL A   1      38.472  31.417  36.563  1.00  0.00     0.173 A 
ATOM     77  F   UNL A   1      40.921  33.679  35.120  1.00  0.00    -0.203 F 
ATOM     78  C   UNL A   1      39.525  33.945  37.000  1.00  0.00     0.198 A 
ATOM     79  C   UNL A   1      38.012  32.189  37.626  1.00  0.00     0.198 A 
ATOM     80  F   UNL A   1      37.947  30.197  36.376  1.00  0.00    -0.203 F 
ATOM     81  F   UNL A   1      40.057  35.154  37.226  1.00  0.00    -0.200 F 
ATOM     82  C   UNL A   1      38.542  33.452  37.846  1.00  0.00     0.200 A 
ATOM     83  F   UNL A   1      37.054  31.714  38.433  1.00  0.00    -0.200 F 
ATOM     84  F   UNL A   1      38.110  34.190  38.877  1.00  0.00    -0.200 F 
ENDBRANCH  50  74
BRANCH  62  85
ATOM     85  C   UNL A   1      44.580  27.309  34.706  1.00  0.00     0.064 A 
ATOM     86  C   UNL A   1      45.827  27.940  34.819  1.00  0.00     0.173 A 
ATOM     87  C   UNL A   1      44.336  26.177  35.495  1.00  0.00     0.173 A 
ATOM     88  F   UNL A   1      46.109  29.017  34.069  1.00  0.00    -0.203 F 
ATOM     89  C   UNL A   1      46.801  27.443  35.679  1.00  0.00     0.198 A 
ATOM     90  C   UNL A   1      45.306  25.694  36.369  1.00  0.00     0.198 A 
ATOM     91  F   UNL A   1      43.156  25.543  35.420  1.00  0.00    -0.203 F 
ATOM     92  F   UNL A   1      48.000  28.039  35.747  1.00  0.00    -0.200 F 
ATOM     93  C   UNL A   1      46.539  26.324  36.456  1.00  0.00     0.200 A 
ATOM     94  F   UNL A   1      45.051  24.615  37.121  1.00  0.00    -0.200 F 
ATOM     95  F   UNL A   1      47.478  25.848  37.284  1.00  0.00    -0.200 F 
ENDBRANCH  62  85
ENDBRANCH  36  37
ENDBRANCH  29  31
ENDBRANCH  28  29
ENDBRANCH  27  28
ENDBRANCH   1  27
TORSDOF 15
ENDMDL
MODEL 2
REMARK VINA RESULT:     -13.0      0.231      1.583
REMARK SMILES CCC(=O)N1CCc2cc(C(=O)NC3(C(=O)OCCOC(=O)c4ccc(-c5c6nc(c(-c7c(F)c(F)c(F)c(F)c7F)c7ccc([nH]7)c(-c7c(F)c(F)c(F)c(F)c7F)c7nc(c(-c8c(F)c(F)c(F)c(F)c8F)c8ccc5[nH]8)C=C7)C=C6)cc4)CCCC3)ccc21
REMARK SMILES IDX 18 1 17 2 15 3 16 4 14 5 86 6 89 7 87 8 88 9 13 10 11 11
REMARK SMILES IDX 12 12 10 14 5 15 6 16 92 17 7 18 8 19 91 20 9 21 90 22 3 23
REMARK SMILES IDX 4 24 2 25 1 26 19 27 20 28 21 29 22 30 23 31 24 32 85 33
REMARK SMILES IDX 25 34 84 35 26 36 27 37 28 38 78 39 29 40 83 41 77 42 79 43
REMARK SMILES IDX 30 44 82 45 76 46 75 47 31 49 63 50 43 51 62 52 44 53 47 54
REMARK SMILES IDX 61 55 80 56 45 57 46 58 60 60 81 61 48 62 32 63 33 64 41 65
REMARK SMILES IDX 34 66 35 67 39 68 42 69 36 70 37 71 40 72 38 73 64 74 65 75
REMARK SMILES IDX 73 76 66 77 67 78 71 79 74 80 68 81 69 82 72 83 70 84 49 85
REMARK SMILES IDX 50 86 58 87 51 88 52 89 56 90 59 91 53 92 54 93 57 94 55 95
REMARK H PARENT 13 13 79 48 47 59
REMARK Flexibility Score: inf
ROOT
ATOM      1  C   UNL A   1      31.161  30.104  24.964  1.00  0.00     0.274 C 
ENDROOT
BRANCH   1   2
ATOM      2  O   UNL A   1      31.938  29.309  24.044  1.00  0.00    -0.460 OA
BRANCH   2   3
ATOM      3  C   UNL A   1      31.294  28.281  23.427  1.00  0.00     0.331 C 
ATOM      4  O   UNL A   1      30.289  28.424  22.736  1.00  0.00    -0.249 OA
BRANCH   3   5
ATOM      5  C   UNL A   1      31.889  26.879  23.782  1.00  0.00     0.138 C 
ATOM      6  C   UNL A   1      30.729  26.165  24.491  1.00  0.00     0.040 C 
ATOM      7  C   UNL A   1      33.042  26.951  24.800  1.00  0.00     0.040 C 
ATOM      8  C   UNL A   1      30.955  26.473  25.967  1.00  0.00     0.003 C 
ATOM      9  C   UNL A   1      32.465  26.504  26.140  1.00  0.00     0.003 C 
BRANCH   5  10
ATOM     10  N   UNL A   1      32.397  26.288  22.514  1.00  0.00    -0.336 N 
ATOM     11  C   UNL A   1      32.897  25.100  22.059  1.00  0.00     0.252 C 
ATOM     12  O   UNL A   1      33.274  25.039  20.889  1.00  0.00    -0.269 OA
ATOM     13  H   UNL A   1      32.362  26.950  21.786  1.00  0.00     0.165 HD
BRANCH  11  14
ATOM     14  C   UNL A   1      32.916  23.872  22.869  1.00  0.00     0.040 A 
ATOM     15  N   UNL A   1      33.432  20.092  24.422  1.00  0.00    -0.312 N 
ATOM     16  C   UNL A   1      34.772  20.153  25.011  1.00  0.00     0.130 C 
ATOM     17  C   UNL A   1      33.076  21.373  24.004  1.00  0.00     0.047 A 
ATOM     18  C   UNL A   1      35.402  21.467  24.515  1.00  0.00     0.059 C 
ATOM     19  C   UNL A   1      34.212  22.174  23.940  1.00  0.00    -0.022 A 
ATOM     20  C   UNL A   1      31.824  21.880  23.715  1.00  0.00     0.027 A 
ATOM     21  C   UNL A   1      34.158  23.420  23.340  1.00  0.00     0.019 A 
ATOM     22  C   UNL A   1      31.744  23.163  23.169  1.00  0.00     0.016 A 
BRANCH  15  23
ATOM     23  C   UNL A   1      32.742  18.909  24.326  1.00  0.00     0.226 C 
ATOM     24  O   UNL A   1      32.149  18.441  25.301  1.00  0.00    -0.275 OA
BRANCH  23  25
ATOM     25  C   UNL A   1      33.074  17.988  23.147  1.00  0.00     0.097 C 
ATOM     26  C   UNL A   1      33.994  16.801  23.325  1.00  0.00     0.014 C 
ENDBRANCH  23  25
ENDBRANCH  15  23
ENDBRANCH  11  14
ENDBRANCH   5  10
ENDBRANCH   3   5
ENDBRANCH   2   3
ENDBRANCH   1   2
BRANCH   1  27
ATOM     27  C   UNL A   1      31.788  30.124  26.357  1.00  0.00     0.275 C 
BRANCH  27  28
ATOM     28  O   UNL A   1      33.163  30.544  26.291  1.00  0.00    -0.458 OA
BRANCH  28  29
ATOM     29  C   UNL A   1      33.526  31.473  27.202  1.00  0.00     0.338 C 
ATOM     30  O   UNL A   1      32.861  32.402  27.626  1.00  0.00    -0.246 OA
BRANCH  29  31
ATOM     31  C   UNL A   1      34.857  31.153  27.733  1.00  0.00     0.060 A 
ATOM     32  C   UNL A   1      35.109  29.838  28.110  1.00  0.00     0.016 A 
ATOM     33  C   UNL A   1      35.784  32.153  28.015  1.00  0.00     0.016 A 
ATOM     34  C   UNL A   1      36.226  29.523  28.869  1.00  0.00     0.010 A 
ATOM     35  C   UNL A   1      36.966  31.817  28.684  1.00  0.00     0.010 A 
ATOM     36  C   UNL A   1      37.182  30.505  29.148  1.00  0.00    -0.014 A 
BRANCH  36  37
ATOM     37  C   UNL A   1      38.377  30.157  29.959  1.00  0.00     0.031 A 
ATOM     38  C   UNL A   1      39.459  29.298  29.367  1.00  0.00     0.074 A 
ATOM     39  C   UNL A   1      38.517  30.639  31.209  1.00  0.00     0.049 A 
ATOM     40  N   UNL A   1      40.470  28.715  29.960  1.00  0.00    -0.248 NA
ATOM     41  C   UNL A   1      39.387  29.049  27.920  1.00  0.00     0.031 C 
ATOM     42  C   UNL A   1      37.581  31.543  31.879  1.00  0.00     0.029 A 
ATOM     43  N   UNL A   1      39.511  30.447  32.135  1.00  0.00    -0.354 N 
ATOM     44  C   UNL A   1      41.111  27.977  28.974  1.00  0.00     0.074 A 
ATOM     45  C   UNL A   1      40.386  28.197  27.740  1.00  0.00     0.031 C 
ATOM     46  C   UNL A   1      38.065  31.862  33.089  1.00  0.00     0.029 A 
ATOM     47  C   UNL A   1      39.299  31.117  33.315  1.00  0.00     0.049 A 
ATOM     48  H   UNL A   1      40.302  29.883  31.969  1.00  0.00     0.167 HD
ATOM     49  C   UNL A   1      42.198  27.181  29.097  1.00  0.00     0.037 A 
ATOM     50  C   UNL A   1      39.995  31.099  34.466  1.00  0.00     0.037 A 
ATOM     51  C   UNL A   1      42.955  27.024  30.311  1.00  0.00     0.049 A 
ATOM     52  C   UNL A   1      41.199  30.211  34.578  1.00  0.00     0.074 A 
ATOM     53  C   UNL A   1      44.064  26.231  30.545  1.00  0.00     0.029 A 
ATOM     54  N   UNL A   1      42.692  27.704  31.491  1.00  0.00    -0.354 N 
ATOM     55  N   UNL A   1      41.733  29.426  33.674  1.00  0.00    -0.248 NA
ATOM     56  C   UNL A   1      41.880  30.180  35.879  1.00  0.00     0.031 C 
ATOM     57  C   UNL A   1      44.464  26.419  31.873  1.00  0.00     0.029 A 
ATOM     58  C   UNL A   1      43.620  27.349  32.457  1.00  0.00     0.049 A 
ATOM     59  H   UNL A   1      41.956  28.344  31.624  1.00  0.00     0.167 HD
ATOM     60  C   UNL A   1      42.806  28.806  34.295  1.00  0.00     0.074 A 
ATOM     61  C   UNL A   1      42.866  29.325  35.646  1.00  0.00     0.031 C 
ATOM     62  C   UNL A   1      43.657  27.878  33.795  1.00  0.00     0.037 A 
BRANCH  49  63
ATOM     63  C   UNL A   1      42.608  26.381  27.897  1.00  0.00     0.064 A 
ATOM     64  C   UNL A   1      43.553  26.852  26.976  1.00  0.00     0.173 A 
ATOM     65  C   UNL A   1      42.059  25.107  27.685  1.00  0.00     0.173 A 
ATOM     66  F   UNL A   1      44.092  28.071  27.126  1.00  0.00    -0.203 F 
ATOM     67  C   UNL A   1      43.921  26.083  25.875  1.00  0.00     0.198 A 
ATOM     68  C   UNL A   1      42.446  24.332  26.596  1.00  0.00     0.198 A 
ATOM     69  F   UNL A   1      41.151  24.611  28.540  1.00  0.00    -0.203 F 
ATOM     70  F   UNL A   1      44.799  26.567  24.985  1.00  0.00    -0.200 F 
ATOM     71  C   UNL A   1      43.372  24.823  25.689  1.00  0.00     0.200 A 
ATOM     72  F   UNL A   1      41.919  23.112  26.422  1.00  0.00    -0.200 F 
ATOM     73  F   UNL A   1      43.731  24.083  24.631  1.00  0.00    -0.200 F 
ENDBRANCH  49  63
BRANCH  50  74
ATOM     74  C   UNL A   1      39.534  31.918  35.617  1.00  0.00     0.064 A 
ATOM     75  C   UNL A   1      38.586  31.420  36.519  1.00  0.00     0.173 A 
ATOM     76  C   UNL A   1      40.048  33.202  35.848  1.00  0.00     0.173 A 
ATOM     77  F   UNL A   1      38.046  30.208  36.324  1.00  0.00    -0.203 F 
ATOM     78  C   UNL A   1      38.168  32.178  37.612  1.00  0.00     0.198 A 
ATOM     79  C   UNL A   1      39.651  33.948  36.954  1.00  0.00     0.198 A 
ATOM     80  F   UNL A   1      40.957  33.723  35.010  1.00  0.00    -0.203 F 
ATOM     81  F   UNL A   1      37.239  31.692  38.446  1.00  0.00    -0.200 F 
ATOM     82  C   UNL A   1      38.708  33.437  37.834  1.00  0.00     0.200 A 
ATOM     83  F   UNL A   1      40.184  35.158  37.172  1.00  0.00    -0.200 F 
ATOM     84  F   UNL A   1      38.315  34.160  38.891  1.00  0.00    -0.200 F 
ENDBRANCH  50  74
BRANCH  62  85
ATOM     85  C   UNL A   1      44.726  27.376  34.714  1.00  0.00     0.064 A 
ATOM     86  C   UNL A   1      44.525  26.235  35.504  1.00  0.00     0.173 A 
ATOM     87  C   UNL A   1      45.968  28.021  34.784  1.00  0.00     0.173 A 
ATOM     88  F   UNL A   1      43.345  25.596  35.480  1.00  0.00    -0.203 F 
ATOM     89  C   UNL A   1      45.529  25.767  36.347  1.00  0.00     0.198 A 
ATOM     90  C   UNL A   1      46.976  27.539  35.614  1.00  0.00     0.198 A 
ATOM     91  F   UNL A   1      46.203  29.115  34.044  1.00  0.00    -0.203 F 
ATOM     92  F   UNL A   1      45.306  24.696  37.121  1.00  0.00    -0.200 F 
ATOM     93  C   UNL A   1      46.753  26.416  36.398  1.00  0.00     0.200 A 
ATOM     94  F   UNL A   1      48.159  28.164  35.661  1.00  0.00    -0.200 F 
ATOM     95  F   UNL A   1      47.718  25.964  37.210  1.00  0.00    -0.200 F 
ENDBRANCH  62  85
ENDBRANCH  36  37
ENDBRANCH  29  31
ENDBRANCH  28  29
ENDBRANCH  27  28
ENDBRANCH   1  27
TORSDOF 15
ENDMDL
MODEL 3
REMARK VINA RESULT:     -13.0      4.327     10.000
REMARK SMILES CCC(=O)N1CCc2cc(C(=O)NC3(C(=O)OCCOC(=O)c4ccc(-c5c6nc(c(-c7c(F)c(F)c(F)c(F)c7F)c7ccc([nH]7)c(-c7c(F)c(F)c(F)c(F)c7F)c7nc(c(-c8c(F)c(F)c(F)c(F)c8F)c8ccc5[nH]8)C=C7)C=C6)cc4)CCCC3)ccc21
REMARK SMILES IDX 18 1 17 2 15 3 16 4 14 5 86 6 89 7 87 8 88 9 13 10 11 11
REMARK SMILES IDX 12 12 10 14 5 15 6 16 92 17 7 18 8 19 91 20 9 21 90 22 3 23
REMARK SMILES IDX 4 24 2 25 1 26 19 27 20 28 21 29 22 30 23 31 24 32 85 33
REMARK SMILES IDX 25 34 84 35 26 36 27 37 28 38 78 39 29 40 83 41 77 42 79 43
REMARK SMILES IDX 30 44 82 45 76 46 75 47 31 49 63 50 43 51 62 52 44 53 47 54
REMARK SMILES IDX 61 55 80 56 45 57 46 58 60 60 81 61 48 62 32 63 33 64 41 65
REMARK SMILES IDX 34 66 35 67 39 68 42 69 36 70 37 71 40 72 38 73 64 74 65 75
REMARK SMILES IDX 73 76 66 77 67 78 71 79 74 80 68 81 69 82 72 83 70 84 49 85
REMARK SMILES IDX 50 86 58 87 51 88 52 89 56 90 59 91 53 92 54 93 57 94 55 95
REMARK H PARENT 13 13 79 48 47 59
REMARK Flexibility Score: inf
ROOT
ATOM      1  C   UNL A   1      35.870  20.306  25.020  1.00  0.00     0.274 C 
ENDROOT
BRANCH   1   2
ATOM      2  O   UNL A   1      35.106  21.121  25.932  1.00  0.00    -0.460 OA
BRANCH   2   3
ATOM      3  C   UNL A   1      33.787  21.293  25.643  1.00  0.00     0.331 C 
ATOM      4  O   UNL A   1      33.003  20.366  25.463  1.00  0.00    -0.249 OA
BRANCH   3   5
ATOM      5  C   UNL A   1      33.391  22.792  25.443  1.00  0.00     0.138 C 
ATOM      6  C   UNL A   1      33.333  22.948  23.916  1.00  0.00     0.040 C 
ATOM      7  C   UNL A   1      34.468  23.774  25.938  1.00  0.00     0.040 C 
ATOM      8  C   UNL A   1      34.733  23.420  23.541  1.00  0.00     0.003 C 
ATOM      9  C   UNL A   1      35.177  24.303  24.696  1.00  0.00     0.003 C 
BRANCH   5  10
ATOM     10  N   UNL A   1      32.137  23.017  26.211  1.00  0.00    -0.336 N 
ATOM     11  C   UNL A   1      31.157  23.964  26.331  1.00  0.00     0.252 C 
ATOM     12  O   UNL A   1      30.275  23.782  27.169  1.00  0.00    -0.269 OA
ATOM     13  H   UNL A   1      31.959  22.258  26.813  1.00  0.00     0.165 HD
BRANCH  11  14
ATOM     14  C   UNL A   1      31.057  25.134  25.445  1.00  0.00     0.040 A 
ATOM     15  N   UNL A   1      30.134  28.680  23.564  1.00  0.00    -0.312 N 
ATOM     16  C   UNL A   1      30.946  29.662  24.287  1.00  0.00     0.130 C 
ATOM     17  C   UNL A   1      30.486  27.407  24.007  1.00  0.00     0.047 A 
ATOM     18  C   UNL A   1      31.495  28.938  25.529  1.00  0.00     0.059 C 
ATOM     19  C   UNL A   1      31.186  27.508  25.206  1.00  0.00    -0.022 A 
ATOM     20  C   UNL A   1      30.263  26.182  23.408  1.00  0.00     0.027 A 
ATOM     21  C   UNL A   1      31.450  26.378  25.961  1.00  0.00     0.019 A 
ATOM     22  C   UNL A   1      30.585  25.029  24.128  1.00  0.00     0.016 A 
BRANCH  15  23
ATOM     23  C   UNL A   1      29.193  29.064  22.642  1.00  0.00     0.226 C 
ATOM     24  O   UNL A   1      29.527  29.452  21.519  1.00  0.00    -0.275 OA
BRANCH  23  25
ATOM     25  C   UNL A   1      27.792  29.409  23.158  1.00  0.00     0.097 C 
ATOM     26  C   UNL A   1      26.806  28.320  23.514  1.00  0.00     0.014 C 
ENDBRANCH  23  25
ENDBRANCH  15  23
ENDBRANCH  11  14
ENDBRANCH   5  10
ENDBRANCH   3   5
ENDBRANCH   2   3
ENDBRANCH   1   2
BRANCH   1  27
ATOM     27  C   UNL A   1      37.193  20.972  24.645  1.00  0.00     0.275 C 
BRANCH  27  28
ATOM     28  O   UNL A   1      37.677  21.789  25.726  1.00  0.00    -0.458 OA
BRANCH  28  29
ATOM     29  C   UNL A   1      38.936  21.518  26.135  1.00  0.00     0.338 C 
ATOM     30  O   UNL A   1      39.565  20.487  25.978  1.00  0.00    -0.246 OA
BRANCH  29  31
ATOM     31  C   UNL A   1      39.533  22.720  26.732  1.00  0.00     0.060 A 
ATOM     32  C   UNL A   1      39.107  23.959  26.265  1.00  0.00     0.016 A 
ATOM     33  C   UNL A   1      40.609  22.633  27.610  1.00  0.00     0.016 A 
ATOM     34  C   UNL A   1      39.814  25.111  26.573  1.00  0.00     0.010 A 
ATOM     35  C   UNL A   1      41.256  23.808  28.012  1.00  0.00     0.010 A 
ATOM     36  C   UNL A   1      40.887  25.054  27.469  1.00  0.00    -0.014 A 
BRANCH  36  37
ATOM     37  C   UNL A   1      41.637  26.294  27.797  1.00  0.00     0.031 A 
ATOM     38  C   UNL A   1      41.003  27.345  28.665  1.00  0.00     0.074 A 
ATOM     39  C   UNL A   1      42.897  26.466  27.355  1.00  0.00     0.049 A 
ATOM     40  N   UNL A   1      41.395  28.572  28.898  1.00  0.00    -0.248 NA
ATOM     41  C   UNL A   1      39.755  26.973  29.347  1.00  0.00     0.031 C 
ATOM     42  C   UNL A   1      43.659  25.495  26.568  1.00  0.00     0.029 A 
ATOM     43  N   UNL A   1      43.767  27.514  27.517  1.00  0.00    -0.354 N 
ATOM     44  C   UNL A   1      40.410  29.137  29.696  1.00  0.00     0.074 A 
ATOM     45  C   UNL A   1      39.408  28.116  29.921  1.00  0.00     0.031 C 
ATOM     46  C   UNL A   1      44.895  25.972  26.354  1.00  0.00     0.029 A 
ATOM     47  C   UNL A   1      44.983  27.318  26.910  1.00  0.00     0.049 A 
ATOM     48  H   UNL A   1      43.541  28.330  28.021  1.00  0.00     0.167 HD
ATOM     49  C   UNL A   1      40.347  30.397  30.184  1.00  0.00     0.037 A 
ATOM     50  C   UNL A   1      46.036  28.145  26.778  1.00  0.00     0.037 A 
ATOM     51  C   UNL A   1      41.382  31.384  30.015  1.00  0.00     0.049 A 
ATOM     52  C   UNL A   1      45.945  29.537  27.330  1.00  0.00     0.074 A 
ATOM     53  C   UNL A   1      41.410  32.695  30.457  1.00  0.00     0.029 A 
ATOM     54  N   UNL A   1      42.589  31.151  29.374  1.00  0.00    -0.354 N 
ATOM     55  N   UNL A   1      44.961  30.103  27.984  1.00  0.00    -0.248 NA
ATOM     56  C   UNL A   1      47.098  30.418  27.096  1.00  0.00     0.031 C 
ATOM     57  C   UNL A   1      42.630  33.261  30.069  1.00  0.00     0.029 A 
ATOM     58  C   UNL A   1      43.372  32.294  29.409  1.00  0.00     0.049 A 
ATOM     59  H   UNL A   1      42.853  30.300  28.955  1.00  0.00     0.167 HD
ATOM     60  C   UNL A   1      45.370  31.403  28.237  1.00  0.00     0.074 A 
ATOM     61  C   UNL A   1      46.705  31.537  27.689  1.00  0.00     0.031 C 
ATOM     62  C   UNL A   1      44.695  32.402  28.855  1.00  0.00     0.037 A 
BRANCH  49  63
ATOM     63  C   UNL A   1      39.097  30.798  30.908  1.00  0.00     0.064 A 
ATOM     64  C   UNL A   1      37.991  31.338  30.238  1.00  0.00     0.173 A 
ATOM     65  C   UNL A   1      39.001  30.611  32.295  1.00  0.00     0.173 A 
ATOM     66  F   UNL A   1      38.043  31.553  28.915  1.00  0.00    -0.203 F 
ATOM     67  C   UNL A   1      36.839  31.694  30.934  1.00  0.00     0.198 A 
ATOM     68  C   UNL A   1      37.840  30.947  32.984  1.00  0.00     0.198 A 
ATOM     69  F   UNL A   1      40.032  30.096  32.981  1.00  0.00    -0.203 F 
ATOM     70  F   UNL A   1      35.806  32.244  30.281  1.00  0.00    -0.200 F 
ATOM     71  C   UNL A   1      36.762  31.494  32.304  1.00  0.00     0.200 A 
ATOM     72  F   UNL A   1      37.765  30.745  34.308  1.00  0.00    -0.200 F 
ATOM     73  F   UNL A   1      35.651  31.833  32.973  1.00  0.00    -0.200 F 
ENDBRANCH  49  63
BRANCH  50  74
ATOM     74  C   UNL A   1      47.246  27.684  26.049  1.00  0.00     0.064 A 
ATOM     75  C   UNL A   1      47.311  27.746  24.652  1.00  0.00     0.173 A 
ATOM     76  C   UNL A   1      48.367  27.195  26.737  1.00  0.00     0.173 A 
ATOM     77  F   UNL A   1      46.254  28.180  23.950  1.00  0.00    -0.203 F 
ATOM     78  C   UNL A   1      48.454  27.334  23.968  1.00  0.00     0.198 A 
ATOM     79  C   UNL A   1      49.517  26.810  26.055  1.00  0.00     0.198 A 
ATOM     80  F   UNL A   1      48.351  27.115  28.075  1.00  0.00    -0.203 F 
ATOM     81  F   UNL A   1      48.481  27.375  22.629  1.00  0.00    -0.200 F 
ATOM     82  C   UNL A   1      49.559  26.876  24.671  1.00  0.00     0.200 A 
ATOM     83  F   UNL A   1      50.587  26.379  26.738  1.00  0.00    -0.200 F 
ATOM     84  F   UNL A   1      50.661  26.492  24.013  1.00  0.00    -0.200 F 
ENDBRANCH  50  74
BRANCH  62  85
ATOM     85  C   UNL A   1      45.396  33.719  28.975  1.00  0.00     0.064 A 
ATOM     86  C   UNL A   1      46.232  33.999  30.066  1.00  0.00     0.173 A 
ATOM     87  C   UNL A   1      45.255  34.696  27.980  1.00  0.00     0.173 A 
ATOM     88  F   UNL A   1      46.381  33.098  31.050  1.00  0.00    -0.203 F 
ATOM     89  C   UNL A   1      46.890  35.221  30.164  1.00  0.00     0.198 A 
ATOM     90  C   UNL A   1      45.930  35.910  28.072  1.00  0.00     0.198 A 
ATOM     91  F   UNL A   1      44.466  34.470  26.918  1.00  0.00    -0.203 F 
ATOM     92  F   UNL A   1      47.656  35.483  31.231  1.00  0.00    -0.200 F 
ATOM     93  C   UNL A   1      46.742  36.173  29.166  1.00  0.00     0.200 A 
ATOM     94  F   UNL A   1      45.789  36.827  27.107  1.00  0.00    -0.200 F 
ATOM     95  F   UNL A   1      47.377  37.348  29.261  1.00  0.00    -0.200 F 
ENDBRANCH  62  85
ENDBRANCH  36  37
ENDBRANCH  29  31
ENDBRANCH  28  29
ENDBRANCH  27  28
ENDBRANCH   1  27
TORSDOF 15
ENDMDL
