MODEL 1
REMARK VINA RESULT:     -12.2      0.000      0.000
REMARK SMILES C[C@H](C(=O)OCCOC(=O)c1ccc(-c2c3nc(c(-c4c(F)c(F)c(F)c(F)c4F)c4ccc([nH]4)c(-c4c(F)c(F)c(F)c(F)c4F)c4nc(c(-c5c(F)c(F)c(F)c(F)c5F)c5ccc2[nH]5)C=C4)C=C3)cc1)c1ccc2c(c1)OCCO2
REMARK SMILES IDX 7 1 6 2 5 3 3 4 4 5 2 6 1 7 74 8 75 9 79 10 76 11 78 12
REMARK SMILES IDX 77 13 80 14 83 15 81 16 82 17 8 18 9 19 10 20 11 21 12 22
REMARK SMILES IDX 73 23 13 24 72 25 14 26 15 27 16 28 66 29 17 30 71 31 65 32
REMARK SMILES IDX 67 33 18 34 70 35 64 36 63 37 19 39 51 40 31 41 50 42 32 43
REMARK SMILES IDX 35 44 49 45 68 46 33 47 34 48 48 50 69 51 36 52 20 53 21 54
REMARK SMILES IDX 29 55 22 56 23 57 27 58 30 59 24 60 25 61 28 62 26 63 52 64
REMARK SMILES IDX 53 65 61 66 54 67 55 68 59 69 62 70 56 71 57 72 60 73 58 74
REMARK SMILES IDX 37 75 38 76 46 77 39 78 40 79 44 80 47 81 41 82 42 83 45 84
REMARK SMILES IDX 43 85
REMARK H PARENT 67 38 35 49
REMARK Flexibility Score: inf
ROOT
ATOM      1  C   UNL A   1      31.796  29.833  25.775  1.00  0.00     0.275 C 
ENDROOT
BRANCH   1   2
ATOM      2  C   UNL A   1      31.615  28.544  26.574  1.00  0.00     0.274 C 
BRANCH   2   3
ATOM      3  O   UNL A   1      31.993  27.402  25.779  1.00  0.00    -0.462 OA
BRANCH   3   4
ATOM      4  C   UNL A   1      31.066  26.414  25.605  1.00  0.00     0.313 C 
ATOM      5  O   UNL A   1      30.512  25.816  26.519  1.00  0.00    -0.252 OA
BRANCH   4   6
ATOM      6  C   UNL A   1      30.838  26.105  24.114  1.00  0.00     0.126 C 
ATOM      7  C   UNL A   1      30.604  24.612  23.878  1.00  0.00     0.025 C 
BRANCH   6   8
ATOM      8  C   UNL A   1      29.749  26.991  23.518  1.00  0.00    -0.030 A 
ATOM      9  C   UNL A   1      28.388  26.831  23.828  1.00  0.00     0.009 A 
ATOM     10  C   UNL A   1      30.152  28.132  22.804  1.00  0.00     0.055 A 
ATOM     11  C   UNL A   1      27.472  27.845  23.540  1.00  0.00     0.051 A 
ATOM     12  C   UNL A   1      29.251  29.161  22.563  1.00  0.00     0.161 A 
ATOM     13  C   UNL A   1      27.922  29.030  22.969  1.00  0.00     0.161 A 
ATOM     14  O   UNL A   1      29.778  30.308  22.031  1.00  0.00    -0.486 OA
ATOM     15  O   UNL A   1      27.038  30.078  22.908  1.00  0.00    -0.486 OA
ATOM     16  C   UNL A   1      28.844  31.394  21.990  1.00  0.00     0.271 C 
ATOM     17  C   UNL A   1      27.782  31.292  23.076  1.00  0.00     0.271 C 
ENDBRANCH   6   8
ENDBRANCH   4   6
ENDBRANCH   3   4
ENDBRANCH   2   3
ENDBRANCH   1   2
BRANCH   1  18
ATOM     18  O   UNL A   1      33.145  30.290  25.949  1.00  0.00    -0.458 OA
BRANCH  18  19
ATOM     19  C   UNL A   1      33.343  31.198  26.926  1.00  0.00     0.338 C 
ATOM     20  O   UNL A   1      32.605  32.117  27.250  1.00  0.00    -0.246 OA
BRANCH  19  21
ATOM     21  C   UNL A   1      34.637  30.919  27.579  1.00  0.00     0.060 A 
ATOM     22  C   UNL A   1      34.968  29.617  27.959  1.00  0.00     0.016 A 
ATOM     23  C   UNL A   1      35.500  31.973  27.877  1.00  0.00     0.016 A 
ATOM     24  C   UNL A   1      36.121  29.370  28.698  1.00  0.00     0.010 A 
ATOM     25  C   UNL A   1      36.702  31.712  28.542  1.00  0.00     0.010 A 
ATOM     26  C   UNL A   1      37.011  30.413  28.986  1.00  0.00    -0.014 A 
BRANCH  26  27
ATOM     27  C   UNL A   1      38.241  30.164  29.784  1.00  0.00     0.031 A 
ATOM     28  C   UNL A   1      39.335  29.299  29.220  1.00  0.00     0.074 A 
ATOM     29  C   UNL A   1      38.380  30.699  31.012  1.00  0.00     0.049 A 
ATOM     30  N   UNL A   1      40.384  28.792  29.816  1.00  0.00    -0.248 NA
ATOM     31  C   UNL A   1      39.226  28.946  27.795  1.00  0.00     0.031 C 
ATOM     32  C   UNL A   1      37.422  31.594  31.662  1.00  0.00     0.029 A 
ATOM     33  N   UNL A   1      39.387  30.564  31.937  1.00  0.00    -0.354 N 
ATOM     34  C   UNL A   1      41.027  28.018  28.859  1.00  0.00     0.074 A 
ATOM     35  C   UNL A   1      40.251  28.120  27.641  1.00  0.00     0.031 C 
ATOM     36  C   UNL A   1      37.894  31.944  32.868  1.00  0.00     0.029 A 
ATOM     37  C   UNL A   1      39.147  31.237  33.110  1.00  0.00     0.049 A 
ATOM     38  H   UNL A   1      40.201  30.036  31.774  1.00  0.00     0.167 HD
ATOM     39  C   UNL A   1      42.159  27.287  28.987  1.00  0.00     0.037 A 
ATOM     40  C   UNL A   1      39.835  31.248  34.268  1.00  0.00     0.037 A 
ATOM     41  C   UNL A   1      42.956  27.230  30.185  1.00  0.00     0.049 A 
ATOM     42  C   UNL A   1      41.077  30.411  34.393  1.00  0.00     0.074 A 
ATOM     43  C   UNL A   1      44.128  26.529  30.411  1.00  0.00     0.029 A 
ATOM     44  N   UNL A   1      42.672  27.919  31.355  1.00  0.00    -0.354 N 
ATOM     45  N   UNL A   1      41.647  29.638  33.501  1.00  0.00    -0.248 NA
ATOM     46  C   UNL A   1      41.762  30.435  35.693  1.00  0.00     0.031 C 
ATOM     47  C   UNL A   1      44.537  26.771  31.727  1.00  0.00     0.029 A 
ATOM     48  C   UNL A   1      43.640  27.652  32.308  1.00  0.00     0.049 A 
ATOM     49  H   UNL A   1      41.894  28.510  31.488  1.00  0.00     0.167 HD
ATOM     50  C   UNL A   1      42.759  29.091  34.126  1.00  0.00     0.074 A 
ATOM     51  C   UNL A   1      42.797  29.638  35.466  1.00  0.00     0.031 C 
ATOM     52  C   UNL A   1      43.663  28.210  33.635  1.00  0.00     0.037 A 
BRANCH  39  53
ATOM     53  C   UNL A   1      42.591  26.462  27.811  1.00  0.00     0.064 A 
ATOM     54  C   UNL A   1      42.108  25.163  27.599  1.00  0.00     0.173 A 
ATOM     55  C   UNL A   1      43.473  27.000  26.861  1.00  0.00     0.173 A 
ATOM     56  F   UNL A   1      41.274  24.600  28.487  1.00  0.00    -0.203 F 
ATOM     57  C   UNL A   1      42.509  24.425  26.489  1.00  0.00     0.198 A 
ATOM     58  C   UNL A   1      43.852  26.267  25.740  1.00  0.00     0.198 A 
ATOM     59  F   UNL A   1      43.960  28.240  27.016  1.00  0.00    -0.203 F 
ATOM     60  F   UNL A   1      42.067  23.170  26.325  1.00  0.00    -0.200 F 
ATOM     61  C   UNL A   1      43.374  24.979  25.557  1.00  0.00     0.200 A 
ATOM     62  F   UNL A   1      44.680  26.809  24.835  1.00  0.00    -0.200 F 
ATOM     63  F   UNL A   1      43.753  24.268  24.485  1.00  0.00    -0.200 F 
ENDBRANCH  39  53
BRANCH  40  64
ATOM     64  C   UNL A   1      39.338  32.052  35.414  1.00  0.00     0.064 A 
ATOM     65  C   UNL A   1      38.498  31.485  36.381  1.00  0.00     0.173 A 
ATOM     66  C   UNL A   1      39.698  33.400  35.569  1.00  0.00     0.173 A 
ATOM     67  F   UNL A   1      38.105  30.208  36.261  1.00  0.00    -0.203 F 
ATOM     68  C   UNL A   1      38.028  32.239  37.454  1.00  0.00     0.198 A 
ATOM     69  C   UNL A   1      39.251  34.143  36.659  1.00  0.00     0.198 A 
ATOM     70  F   UNL A   1      40.499  33.988  34.669  1.00  0.00    -0.203 F 
ATOM     71  F   UNL A   1      37.193  31.684  38.344  1.00  0.00    -0.200 F 
ATOM     72  C   UNL A   1      38.411  33.564  37.597  1.00  0.00     0.200 A 
ATOM     73  F   UNL A   1      39.633  35.420  36.798  1.00  0.00    -0.200 F 
ATOM     74  F   UNL A   1      37.965  34.285  38.634  1.00  0.00    -0.200 F 
ENDBRANCH  40  64
BRANCH  52  75
ATOM     75  C   UNL A   1      44.784  27.806  34.544  1.00  0.00     0.064 A 
ATOM     76  C   UNL A   1      45.975  28.543  34.612  1.00  0.00     0.173 A 
ATOM     77  C   UNL A   1      44.650  26.687  35.381  1.00  0.00     0.173 A 
ATOM     78  F   UNL A   1      46.154  29.609  33.819  1.00  0.00    -0.203 F 
ATOM     79  C   UNL A   1      47.002  28.160  35.470  1.00  0.00     0.198 A 
ATOM     80  C   UNL A   1      45.670  26.323  36.254  1.00  0.00     0.198 A 
ATOM     81  F   UNL A   1      43.527  25.954  35.355  1.00  0.00    -0.203 F 
ATOM     82  F   UNL A   1      48.149  28.854  35.490  1.00  0.00    -0.200 F 
ATOM     83  C   UNL A   1      46.847  27.055  36.294  1.00  0.00     0.200 A 
ATOM     84  F   UNL A   1      45.516  25.260  37.055  1.00  0.00    -0.200 F 
ATOM     85  F   UNL A   1      47.836  26.691  37.122  1.00  0.00    -0.200 F 
ENDBRANCH  52  75
ENDBRANCH  26  27
ENDBRANCH  19  21
ENDBRANCH  18  19
ENDBRANCH   1  18
TORSDOF 12
ENDMDL
MODEL 2
REMARK VINA RESULT:     -11.9      0.246      1.667
REMARK SMILES C[C@H](C(=O)OCCOC(=O)c1ccc(-c2c3nc(c(-c4c(F)c(F)c(F)c(F)c4F)c4ccc([nH]4)c(-c4c(F)c(F)c(F)c(F)c4F)c4nc(c(-c5c(F)c(F)c(F)c(F)c5F)c5ccc2[nH]5)C=C4)C=C3)cc1)c1ccc2c(c1)OCCO2
REMARK SMILES IDX 7 1 6 2 5 3 3 4 4 5 2 6 1 7 74 8 75 9 79 10 76 11 78 12
REMARK SMILES IDX 77 13 80 14 83 15 81 16 82 17 8 18 9 19 10 20 11 21 12 22
REMARK SMILES IDX 73 23 13 24 72 25 14 26 15 27 16 28 66 29 17 30 71 31 65 32
REMARK SMILES IDX 67 33 18 34 70 35 64 36 63 37 19 39 51 40 31 41 50 42 32 43
REMARK SMILES IDX 35 44 49 45 68 46 33 47 34 48 48 50 69 51 36 52 20 53 21 54
REMARK SMILES IDX 29 55 22 56 23 57 27 58 30 59 24 60 25 61 28 62 26 63 52 64
REMARK SMILES IDX 53 65 61 66 54 67 55 68 59 69 62 70 56 71 57 72 60 73 58 74
REMARK SMILES IDX 37 75 38 76 46 77 39 78 40 79 44 80 47 81 41 82 42 83 45 84
REMARK SMILES IDX 43 85
REMARK H PARENT 67 38 35 49
REMARK Flexibility Score: inf
ROOT
ATOM      1  C   UNL A   1      31.784  29.596  26.363  1.00  0.00     0.275 C 
ENDROOT
BRANCH   1   2
ATOM      2  C   UNL A   1      31.967  28.136  26.773  1.00  0.00     0.274 C 
BRANCH   2   3
ATOM      3  O   UNL A   1      31.977  27.284  25.610  1.00  0.00    -0.462 OA
BRANCH   3   4
ATOM      4  C   UNL A   1      30.890  26.483  25.400  1.00  0.00     0.313 C 
ATOM      5  O   UNL A   1      30.232  25.963  26.292  1.00  0.00    -0.252 OA
BRANCH   4   6
ATOM      6  C   UNL A   1      30.623  26.272  23.899  1.00  0.00     0.126 C 
ATOM      7  C   UNL A   1      30.342  24.803  23.579  1.00  0.00     0.025 C 
BRANCH   6   8
ATOM      8  C   UNL A   1      29.546  27.221  23.382  1.00  0.00    -0.030 A 
ATOM      9  C   UNL A   1      28.187  27.075  23.708  1.00  0.00     0.009 A 
ATOM     10  C   UNL A   1      29.966  28.396  22.737  1.00  0.00     0.055 A 
ATOM     11  C   UNL A   1      27.292  28.128  23.503  1.00  0.00     0.051 A 
ATOM     12  C   UNL A   1      29.087  29.461  22.580  1.00  0.00     0.161 A 
ATOM     13  C   UNL A   1      27.763  29.336  23.002  1.00  0.00     0.161 A 
ATOM     14  O   UNL A   1      29.634  30.627  22.114  1.00  0.00    -0.486 OA
ATOM     15  O   UNL A   1      26.905  30.407  23.026  1.00  0.00    -0.486 OA
ATOM     16  C   UNL A   1      28.728  31.735  22.161  1.00  0.00     0.271 C 
ATOM     17  C   UNL A   1      27.683  31.589  23.258  1.00  0.00     0.271 C 
ENDBRANCH   6   8
ENDBRANCH   4   6
ENDBRANCH   3   4
ENDBRANCH   2   3
ENDBRANCH   1   2
BRANCH   1  18
ATOM     18  O   UNL A   1      33.081  30.187  26.194  1.00  0.00    -0.458 OA
BRANCH  18  19
ATOM     19  C   UNL A   1      33.386  31.198  27.033  1.00  0.00     0.338 C 
ATOM     20  O   UNL A   1      32.733  32.209  27.251  1.00  0.00    -0.246 OA
BRANCH  19  21
ATOM     21  C   UNL A   1      34.679  30.905  27.680  1.00  0.00     0.060 A 
ATOM     22  C   UNL A   1      35.006  29.595  28.039  1.00  0.00     0.016 A 
ATOM     23  C   UNL A   1      35.546  31.950  27.994  1.00  0.00     0.016 A 
ATOM     24  C   UNL A   1      36.159  29.333  28.773  1.00  0.00     0.010 A 
ATOM     25  C   UNL A   1      36.747  31.674  28.654  1.00  0.00     0.010 A 
ATOM     26  C   UNL A   1      37.052  30.367  29.077  1.00  0.00    -0.014 A 
BRANCH  26  27
ATOM     27  C   UNL A   1      38.282  30.102  29.869  1.00  0.00     0.031 A 
ATOM     28  C   UNL A   1      39.351  29.202  29.311  1.00  0.00     0.074 A 
ATOM     29  C   UNL A   1      38.444  30.653  31.088  1.00  0.00     0.049 A 
ATOM     30  N   UNL A   1      40.392  28.680  29.907  1.00  0.00    -0.248 NA
ATOM     31  C   UNL A   1      39.222  28.830  27.893  1.00  0.00     0.031 C 
ATOM     32  C   UNL A   1      37.512  31.580  31.731  1.00  0.00     0.029 A 
ATOM     33  N   UNL A   1      39.454  30.509  32.007  1.00  0.00    -0.354 N 
ATOM     34  C   UNL A   1      41.009  27.875  28.958  1.00  0.00     0.074 A 
ATOM     35  C   UNL A   1      40.227  27.977  27.744  1.00  0.00     0.031 C 
ATOM     36  C   UNL A   1      38.002  31.938  32.927  1.00  0.00     0.029 A 
ATOM     37  C   UNL A   1      39.240  31.205  33.172  1.00  0.00     0.049 A 
ATOM     38  H   UNL A   1      40.254  29.958  31.847  1.00  0.00     0.167 HD
ATOM     39  C   UNL A   1      42.124  27.120  29.089  1.00  0.00     0.037 A 
ATOM     40  C   UNL A   1      39.937  31.218  34.323  1.00  0.00     0.037 A 
ATOM     41  C   UNL A   1      42.929  27.063  30.282  1.00  0.00     0.049 A 
ATOM     42  C   UNL A   1      41.160  30.353  34.453  1.00  0.00     0.074 A 
ATOM     43  C   UNL A   1      44.086  26.337  30.511  1.00  0.00     0.029 A 
ATOM     44  N   UNL A   1      42.670  27.776  31.443  1.00  0.00    -0.354 N 
ATOM     45  N   UNL A   1      41.703  29.553  33.569  1.00  0.00    -0.248 NA
ATOM     46  C   UNL A   1      41.855  30.381  35.748  1.00  0.00     0.031 C 
ATOM     47  C   UNL A   1      44.510  26.589  31.819  1.00  0.00     0.029 A 
ATOM     48  C   UNL A   1      43.639  27.501  32.393  1.00  0.00     0.049 A 
ATOM     49  H   UNL A   1      41.908  28.387  31.572  1.00  0.00     0.167 HD
ATOM     50  C   UNL A   1      42.807  28.989  34.194  1.00  0.00     0.074 A 
ATOM     51  C   UNL A   1      42.869  29.556  35.525  1.00  0.00     0.031 C 
ATOM     52  C   UNL A   1      43.686  28.079  33.711  1.00  0.00     0.037 A 
BRANCH  39  53
ATOM     53  C   UNL A   1      42.527  26.266  27.924  1.00  0.00     0.064 A 
ATOM     54  C   UNL A   1      41.975  24.996  27.709  1.00  0.00     0.173 A 
ATOM     55  C   UNL A   1      43.453  26.748  26.986  1.00  0.00     0.173 A 
ATOM     56  F   UNL A   1      41.097  24.485  28.585  1.00  0.00    -0.203 F 
ATOM     57  C   UNL A   1      42.351  24.230  26.608  1.00  0.00     0.198 A 
ATOM     58  C   UNL A   1      43.808  25.990  25.873  1.00  0.00     0.198 A 
ATOM     59  F   UNL A   1      44.008  27.960  27.144  1.00  0.00    -0.203 F 
ATOM     60  F   UNL A   1      41.841  23.002  26.442  1.00  0.00    -0.200 F 
ATOM     61  C   UNL A   1      43.261  24.731  25.688  1.00  0.00     0.200 A 
ATOM     62  F   UNL A   1      44.679  26.480  24.980  1.00  0.00    -0.200 F 
ATOM     63  F   UNL A   1      43.616  23.995  24.625  1.00  0.00    -0.200 F 
ENDBRANCH  39  53
BRANCH  40  64
ATOM     64  C   UNL A   1      39.468  32.052  35.461  1.00  0.00     0.064 A 
ATOM     65  C   UNL A   1      39.894  33.379  35.604  1.00  0.00     0.173 A 
ATOM     66  C   UNL A   1      38.583  31.541  36.422  1.00  0.00     0.173 A 
ATOM     67  F   UNL A   1      40.762  33.902  34.725  1.00  0.00    -0.203 F 
ATOM     68  C   UNL A   1      39.459  34.161  36.671  1.00  0.00     0.198 A 
ATOM     69  C   UNL A   1      38.126  32.334  37.472  1.00  0.00     0.198 A 
ATOM     70  F   UNL A   1      38.149  30.276  36.329  1.00  0.00    -0.203 F 
ATOM     71  F   UNL A   1      39.912  35.415  36.808  1.00  0.00    -0.200 F 
ATOM     72  C   UNL A   1      38.570  33.641  37.600  1.00  0.00     0.200 A 
ATOM     73  F   UNL A   1      37.258  31.830  38.360  1.00  0.00    -0.200 F 
ATOM     74  F   UNL A   1      38.146  34.396  38.621  1.00  0.00    -0.200 F 
ENDBRANCH  40  64
BRANCH  52  75
ATOM     75  C   UNL A   1      44.804  27.662  34.618  1.00  0.00     0.064 A 
ATOM     76  C   UNL A   1      44.688  26.544  35.456  1.00  0.00     0.173 A 
ATOM     77  C   UNL A   1      46.016  28.370  34.624  1.00  0.00     0.173 A 
ATOM     78  F   UNL A   1      43.543  25.847  35.497  1.00  0.00    -0.203 F 
ATOM     79  C   UNL A   1      45.739  26.163  36.285  1.00  0.00     0.198 A 
ATOM     80  C   UNL A   1      47.072  27.971  35.436  1.00  0.00     0.198 A 
ATOM     81  F   UNL A   1      46.175  29.444  33.835  1.00  0.00    -0.203 F 
ATOM     82  F   UNL A   1      45.594  25.116  37.110  1.00  0.00    -0.200 F 
ATOM     83  C   UNL A   1      46.932  26.872  36.271  1.00  0.00     0.200 A 
ATOM     84  F   UNL A   1      48.226  28.652  35.415  1.00  0.00    -0.200 F 
ATOM     85  F   UNL A   1      47.943  26.501  37.067  1.00  0.00    -0.200 F 
ENDBRANCH  52  75
ENDBRANCH  26  27
ENDBRANCH  19  21
ENDBRANCH  18  19
ENDBRANCH   1  18
TORSDOF 12
ENDMDL
MODEL 3
REMARK VINA RESULT:     -11.8      1.205      3.163
REMARK SMILES C[C@H](C(=O)OCCOC(=O)c1ccc(-c2c3nc(c(-c4c(F)c(F)c(F)c(F)c4F)c4ccc([nH]4)c(-c4c(F)c(F)c(F)c(F)c4F)c4nc(c(-c5c(F)c(F)c(F)c(F)c5F)c5ccc2[nH]5)C=C4)C=C3)cc1)c1ccc2c(c1)OCCO2
REMARK SMILES IDX 7 1 6 2 5 3 3 4 4 5 2 6 1 7 74 8 75 9 79 10 76 11 78 12
REMARK SMILES IDX 77 13 80 14 83 15 81 16 82 17 8 18 9 19 10 20 11 21 12 22
REMARK SMILES IDX 73 23 13 24 72 25 14 26 15 27 16 28 66 29 17 30 71 31 65 32
REMARK SMILES IDX 67 33 18 34 70 35 64 36 63 37 19 39 51 40 31 41 50 42 32 43
REMARK SMILES IDX 35 44 49 45 68 46 33 47 34 48 48 50 69 51 36 52 20 53 21 54
REMARK SMILES IDX 29 55 22 56 23 57 27 58 30 59 24 60 25 61 28 62 26 63 52 64
REMARK SMILES IDX 53 65 61 66 54 67 55 68 59 69 62 70 56 71 57 72 60 73 58 74
REMARK SMILES IDX 37 75 38 76 46 77 39 78 40 79 44 80 47 81 41 82 42 83 45 84
REMARK SMILES IDX 43 85
REMARK H PARENT 67 38 35 49
REMARK Flexibility Score: inf
ROOT
ATOM      1  C   UNL A   1      31.556  30.395  25.702  1.00  0.00     0.275 C 
ENDROOT
BRANCH   1   2
ATOM      2  C   UNL A   1      31.335  29.084  24.950  1.00  0.00     0.274 C 
BRANCH   2   3
ATOM      3  O   UNL A   1      31.068  29.341  23.557  1.00  0.00    -0.462 OA
BRANCH   3   4
ATOM      4  C   UNL A   1      30.171  28.531  22.921  1.00  0.00     0.313 C 
ATOM      5  O   UNL A   1      29.519  28.859  21.937  1.00  0.00    -0.252 OA
BRANCH   4   6
ATOM      6  C   UNL A   1      30.038  27.168  23.624  1.00  0.00     0.126 C 
ATOM      7  C   UNL A   1      28.574  26.752  23.772  1.00  0.00     0.025 C 
BRANCH   6   8
ATOM      8  C   UNL A   1      30.906  26.106  22.957  1.00  0.00    -0.030 A 
ATOM      9  C   UNL A   1      31.934  26.425  22.053  1.00  0.00     0.009 A 
ATOM     10  C   UNL A   1      30.805  24.787  23.430  1.00  0.00     0.055 A 
ATOM     11  C   UNL A   1      32.909  25.479  21.727  1.00  0.00     0.051 A 
ATOM     12  C   UNL A   1      31.801  23.863  23.145  1.00  0.00     0.161 A 
ATOM     13  C   UNL A   1      32.872  24.226  22.326  1.00  0.00     0.161 A 
ATOM     14  O   UNL A   1      31.714  22.664  23.802  1.00  0.00    -0.486 OA
ATOM     15  O   UNL A   1      33.962  23.411  22.154  1.00  0.00    -0.486 OA
ATOM     16  C   UNL A   1      32.868  21.835  23.621  1.00  0.00     0.271 C 
ATOM     17  C   UNL A   1      34.131  22.640  23.351  1.00  0.00     0.271 C 
ENDBRANCH   6   8
ENDBRANCH   4   6
ENDBRANCH   3   4
ENDBRANCH   2   3
ENDBRANCH   1   2
BRANCH   1  18
ATOM     18  O   UNL A   1      32.923  30.446  26.135  1.00  0.00    -0.458 OA
BRANCH  18  19
ATOM     19  C   UNL A   1      33.237  31.437  26.995  1.00  0.00     0.338 C 
ATOM     20  O   UNL A   1      32.591  32.446  27.236  1.00  0.00    -0.246 OA
BRANCH  19  21
ATOM     21  C   UNL A   1      34.530  31.122  27.631  1.00  0.00     0.060 A 
ATOM     22  C   UNL A   1      34.831  29.810  28.003  1.00  0.00     0.016 A 
ATOM     23  C   UNL A   1      35.424  32.151  27.924  1.00  0.00     0.016 A 
ATOM     24  C   UNL A   1      35.985  29.529  28.728  1.00  0.00     0.010 A 
ATOM     25  C   UNL A   1      36.625  31.856  28.575  1.00  0.00     0.010 A 
ATOM     26  C   UNL A   1      36.905  30.547  29.010  1.00  0.00    -0.014 A 
BRANCH  26  27
ATOM     27  C   UNL A   1      38.137  30.263  29.793  1.00  0.00     0.031 A 
ATOM     28  C   UNL A   1      39.206  29.379  29.209  1.00  0.00     0.074 A 
ATOM     29  C   UNL A   1      38.301  30.783  31.024  1.00  0.00     0.049 A 
ATOM     30  N   UNL A   1      40.249  28.843  29.789  1.00  0.00    -0.248 NA
ATOM     31  C   UNL A   1      39.074  29.043  27.783  1.00  0.00     0.031 C 
ATOM     32  C   UNL A   1      37.370  31.693  31.693  1.00  0.00     0.029 A 
ATOM     33  N   UNL A   1      39.314  30.617  31.937  1.00  0.00    -0.354 N 
ATOM     34  C   UNL A   1      40.865  28.064  28.818  1.00  0.00     0.074 A 
ATOM     35  C   UNL A   1      40.079  28.196  27.610  1.00  0.00     0.031 C 
ATOM     36  C   UNL A   1      37.862  32.020  32.897  1.00  0.00     0.029 A 
ATOM     37  C   UNL A   1      39.101  31.283  33.120  1.00  0.00     0.049 A 
ATOM     38  H   UNL A   1      40.114  30.072  31.762  1.00  0.00     0.167 HD
ATOM     39  C   UNL A   1      41.981  27.307  28.928  1.00  0.00     0.037 A 
ATOM     40  C   UNL A   1      39.801  31.267  34.270  1.00  0.00     0.037 A 
ATOM     41  C   UNL A   1      42.789  27.221  30.117  1.00  0.00     0.049 A 
ATOM     42  C   UNL A   1      41.025  30.401  34.375  1.00  0.00     0.074 A 
ATOM     43  C   UNL A   1      43.947  26.491  30.325  1.00  0.00     0.029 A 
ATOM     44  N   UNL A   1      42.532  27.904  31.296  1.00  0.00    -0.354 N 
ATOM     45  N   UNL A   1      41.568  29.624  33.470  1.00  0.00    -0.248 NA
ATOM     46  C   UNL A   1      41.723  30.397  35.668  1.00  0.00     0.031 C 
ATOM     47  C   UNL A   1      44.374  26.710  31.638  1.00  0.00     0.029 A 
ATOM     48  C   UNL A   1      43.504  27.606  32.237  1.00  0.00     0.049 A 
ATOM     49  H   UNL A   1      41.769  28.510  31.443  1.00  0.00     0.167 HD
ATOM     50  C   UNL A   1      42.674  29.047  34.077  1.00  0.00     0.074 A 
ATOM     51  C   UNL A   1      42.737  29.579  35.422  1.00  0.00     0.031 C 
ATOM     52  C   UNL A   1      43.553  28.151  33.569  1.00  0.00     0.037 A 
BRANCH  39  53
ATOM     53  C   UNL A   1      42.382  26.484  27.740  1.00  0.00     0.064 A 
ATOM     54  C   UNL A   1      43.336  26.932  26.816  1.00  0.00     0.173 A 
ATOM     55  C   UNL A   1      41.829  25.208  27.549  1.00  0.00     0.173 A 
ATOM     56  F   UNL A   1      43.883  28.150  26.947  1.00  0.00    -0.203 F 
ATOM     57  C   UNL A   1      43.706  26.141  25.731  1.00  0.00     0.198 A 
ATOM     58  C   UNL A   1      42.220  24.410  26.477  1.00  0.00     0.198 A 
ATOM     59  F   UNL A   1      40.915  24.731  28.408  1.00  0.00    -0.203 F 
ATOM     60  F   UNL A   1      44.591  26.604  24.837  1.00  0.00    -0.200 F 
ATOM     61  C   UNL A   1      43.154  24.879  25.567  1.00  0.00     0.200 A 
ATOM     62  F   UNL A   1      41.693  23.187  26.326  1.00  0.00    -0.200 F 
ATOM     63  F   UNL A   1      43.518  24.116  24.526  1.00  0.00    -0.200 F 
ENDBRANCH  39  53
BRANCH  40  64
ATOM     64  C   UNL A   1      39.334  32.071  35.429  1.00  0.00     0.064 A 
ATOM     65  C   UNL A   1      39.720  33.410  35.579  1.00  0.00     0.173 A 
ATOM     66  C   UNL A   1      38.489  31.520  36.405  1.00  0.00     0.173 A 
ATOM     67  F   UNL A   1      40.547  33.972  34.686  1.00  0.00    -0.203 F 
ATOM     68  C   UNL A   1      39.286  34.164  36.667  1.00  0.00     0.198 A 
ATOM     69  C   UNL A   1      38.034  32.285  37.477  1.00  0.00     0.198 A 
ATOM     70  F   UNL A   1      38.095  30.243  36.307  1.00  0.00    -0.203 F 
ATOM     71  F   UNL A   1      39.701  35.430  36.809  1.00  0.00    -0.200 F 
ATOM     72  C   UNL A   1      38.437  33.604  37.611  1.00  0.00     0.200 A 
ATOM     73  F   UNL A   1      37.205  31.742  38.379  1.00  0.00    -0.200 F 
ATOM     74  F   UNL A   1      38.014  34.332  38.652  1.00  0.00    -0.200 F 
ENDBRANCH  40  64
BRANCH  52  75
ATOM     75  C   UNL A   1      44.673  27.712  34.463  1.00  0.00     0.064 A 
ATOM     76  C   UNL A   1      45.878  28.426  34.532  1.00  0.00     0.173 A 
ATOM     77  C   UNL A   1      44.526  26.583  35.283  1.00  0.00     0.173 A 
ATOM     78  F   UNL A   1      46.070  29.501  33.754  1.00  0.00    -0.203 F 
ATOM     79  C   UNL A   1      46.904  28.012  35.376  1.00  0.00     0.198 A 
ATOM     80  C   UNL A   1      45.546  26.187  36.143  1.00  0.00     0.198 A 
ATOM     81  F   UNL A   1      43.389  25.870  35.256  1.00  0.00    -0.203 F 
ATOM     82  F   UNL A   1      48.064  28.685  35.397  1.00  0.00    -0.200 F 
ATOM     83  C   UNL A   1      46.736  26.897  36.184  1.00  0.00     0.200 A 
ATOM     84  F   UNL A   1      45.378  25.115  36.929  1.00  0.00    -0.200 F 
ATOM     85  F   UNL A   1      47.725  26.504  36.998  1.00  0.00    -0.200 F 
ENDBRANCH  52  75
ENDBRANCH  26  27
ENDBRANCH  19  21
ENDBRANCH  18  19
ENDBRANCH   1  18
TORSDOF 12
ENDMDL
