MODEL 1
REMARK VINA RESULT:     -12.4      0.000      0.000
REMARK SMILES CC[C@@H]1CCc2c(sc(NC(=O)COCC(=O)OCCOC(=O)c3ccc(-c4c5nc(c(-c6c(F)c(F)c(F)c(F)c6F)c6ccc([nH]6)c(-c6c(F)c(F)c(F)c(F)c6F)c6nc(c(-c7c(F)c(F)c(F)c(F)c7F)c7ccc4[nH]7)C=C6)C=C5)cc3)c2C(N)=O)C1
REMARK SMILES IDX 18 1 16 2 17 3 15 4 14 5 13 6 11 7 10 8 12 10 9 11 3 12 4 13
REMARK SMILES IDX 91 14 5 15 7 16 6 17 8 18 87 19 2 20 1 21 88 22 89 23 90 24
REMARK SMILES IDX 19 27 20 28 21 29 22 30 23 31 24 32 25 33 86 34 26 35 85 36
REMARK SMILES IDX 27 37 28 38 29 39 79 40 30 41 84 42 78 43 80 44 31 45 83 46
REMARK SMILES IDX 77 47 76 48 32 50 64 51 44 52 63 53 45 54 48 55 62 56 81 57
REMARK SMILES IDX 46 58 47 59 61 61 82 62 49 63 33 64 34 65 42 66 35 67 36 68
REMARK SMILES IDX 40 69 43 70 37 71 38 72 41 73 39 74 65 75 66 76 74 77 67 78
REMARK SMILES IDX 68 79 72 80 75 81 69 82 70 83 73 84 71 85 50 86 51 87 59 88
REMARK SMILES IDX 52 89 53 90 57 91 60 92 54 93 55 94 58 95 56 96
REMARK H PARENT 10 9 89 25 89 26 80 49 48 60
REMARK Flexibility Score: inf
ROOT
ATOM      1  O   UNL A   1      43.371  40.665  25.453  1.00  0.00    -0.460 OA
ENDROOT
BRANCH   1   2
ATOM      2  C   UNL A   1      42.194  41.293  25.181  1.00  0.00     0.332 C 
ATOM      3  O   UNL A   1      41.186  41.244  25.877  1.00  0.00    -0.250 OA
BRANCH   2   4
ATOM      4  C   UNL A   1      42.277  42.124  23.906  1.00  0.00     0.283 C 
BRANCH   4   5
ATOM      5  O   UNL A   1      43.584  42.232  23.376  1.00  0.00    -0.360 OA
BRANCH   5   6
ATOM      6  C   UNL A   1      43.747  43.039  22.241  1.00  0.00     0.261 C 
BRANCH   6   7
ATOM      7  C   UNL A   1      44.729  42.596  21.176  1.00  0.00     0.251 C 
ATOM      8  N   UNL A   1      44.774  43.112  19.930  1.00  0.00    -0.315 N 
ATOM      9  H   UNL A   1      45.486  42.698  19.390  1.00  0.00     0.170 HD
ATOM     10  O   UNL A   1      45.527  41.681  21.428  1.00  0.00    -0.272 OA
BRANCH   8  11
ATOM     11  C   UNL A   1      44.084  44.063  19.218  1.00  0.00     0.108 A 
ATOM     12  C   UNL A   1      43.267  48.300  16.954  1.00  0.00    -0.006 C 
ATOM     13  C   UNL A   1      42.103  47.430  16.427  1.00  0.00     0.009 C 
ATOM     14  C   UNL A   1      44.515  47.407  17.172  1.00  0.00     0.050 C 
ATOM     15  C   UNL A   1      41.669  46.363  17.442  1.00  0.00     0.038 C 
ATOM     16  C   UNL A   1      44.138  46.141  17.884  1.00  0.00     0.011 A 
ATOM     17  C   UNL A   1      42.860  45.657  18.036  1.00  0.00    -0.019 A 
ATOM     18  S   UNL A   1      45.286  45.122  18.571  1.00  0.00    -0.122 S 
ATOM     19  C   UNL A   1      42.804  44.471  18.873  1.00  0.00     0.077 A 
BRANCH  12  20
ATOM     20  C   UNL A   1      42.925  49.082  18.244  1.00  0.00     0.000 C 
ATOM     21  C   UNL A   1      44.145  49.627  18.973  1.00  0.00     0.004 C 
ENDBRANCH  12  20
BRANCH  19  22
ATOM     22  C   UNL A   1      41.501  43.944  19.253  1.00  0.00     0.251 C 
ATOM     23  N   UNL A   1      40.767  43.376  18.254  1.00  0.00    -0.365 N 
ATOM     24  O   UNL A   1      41.025  44.104  20.370  1.00  0.00    -0.269 OA
ATOM     25  H   UNL A   1      41.163  43.254  17.362  1.00  0.00     0.159 HD
ATOM     26  H   UNL A   1      39.841  43.089  18.427  1.00  0.00     0.159 HD
ENDBRANCH  19  22
ENDBRANCH   8  11
ENDBRANCH   6   7
ENDBRANCH   5   6
ENDBRANCH   4   5
ENDBRANCH   2   4
ENDBRANCH   1   2
BRANCH   1  27
ATOM     27  C   UNL A   1      43.388  39.807  26.605  1.00  0.00     0.274 C 
BRANCH  27  28
ATOM     28  C   UNL A   1      44.771  39.171  26.733  1.00  0.00     0.275 C 
BRANCH  28  29
ATOM     29  O   UNL A   1      44.698  38.064  27.654  1.00  0.00    -0.458 OA
BRANCH  29  30
ATOM     30  C   UNL A   1      45.765  37.234  27.668  1.00  0.00     0.338 C 
ATOM     31  O   UNL A   1      46.944  37.548  27.622  1.00  0.00    -0.246 OA
BRANCH  30  32
ATOM     32  C   UNL A   1      45.329  35.828  27.825  1.00  0.00     0.060 A 
ATOM     33  C   UNL A   1      45.777  35.060  28.903  1.00  0.00     0.016 A 
ATOM     34  C   UNL A   1      44.611  35.218  26.796  1.00  0.00     0.016 A 
ATOM     35  C   UNL A   1      45.595  33.678  28.898  1.00  0.00     0.010 A 
ATOM     36  C   UNL A   1      44.315  33.852  26.864  1.00  0.00     0.010 A 
ATOM     37  C   UNL A   1      44.817  33.058  27.908  1.00  0.00    -0.014 A 
BRANCH  37  38
ATOM     38  C   UNL A   1      44.473  31.608  27.998  1.00  0.00     0.031 A 
ATOM     39  C   UNL A   1      45.306  30.560  27.305  1.00  0.00     0.074 A 
ATOM     40  C   UNL A   1      43.363  31.228  28.664  1.00  0.00     0.049 A 
ATOM     41  N   UNL A   1      45.013  29.309  27.044  1.00  0.00    -0.248 NA
ATOM     42  C   UNL A   1      46.633  30.975  26.827  1.00  0.00     0.031 C 
ATOM     43  C   UNL A   1      42.473  32.119  29.410  1.00  0.00     0.029 A 
ATOM     44  N   UNL A   1      42.783  29.990  28.810  1.00  0.00    -0.354 N 
ATOM     45  C   UNL A   1      46.089  28.805  26.322  1.00  0.00     0.074 A 
ATOM     46  C   UNL A   1      47.045  29.886  26.188  1.00  0.00     0.031 C 
ATOM     47  C   UNL A   1      41.486  31.402  29.961  1.00  0.00     0.029 A 
ATOM     48  C   UNL A   1      41.603  30.023  29.513  1.00  0.00     0.049 A 
ATOM     49  H   UNL A   1      43.174  29.162  28.447  1.00  0.00     0.167 HD
ATOM     50  C   UNL A   1      46.255  27.557  25.818  1.00  0.00     0.037 A 
ATOM     51  C   UNL A   1      40.673  29.073  29.724  1.00  0.00     0.037 A 
ATOM     52  C   UNL A   1      45.329  26.468  26.010  1.00  0.00     0.049 A 
ATOM     53  C   UNL A   1      40.860  27.714  29.122  1.00  0.00     0.074 A 
ATOM     54  C   UNL A   1      45.433  25.157  25.571  1.00  0.00     0.029 A 
ATOM     55  N   UNL A   1      44.135  26.556  26.709  1.00  0.00    -0.354 N 
ATOM     56  N   UNL A   1      41.851  27.265  28.393  1.00  0.00    -0.248 NA
ATOM     57  C   UNL A   1      39.788  26.739  29.352  1.00  0.00     0.031 C 
ATOM     58  C   UNL A   1      44.284  24.465  25.970  1.00  0.00     0.029 A 
ATOM     59  C   UNL A   1      43.484  25.331  26.697  1.00  0.00     0.049 A 
ATOM     60  H   UNL A   1      43.797  27.369  27.150  1.00  0.00     0.167 HD
ATOM     61  C   UNL A   1      41.527  25.952  28.083  1.00  0.00     0.074 A 
ATOM     62  C   UNL A   1      40.258  25.671  28.723  1.00  0.00     0.031 C 
ATOM     63  C   UNL A   1      42.220  25.063  27.330  1.00  0.00     0.037 A 
BRANCH  50  64
ATOM     64  C   UNL A   1      47.474  27.291  24.979  1.00  0.00     0.064 A 
ATOM     65  C   UNL A   1      47.560  27.695  23.640  1.00  0.00     0.173 A 
ATOM     66  C   UNL A   1      48.604  26.689  25.556  1.00  0.00     0.173 A 
ATOM     67  F   UNL A   1      46.508  28.272  23.040  1.00  0.00    -0.203 F 
ATOM     68  C   UNL A   1      48.726  27.491  22.904  1.00  0.00     0.198 A 
ATOM     69  C   UNL A   1      49.777  26.510  24.825  1.00  0.00     0.198 A 
ATOM     70  F   UNL A   1      48.581  26.294  26.838  1.00  0.00    -0.203 F 
ATOM     71  F   UNL A   1      48.776  27.858  21.616  1.00  0.00    -0.200 F 
ATOM     72  C   UNL A   1      49.835  26.907  23.499  1.00  0.00     0.200 A 
ATOM     73  F   UNL A   1      50.852  25.962  25.407  1.00  0.00    -0.200 F 
ATOM     74  F   UNL A   1      50.960  26.726  22.792  1.00  0.00    -0.200 F 
ENDBRANCH  50  64
BRANCH  51  75
ATOM     75  C   UNL A   1      39.454  29.410  30.502  1.00  0.00     0.064 A 
ATOM     76  C   UNL A   1      39.466  29.385  31.902  1.00  0.00     0.173 A 
ATOM     77  C   UNL A   1      38.265  29.795  29.863  1.00  0.00     0.173 A 
ATOM     78  F   UNL A   1      40.571  28.999  32.555  1.00  0.00    -0.203 F 
ATOM     79  C   UNL A   1      38.334  29.735  32.635  1.00  0.00     0.198 A 
ATOM     80  C   UNL A   1      37.145  30.176  30.596  1.00  0.00     0.198 A 
ATOM     81  F   UNL A   1      38.206  29.837  28.523  1.00  0.00    -0.203 F 
ATOM     82  F   UNL A   1      38.359  29.673  33.972  1.00  0.00    -0.200 F 
ATOM     83  C   UNL A   1      37.178  30.140  31.981  1.00  0.00     0.200 A 
ATOM     84  F   UNL A   1      36.039  30.585  29.961  1.00  0.00    -0.200 F 
ATOM     85  F   UNL A   1      36.096  30.493  32.688  1.00  0.00    -0.200 F 
ENDBRANCH  51  75
BRANCH  63  86
ATOM     86  C   UNL A   1      41.624  23.695  27.183  1.00  0.00     0.064 A 
ATOM     87  C   UNL A   1      42.214  22.571  27.778  1.00  0.00     0.173 A 
ATOM     88  C   UNL A   1      40.448  23.508  26.443  1.00  0.00     0.173 A 
ATOM     89  F   UNL A   1      43.353  22.697  28.478  1.00  0.00    -0.203 F 
ATOM     90  C   UNL A   1      41.663  21.303  27.615  1.00  0.00     0.198 A 
ATOM     91  C   UNL A   1      39.884  22.242  26.304  1.00  0.00     0.198 A 
ATOM     92  F   UNL A   1      39.844  24.552  25.855  1.00  0.00    -0.203 F 
ATOM     93  F   UNL A   1      42.272  20.236  28.149  1.00  0.00    -0.200 F 
ATOM     94  C   UNL A   1      40.496  21.141  26.882  1.00  0.00     0.200 A 
ATOM     95  F   UNL A   1      38.753  22.088  25.602  1.00  0.00    -0.200 F 
ATOM     96  F   UNL A   1      39.967  19.920  26.725  1.00  0.00    -0.200 F 
ENDBRANCH  63  86
ENDBRANCH  37  38
ENDBRANCH  30  32
ENDBRANCH  29  30
ENDBRANCH  28  29
ENDBRANCH  27  28
ENDBRANCH   1  27
TORSDOF 17
ENDMDL
MODEL 2
REMARK VINA RESULT:     -12.4      9.976     13.927
REMARK SMILES CC[C@@H]1CCc2c(sc(NC(=O)COCC(=O)OCCOC(=O)c3ccc(-c4c5nc(c(-c6c(F)c(F)c(F)c(F)c6F)c6ccc([nH]6)c(-c6c(F)c(F)c(F)c(F)c6F)c6nc(c(-c7c(F)c(F)c(F)c(F)c7F)c7ccc4[nH]7)C=C6)C=C5)cc3)c2C(N)=O)C1
REMARK SMILES IDX 18 1 16 2 17 3 15 4 14 5 13 6 11 7 10 8 12 10 9 11 3 12 4 13
REMARK SMILES IDX 91 14 5 15 7 16 6 17 8 18 87 19 2 20 1 21 88 22 89 23 90 24
REMARK SMILES IDX 19 27 20 28 21 29 22 30 23 31 24 32 25 33 86 34 26 35 85 36
REMARK SMILES IDX 27 37 28 38 29 39 79 40 30 41 84 42 78 43 80 44 31 45 83 46
REMARK SMILES IDX 77 47 76 48 32 50 64 51 44 52 63 53 45 54 48 55 62 56 81 57
REMARK SMILES IDX 46 58 47 59 61 61 82 62 49 63 33 64 34 65 42 66 35 67 36 68
REMARK SMILES IDX 40 69 43 70 37 71 38 72 41 73 39 74 65 75 66 76 74 77 67 78
REMARK SMILES IDX 68 79 72 80 75 81 69 82 70 83 73 84 71 85 50 86 51 87 59 88
REMARK SMILES IDX 52 89 53 90 57 91 60 92 54 93 55 94 58 95 56 96
REMARK H PARENT 10 9 89 25 89 26 80 49 48 60
REMARK Flexibility Score: inf
ROOT
ATOM      1  O   UNL A   1      30.255  29.667  23.851  1.00  0.00    -0.460 OA
ENDROOT
BRANCH   1   2
ATOM      2  C   UNL A   1      29.932  28.735  22.913  1.00  0.00     0.332 C 
ATOM      3  O   UNL A   1      30.005  28.896  21.699  1.00  0.00    -0.250 OA
BRANCH   2   4
ATOM      4  C   UNL A   1      29.498  27.419  23.547  1.00  0.00     0.283 C 
BRANCH   4   5
ATOM      5  O   UNL A   1      30.408  26.356  23.343  1.00  0.00    -0.360 OA
BRANCH   5   6
ATOM      6  C   UNL A   1      30.153  25.159  24.025  1.00  0.00     0.261 C 
BRANCH   6   7
ATOM      7  C   UNL A   1      30.498  25.081  25.498  1.00  0.00     0.251 C 
ATOM      8  N   UNL A   1      31.691  24.666  25.973  1.00  0.00    -0.315 N 
ATOM      9  H   UNL A   1      31.721  24.693  26.957  1.00  0.00     0.170 HD
ATOM     10  O   UNL A   1      29.637  25.376  26.341  1.00  0.00    -0.272 OA
BRANCH   8  11
ATOM     11  C   UNL A   1      32.874  24.213  25.441  1.00  0.00     0.108 A 
ATOM     12  C   UNL A   1      37.246  22.064  25.329  1.00  0.00    -0.006 C 
ATOM     13  C   UNL A   1      36.908  22.174  23.824  1.00  0.00     0.009 C 
ATOM     14  C   UNL A   1      35.939  21.831  26.131  1.00  0.00     0.050 C 
ATOM     15  C   UNL A   1      36.017  23.385  23.515  1.00  0.00     0.038 C 
ATOM     16  C   UNL A   1      34.863  22.766  25.666  1.00  0.00     0.011 A 
ATOM     17  C   UNL A   1      34.881  23.494  24.499  1.00  0.00    -0.019 A 
ATOM     18  S   UNL A   1      33.447  23.011  26.541  1.00  0.00    -0.122 S 
ATOM     19  C   UNL A   1      33.751  24.398  24.382  1.00  0.00     0.077 A 
BRANCH  12  20
ATOM     20  C   UNL A   1      38.015  23.286  25.885  1.00  0.00     0.000 C 
ATOM     21  C   UNL A   1      39.256  22.919  26.684  1.00  0.00     0.004 C 
ENDBRANCH  12  20
BRANCH  19  22
ATOM     22  C   UNL A   1      33.724  25.347  23.278  1.00  0.00     0.251 C 
ATOM     23  N   UNL A   1      33.613  26.662  23.619  1.00  0.00    -0.365 N 
ATOM     24  O   UNL A   1      33.678  24.995  22.106  1.00  0.00    -0.269 OA
ATOM     25  H   UNL A   1      33.652  26.930  24.565  1.00  0.00     0.159 HD
ATOM     26  H   UNL A   1      33.493  27.343  22.918  1.00  0.00     0.159 HD
ENDBRANCH  19  22
ENDBRANCH   8  11
ENDBRANCH   6   7
ENDBRANCH   5   6
ENDBRANCH   4   5
ENDBRANCH   2   4
ENDBRANCH   1   2
BRANCH   1  27
ATOM     27  C   UNL A   1      31.342  29.338  24.734  1.00  0.00     0.274 C 
BRANCH  27  28
ATOM     28  C   UNL A   1      31.548  30.485  25.721  1.00  0.00     0.275 C 
BRANCH  28  29
ATOM     29  O   UNL A   1      32.855  30.366  26.316  1.00  0.00    -0.458 OA
BRANCH  29  30
ATOM     30  C   UNL A   1      33.268  31.421  27.054  1.00  0.00     0.338 C 
ATOM     31  O   UNL A   1      32.653  32.453  27.273  1.00  0.00    -0.246 OA
BRANCH  30  32
ATOM     32  C   UNL A   1      34.590  31.148  27.660  1.00  0.00     0.060 A 
ATOM     33  C   UNL A   1      34.917  29.865  28.106  1.00  0.00     0.016 A 
ATOM     34  C   UNL A   1      35.442  32.215  27.949  1.00  0.00     0.016 A 
ATOM     35  C   UNL A   1      36.034  29.672  28.919  1.00  0.00     0.010 A 
ATOM     36  C   UNL A   1      36.632  31.991  28.650  1.00  0.00     0.010 A 
ATOM     37  C   UNL A   1      36.937  30.718  29.161  1.00  0.00    -0.014 A 
BRANCH  37  38
ATOM     38  C   UNL A   1      38.221  30.473  29.881  1.00  0.00     0.031 A 
ATOM     39  C   UNL A   1      39.316  29.638  29.269  1.00  0.00     0.074 A 
ATOM     40  C   UNL A   1      38.387  30.958  31.129  1.00  0.00     0.049 A 
ATOM     41  N   UNL A   1      40.364  29.097  29.842  1.00  0.00    -0.248 NA
ATOM     42  C   UNL A   1      39.214  29.360  27.828  1.00  0.00     0.031 C 
ATOM     43  C   UNL A   1      37.432  31.806  31.845  1.00  0.00     0.029 A 
ATOM     44  N   UNL A   1      39.415  30.794  32.027  1.00  0.00    -0.354 N 
ATOM     45  C   UNL A   1      41.011  28.368  28.851  1.00  0.00     0.074 A 
ATOM     46  C   UNL A   1      40.239  28.538  27.636  1.00  0.00     0.031 C 
ATOM     47  C   UNL A   1      37.929  32.117  33.048  1.00  0.00     0.029 A 
ATOM     48  C   UNL A   1      39.179  31.398  33.238  1.00  0.00     0.049 A 
ATOM     49  H   UNL A   1      40.239  30.295  31.822  1.00  0.00     0.167 HD
ATOM     50  C   UNL A   1      42.141  27.624  28.952  1.00  0.00     0.037 A 
ATOM     51  C   UNL A   1      39.849  31.332  34.404  1.00  0.00     0.037 A 
ATOM     52  C   UNL A   1      42.940  27.511  30.148  1.00  0.00     0.049 A 
ATOM     53  C   UNL A   1      41.071  30.471  34.502  1.00  0.00     0.074 A 
ATOM     54  C   UNL A   1      44.123  26.814  30.334  1.00  0.00     0.029 A 
ATOM     55  N   UNL A   1      42.647  28.122  31.358  1.00  0.00    -0.354 N 
ATOM     56  N   UNL A   1      41.642  29.740  33.577  1.00  0.00    -0.248 NA
ATOM     57  C   UNL A   1      41.729  30.409  35.813  1.00  0.00     0.031 C 
ATOM     58  C   UNL A   1      44.522  26.969  31.667  1.00  0.00     0.029 A 
ATOM     59  C   UNL A   1      43.614  27.801  32.299  1.00  0.00     0.049 A 
ATOM     60  H   UNL A   1      41.866  28.697  31.526  1.00  0.00     0.167 HD
ATOM     61  C   UNL A   1      42.730  29.136  34.190  1.00  0.00     0.074 A 
ATOM     62  C   UNL A   1      42.752  29.604  35.560  1.00  0.00     0.031 C 
ATOM     63  C   UNL A   1      43.624  28.267  33.662  1.00  0.00     0.037 A 
BRANCH  50  64
ATOM     64  C   UNL A   1      42.583  26.842  27.747  1.00  0.00     0.064 A 
ATOM     65  C   UNL A   1      43.442  27.385  26.781  1.00  0.00     0.173 A 
ATOM     66  C   UNL A   1      42.199  25.499  27.603  1.00  0.00     0.173 A 
ATOM     67  F   UNL A   1      43.836  28.663  26.870  1.00  0.00    -0.203 F 
ATOM     68  C   UNL A   1      43.886  26.616  25.706  1.00  0.00     0.198 A 
ATOM     69  C   UNL A   1      42.666  24.727  26.541  1.00  0.00     0.198 A 
ATOM     70  F   UNL A   1      41.389  24.926  28.505  1.00  0.00    -0.203 F 
ATOM     71  F   UNL A   1      44.682  27.164  24.778  1.00  0.00    -0.200 F 
ATOM     72  C   UNL A   1      43.505  25.287  25.592  1.00  0.00     0.200 A 
ATOM     73  F   UNL A   1      42.310  23.439  26.443  1.00  0.00    -0.200 F 
ATOM     74  F   UNL A   1      43.946  24.547  24.564  1.00  0.00    -0.200 F 
ENDBRANCH  50  64
BRANCH  51  75
ATOM     75  C   UNL A   1      39.330  32.069  35.584  1.00  0.00     0.064 A 
ATOM     76  C   UNL A   1      38.455  31.453  36.486  1.00  0.00     0.173 A 
ATOM     77  C   UNL A   1      39.726  33.389  35.851  1.00  0.00     0.173 A 
ATOM     78  F   UNL A   1      38.029  30.203  36.259  1.00  0.00    -0.203 F 
ATOM     79  C   UNL A   1      37.993  32.131  37.613  1.00  0.00     0.198 A 
ATOM     80  C   UNL A   1      39.291  34.053  36.994  1.00  0.00     0.198 A 
ATOM     81  F   UNL A   1      40.566  34.020  35.016  1.00  0.00    -0.203 F 
ATOM     82  F   UNL A   1      37.131  31.532  38.445  1.00  0.00    -0.200 F 
ATOM     83  C   UNL A   1      38.421  33.425  37.871  1.00  0.00     0.200 A 
ATOM     84  F   UNL A   1      39.722  35.295  37.249  1.00  0.00    -0.200 F 
ATOM     85  F   UNL A   1      37.990  34.069  38.965  1.00  0.00    -0.200 F 
ENDBRANCH  51  75
BRANCH  63  86
ATOM     86  C   UNL A   1      44.718  27.788  34.570  1.00  0.00     0.064 A 
ATOM     87  C   UNL A   1      45.920  28.495  34.704  1.00  0.00     0.173 A 
ATOM     88  C   UNL A   1      44.557  26.613  35.317  1.00  0.00     0.173 A 
ATOM     89  F   UNL A   1      46.129  29.615  33.993  1.00  0.00    -0.203 F 
ATOM     90  C   UNL A   1      46.936  28.028  35.535  1.00  0.00     0.198 A 
ATOM     91  C   UNL A   1      45.564  26.163  36.167  1.00  0.00     0.198 A 
ATOM     92  F   UNL A   1      43.423  25.901  35.225  1.00  0.00    -0.203 F 
ATOM     93  F   UNL A   1      48.097  28.692  35.609  1.00  0.00    -0.200 F 
ATOM     94  C   UNL A   1      46.755  26.866  36.269  1.00  0.00     0.200 A 
ATOM     95  F   UNL A   1      45.384  25.043  36.881  1.00  0.00    -0.200 F 
ATOM     96  F   UNL A   1      47.733  26.416  37.066  1.00  0.00    -0.200 F 
ENDBRANCH  63  86
ENDBRANCH  37  38
ENDBRANCH  30  32
ENDBRANCH  29  30
ENDBRANCH  28  29
ENDBRANCH  27  28
ENDBRANCH   1  27
TORSDOF 17
ENDMDL
MODEL 3
REMARK VINA RESULT:     -12.2     10.005     14.667
REMARK SMILES CC[C@@H]1CCc2c(sc(NC(=O)COCC(=O)OCCOC(=O)c3ccc(-c4c5nc(c(-c6c(F)c(F)c(F)c(F)c6F)c6ccc([nH]6)c(-c6c(F)c(F)c(F)c(F)c6F)c6nc(c(-c7c(F)c(F)c(F)c(F)c7F)c7ccc4[nH]7)C=C6)C=C5)cc3)c2C(N)=O)C1
REMARK SMILES IDX 18 1 16 2 17 3 15 4 14 5 13 6 11 7 10 8 12 10 9 11 3 12 4 13
REMARK SMILES IDX 91 14 5 15 7 16 6 17 8 18 87 19 2 20 1 21 88 22 89 23 90 24
REMARK SMILES IDX 19 27 20 28 21 29 22 30 23 31 24 32 25 33 86 34 26 35 85 36
REMARK SMILES IDX 27 37 28 38 29 39 79 40 30 41 84 42 78 43 80 44 31 45 83 46
REMARK SMILES IDX 77 47 76 48 32 50 64 51 44 52 63 53 45 54 48 55 62 56 81 57
REMARK SMILES IDX 46 58 47 59 61 61 82 62 49 63 33 64 34 65 42 66 35 67 36 68
REMARK SMILES IDX 40 69 43 70 37 71 38 72 41 73 39 74 65 75 66 76 74 77 67 78
REMARK SMILES IDX 68 79 72 80 75 81 69 82 70 83 73 84 71 85 50 86 51 87 59 88
REMARK SMILES IDX 52 89 53 90 57 91 60 92 54 93 55 94 58 95 56 96
REMARK H PARENT 10 9 89 25 89 26 80 49 48 60
REMARK Flexibility Score: inf
ROOT
ATOM      1  O   UNL A   1      31.547  28.218  24.458  1.00  0.00    -0.460 OA
ENDROOT
BRANCH   1   2
ATOM      2  C   UNL A   1      31.295  27.201  25.326  1.00  0.00     0.332 C 
ATOM      3  O   UNL A   1      31.822  27.059  26.424  1.00  0.00    -0.250 OA
BRANCH   2   4
ATOM      4  C   UNL A   1      30.226  26.254  24.794  1.00  0.00     0.283 C 
BRANCH   4   5
ATOM      5  O   UNL A   1      29.854  25.238  25.705  1.00  0.00    -0.360 OA
BRANCH   5   6
ATOM      6  C   UNL A   1      30.581  24.041  25.655  1.00  0.00     0.261 C 
BRANCH   6   7
ATOM      7  C   UNL A   1      30.576  23.143  26.875  1.00  0.00     0.251 C 
ATOM      8  N   UNL A   1      31.564  22.274  27.177  1.00  0.00    -0.315 N 
ATOM      9  H   UNL A   1      31.378  21.788  28.012  1.00  0.00     0.170 HD
ATOM     10  O   UNL A   1      29.600  23.161  27.640  1.00  0.00    -0.272 OA
BRANCH   8  11
ATOM     11  C   UNL A   1      32.760  21.891  26.620  1.00  0.00     0.108 A 
ATOM     12  C   UNL A   1      37.208  22.383  24.691  1.00  0.00    -0.006 C 
ATOM     13  C   UNL A   1      37.172  20.874  25.024  1.00  0.00     0.009 C 
ATOM     14  C   UNL A   1      36.391  23.161  25.756  1.00  0.00     0.050 C 
ATOM     15  C   UNL A   1      35.752  20.296  24.953  1.00  0.00     0.038 C 
ATOM     16  C   UNL A   1      35.082  22.477  26.018  1.00  0.00     0.011 A 
ATOM     17  C   UNL A   1      34.761  21.192  25.650  1.00  0.00    -0.019 A 
ATOM     18  S   UNL A   1      33.829  23.228  26.851  1.00  0.00    -0.122 S 
ATOM     19  C   UNL A   1      33.378  20.853  25.939  1.00  0.00     0.077 A 
BRANCH  12  20
ATOM     20  C   UNL A   1      36.704  22.718  23.268  1.00  0.00     0.000 C 
ATOM     21  C   UNL A   1      35.584  23.748  23.239  1.00  0.00     0.004 C 
ENDBRANCH  12  20
BRANCH  19  22
ATOM     22  C   UNL A   1      32.853  19.583  25.457  1.00  0.00     0.251 C 
ATOM     23  N   UNL A   1      32.861  18.553  26.349  1.00  0.00    -0.365 N 
ATOM     24  O   UNL A   1      32.537  19.401  24.288  1.00  0.00    -0.269 OA
ATOM     25  H   UNL A   1      33.118  18.715  27.286  1.00  0.00     0.159 HD
ATOM     26  H   UNL A   1      32.609  17.647  26.056  1.00  0.00     0.159 HD
ENDBRANCH  19  22
ENDBRANCH   8  11
ENDBRANCH   6   7
ENDBRANCH   5   6
ENDBRANCH   4   5
ENDBRANCH   2   4
ENDBRANCH   1   2
BRANCH   1  27
ATOM     27  C   UNL A   1      31.439  29.552  24.982  1.00  0.00     0.274 C 
BRANCH  27  28
ATOM     28  C   UNL A   1      32.818  30.025  25.435  1.00  0.00     0.275 C 
BRANCH  28  29
ATOM     29  O   UNL A   1      32.783  30.301  26.849  1.00  0.00    -0.458 OA
BRANCH  29  30
ATOM     30  C   UNL A   1      33.418  31.426  27.249  1.00  0.00     0.338 C 
ATOM     31  O   UNL A   1      32.988  32.567  27.215  1.00  0.00    -0.246 OA
BRANCH  30  32
ATOM     32  C   UNL A   1      34.739  31.098  27.833  1.00  0.00     0.060 A 
ATOM     33  C   UNL A   1      34.991  29.826  28.354  1.00  0.00     0.016 A 
ATOM     34  C   UNL A   1      35.671  32.118  28.024  1.00  0.00     0.016 A 
ATOM     35  C   UNL A   1      36.118  29.607  29.144  1.00  0.00     0.010 A 
ATOM     36  C   UNL A   1      36.866  31.855  28.704  1.00  0.00     0.010 A 
ATOM     37  C   UNL A   1      37.100  30.599  29.289  1.00  0.00    -0.014 A 
BRANCH  37  38
ATOM     38  C   UNL A   1      38.388  30.310  29.986  1.00  0.00     0.031 A 
ATOM     39  C   UNL A   1      39.416  29.388  29.382  1.00  0.00     0.074 A 
ATOM     40  C   UNL A   1      38.616  30.835  31.207  1.00  0.00     0.049 A 
ATOM     41  N   UNL A   1      40.447  28.811  29.951  1.00  0.00    -0.248 NA
ATOM     42  C   UNL A   1      39.257  29.057  27.958  1.00  0.00     0.031 C 
ATOM     43  C   UNL A   1      37.732  31.767  31.910  1.00  0.00     0.029 A 
ATOM     44  N   UNL A   1      39.658  30.650  32.084  1.00  0.00    -0.354 N 
ATOM     45  C   UNL A   1      41.023  28.005  28.975  1.00  0.00     0.074 A 
ATOM     46  C   UNL A   1      40.227  28.169  27.775  1.00  0.00     0.031 C 
ATOM     47  C   UNL A   1      38.279  32.098  33.086  1.00  0.00     0.029 A 
ATOM     48  C   UNL A   1      39.491  31.315  33.274  1.00  0.00     0.049 A 
ATOM     49  H   UNL A   1      40.446  30.095  31.880  1.00  0.00     0.167 HD
ATOM     50  C   UNL A   1      42.111  27.202  29.079  1.00  0.00     0.037 A 
ATOM     51  C   UNL A   1      40.189  31.259  34.424  1.00  0.00     0.037 A 
ATOM     52  C   UNL A   1      42.935  27.093  30.258  1.00  0.00     0.049 A 
ATOM     53  C   UNL A   1      41.362  30.334  34.528  1.00  0.00     0.074 A 
ATOM     54  C   UNL A   1      44.082  26.336  30.444  1.00  0.00     0.029 A 
ATOM     55  N   UNL A   1      42.712  27.769  31.448  1.00  0.00    -0.354 N 
ATOM     56  N   UNL A   1      41.864  29.533  33.620  1.00  0.00    -0.248 NA
ATOM     57  C   UNL A   1      42.052  30.288  35.822  1.00  0.00     0.031 C 
ATOM     58  C   UNL A   1      44.527  26.523  31.757  1.00  0.00     0.029 A 
ATOM     59  C   UNL A   1      43.686  27.432  32.377  1.00  0.00     0.049 A 
ATOM     60  H   UNL A   1      41.971  28.395  31.611  1.00  0.00     0.167 HD
ATOM     61  C   UNL A   1      42.932  28.893  34.230  1.00  0.00     0.074 A 
ATOM     62  C   UNL A   1      43.020  29.415  35.578  1.00  0.00     0.031 C 
ATOM     63  C   UNL A   1      43.761  27.952  33.717  1.00  0.00     0.037 A 
BRANCH  50  64
ATOM     64  C   UNL A   1      42.474  26.347  27.898  1.00  0.00     0.064 A 
ATOM     65  C   UNL A   1      41.892  25.091  27.681  1.00  0.00     0.173 A 
ATOM     66  C   UNL A   1      43.362  26.835  26.925  1.00  0.00     0.173 A 
ATOM     67  F   UNL A   1      41.040  24.577  28.580  1.00  0.00    -0.203 F 
ATOM     68  C   UNL A   1      42.200  24.345  26.544  1.00  0.00     0.198 A 
ATOM     69  C   UNL A   1      43.647  26.099  25.777  1.00  0.00     0.198 A 
ATOM     70  F   UNL A   1      43.937  28.037  27.076  1.00  0.00    -0.203 F 
ATOM     71  F   UNL A   1      41.656  23.133  26.372  1.00  0.00    -0.200 F 
ATOM     72  C   UNL A   1      43.070  24.853  25.590  1.00  0.00     0.200 A 
ATOM     73  F   UNL A   1      44.474  26.600  24.849  1.00  0.00    -0.200 F 
ATOM     74  F   UNL A   1      43.352  24.141  24.490  1.00  0.00    -0.200 F 
ENDBRANCH  50  64
BRANCH  51  75
ATOM     75  C   UNL A   1      39.746  32.074  35.584  1.00  0.00     0.064 A 
ATOM     76  C   UNL A   1      40.256  33.360  35.794  1.00  0.00     0.173 A 
ATOM     77  C   UNL A   1      38.779  31.597  36.483  1.00  0.00     0.173 A 
ATOM     78  F   UNL A   1      41.200  33.848  34.976  1.00  0.00    -0.203 F 
ATOM     79  C   UNL A   1      39.817  34.141  36.862  1.00  0.00     0.198 A 
ATOM     80  C   UNL A   1      38.317  32.389  37.529  1.00  0.00     0.198 A 
ATOM     81  F   UNL A   1      38.258  30.371  36.321  1.00  0.00    -0.203 F 
ATOM     82  F   UNL A   1      40.343  35.356  37.062  1.00  0.00    -0.200 F 
ATOM     83  C   UNL A   1      38.840  33.658  37.721  1.00  0.00     0.200 A 
ATOM     84  F   UNL A   1      37.360  31.927  38.344  1.00  0.00    -0.200 F 
ATOM     85  F   UNL A   1      38.405  34.417  38.737  1.00  0.00    -0.200 F 
ENDBRANCH  51  75
BRANCH  63  86
ATOM     86  C   UNL A   1      44.850  27.449  34.616  1.00  0.00     0.064 A 
ATOM     87  C   UNL A   1      46.104  28.074  34.670  1.00  0.00     0.173 A 
ATOM     88  C   UNL A   1      44.635  26.332  35.437  1.00  0.00     0.173 A 
ATOM     89  F   UNL A   1      46.364  29.133  33.887  1.00  0.00    -0.203 F 
ATOM     90  C   UNL A   1      47.114  27.584  35.494  1.00  0.00     0.198 A 
ATOM     91  C   UNL A   1      45.638  25.860  36.280  1.00  0.00     0.198 A 
ATOM     92  F   UNL A   1      43.452  25.700  35.424  1.00  0.00    -0.203 F 
ATOM     93  F   UNL A   1      48.320  28.166  35.490  1.00  0.00    -0.200 F 
ATOM     94  C   UNL A   1      46.878  26.481  36.301  1.00  0.00     0.200 A 
ATOM     95  F   UNL A   1      45.407  24.799  37.064  1.00  0.00    -0.200 F 
ATOM     96  F   UNL A   1      47.851  26.008  37.092  1.00  0.00    -0.200 F 
ENDBRANCH  63  86
ENDBRANCH  37  38
ENDBRANCH  30  32
ENDBRANCH  29  30
ENDBRANCH  28  29
ENDBRANCH  27  28
ENDBRANCH   1  27
TORSDOF 17
ENDMDL
