MODEL 1
REMARK VINA RESULT:     -12.8      0.000      0.000
REMARK SMILES C[C@H](Oc1ccc(-c2ccccc2)cc1)C(=O)N[C@H](C)C(=O)OCCOC(=O)c1ccc(-c2c3nc(c(-c4c(F)c(F)c(F)c(F)c4F)c4ccc([nH]4)c(-c4c(F)c(F)c(F)c(F)c4F)c4nc(c(-c5c(F)c(F)c(F)c(F)c5F)c5ccc2[nH]5)C=C4)C=C3)cc1
REMARK SMILES IDX 23 1 21 2 22 3 19 4 20 5 18 6 16 7 17 8 2 10 1 11 3 12 4 13
REMARK SMILES IDX 5 14 15 15 6 16 14 17 7 18 8 19 9 20 13 21 10 22 12 23 11 24
REMARK SMILES IDX 24 25 25 26 26 27 27 28 28 29 29 30 30 31 91 32 31 33 90 34
REMARK SMILES IDX 32 35 33 36 34 37 84 38 35 39 89 40 83 41 85 42 36 43 88 44
REMARK SMILES IDX 82 45 81 46 37 48 69 49 49 50 68 51 50 52 53 53 67 54 86 55
REMARK SMILES IDX 51 56 52 57 66 59 87 60 54 61 38 62 39 63 47 64 40 65 41 66
REMARK SMILES IDX 45 67 48 68 42 69 43 70 46 71 44 72 70 73 71 74 79 75 72 76
REMARK SMILES IDX 73 77 77 78 80 79 74 80 75 81 78 82 76 83 55 84 56 85 64 86
REMARK SMILES IDX 57 87 58 88 62 89 65 90 59 91 60 92 63 93 61 94
REMARK H PARENT 18 9 85 47 53 58
REMARK Flexibility Score: inf
ROOT
ATOM      1  O   UNL A   1      30.633  29.622  23.965  1.00  0.00    -0.461 OA
ENDROOT
BRANCH   1   2
ATOM      2  C   UNL A   1      30.414  28.864  22.865  1.00  0.00     0.328 C 
ATOM      3  O   UNL A   1      29.912  29.278  21.825  1.00  0.00    -0.250 OA
BRANCH   2   4
ATOM      4  C   UNL A   1      30.806  27.387  23.074  1.00  0.00     0.189 C 
ATOM      5  C   UNL A   1      29.683  26.416  23.391  1.00  0.00     0.043 C 
BRANCH   4   6
ATOM      6  N   UNL A   1      31.765  26.934  22.058  1.00  0.00    -0.340 N 
ATOM      7  C   UNL A   1      32.815  26.064  22.059  1.00  0.00     0.261 C 
ATOM      8  O   UNL A   1      33.357  25.859  20.967  1.00  0.00    -0.271 OA
ATOM      9  H   UNL A   1      31.615  27.350  21.179  1.00  0.00     0.164 HD
BRANCH   7  10
ATOM     10  C   UNL A   1      33.305  25.319  23.319  1.00  0.00     0.258 C 
ATOM     11  C   UNL A   1      33.971  26.326  24.252  1.00  0.00     0.064 C 
BRANCH  10  12
ATOM     12  O   UNL A   1      34.034  24.177  22.871  1.00  0.00    -0.481 OA
BRANCH  12  13
ATOM     13  C   UNL A   1      34.010  22.957  23.473  1.00  0.00     0.120 A 
ATOM     14  C   UNL A   1      35.009  22.377  24.237  1.00  0.00     0.047 A 
ATOM     15  C   UNL A   1      32.858  22.212  23.200  1.00  0.00     0.047 A 
ATOM     16  C   UNL A   1      34.910  21.030  24.617  1.00  0.00     0.012 A 
ATOM     17  C   UNL A   1      32.747  20.876  23.599  1.00  0.00     0.012 A 
ATOM     18  C   UNL A   1      33.788  20.247  24.293  1.00  0.00    -0.018 A 
BRANCH  18  19
ATOM     19  C   UNL A   1      33.722  18.820  24.665  1.00  0.00    -0.018 A 
ATOM     20  C   UNL A   1      32.641  18.319  25.412  1.00  0.00     0.009 A 
ATOM     21  C   UNL A   1      34.741  17.918  24.309  1.00  0.00     0.009 A 
ATOM     22  C   UNL A   1      32.584  16.978  25.798  1.00  0.00     0.001 A 
ATOM     23  C   UNL A   1      34.683  16.573  24.689  1.00  0.00     0.001 A 
ATOM     24  C   UNL A   1      33.606  16.105  25.437  1.00  0.00     0.000 A 
ENDBRANCH  18  19
ENDBRANCH  12  13
ENDBRANCH  10  12
ENDBRANCH   7  10
ENDBRANCH   4   6
ENDBRANCH   2   4
ENDBRANCH   1   2
BRANCH   1  25
ATOM     25  C   UNL A   1      31.406  29.044  25.037  1.00  0.00     0.274 C 
BRANCH  25  26
ATOM     26  C   UNL A   1      32.604  29.947  25.330  1.00  0.00     0.275 C 
BRANCH  26  27
ATOM     27  O   UNL A   1      32.766  30.069  26.756  1.00  0.00    -0.458 OA
BRANCH  27  28
ATOM     28  C   UNL A   1      33.320  31.236  27.156  1.00  0.00     0.338 C 
ATOM     29  O   UNL A   1      32.810  32.340  27.198  1.00  0.00    -0.246 OA
BRANCH  28  30
ATOM     30  C   UNL A   1      34.643  30.956  27.721  1.00  0.00     0.060 A 
ATOM     31  C   UNL A   1      34.923  29.646  28.113  1.00  0.00     0.016 A 
ATOM     32  C   UNL A   1      35.551  31.984  27.954  1.00  0.00     0.016 A 
ATOM     33  C   UNL A   1      36.082  29.365  28.822  1.00  0.00     0.010 A 
ATOM     34  C   UNL A   1      36.747  31.689  28.610  1.00  0.00     0.010 A 
ATOM     35  C   UNL A   1      37.004  30.386  29.074  1.00  0.00    -0.014 A 
BRANCH  35  36
ATOM     36  C   UNL A   1      38.226  30.091  29.854  1.00  0.00     0.031 A 
ATOM     37  C   UNL A   1      39.279  29.193  29.277  1.00  0.00     0.074 A 
ATOM     38  C   UNL A   1      38.387  30.644  31.070  1.00  0.00     0.049 A 
ATOM     39  N   UNL A   1      40.351  28.702  29.843  1.00  0.00    -0.248 NA
ATOM     40  C   UNL A   1      39.097  28.785  27.875  1.00  0.00     0.031 C 
ATOM     41  C   UNL A   1      37.458  31.582  31.701  1.00  0.00     0.029 A 
ATOM     42  N   UNL A   1      39.391  30.497  31.991  1.00  0.00    -0.354 N 
ATOM     43  C   UNL A   1      40.950  27.901  28.882  1.00  0.00     0.074 A 
ATOM     44  C   UNL A   1      40.120  27.963  27.698  1.00  0.00     0.031 C 
ATOM     45  C   UNL A   1      37.941  31.937  32.902  1.00  0.00     0.029 A 
ATOM     46  C   UNL A   1      39.175  31.200  33.150  1.00  0.00     0.049 A 
ATOM     47  H   UNL A   1      40.189  29.940  31.837  1.00  0.00     0.167 HD
ATOM     48  C   UNL A   1      42.092  27.178  28.986  1.00  0.00     0.037 A 
ATOM     49  C   UNL A   1      39.877  31.215  34.298  1.00  0.00     0.037 A 
ATOM     50  C   UNL A   1      42.921  27.149  30.162  1.00  0.00     0.049 A 
ATOM     51  C   UNL A   1      41.104  30.354  34.408  1.00  0.00     0.074 A 
ATOM     52  C   UNL A   1      44.106  26.466  30.369  1.00  0.00     0.029 A 
ATOM     53  N   UNL A   1      42.650  27.843  31.334  1.00  0.00    -0.354 N 
ATOM     54  N   UNL A   1      41.654  29.577  33.507  1.00  0.00    -0.248 NA
ATOM     55  C   UNL A   1      41.798  30.359  35.703  1.00  0.00     0.031 C 
ATOM     56  C   UNL A   1      44.530  26.713  31.680  1.00  0.00     0.029 A 
ATOM     57  C   UNL A   1      43.632  27.586  32.275  1.00  0.00     0.049 A 
ATOM     58  H   UNL A   1      41.872  28.431  31.475  1.00  0.00     0.167 HD
ATOM     59  C   UNL A   1      42.769  29.018  34.113  1.00  0.00     0.074 A 
ATOM     60  C   UNL A   1      42.823  29.555  35.459  1.00  0.00     0.031 C 
ATOM     61  C   UNL A   1      43.667  28.139  33.606  1.00  0.00     0.037 A 
BRANCH  48  62
ATOM     62  C   UNL A   1      42.482  26.331  27.812  1.00  0.00     0.064 A 
ATOM     63  C   UNL A   1      43.408  26.768  26.855  1.00  0.00     0.173 A 
ATOM     64  C   UNL A   1      41.923  25.053  27.650  1.00  0.00     0.173 A 
ATOM     65  F   UNL A   1      43.959  27.987  26.954  1.00  0.00    -0.203 F 
ATOM     66  C   UNL A   1      43.741  25.969  25.763  1.00  0.00     0.198 A 
ATOM     67  C   UNL A   1      42.278  24.247  26.572  1.00  0.00     0.198 A 
ATOM     68  F   UNL A   1      41.031  24.586  28.537  1.00  0.00    -0.203 F 
ATOM     69  F   UNL A   1      44.592  26.426  24.834  1.00  0.00    -0.200 F 
ATOM     70  C   UNL A   1      43.180  24.707  25.625  1.00  0.00     0.200 A 
ATOM     71  F   UNL A   1      41.740  23.026  26.443  1.00  0.00    -0.200 F 
ATOM     72  F   UNL A   1      43.500  23.941  24.574  1.00  0.00    -0.200 F 
ENDBRANCH  48  62
BRANCH  49  73
ATOM     73  C   UNL A   1      39.423  32.056  35.433  1.00  0.00     0.064 A 
ATOM     74  C   UNL A   1      38.537  31.550  36.393  1.00  0.00     0.173 A 
ATOM     75  C   UNL A   1      39.868  33.378  35.588  1.00  0.00     0.173 A 
ATOM     76  F   UNL A   1      38.066  30.299  36.275  1.00  0.00    -0.203 F 
ATOM     77  C   UNL A   1      38.106  32.336  37.460  1.00  0.00     0.198 A 
ATOM     78  C   UNL A   1      39.458  34.154  36.669  1.00  0.00     0.198 A 
ATOM     79  F   UNL A   1      40.718  33.909  34.696  1.00  0.00    -0.203 F 
ATOM     80  F   UNL A   1      37.230  31.839  38.343  1.00  0.00    -0.200 F 
ATOM     81  C   UNL A   1      38.572  33.635  37.601  1.00  0.00     0.200 A 
ATOM     82  F   UNL A   1      39.921  35.403  36.808  1.00  0.00    -0.200 F 
ATOM     83  F   UNL A   1      38.162  34.387  38.630  1.00  0.00    -0.200 F 
ENDBRANCH  49  73
BRANCH  61  84
ATOM     84  C   UNL A   1      44.801  27.733  34.499  1.00  0.00     0.064 A 
ATOM     85  C   UNL A   1      46.003  28.454  34.532  1.00  0.00     0.173 A 
ATOM     86  C   UNL A   1      44.670  26.627  35.351  1.00  0.00     0.173 A 
ATOM     87  F   UNL A   1      46.180  29.508  33.721  1.00  0.00    -0.203 F 
ATOM     88  C   UNL A   1      47.042  28.068  35.373  1.00  0.00     0.198 A 
ATOM     89  C   UNL A   1      45.702  26.261  36.209  1.00  0.00     0.198 A 
ATOM     90  F   UNL A   1      43.537  25.908  35.358  1.00  0.00    -0.203 F 
ATOM     91  F   UNL A   1      48.200  28.744  35.357  1.00  0.00    -0.200 F 
ATOM     92  C   UNL A   1      46.889  26.977  36.214  1.00  0.00     0.200 A 
ATOM     93  F   UNL A   1      45.548  25.212  37.030  1.00  0.00    -0.200 F 
ATOM     94  F   UNL A   1      47.890  26.610  37.026  1.00  0.00    -0.200 F 
ENDBRANCH  61  84
ENDBRANCH  35  36
ENDBRANCH  28  30
ENDBRANCH  27  28
ENDBRANCH  26  27
ENDBRANCH  25  26
ENDBRANCH   1  25
TORSDOF 16
ENDMDL
MODEL 2
REMARK VINA RESULT:     -12.8      0.887      1.893
REMARK SMILES C[C@H](Oc1ccc(-c2ccccc2)cc1)C(=O)N[C@H](C)C(=O)OCCOC(=O)c1ccc(-c2c3nc(c(-c4c(F)c(F)c(F)c(F)c4F)c4ccc([nH]4)c(-c4c(F)c(F)c(F)c(F)c4F)c4nc(c(-c5c(F)c(F)c(F)c(F)c5F)c5ccc2[nH]5)C=C4)C=C3)cc1
REMARK SMILES IDX 23 1 21 2 22 3 19 4 20 5 18 6 16 7 17 8 2 10 1 11 3 12 4 13
REMARK SMILES IDX 5 14 15 15 6 16 14 17 7 18 8 19 9 20 13 21 10 22 12 23 11 24
REMARK SMILES IDX 24 25 25 26 26 27 27 28 28 29 29 30 30 31 91 32 31 33 90 34
REMARK SMILES IDX 32 35 33 36 34 37 84 38 35 39 89 40 83 41 85 42 36 43 88 44
REMARK SMILES IDX 82 45 81 46 37 48 69 49 49 50 68 51 50 52 53 53 67 54 86 55
REMARK SMILES IDX 51 56 52 57 66 59 87 60 54 61 38 62 39 63 47 64 40 65 41 66
REMARK SMILES IDX 45 67 48 68 42 69 43 70 46 71 44 72 70 73 71 74 79 75 72 76
REMARK SMILES IDX 73 77 77 78 80 79 74 80 75 81 78 82 76 83 55 84 56 85 64 86
REMARK SMILES IDX 57 87 58 88 62 89 65 90 59 91 60 92 63 93 61 94
REMARK H PARENT 18 9 85 47 53 58
REMARK Flexibility Score: inf
ROOT
ATOM      1  O   UNL A   1      31.641  28.966  24.974  1.00  0.00    -0.461 OA
ENDROOT
BRANCH   1   2
ATOM      2  C   UNL A   1      32.211  28.655  23.786  1.00  0.00     0.328 C 
ATOM      3  O   UNL A   1      33.314  29.050  23.421  1.00  0.00    -0.250 OA
BRANCH   2   4
ATOM      4  C   UNL A   1      31.295  27.793  22.895  1.00  0.00     0.189 C 
ATOM      5  C   UNL A   1      30.026  28.447  22.378  1.00  0.00     0.043 C 
BRANCH   4   6
ATOM      6  N   UNL A   1      32.066  27.037  21.899  1.00  0.00    -0.340 N 
ATOM      7  C   UNL A   1      32.735  25.849  21.913  1.00  0.00     0.261 C 
ATOM      8  O   UNL A   1      33.209  25.475  20.834  1.00  0.00    -0.271 OA
ATOM      9  H   UNL A   1      32.108  27.489  21.025  1.00  0.00     0.164 HD
BRANCH   7  10
ATOM     10  C   UNL A   1      32.878  24.964  23.170  1.00  0.00     0.258 C 
ATOM     11  C   UNL A   1      34.318  24.466  23.253  1.00  0.00     0.064 C 
BRANCH  10  12
ATOM     12  O   UNL A   1      31.804  24.026  23.145  1.00  0.00    -0.481 OA
BRANCH  12  13
ATOM     13  C   UNL A   1      31.898  22.729  23.545  1.00  0.00     0.120 A 
ATOM     14  C   UNL A   1      31.939  22.250  24.844  1.00  0.00     0.047 A 
ATOM     15  C   UNL A   1      32.042  21.819  22.491  1.00  0.00     0.047 A 
ATOM     16  C   UNL A   1      32.242  20.903  25.087  1.00  0.00     0.012 A 
ATOM     17  C   UNL A   1      32.320  20.469  22.733  1.00  0.00     0.012 A 
ATOM     18  C   UNL A   1      32.456  19.989  24.041  1.00  0.00    -0.018 A 
BRANCH  18  19
ATOM     19  C   UNL A   1      32.816  18.584  24.318  1.00  0.00    -0.018 A 
ATOM     20  C   UNL A   1      33.416  17.785  23.329  1.00  0.00     0.009 A 
ATOM     21  C   UNL A   1      32.553  17.989  25.565  1.00  0.00     0.009 A 
ATOM     22  C   UNL A   1      33.731  16.446  23.569  1.00  0.00     0.001 A 
ATOM     23  C   UNL A   1      32.873  16.649  25.810  1.00  0.00     0.001 A 
ATOM     24  C   UNL A   1      33.458  15.878  24.810  1.00  0.00     0.000 A 
ENDBRANCH  18  19
ENDBRANCH  12  13
ENDBRANCH  10  12
ENDBRANCH   7  10
ENDBRANCH   4   6
ENDBRANCH   2   4
ENDBRANCH   1   2
BRANCH   1  25
ATOM     25  C   UNL A   1      31.238  30.335  25.187  1.00  0.00     0.274 C 
BRANCH  25  26
ATOM     26  C   UNL A   1      31.683  30.774  26.582  1.00  0.00     0.275 C 
BRANCH  26  27
ATOM     27  O   UNL A   1      33.121  30.799  26.633  1.00  0.00    -0.458 OA
BRANCH  27  28
ATOM     28  C   UNL A   1      33.637  31.853  27.305  1.00  0.00     0.338 C 
ATOM     29  O   UNL A   1      33.113  32.924  27.548  1.00  0.00    -0.246 OA
BRANCH  28  30
ATOM     30  C   UNL A   1      34.925  31.457  27.880  1.00  0.00     0.060 A 
ATOM     31  C   UNL A   1      35.055  30.153  28.360  1.00  0.00     0.016 A 
ATOM     32  C   UNL A   1      35.952  32.383  28.036  1.00  0.00     0.016 A 
ATOM     33  C   UNL A   1      36.182  29.785  29.079  1.00  0.00     0.010 A 
ATOM     34  C   UNL A   1      37.114  31.993  28.704  1.00  0.00     0.010 A 
ATOM     35  C   UNL A   1      37.222  30.703  29.254  1.00  0.00    -0.014 A 
BRANCH  35  36
ATOM     36  C   UNL A   1      38.411  30.319  30.046  1.00  0.00     0.031 A 
ATOM     37  C   UNL A   1      39.439  29.405  29.448  1.00  0.00     0.074 A 
ATOM     38  C   UNL A   1      38.566  30.805  31.291  1.00  0.00     0.049 A 
ATOM     39  N   UNL A   1      40.476  28.843  30.013  1.00  0.00    -0.248 NA
ATOM     40  C   UNL A   1      39.274  29.074  28.024  1.00  0.00     0.031 C 
ATOM     41  C   UNL A   1      37.662  31.750  31.947  1.00  0.00     0.029 A 
ATOM     42  N   UNL A   1      39.541  30.570  32.226  1.00  0.00    -0.354 N 
ATOM     43  C   UNL A   1      41.064  28.063  29.026  1.00  0.00     0.074 A 
ATOM     44  C   UNL A   1      40.266  28.218  27.829  1.00  0.00     0.031 C 
ATOM     45  C   UNL A   1      38.131  32.025  33.175  1.00  0.00     0.029 A 
ATOM     46  C   UNL A   1      39.327  31.224  33.412  1.00  0.00     0.049 A 
ATOM     47  H   UNL A   1      40.318  29.988  32.061  1.00  0.00     0.167 HD
ATOM     48  C   UNL A   1      42.172  27.288  29.120  1.00  0.00     0.037 A 
ATOM     49  C   UNL A   1      40.001  31.154  34.575  1.00  0.00     0.037 A 
ATOM     50  C   UNL A   1      42.971  27.167  30.310  1.00  0.00     0.049 A 
ATOM     51  C   UNL A   1      41.188  30.237  34.669  1.00  0.00     0.074 A 
ATOM     52  C   UNL A   1      44.121  26.425  30.509  1.00  0.00     0.029 A 
ATOM     53  N   UNL A   1      42.701  27.814  31.509  1.00  0.00    -0.354 N 
ATOM     54  N   UNL A   1      41.726  29.482  33.743  1.00  0.00    -0.248 NA
ATOM     55  C   UNL A   1      41.850  30.149  35.977  1.00  0.00     0.031 C 
ATOM     56  C   UNL A   1      44.523  26.590  31.839  1.00  0.00     0.029 A 
ATOM     57  C   UNL A   1      43.649  27.470  32.457  1.00  0.00     0.049 A 
ATOM     58  H   UNL A   1      41.945  28.427  31.661  1.00  0.00     0.167 HD
ATOM     59  C   UNL A   1      42.802  28.847  34.345  1.00  0.00     0.074 A 
ATOM     60  C   UNL A   1      42.847  29.315  35.716  1.00  0.00     0.031 C 
ATOM     61  C   UNL A   1      43.675  27.956  33.814  1.00  0.00     0.037 A 
BRANCH  48  62
ATOM     62  C   UNL A   1      42.554  26.483  27.914  1.00  0.00     0.064 A 
ATOM     63  C   UNL A   1      43.473  26.955  26.966  1.00  0.00     0.173 A 
ATOM     64  C   UNL A   1      41.995  25.211  27.711  1.00  0.00     0.173 A 
ATOM     65  F   UNL A   1      44.023  28.170  27.103  1.00  0.00    -0.203 F 
ATOM     66  C   UNL A   1      43.799  26.195  25.844  1.00  0.00     0.198 A 
ATOM     67  C   UNL A   1      42.343  24.444  26.603  1.00  0.00     0.198 A 
ATOM     68  F   UNL A   1      41.111  24.713  28.588  1.00  0.00    -0.203 F 
ATOM     69  F   UNL A   1      44.642  26.686  24.925  1.00  0.00    -0.200 F 
ATOM     70  C   UNL A   1      43.238  24.938  25.666  1.00  0.00     0.200 A 
ATOM     71  F   UNL A   1      41.806  23.227  26.436  1.00  0.00    -0.200 F 
ATOM     72  F   UNL A   1      43.551  24.210  24.587  1.00  0.00    -0.200 F 
ENDBRANCH  48  62
BRANCH  49  73
ATOM     73  C   UNL A   1      39.555  31.958  35.740  1.00  0.00     0.064 A 
ATOM     74  C   UNL A   1      40.132  33.205  36.015  1.00  0.00     0.173 A 
ATOM     75  C   UNL A   1      38.541  31.504  36.596  1.00  0.00     0.173 A 
ATOM     76  F   UNL A   1      41.122  33.671  35.238  1.00  0.00    -0.203 F 
ATOM     77  C   UNL A   1      39.719  33.963  37.108  1.00  0.00     0.198 A 
ATOM     78  C   UNL A   1      38.109  32.275  37.672  1.00  0.00     0.198 A 
ATOM     79  F   UNL A   1      37.956  30.317  36.375  1.00  0.00    -0.203 F 
ATOM     80  F   UNL A   1      40.313  35.135  37.371  1.00  0.00    -0.200 F 
ATOM     81  C   UNL A   1      38.702  33.501  37.932  1.00  0.00     0.200 A 
ATOM     82  F   UNL A   1      37.119  31.831  38.458  1.00  0.00    -0.200 F 
ATOM     83  F   UNL A   1      38.301  34.234  38.979  1.00  0.00    -0.200 F 
ENDBRANCH  49  73
BRANCH  61  84
ATOM     84  C   UNL A   1      44.769  27.459  34.711  1.00  0.00     0.064 A 
ATOM     85  C   UNL A   1      44.625  26.286  35.465  1.00  0.00     0.173 A 
ATOM     86  C   UNL A   1      45.987  28.151  34.792  1.00  0.00     0.173 A 
ATOM     87  F   UNL A   1      43.472  25.601  35.434  1.00  0.00    -0.203 F 
ATOM     88  C   UNL A   1      45.654  25.836  36.285  1.00  0.00     0.198 A 
ATOM     89  C   UNL A   1      47.023  27.683  35.593  1.00  0.00     0.198 A 
ATOM     90  F   UNL A   1      46.173  29.277  34.085  1.00  0.00    -0.203 F 
ATOM     91  F   UNL A   1      45.480  24.737  37.034  1.00  0.00    -0.200 F 
ATOM     92  C   UNL A   1      46.853  26.530  36.345  1.00  0.00     0.200 A 
ATOM     93  F   UNL A   1      48.184  28.350  35.641  1.00  0.00    -0.200 F 
ATOM     94  F   UNL A   1      47.845  26.092  37.132  1.00  0.00    -0.200 F 
ENDBRANCH  61  84
ENDBRANCH  35  36
ENDBRANCH  28  30
ENDBRANCH  27  28
ENDBRANCH  26  27
ENDBRANCH  25  26
ENDBRANCH   1  25
TORSDOF 16
ENDMDL
MODEL 3
REMARK VINA RESULT:     -12.7      1.923      4.502
REMARK SMILES C[C@H](Oc1ccc(-c2ccccc2)cc1)C(=O)N[C@H](C)C(=O)OCCOC(=O)c1ccc(-c2c3nc(c(-c4c(F)c(F)c(F)c(F)c4F)c4ccc([nH]4)c(-c4c(F)c(F)c(F)c(F)c4F)c4nc(c(-c5c(F)c(F)c(F)c(F)c5F)c5ccc2[nH]5)C=C4)C=C3)cc1
REMARK SMILES IDX 23 1 21 2 22 3 19 4 20 5 18 6 16 7 17 8 2 10 1 11 3 12 4 13
REMARK SMILES IDX 5 14 15 15 6 16 14 17 7 18 8 19 9 20 13 21 10 22 12 23 11 24
REMARK SMILES IDX 24 25 25 26 26 27 27 28 28 29 29 30 30 31 91 32 31 33 90 34
REMARK SMILES IDX 32 35 33 36 34 37 84 38 35 39 89 40 83 41 85 42 36 43 88 44
REMARK SMILES IDX 82 45 81 46 37 48 69 49 49 50 68 51 50 52 53 53 67 54 86 55
REMARK SMILES IDX 51 56 52 57 66 59 87 60 54 61 38 62 39 63 47 64 40 65 41 66
REMARK SMILES IDX 45 67 48 68 42 69 43 70 46 71 44 72 70 73 71 74 79 75 72 76
REMARK SMILES IDX 73 77 77 78 80 79 74 80 75 81 78 82 76 83 55 84 56 85 64 86
REMARK SMILES IDX 57 87 58 88 62 89 65 90 59 91 60 92 63 93 61 94
REMARK H PARENT 18 9 85 47 53 58
REMARK Flexibility Score: inf
ROOT
ATOM      1  O   UNL A   1      32.313  27.218  26.408  1.00  0.00    -0.461 OA
ENDROOT
BRANCH   1   2
ATOM      2  C   UNL A   1      31.425  26.228  26.151  1.00  0.00     0.328 C 
ATOM      3  O   UNL A   1      30.247  26.411  25.860  1.00  0.00    -0.250 OA
BRANCH   2   4
ATOM      4  C   UNL A   1      32.034  24.823  26.327  1.00  0.00     0.189 C 
ATOM      5  C   UNL A   1      31.287  23.665  25.689  1.00  0.00     0.043 C 
BRANCH   4   6
ATOM      6  N   UNL A   1      33.487  24.833  26.109  1.00  0.00    -0.340 N 
ATOM      7  C   UNL A   1      34.288  24.663  25.019  1.00  0.00     0.261 C 
ATOM      8  O   UNL A   1      35.501  24.828  25.200  1.00  0.00    -0.271 OA
ATOM      9  H   UNL A   1      33.996  25.001  26.935  1.00  0.00     0.164 HD
BRANCH   7  10
ATOM     10  C   UNL A   1      33.755  24.328  23.611  1.00  0.00     0.258 C 
ATOM     11  C   UNL A   1      34.386  23.017  23.150  1.00  0.00     0.064 C 
BRANCH  10  12
ATOM     12  O   UNL A   1      33.903  25.504  22.816  1.00  0.00    -0.481 OA
BRANCH  12  13
ATOM     13  C   UNL A   1      33.021  26.539  22.791  1.00  0.00     0.120 A 
ATOM     14  C   UNL A   1      33.275  27.868  23.086  1.00  0.00     0.047 A 
ATOM     15  C   UNL A   1      31.706  26.157  22.502  1.00  0.00     0.047 A 
ATOM     16  C   UNL A   1      32.214  28.776  23.211  1.00  0.00     0.012 A 
ATOM     17  C   UNL A   1      30.648  27.068  22.603  1.00  0.00     0.012 A 
ATOM     18  C   UNL A   1      30.879  28.393  22.990  1.00  0.00    -0.018 A 
BRANCH  18  19
ATOM     19  C   UNL A   1      29.772  29.353  23.167  1.00  0.00    -0.018 A 
ATOM     20  C   UNL A   1      28.467  29.034  22.751  1.00  0.00     0.009 A 
ATOM     21  C   UNL A   1      29.982  30.624  23.734  1.00  0.00     0.009 A 
ATOM     22  C   UNL A   1      27.418  29.947  22.884  1.00  0.00     0.001 A 
ATOM     23  C   UNL A   1      28.933  31.537  23.874  1.00  0.00     0.001 A 
ATOM     24  C   UNL A   1      27.652  31.199  23.445  1.00  0.00     0.000 A 
ENDBRANCH  18  19
ENDBRANCH  12  13
ENDBRANCH  10  12
ENDBRANCH   7  10
ENDBRANCH   4   6
ENDBRANCH   2   4
ENDBRANCH   1   2
BRANCH   1  25
ATOM     25  C   UNL A   1      31.955  28.199  27.403  1.00  0.00     0.274 C 
BRANCH  25  26
ATOM     26  C   UNL A   1      31.781  29.557  26.724  1.00  0.00     0.275 C 
BRANCH  26  27
ATOM     27  O   UNL A   1      33.077  30.083  26.380  1.00  0.00    -0.458 OA
BRANCH  27  28
ATOM     28  C   UNL A   1      33.453  31.158  27.109  1.00  0.00     0.338 C 
ATOM     29  O   UNL A   1      32.807  32.156  27.373  1.00  0.00    -0.246 OA
BRANCH  28  30
ATOM     30  C   UNL A   1      34.759  30.882  27.712  1.00  0.00     0.060 A 
ATOM     31  C   UNL A   1      35.022  29.577  28.134  1.00  0.00     0.016 A 
ATOM     32  C   UNL A   1      35.667  31.908  27.951  1.00  0.00     0.016 A 
ATOM     33  C   UNL A   1      36.160  29.302  28.877  1.00  0.00     0.010 A 
ATOM     34  C   UNL A   1      36.844  31.619  28.644  1.00  0.00     0.010 A 
ATOM     35  C   UNL A   1      37.082  30.322  29.135  1.00  0.00    -0.014 A 
BRANCH  35  36
ATOM     36  C   UNL A   1      38.281  30.034  29.952  1.00  0.00     0.031 A 
ATOM     37  C   UNL A   1      39.370  29.166  29.395  1.00  0.00     0.074 A 
ATOM     38  C   UNL A   1      38.390  30.566  31.183  1.00  0.00     0.049 A 
ATOM     39  N   UNL A   1      40.431  28.684  29.989  1.00  0.00    -0.248 NA
ATOM     40  C   UNL A   1      39.243  28.783  27.980  1.00  0.00     0.031 C 
ATOM     41  C   UNL A   1      37.423  31.475  31.799  1.00  0.00     0.029 A 
ATOM     42  N   UNL A   1      39.365  30.419  32.135  1.00  0.00    -0.354 N 
ATOM     43  C   UNL A   1      41.078  27.912  29.034  1.00  0.00     0.074 A 
ATOM     44  C   UNL A   1      40.288  27.982  27.823  1.00  0.00     0.031 C 
ATOM     45  C   UNL A   1      37.858  31.815  33.022  1.00  0.00     0.029 A 
ATOM     46  C   UNL A   1      39.097  31.095  33.298  1.00  0.00     0.049 A 
ATOM     47  H   UNL A   1      40.177  29.880  31.998  1.00  0.00     0.167 HD
ATOM     48  C   UNL A   1      42.228  27.208  29.164  1.00  0.00     0.037 A 
ATOM     49  C   UNL A   1      39.758  31.101  34.470  1.00  0.00     0.037 A 
ATOM     50  C   UNL A   1      43.017  27.172  30.367  1.00  0.00     0.049 A 
ATOM     51  C   UNL A   1      40.996  30.260  34.607  1.00  0.00     0.074 A 
ATOM     52  C   UNL A   1      44.206  26.506  30.602  1.00  0.00     0.029 A 
ATOM     53  N   UNL A   1      42.693  27.837  31.541  1.00  0.00    -0.354 N 
ATOM     54  N   UNL A   1      41.591  29.511  33.711  1.00  0.00    -0.248 NA
ATOM     55  C   UNL A   1      41.645  30.253  35.924  1.00  0.00     0.031 C 
ATOM     56  C   UNL A   1      44.581  26.735  31.931  1.00  0.00     0.029 A 
ATOM     57  C   UNL A   1      43.647  27.580  32.511  1.00  0.00     0.049 A 
ATOM     58  H   UNL A   1      41.900  28.409  31.666  1.00  0.00     0.167 HD
ATOM     59  C   UNL A   1      42.695  28.961  34.345  1.00  0.00     0.074 A 
ATOM     60  C   UNL A   1      42.693  29.472  35.701  1.00  0.00     0.031 C 
ATOM     61  C   UNL A   1      43.626  28.107  33.852  1.00  0.00     0.037 A 
BRANCH  48  62
ATOM     62  C   UNL A   1      42.674  26.391  27.988  1.00  0.00     0.064 A 
ATOM     63  C   UNL A   1      42.262  25.063  27.807  1.00  0.00     0.173 A 
ATOM     64  C   UNL A   1      43.522  26.953  27.021  1.00  0.00     0.173 A 
ATOM     65  F   UNL A   1      41.466  24.473  28.711  1.00  0.00    -0.203 F 
ATOM     66  C   UNL A   1      42.704  24.319  26.715  1.00  0.00     0.198 A 
ATOM     67  C   UNL A   1      43.941  26.215  25.917  1.00  0.00     0.198 A 
ATOM     68  F   UNL A   1      43.946  28.220  27.146  1.00  0.00    -0.203 F 
ATOM     69  F   UNL A   1      42.338  23.036  26.588  1.00  0.00    -0.200 F 
ATOM     70  C   UNL A   1      43.538  24.896  25.768  1.00  0.00     0.200 A 
ATOM     71  F   UNL A   1      44.741  26.776  25.001  1.00  0.00    -0.200 F 
ATOM     72  F   UNL A   1      43.963  24.178  24.721  1.00  0.00    -0.200 F 
ENDBRANCH  48  62
BRANCH  49  73
ATOM     73  C   UNL A   1      39.250  31.912  35.604  1.00  0.00     0.064 A 
ATOM     74  C   UNL A   1      39.609  33.260  35.742  1.00  0.00     0.173 A 
ATOM     75  C   UNL A   1      38.390  31.363  36.568  1.00  0.00     0.173 A 
ATOM     76  F   UNL A   1      40.447  33.822  34.858  1.00  0.00    -0.203 F 
ATOM     77  C   UNL A   1      39.136  34.025  36.806  1.00  0.00     0.198 A 
ATOM     78  C   UNL A   1      37.896  32.136  37.615  1.00  0.00     0.198 A 
ATOM     79  F   UNL A   1      38.015  30.078  36.480  1.00  0.00    -0.203 F 
ATOM     80  F   UNL A   1      39.524  35.300  36.935  1.00  0.00    -0.200 F 
ATOM     81  C   UNL A   1      38.274  33.465  37.738  1.00  0.00     0.200 A 
ATOM     82  F   UNL A   1      37.053  31.595  38.505  1.00  0.00    -0.200 F 
ATOM     83  F   UNL A   1      37.814  34.203  38.756  1.00  0.00    -0.200 F 
ENDBRANCH  49  73
BRANCH  61  84
ATOM     84  C   UNL A   1      44.736  27.705  34.776  1.00  0.00     0.064 A 
ATOM     85  C   UNL A   1      45.911  28.463  34.885  1.00  0.00     0.173 A 
ATOM     86  C   UNL A   1      44.608  26.564  35.581  1.00  0.00     0.173 A 
ATOM     87  F   UNL A   1      46.085  29.552  34.122  1.00  0.00    -0.203 F 
ATOM     88  C   UNL A   1      46.927  28.079  35.754  1.00  0.00     0.198 A 
ATOM     89  C   UNL A   1      45.617  26.198  36.468  1.00  0.00     0.198 A 
ATOM     90  F   UNL A   1      43.501  25.809  35.514  1.00  0.00    -0.203 F 
ATOM     91  F   UNL A   1      48.062  28.791  35.811  1.00  0.00    -0.200 F 
ATOM     92  C   UNL A   1      46.778  26.952  36.548  1.00  0.00     0.200 A 
ATOM     93  F   UNL A   1      45.465  25.115  37.242  1.00  0.00    -0.200 F 
ATOM     94  F   UNL A   1      47.757  26.587  37.387  1.00  0.00    -0.200 F 
ENDBRANCH  61  84
ENDBRANCH  35  36
ENDBRANCH  28  30
ENDBRANCH  27  28
ENDBRANCH  26  27
ENDBRANCH  25  26
ENDBRANCH   1  25
TORSDOF 16
ENDMDL
