MODEL 1
REMARK VINA RESULT:     -12.7      0.000      0.000
REMARK SMILES C/C(C(=O)OCCOC(=O)c1ccc(-c2c3nc(c(-c4c(F)c(F)c(F)c(F)c4F)c4ccc([nH]4)c(-c4c(F)c(F)c(F)c(F)c4F)c4nc(c(-c5c(F)c(F)c(F)c(F)c5F)c5ccc2[nH]5)C=C4)C=C3)cc1)=C(\C)c1ccc(C)c(F)c1
REMARK SMILES IDX 7 1 6 2 5 3 3 4 4 5 2 6 1 7 74 8 75 9 76 10 77 11 83 12
REMARK SMILES IDX 78 13 81 14 79 15 82 16 80 17 8 18 9 19 10 20 11 21 12 22
REMARK SMILES IDX 73 23 13 24 72 25 14 26 15 27 16 28 66 29 17 30 71 31 65 32
REMARK SMILES IDX 67 33 18 34 70 35 64 36 63 37 19 39 51 40 31 41 50 42 32 43
REMARK SMILES IDX 35 44 49 45 68 46 33 47 34 48 48 50 69 51 36 52 20 53 21 54
REMARK SMILES IDX 29 55 22 56 23 57 27 58 30 59 24 60 25 61 28 62 26 63 52 64
REMARK SMILES IDX 53 65 61 66 54 67 55 68 59 69 62 70 56 71 57 72 60 73 58 74
REMARK SMILES IDX 37 75 38 76 46 77 39 78 40 79 44 80 47 81 41 82 42 83 45 84
REMARK SMILES IDX 43 85
REMARK H PARENT 67 38 35 49
REMARK Flexibility Score: inf
ROOT
ATOM      1  C   UNL A   1      30.927  31.409  25.776  1.00  0.00     0.275 C 
ENDROOT
BRANCH   1   2
ATOM      2  C   UNL A   1      30.947  30.331  24.697  1.00  0.00     0.275 C 
BRANCH   2   3
ATOM      3  O   UNL A   1      29.881  30.578  23.751  1.00  0.00    -0.459 OA
BRANCH   3   4
ATOM      4  C   UNL A   1      29.706  29.633  22.795  1.00  0.00     0.334 C 
ATOM      5  O   UNL A   1      30.181  29.651  21.670  1.00  0.00    -0.247 OA
BRANCH   4   6
ATOM      6  C   UNL A   1      28.735  28.597  23.257  1.00  0.00     0.038 C 
ATOM      7  C   UNL A   1      27.319  29.035  23.013  1.00  0.00     0.052 C 
ATOM      8  C   UNL A   1      29.100  27.373  23.723  1.00  0.00    -0.034 C 
ATOM      9  C   UNL A   1      28.133  26.250  23.966  1.00  0.00     0.045 C 
BRANCH   8  10
ATOM     10  C   UNL A   1      30.523  27.001  23.906  1.00  0.00    -0.019 A 
ATOM     11  C   UNL A   1      31.094  26.932  25.580  1.00  0.00     0.009 A 
ATOM     12  C   UNL A   1      31.534  26.191  22.632  1.00  0.00     0.048 A 
ATOM     13  C   UNL A   1      32.562  26.077  26.085  1.00  0.00     0.007 A 
ATOM     14  C   UNL A   1      33.179  25.174  23.250  1.00  0.00     0.126 A 
ATOM     15  C   UNL A   1      33.605  25.203  24.984  1.00  0.00    -0.015 A 
ATOM     16  F   UNL A   1      34.071  24.409  22.558  1.00  0.00    -0.207 F 
ATOM     17  C   UNL A   1      34.932  24.654  25.387  1.00  0.00     0.047 C 
ENDBRANCH   8  10
ENDBRANCH   4   6
ENDBRANCH   3   4
ENDBRANCH   2   3
ENDBRANCH   1   2
BRANCH   1  18
ATOM     18  O   UNL A   1      32.104  31.241  26.583  1.00  0.00    -0.458 OA
BRANCH  18  19
ATOM     19  C   UNL A   1      32.526  32.365  27.196  1.00  0.00     0.338 C 
ATOM     20  O   UNL A   1      31.942  33.428  27.314  1.00  0.00    -0.246 OA
BRANCH  19  21
ATOM     21  C   UNL A   1      33.794  32.095  27.868  1.00  0.00     0.060 A 
ATOM     22  C   UNL A   1      35.022  33.393  28.036  1.00  0.00     0.016 A 
ATOM     23  C   UNL A   1      34.323  30.431  28.025  1.00  0.00     0.016 A 
ATOM     24  C   UNL A   1      36.947  32.845  28.355  1.00  0.00     0.010 A 
ATOM     25  C   UNL A   1      36.009  29.971  28.392  1.00  0.00     0.010 A 
ATOM     26  C   UNL A   1      37.356  31.114  28.602  1.00  0.00    -0.014 A 
BRANCH  26  27
ATOM     27  C   UNL A   1      38.594  30.725  29.452  1.00  0.00     0.031 A 
ATOM     28  C   UNL A   1      39.510  29.595  28.998  1.00  0.00     0.074 A 
ATOM     29  C   UNL A   1      38.836  31.212  30.705  1.00  0.00     0.049 A 
ATOM     30  N   UNL A   1      40.384  28.890  29.686  1.00  0.00    -0.248 NA
ATOM     31  C   UNL A   1      39.438  29.205  27.583  1.00  0.00     0.031 C 
ATOM     32  C   UNL A   1      38.205  32.348  31.364  1.00  0.00     0.029 A 
ATOM     33  N   UNL A   1      39.678  30.754  31.717  1.00  0.00    -0.354 N 
ATOM     34  C   UNL A   1      40.930  27.973  28.795  1.00  0.00     0.074 A 
ATOM     35  C   UNL A   1      40.205  28.125  27.551  1.00  0.00     0.031 C 
ATOM     36  C   UNL A   1      38.546  32.432  32.650  1.00  0.00     0.029 A 
ATOM     37  C   UNL A   1      39.479  31.377  32.939  1.00  0.00     0.049 A 
ATOM     38  H   UNL A   1      40.353  30.052  31.577  1.00  0.00     0.167 HD
ATOM     39  C   UNL A   1      41.991  27.139  28.951  1.00  0.00     0.037 A 
ATOM     40  C   UNL A   1      39.967  31.192  34.181  1.00  0.00     0.037 A 
ATOM     41  C   UNL A   1      42.784  27.031  30.149  1.00  0.00     0.049 A 
ATOM     42  C   UNL A   1      41.066  30.208  34.371  1.00  0.00     0.074 A 
ATOM     43  C   UNL A   1      43.928  26.277  30.365  1.00  0.00     0.029 A 
ATOM     44  N   UNL A   1      42.528  27.705  31.334  1.00  0.00    -0.354 N 
ATOM     45  N   UNL A   1      41.596  29.407  33.486  1.00  0.00    -0.248 NA
ATOM     46  C   UNL A   1      41.683  30.148  35.701  1.00  0.00     0.031 C 
ATOM     47  C   UNL A   1      44.337  26.462  31.690  1.00  0.00     0.029 A 
ATOM     48  C   UNL A   1      43.475  27.363  32.290  1.00  0.00     0.049 A 
ATOM     49  H   UNL A   1      41.785  28.335  31.476  1.00  0.00     0.167 HD
ATOM     50  C   UNL A   1      42.647  28.785  34.134  1.00  0.00     0.074 A 
ATOM     51  C   UNL A   1      42.682  29.307  35.484  1.00  0.00     0.031 C 
ATOM     52  C   UNL A   1      43.509  27.871  33.636  1.00  0.00     0.037 A 
BRANCH  39  53
ATOM     53  C   UNL A   1      42.403  26.311  27.759  1.00  0.00     0.064 A 
ATOM     54  C   UNL A   1      43.380  26.764  26.858  1.00  0.00     0.173 A 
ATOM     55  C   UNL A   1      41.841  25.047  27.527  1.00  0.00     0.173 A 
ATOM     56  F   UNL A   1      43.955  27.965  27.031  1.00  0.00    -0.203 F 
ATOM     57  C   UNL A   1      43.737  26.011  25.742  1.00  0.00     0.198 A 
ATOM     58  C   UNL A   1      42.228  24.279  26.429  1.00  0.00     0.198 A 
ATOM     59  F   UNL A   1      40.920  24.550  28.367  1.00  0.00    -0.203 F 
ATOM     60  F   UNL A   1      44.620  26.500  24.860  1.00  0.00    -0.200 F 
ATOM     61  C   UNL A   1      43.163  24.767  25.531  1.00  0.00     0.200 A 
ATOM     62  F   UNL A   1      41.687  23.067  26.236  1.00  0.00    -0.200 F 
ATOM     63  F   UNL A   1      43.507  24.043  24.456  1.00  0.00    -0.200 F 
ENDBRANCH  39  53
BRANCH  40  64
ATOM     64  C   UNL A   1      39.473  32.024  35.321  1.00  0.00     0.064 A 
ATOM     65  C   UNL A   1      38.566  31.508  36.259  1.00  0.00     0.173 A 
ATOM     66  C   UNL A   1      39.906  33.348  35.500  1.00  0.00     0.173 A 
ATOM     67  F   UNL A   1      38.123  30.248  36.137  1.00  0.00    -0.203 F 
ATOM     68  C   UNL A   1      38.079  32.294  37.303  1.00  0.00     0.198 A 
ATOM     69  C   UNL A   1      39.438  34.125  36.561  1.00  0.00     0.198 A 
ATOM     70  F   UNL A   1      40.795  33.886  34.652  1.00  0.00    -0.203 F 
ATOM     71  F   UNL A   1      37.173  31.789  38.151  1.00  0.00    -0.200 F 
ATOM     72  C   UNL A   1      38.515  33.601  37.454  1.00  0.00     0.200 A 
ATOM     73  F   UNL A   1      39.879  35.380  36.718  1.00  0.00    -0.200 F 
ATOM     74  F   UNL A   1      38.043  34.357  38.456  1.00  0.00    -0.200 F 
ENDBRANCH  40  64
BRANCH  52  75
ATOM     75  C   UNL A   1      44.581  27.389  34.560  1.00  0.00     0.064 A 
ATOM     76  C   UNL A   1      45.805  28.064  34.673  1.00  0.00     0.173 A 
ATOM     77  C   UNL A   1      44.383  26.242  35.341  1.00  0.00     0.173 A 
ATOM     78  F   UNL A   1      46.051  29.146  33.920  1.00  0.00    -0.203 F 
ATOM     79  C   UNL A   1      46.801  27.597  35.525  1.00  0.00     0.198 A 
ATOM     80  C   UNL A   1      45.368  25.797  36.216  1.00  0.00     0.198 A 
ATOM     81  F   UNL A   1      43.233  25.555  35.259  1.00  0.00    -0.203 F 
ATOM     82  F   UNL A   1      47.983  28.225  35.576  1.00  0.00    -0.200 F 
ATOM     83  C   UNL A   1      46.578  26.470  36.301  1.00  0.00     0.200 A 
ATOM     84  F   UNL A   1      45.150  24.713  36.973  1.00  0.00    -0.200 F 
ATOM     85  F   UNL A   1      47.535  26.027  37.128  1.00  0.00    -0.200 F 
ENDBRANCH  52  75
ENDBRANCH  26  27
ENDBRANCH  19  21
ENDBRANCH  18  19
ENDBRANCH   1  18
TORSDOF 12
ENDMDL
MODEL 2
REMARK VINA RESULT:     -12.5      4.945     10.937
REMARK SMILES C/C(C(=O)OCCOC(=O)c1ccc(-c2c3nc(c(-c4c(F)c(F)c(F)c(F)c4F)c4ccc([nH]4)c(-c4c(F)c(F)c(F)c(F)c4F)c4nc(c(-c5c(F)c(F)c(F)c(F)c5F)c5ccc2[nH]5)C=C4)C=C3)cc1)=C(\C)c1ccc(C)c(F)c1
REMARK SMILES IDX 7 1 6 2 5 3 3 4 4 5 2 6 1 7 74 8 75 9 76 10 77 11 83 12
REMARK SMILES IDX 78 13 81 14 79 15 82 16 80 17 8 18 9 19 10 20 11 21 12 22
REMARK SMILES IDX 73 23 13 24 72 25 14 26 15 27 16 28 66 29 17 30 71 31 65 32
REMARK SMILES IDX 67 33 18 34 70 35 64 36 63 37 19 39 51 40 31 41 50 42 32 43
REMARK SMILES IDX 35 44 49 45 68 46 33 47 34 48 48 50 69 51 36 52 20 53 21 54
REMARK SMILES IDX 29 55 22 56 23 57 27 58 30 59 24 60 25 61 28 62 26 63 52 64
REMARK SMILES IDX 53 65 61 66 54 67 55 68 59 69 62 70 56 71 57 72 60 73 58 74
REMARK SMILES IDX 37 75 38 76 46 77 39 78 40 79 44 80 47 81 41 82 42 83 45 84
REMARK SMILES IDX 43 85
REMARK H PARENT 67 38 35 49
REMARK Flexibility Score: inf
ROOT
ATOM      1  C   UNL A   1      46.143  23.442  24.353  1.00  0.00     0.275 C 
ENDROOT
BRANCH   1   2
ATOM      2  C   UNL A   1      47.086  24.464  24.980  1.00  0.00     0.275 C 
BRANCH   2   3
ATOM      3  O   UNL A   1      47.121  24.269  26.412  1.00  0.00    -0.459 OA
BRANCH   3   4
ATOM      4  C   UNL A   1      48.105  24.926  27.076  1.00  0.00     0.334 C 
ATOM      5  O   UNL A   1      49.174  24.453  27.428  1.00  0.00    -0.247 OA
BRANCH   4   6
ATOM      6  C   UNL A   1      47.657  26.302  27.443  1.00  0.00     0.038 C 
ATOM      7  C   UNL A   1      48.121  27.311  26.432  1.00  0.00     0.052 C 
ATOM      8  C   UNL A   1      46.834  26.574  28.491  1.00  0.00    -0.034 C 
ATOM      9  C   UNL A   1      46.195  27.913  28.724  1.00  0.00     0.045 C 
BRANCH   8  10
ATOM     10  C   UNL A   1      46.389  25.517  29.429  1.00  0.00    -0.019 A 
ATOM     11  C   UNL A   1      46.908  25.708  31.111  1.00  0.00     0.009 A 
ATOM     12  C   UNL A   1      45.030  24.361  29.089  1.00  0.00     0.048 A 
ATOM     13  C   UNL A   1      46.143  24.880  32.478  1.00  0.00     0.007 A 
ATOM     14  C   UNL A   1      44.138  23.470  30.681  1.00  0.00     0.126 A 
ATOM     15  C   UNL A   1      44.787  23.784  32.315  1.00  0.00    -0.015 A 
ATOM     16  F   UNL A   1      43.061  22.637  30.753  1.00  0.00    -0.207 F 
ATOM     17  C   UNL A   1      44.279  22.949  33.441  1.00  0.00     0.047 C 
ENDBRANCH   8  10
ENDBRANCH   4   6
ENDBRANCH   3   4
ENDBRANCH   2   3
ENDBRANCH   1   2
BRANCH   1  18
ATOM     18  O   UNL A   1      44.863  24.073  24.189  1.00  0.00    -0.458 OA
BRANCH  18  19
ATOM     19  C   UNL A   1      43.857  23.481  24.863  1.00  0.00     0.338 C 
ATOM     20  O   UNL A   1      43.427  22.347  24.740  1.00  0.00    -0.246 OA
BRANCH  19  21
ATOM     21  C   UNL A   1      43.405  24.373  25.928  1.00  0.00     0.060 A 
ATOM     22  C   UNL A   1      42.015  23.912  26.964  1.00  0.00     0.016 A 
ATOM     23  C   UNL A   1      43.853  26.066  25.850  1.00  0.00     0.016 A 
ATOM     24  C   UNL A   1      41.029  25.387  27.943  1.00  0.00     0.010 A 
ATOM     25  C   UNL A   1      43.026  27.341  26.788  1.00  0.00     0.010 A 
ATOM     26  C   UNL A   1      41.640  27.074  27.871  1.00  0.00    -0.014 A 
BRANCH  26  27
ATOM     27  C   UNL A   1      41.356  28.051  29.042  1.00  0.00     0.031 A 
ATOM     28  C   UNL A   1      42.042  27.852  30.389  1.00  0.00     0.074 A 
ATOM     29  C   UNL A   1      40.374  29.000  29.016  1.00  0.00     0.049 A 
ATOM     30  N   UNL A   1      41.720  28.321  31.576  1.00  0.00    -0.248 NA
ATOM     31  C   UNL A   1      43.250  27.016  30.405  1.00  0.00     0.031 C 
ATOM     32  C   UNL A   1      39.625  29.484  27.865  1.00  0.00     0.029 A 
ATOM     33  N   UNL A   1      39.771  29.720  30.046  1.00  0.00    -0.354 N 
ATOM     34  C   UNL A   1      42.666  27.815  32.462  1.00  0.00     0.074 A 
ATOM     35  C   UNL A   1      43.498  26.906  31.703  1.00  0.00     0.031 C 
ATOM     36  C   UNL A   1      38.616  30.278  28.224  1.00  0.00     0.029 A 
ATOM     37  C   UNL A   1      38.646  30.427  29.654  1.00  0.00     0.049 A 
ATOM     38  H   UNL A   1      40.114  29.727  30.968  1.00  0.00     0.167 HD
ATOM     39  C   UNL A   1      42.890  28.133  33.764  1.00  0.00     0.037 A 
ATOM     40  C   UNL A   1      37.713  31.149  30.303  1.00  0.00     0.037 A 
ATOM     41  C   UNL A   1      42.132  29.098  34.519  1.00  0.00     0.049 A 
ATOM     42  C   UNL A   1      37.909  31.418  31.753  1.00  0.00     0.074 A 
ATOM     43  C   UNL A   1      42.346  29.544  35.814  1.00  0.00     0.029 A 
ATOM     44  N   UNL A   1      41.021  29.780  34.046  1.00  0.00    -0.354 N 
ATOM     45  N   UNL A   1      38.852  30.972  32.539  1.00  0.00    -0.248 NA
ATOM     46  C   UNL A   1      36.962  32.339  32.393  1.00  0.00     0.031 C 
ATOM     47  C   UNL A   1      41.340  30.461  36.138  1.00  0.00     0.029 A 
ATOM     48  C   UNL A   1      40.524  30.621  35.033  1.00  0.00     0.049 A 
ATOM     49  H   UNL A   1      40.641  29.684  33.143  1.00  0.00     0.167 HD
ATOM     50  C   UNL A   1      38.650  31.599  33.753  1.00  0.00     0.074 A 
ATOM     51  C   UNL A   1      37.497  32.462  33.598  1.00  0.00     0.031 C 
ATOM     52  C   UNL A   1      39.373  31.473  34.888  1.00  0.00     0.037 A 
BRANCH  39  53
ATOM     53  C   UNL A   1      44.058  27.467  34.448  1.00  0.00     0.064 A 
ATOM     54  C   UNL A   1      43.903  26.258  35.146  1.00  0.00     0.173 A 
ATOM     55  C   UNL A   1      45.346  28.021  34.386  1.00  0.00     0.173 A 
ATOM     56  F   UNL A   1      42.695  25.680  35.235  1.00  0.00    -0.203 F 
ATOM     57  C   UNL A   1      44.977  25.661  35.802  1.00  0.00     0.198 A 
ATOM     58  C   UNL A   1      46.426  27.401  35.013  1.00  0.00     0.198 A 
ATOM     59  F   UNL A   1      45.561  29.162  33.714  1.00  0.00    -0.203 F 
ATOM     60  F   UNL A   1      44.784  24.546  36.521  1.00  0.00    -0.200 F 
ATOM     61  C   UNL A   1      46.238  26.232  35.732  1.00  0.00     0.200 A 
ATOM     62  F   UNL A   1      47.650  27.942  34.929  1.00  0.00    -0.200 F 
ATOM     63  F   UNL A   1      47.270  25.656  36.365  1.00  0.00    -0.200 F 
ENDBRANCH  39  53
BRANCH  40  64
ATOM     64  C   UNL A   1      36.557  31.739  29.560  1.00  0.00     0.064 A 
ATOM     65  C   UNL A   1      35.503  30.937  29.098  1.00  0.00     0.173 A 
ATOM     66  C   UNL A   1      36.479  33.119  29.308  1.00  0.00     0.173 A 
ATOM     67  F   UNL A   1      35.525  29.614  29.316  1.00  0.00    -0.203 F 
ATOM     68  C   UNL A   1      34.441  31.481  28.376  1.00  0.00     0.198 A 
ATOM     69  C   UNL A   1      35.403  33.666  28.608  1.00  0.00     0.198 A 
ATOM     70  F   UNL A   1      37.442  33.939  29.750  1.00  0.00    -0.203 F 
ATOM     71  F   UNL A   1      33.477  30.681  27.902  1.00  0.00    -0.200 F 
ATOM     72  C   UNL A   1      34.391  32.845  28.132  1.00  0.00     0.200 A 
ATOM     73  F   UNL A   1      35.345  34.987  28.393  1.00  0.00    -0.200 F 
ATOM     74  F   UNL A   1      33.372  33.366  27.434  1.00  0.00    -0.200 F 
ENDBRANCH  40  64
BRANCH  52  75
ATOM     75  C   UNL A   1      38.944  32.306  36.052  1.00  0.00     0.064 A 
ATOM     76  C   UNL A   1      38.153  31.772  37.081  1.00  0.00     0.173 A 
ATOM     77  C   UNL A   1      39.329  33.651  36.143  1.00  0.00     0.173 A 
ATOM     78  F   UNL A   1      37.734  30.500  37.018  1.00  0.00    -0.203 F 
ATOM     79  C   UNL A   1      37.747  32.562  38.150  1.00  0.00     0.198 A 
ATOM     80  C   UNL A   1      38.948  34.429  37.232  1.00  0.00     0.198 A 
ATOM     81  F   UNL A   1      40.075  34.210  35.179  1.00  0.00    -0.203 F 
ATOM     82  F   UNL A   1      36.946  32.048  39.093  1.00  0.00    -0.200 F 
ATOM     83  C   UNL A   1      38.153  33.886  38.230  1.00  0.00     0.200 A 
ATOM     84  F   UNL A   1      39.347  35.706  37.313  1.00  0.00    -0.200 F 
ATOM     85  F   UNL A   1      37.768  34.643  39.267  1.00  0.00    -0.200 F 
ENDBRANCH  52  75
ENDBRANCH  26  27
ENDBRANCH  19  21
ENDBRANCH  18  19
ENDBRANCH   1  18
TORSDOF 12
ENDMDL
MODEL 3
REMARK VINA RESULT:     -12.4      1.206      2.121
REMARK SMILES C/C(C(=O)OCCOC(=O)c1ccc(-c2c3nc(c(-c4c(F)c(F)c(F)c(F)c4F)c4ccc([nH]4)c(-c4c(F)c(F)c(F)c(F)c4F)c4nc(c(-c5c(F)c(F)c(F)c(F)c5F)c5ccc2[nH]5)C=C4)C=C3)cc1)=C(\C)c1ccc(C)c(F)c1
REMARK SMILES IDX 7 1 6 2 5 3 3 4 4 5 2 6 1 7 74 8 75 9 76 10 77 11 83 12
REMARK SMILES IDX 78 13 81 14 79 15 82 16 80 17 8 18 9 19 10 20 11 21 12 22
REMARK SMILES IDX 73 23 13 24 72 25 14 26 15 27 16 28 66 29 17 30 71 31 65 32
REMARK SMILES IDX 67 33 18 34 70 35 64 36 63 37 19 39 51 40 31 41 50 42 32 43
REMARK SMILES IDX 35 44 49 45 68 46 33 47 34 48 48 50 69 51 36 52 20 53 21 54
REMARK SMILES IDX 29 55 22 56 23 57 27 58 30 59 24 60 25 61 28 62 26 63 52 64
REMARK SMILES IDX 53 65 61 66 54 67 55 68 59 69 62 70 56 71 57 72 60 73 58 74
REMARK SMILES IDX 37 75 38 76 46 77 39 78 40 79 44 80 47 81 41 82 42 83 45 84
REMARK SMILES IDX 43 85
REMARK H PARENT 67 38 35 49
REMARK Flexibility Score: inf
ROOT
ATOM      1  C   UNL A   1      31.687  30.065  25.222  1.00  0.00     0.275 C 
ENDROOT
BRANCH   1   2
ATOM      2  C   UNL A   1      32.708  29.069  24.683  1.00  0.00     0.275 C 
BRANCH   2   3
ATOM      3  O   UNL A   1      32.031  27.856  24.283  1.00  0.00    -0.459 OA
BRANCH   3   4
ATOM      4  C   UNL A   1      31.904  26.903  25.240  1.00  0.00     0.334 C 
ATOM      5  O   UNL A   1      32.464  26.895  26.325  1.00  0.00    -0.247 OA
BRANCH   4   6
ATOM      6  C   UNL A   1      31.067  25.772  24.741  1.00  0.00     0.038 C 
ATOM      7  C   UNL A   1      29.634  26.190  24.575  1.00  0.00     0.052 C 
ATOM      8  C   UNL A   1      31.572  24.564  24.373  1.00  0.00    -0.034 C 
ATOM      9  C   UNL A   1      30.777  23.511  23.655  1.00  0.00     0.045 C 
BRANCH   8  10
ATOM     10  C   UNL A   1      33.007  24.236  24.536  1.00  0.00    -0.019 A 
ATOM     11  C   UNL A   1      33.450  23.438  26.052  1.00  0.00     0.009 A 
ATOM     12  C   UNL A   1      34.198  24.169  23.164  1.00  0.00     0.048 A 
ATOM     13  C   UNL A   1      34.958  22.536  26.287  1.00  0.00     0.007 A 
ATOM     14  C   UNL A   1      35.890  23.082  23.447  1.00  0.00     0.126 A 
ATOM     15  C   UNL A   1      36.173  22.334  25.043  1.00  0.00    -0.015 A 
ATOM     16  F   UNL A   1      36.911  22.780  22.595  1.00  0.00    -0.207 F 
ATOM     17  C   UNL A   1      37.516  21.743  25.309  1.00  0.00     0.047 C 
ENDBRANCH   8  10
ENDBRANCH   4   6
ENDBRANCH   3   4
ENDBRANCH   2   3
ENDBRANCH   1   2
BRANCH   1  18
ATOM     18  O   UNL A   1      31.925  30.216  26.631  1.00  0.00    -0.458 OA
BRANCH  18  19
ATOM     19  C   UNL A   1      32.381  31.431  26.995  1.00  0.00     0.338 C 
ATOM     20  O   UNL A   1      31.813  32.507  26.914  1.00  0.00    -0.246 OA
BRANCH  19  21
ATOM     21  C   UNL A   1      33.666  31.279  27.671  1.00  0.00     0.060 A 
ATOM     22  C   UNL A   1      34.673  32.719  28.034  1.00  0.00     0.016 A 
ATOM     23  C   UNL A   1      34.445  29.709  27.644  1.00  0.00     0.016 A 
ATOM     24  C   UNL A   1      36.655  32.437  28.348  1.00  0.00     0.010 A 
ATOM     25  C   UNL A   1      36.178  29.471  28.010  1.00  0.00     0.010 A 
ATOM     26  C   UNL A   1      37.326  30.773  28.399  1.00  0.00    -0.014 A 
BRANCH  26  27
ATOM     27  C   UNL A   1      38.598  30.476  29.237  1.00  0.00     0.031 A 
ATOM     28  C   UNL A   1      39.557  29.372  28.809  1.00  0.00     0.074 A 
ATOM     29  C   UNL A   1      38.842  31.025  30.464  1.00  0.00     0.049 A 
ATOM     30  N   UNL A   1      40.476  28.736  29.505  1.00  0.00    -0.248 NA
ATOM     31  C   UNL A   1      39.475  28.921  27.412  1.00  0.00     0.031 C 
ATOM     32  C   UNL A   1      38.172  32.156  31.090  1.00  0.00     0.029 A 
ATOM     33  N   UNL A   1      39.724  30.648  31.475  1.00  0.00    -0.354 N 
ATOM     34  C   UNL A   1      41.047  27.809  28.639  1.00  0.00     0.074 A 
ATOM     35  C   UNL A   1      40.291  27.876  27.406  1.00  0.00     0.031 C 
ATOM     36  C   UNL A   1      38.534  32.308  32.364  1.00  0.00     0.029 A 
ATOM     37  C   UNL A   1      39.521  31.310  32.674  1.00  0.00     0.049 A 
ATOM     38  H   UNL A   1      40.428  29.972  31.348  1.00  0.00     0.167 HD
ATOM     39  C   UNL A   1      42.149  27.033  28.805  1.00  0.00     0.037 A 
ATOM     40  C   UNL A   1      40.042  31.200  33.912  1.00  0.00     0.037 A 
ATOM     41  C   UNL A   1      42.970  27.010  29.990  1.00  0.00     0.049 A 
ATOM     42  C   UNL A   1      41.190  30.276  34.117  1.00  0.00     0.074 A 
ATOM     43  C   UNL A   1      44.151  26.319  30.210  1.00  0.00     0.029 A 
ATOM     44  N   UNL A   1      42.706  27.720  31.152  1.00  0.00    -0.354 N 
ATOM     45  N   UNL A   1      41.739  29.464  33.254  1.00  0.00    -0.248 NA
ATOM     46  C   UNL A   1      41.835  30.299  35.435  1.00  0.00     0.031 C 
ATOM     47  C   UNL A   1      44.578  26.577  31.518  1.00  0.00     0.029 A 
ATOM     48  C   UNL A   1      43.687  27.461  32.099  1.00  0.00     0.049 A 
ATOM     49  H   UNL A   1      41.937  28.320  31.285  1.00  0.00     0.167 HD
ATOM     50  C   UNL A   1      42.830  28.918  33.903  1.00  0.00     0.074 A 
ATOM     51  C   UNL A   1      42.868  29.496  35.230  1.00  0.00     0.031 C 
ATOM     52  C   UNL A   1      43.724  28.025  33.423  1.00  0.00     0.037 A 
BRANCH  39  53
ATOM     53  C   UNL A   1      42.575  26.176  27.640  1.00  0.00     0.064 A 
ATOM     54  C   UNL A   1      42.004  24.913  27.414  1.00  0.00     0.173 A 
ATOM     55  C   UNL A   1      43.540  26.625  26.725  1.00  0.00     0.173 A 
ATOM     56  F   UNL A   1      41.074  24.433  28.255  1.00  0.00    -0.203 F 
ATOM     57  C   UNL A   1      42.420  24.111  26.354  1.00  0.00     0.198 A 
ATOM     58  C   UNL A   1      43.928  25.835  25.644  1.00  0.00     0.198 A 
ATOM     59  F   UNL A   1      44.104  27.833  26.874  1.00  0.00    -0.203 F 
ATOM     60  F   UNL A   1      41.909  22.881  26.206  1.00  0.00    -0.200 F 
ATOM     61  C   UNL A   1      43.380  24.575  25.468  1.00  0.00     0.200 A 
ATOM     62  F   UNL A   1      44.841  26.292  24.774  1.00  0.00    -0.200 F 
ATOM     63  F   UNL A   1      43.781  23.802  24.449  1.00  0.00    -0.200 F 
ENDBRANCH  39  53
BRANCH  40  64
ATOM     64  C   UNL A   1      39.532  32.054  35.028  1.00  0.00     0.064 A 
ATOM     65  C   UNL A   1      38.602  31.561  35.956  1.00  0.00     0.173 A 
ATOM     66  C   UNL A   1      39.974  33.377  35.195  1.00  0.00     0.173 A 
ATOM     67  F   UNL A   1      38.150  30.303  35.845  1.00  0.00    -0.203 F 
ATOM     68  C   UNL A   1      38.101  32.368  36.977  1.00  0.00     0.198 A 
ATOM     69  C   UNL A   1      39.491  34.174  36.234  1.00  0.00     0.198 A 
ATOM     70  F   UNL A   1      40.884  33.893  34.357  1.00  0.00    -0.203 F 
ATOM     71  F   UNL A   1      37.174  31.885  37.815  1.00  0.00    -0.200 F 
ATOM     72  C   UNL A   1      38.546  33.673  37.116  1.00  0.00     0.200 A 
ATOM     73  F   UNL A   1      39.940  35.429  36.380  1.00  0.00    -0.200 F 
ATOM     74  F   UNL A   1      38.060  34.449  38.096  1.00  0.00    -0.200 F 
ENDBRANCH  40  64
BRANCH  52  75
ATOM     75  C   UNL A   1      44.836  27.631  34.342  1.00  0.00     0.064 A 
ATOM     76  C   UNL A   1      46.031  28.363  34.398  1.00  0.00     0.173 A 
ATOM     77  C   UNL A   1      44.705  26.512  35.176  1.00  0.00     0.173 A 
ATOM     78  F   UNL A   1      46.213  29.420  33.593  1.00  0.00    -0.203 F 
ATOM     79  C   UNL A   1      47.064  27.977  35.245  1.00  0.00     0.198 A 
ATOM     80  C   UNL A   1      45.728  26.149  36.047  1.00  0.00     0.198 A 
ATOM     81  F   UNL A   1      43.585  25.774  35.150  1.00  0.00    -0.203 F 
ATOM     82  F   UNL A   1      48.218  28.658  35.242  1.00  0.00    -0.200 F 
ATOM     83  C   UNL A   1      46.908  26.877  36.075  1.00  0.00     0.200 A 
ATOM     84  F   UNL A   1      45.573  25.091  36.855  1.00  0.00    -0.200 F 
ATOM     85  F   UNL A   1      47.901  26.513  36.897  1.00  0.00    -0.200 F 
ENDBRANCH  52  75
ENDBRANCH  26  27
ENDBRANCH  19  21
ENDBRANCH  18  19
ENDBRANCH   1  18
TORSDOF 12
ENDMDL
