MODEL 1
REMARK VINA RESULT:     -13.2      0.000      0.000
REMARK SMILES COc1cccc([C@H]2CC(c3ccc(S(C)(=O)=O)cc3)=NN2c2ccc(C(=O)OCCOC(=O)c3ccc(-c4c5nc(c(-c6c(F)c(F)c(F)c(F)c6F)c6ccc([nH]6)c(-c6c(F)c(F)c(F)c(F)c6F)c6nc(c(-c7c(F)c(F)c(F)c(F)c7F)c7ccc4[nH]7)C=C6)C=C5)cc3)cc2)c1
REMARK SMILES IDX 30 1 29 2 27 3 28 4 26 5 23 6 24 7 99 8 25 9 98 10 22 11
REMARK SMILES IDX 8 12 9 13 10 14 21 15 7 16 3 17 4 18 100 19 5 20 6 21 2 22
REMARK SMILES IDX 1 23 11 24 12 25 20 26 13 27 19 28 14 29 15 30 16 31 17 32
REMARK SMILES IDX 18 33 31 34 32 35 33 36 34 37 35 38 36 39 97 40 37 41 96 42
REMARK SMILES IDX 38 43 39 44 40 45 90 46 41 47 95 48 89 49 91 50 42 51 94 52
REMARK SMILES IDX 88 53 87 54 43 56 75 57 55 58 74 59 56 60 59 61 73 62 92 63
REMARK SMILES IDX 57 64 58 65 72 67 93 68 60 69 44 70 45 71 53 72 46 73 47 74
REMARK SMILES IDX 51 75 54 76 48 77 49 78 52 79 50 80 76 81 77 82 85 83 78 84
REMARK SMILES IDX 79 85 83 86 86 87 80 88 81 89 84 90 82 91 61 92 62 93 70 94
REMARK SMILES IDX 63 95 64 96 68 97 71 98 65 99 66 100 69 101 67 102
REMARK H PARENT 91 55 59 66
REMARK Flexibility Score: inf
ROOT
ATOM      1  C   UNL A   1      31.435  29.456  25.405  1.00  0.00     0.275 C 
ENDROOT
BRANCH   1   2
ATOM      2  O   UNL A   1      32.483  28.533  25.773  1.00  0.00    -0.458 OA
BRANCH   2   3
ATOM      3  C   UNL A   1      32.099  27.514  26.579  1.00  0.00     0.338 C 
ATOM      4  O   UNL A   1      31.240  27.556  27.448  1.00  0.00    -0.246 OA
BRANCH   3   5
ATOM      5  C   UNL A   1      32.805  26.265  26.228  1.00  0.00     0.060 A 
ATOM      6  C   UNL A   1      34.173  23.839  25.818  1.00  0.00     0.060 A 
ATOM      7  C   UNL A   1      32.889  23.850  26.363  1.00  0.00     0.029 A 
ATOM      8  C   UNL A   1      34.748  25.063  25.443  1.00  0.00     0.029 A 
ATOM      9  C   UNL A   1      32.234  25.050  26.607  1.00  0.00     0.018 A 
ATOM     10  C   UNL A   1      34.061  26.273  25.620  1.00  0.00     0.018 A 
BRANCH   6  11
ATOM     11  N   UNL A   1      34.853  22.634  25.710  1.00  0.00    -0.257 N 
ATOM     12  C   UNL A   1      34.271  21.415  25.148  1.00  0.00     0.144 C 
ATOM     13  C   UNL A   1      35.491  20.492  25.008  1.00  0.00     0.091 C 
ATOM     14  C   UNL A   1      36.578  21.409  25.495  1.00  0.00     0.071 C 
ATOM     15  N   UNL A   1      36.205  22.597  25.849  1.00  0.00    -0.176 NA
BRANCH  12  16
ATOM     16  C   UNL A   1      33.540  21.658  23.832  1.00  0.00    -0.019 A 
ATOM     17  C   UNL A   1      33.102  22.976  21.824  1.00  0.00     0.119 A 
ATOM     18  C   UNL A   1      32.097  22.080  21.459  1.00  0.00     0.046 A 
ATOM     19  C   UNL A   1      33.806  22.777  23.016  1.00  0.00     0.052 A 
ATOM     20  C   UNL A   1      31.812  20.976  22.259  1.00  0.00     0.004 A 
ATOM     21  C   UNL A   1      32.530  20.765  23.435  1.00  0.00     0.006 A 
BRANCH  17  22
ATOM     22  O   UNL A   1      33.274  24.028  20.967  1.00  0.00    -0.497 OA
ATOM     23  C   UNL A   1      32.925  25.308  21.482  1.00  0.00     0.278 C 
ENDBRANCH  17  22
ENDBRANCH  12  16
BRANCH  14  24
ATOM     24  C   UNL A   1      37.961  20.940  25.640  1.00  0.00    -0.002 A 
ATOM     25  C   UNL A   1      38.911  21.845  26.129  1.00  0.00     0.011 A 
ATOM     26  C   UNL A   1      38.314  19.621  25.346  1.00  0.00     0.011 A 
ATOM     27  C   UNL A   1      40.216  21.419  26.368  1.00  0.00     0.021 A 
ATOM     28  C   UNL A   1      39.630  19.199  25.557  1.00  0.00     0.021 A 
ATOM     29  C   UNL A   1      40.570  20.097  26.078  1.00  0.00     0.067 A 
BRANCH  29  30
ATOM     30  S   UNL A   1      42.219  19.546  26.447  1.00  0.00     0.175 S 
ATOM     31  C   UNL A   1      43.251  20.939  26.076  1.00  0.00     0.163 C 
ATOM     32  O   UNL A   1      42.265  19.310  27.877  1.00  0.00    -0.224 OA
ATOM     33  O   UNL A   1      42.549  18.493  25.505  1.00  0.00    -0.224 OA
ENDBRANCH  29  30
ENDBRANCH  14  24
ENDBRANCH   6  11
ENDBRANCH   3   5
ENDBRANCH   2   3
ENDBRANCH   1   2
BRANCH   1  34
ATOM     34  C   UNL A   1      31.657  30.836  26.024  1.00  0.00     0.275 C 
BRANCH  34  35
ATOM     35  O   UNL A   1      32.598  30.753  27.111  1.00  0.00    -0.458 OA
BRANCH  35  36
ATOM     36  C   UNL A   1      33.283  31.887  27.377  1.00  0.00     0.338 C 
ATOM     37  O   UNL A   1      32.890  33.037  27.275  1.00  0.00    -0.246 OA
BRANCH  36  38
ATOM     38  C   UNL A   1      34.634  31.564  27.865  1.00  0.00     0.060 A 
ATOM     39  C   UNL A   1      34.976  30.235  28.077  1.00  0.00     0.016 A 
ATOM     40  C   UNL A   1      35.491  32.575  28.291  1.00  0.00     0.016 A 
ATOM     41  C   UNL A   1      36.083  29.911  28.857  1.00  0.00     0.010 A 
ATOM     42  C   UNL A   1      36.686  32.240  28.941  1.00  0.00     0.010 A 
ATOM     43  C   UNL A   1      36.973  30.905  29.284  1.00  0.00    -0.014 A 
BRANCH  43  44
ATOM     44  C   UNL A   1      38.178  30.555  30.100  1.00  0.00     0.031 A 
ATOM     45  C   UNL A   1      39.283  29.712  29.511  1.00  0.00     0.074 A 
ATOM     46  C   UNL A   1      38.297  30.993  31.372  1.00  0.00     0.049 A 
ATOM     47  N   UNL A   1      40.298  29.136  30.108  1.00  0.00    -0.248 NA
ATOM     48  C   UNL A   1      39.233  29.469  28.061  1.00  0.00     0.031 C 
ATOM     49  C   UNL A   1      37.338  31.851  32.069  1.00  0.00     0.029 A 
ATOM     50  N   UNL A   1      39.284  30.780  32.306  1.00  0.00    -0.354 N 
ATOM     51  C   UNL A   1      40.962  28.412  29.124  1.00  0.00     0.074 A 
ATOM     52  C   UNL A   1      40.235  28.618  27.890  1.00  0.00     0.031 C 
ATOM     53  C   UNL A   1      37.803  32.132  33.294  1.00  0.00     0.029 A 
ATOM     54  C   UNL A   1      39.035  31.386  33.514  1.00  0.00     0.049 A 
ATOM     55  H   UNL A   1      40.090  30.244  32.127  1.00  0.00     0.167 HD
ATOM     56  C   UNL A   1      42.073  27.645  29.241  1.00  0.00     0.037 A 
ATOM     57  C   UNL A   1      39.688  31.313  34.689  1.00  0.00     0.037 A 
ATOM     58  C   UNL A   1      42.835  27.495  30.455  1.00  0.00     0.049 A 
ATOM     59  C   UNL A   1      40.902  30.435  34.802  1.00  0.00     0.074 A 
ATOM     60  C   UNL A   1      43.990  26.760  30.667  1.00  0.00     0.029 A 
ATOM     61  N   UNL A   1      42.527  28.107  31.662  1.00  0.00    -0.354 N 
ATOM     62  N   UNL A   1      41.485  29.710  33.880  1.00  0.00    -0.248 NA
ATOM     63  C   UNL A   1      41.534  30.349  36.125  1.00  0.00     0.031 C 
ATOM     64  C   UNL A   1      44.358  26.897  32.009  1.00  0.00     0.029 A 
ATOM     65  C   UNL A   1      43.462  27.755  32.623  1.00  0.00     0.049 A 
ATOM     66  H   UNL A   1      41.759  28.703  31.812  1.00  0.00     0.167 HD
ATOM     67  C   UNL A   1      42.557  29.090  34.506  1.00  0.00     0.074 A 
ATOM     68  C   UNL A   1      42.558  29.544  35.880  1.00  0.00     0.031 C 
ATOM     69  C   UNL A   1      43.455  28.219  33.987  1.00  0.00     0.037 A 
BRANCH  56  70
ATOM     70  C   UNL A   1      42.524  26.874  28.032  1.00  0.00     0.064 A 
ATOM     71  C   UNL A   1      41.931  25.659  27.658  1.00  0.00     0.173 A 
ATOM     72  C   UNL A   1      43.537  27.388  27.207  1.00  0.00     0.173 A 
ATOM     73  F   UNL A   1      40.964  25.118  28.412  1.00  0.00    -0.203 F 
ATOM     74  C   UNL A   1      42.355  24.975  26.519  1.00  0.00     0.198 A 
ATOM     75  C   UNL A   1      43.938  26.718  26.054  1.00  0.00     0.198 A 
ATOM     76  F   UNL A   1      44.131  28.553  27.511  1.00  0.00    -0.203 F 
ATOM     77  F   UNL A   1      41.804  23.795  26.205  1.00  0.00    -0.200 F 
ATOM     78  C   UNL A   1      43.352  25.509  25.715  1.00  0.00     0.200 A 
ATOM     79  F   UNL A   1      44.889  27.244  25.270  1.00  0.00    -0.200 F 
ATOM     80  F   UNL A   1      43.750  24.854  24.615  1.00  0.00    -0.200 F 
ENDBRANCH  56  70
BRANCH  57  81
ATOM     81  C   UNL A   1      39.173  32.060  35.868  1.00  0.00     0.064 A 
ATOM     82  C   UNL A   1      38.270  31.468  36.760  1.00  0.00     0.173 A 
ATOM     83  C   UNL A   1      39.584  33.377  36.132  1.00  0.00     0.173 A 
ATOM     84  F   UNL A   1      37.825  30.223  36.535  1.00  0.00    -0.203 F 
ATOM     85  C   UNL A   1      37.791  32.167  37.867  1.00  0.00     0.198 A 
ATOM     86  C   UNL A   1      39.131  34.061  37.257  1.00  0.00     0.198 A 
ATOM     87  F   UNL A   1      40.446  33.991  35.308  1.00  0.00    -0.203 F 
ATOM     88  F   UNL A   1      36.894  31.594  38.682  1.00  0.00    -0.200 F 
ATOM     89  C   UNL A   1      38.229  33.459  38.120  1.00  0.00     0.200 A 
ATOM     90  F   UNL A   1      39.571  35.302  37.506  1.00  0.00    -0.200 F 
ATOM     91  F   UNL A   1      37.777  34.125  39.191  1.00  0.00    -0.200 F 
ENDBRANCH  57  81
BRANCH  69  92
ATOM     92  C   UNL A   1      44.536  27.727  34.903  1.00  0.00     0.064 A 
ATOM     93  C   UNL A   1      44.412  26.520  35.607  1.00  0.00     0.173 A 
ATOM     94  C   UNL A   1      45.720  28.463  35.061  1.00  0.00     0.173 A 
ATOM     95  F   UNL A   1      43.290  25.790  35.503  1.00  0.00    -0.203 F 
ATOM     96  C   UNL A   1      45.425  26.080  36.455  1.00  0.00     0.198 A 
ATOM     97  C   UNL A   1      46.742  28.006  35.888  1.00  0.00     0.198 A 
ATOM     98  F   UNL A   1      45.889  29.622  34.406  1.00  0.00    -0.203 F 
ATOM     99  F   UNL A   1      45.265  24.949  37.156  1.00  0.00    -0.200 F 
ATOM    100  C   UNL A   1      46.591  26.819  36.590  1.00  0.00     0.200 A 
ATOM    101  F   UNL A   1      47.873  28.716  36.009  1.00  0.00    -0.200 F 
ATOM    102  F   UNL A   1      47.565  26.393  37.405  1.00  0.00    -0.200 F 
ENDBRANCH  69  92
ENDBRANCH  43  44
ENDBRANCH  36  38
ENDBRANCH  35  36
ENDBRANCH  34  35
ENDBRANCH   1  34
TORSDOF 16
ENDMDL
MODEL 2
REMARK VINA RESULT:     -13.2      2.819      4.391
REMARK SMILES COc1cccc([C@H]2CC(c3ccc(S(C)(=O)=O)cc3)=NN2c2ccc(C(=O)OCCOC(=O)c3ccc(-c4c5nc(c(-c6c(F)c(F)c(F)c(F)c6F)c6ccc([nH]6)c(-c6c(F)c(F)c(F)c(F)c6F)c6nc(c(-c7c(F)c(F)c(F)c(F)c7F)c7ccc4[nH]7)C=C6)C=C5)cc3)cc2)c1
REMARK SMILES IDX 30 1 29 2 27 3 28 4 26 5 23 6 24 7 99 8 25 9 98 10 22 11
REMARK SMILES IDX 8 12 9 13 10 14 21 15 7 16 3 17 4 18 100 19 5 20 6 21 2 22
REMARK SMILES IDX 1 23 11 24 12 25 20 26 13 27 19 28 14 29 15 30 16 31 17 32
REMARK SMILES IDX 18 33 31 34 32 35 33 36 34 37 35 38 36 39 97 40 37 41 96 42
REMARK SMILES IDX 38 43 39 44 40 45 90 46 41 47 95 48 89 49 91 50 42 51 94 52
REMARK SMILES IDX 88 53 87 54 43 56 75 57 55 58 74 59 56 60 59 61 73 62 92 63
REMARK SMILES IDX 57 64 58 65 72 67 93 68 60 69 44 70 45 71 53 72 46 73 47 74
REMARK SMILES IDX 51 75 54 76 48 77 49 78 52 79 50 80 76 81 77 82 85 83 78 84
REMARK SMILES IDX 79 85 83 86 86 87 80 88 81 89 84 90 82 91 61 92 62 93 70 94
REMARK SMILES IDX 63 95 64 96 68 97 71 98 65 99 66 100 69 101 67 102
REMARK H PARENT 91 55 59 66
REMARK Flexibility Score: inf
ROOT
ATOM      1  C   UNL A   1      32.831  31.989  26.922  1.00  0.00     0.275 C 
ENDROOT
BRANCH   1   2
ATOM      2  O   UNL A   1      33.325  31.053  27.905  1.00  0.00    -0.458 OA
BRANCH   2   3
ATOM      3  C   UNL A   1      34.248  30.171  27.452  1.00  0.00     0.338 C 
ATOM      4  O   UNL A   1      35.451  30.363  27.349  1.00  0.00    -0.246 OA
BRANCH   3   5
ATOM      5  C   UNL A   1      33.631  28.861  27.158  1.00  0.00     0.060 A 
ATOM      6  C   UNL A   1      32.447  26.440  26.343  1.00  0.00     0.060 A 
ATOM      7  C   UNL A   1      33.746  26.767  25.952  1.00  0.00     0.029 A 
ATOM      8  C   UNL A   1      31.763  27.330  27.186  1.00  0.00     0.029 A 
ATOM      9  C   UNL A   1      34.312  27.981  26.316  1.00  0.00     0.018 A 
ATOM     10  C   UNL A   1      32.358  28.526  27.616  1.00  0.00     0.018 A 
BRANCH   6  11
ATOM     11  N   UNL A   1      31.861  25.282  25.854  1.00  0.00    -0.257 N 
ATOM     12  C   UNL A   1      30.582  25.249  25.144  1.00  0.00     0.144 C 
ATOM     13  C   UNL A   1      30.538  23.816  24.593  1.00  0.00     0.091 C 
ATOM     14  C   UNL A   1      31.866  23.302  25.076  1.00  0.00     0.071 C 
ATOM     15  N   UNL A   1      32.591  24.140  25.745  1.00  0.00    -0.176 NA
BRANCH  12  16
ATOM     16  C   UNL A   1      30.477  26.319  24.062  1.00  0.00    -0.019 A 
ATOM     17  C   UNL A   1      29.363  28.227  23.021  1.00  0.00     0.119 A 
ATOM     18  C   UNL A   1      30.304  28.210  21.992  1.00  0.00     0.046 A 
ATOM     19  C   UNL A   1      29.437  27.271  24.041  1.00  0.00     0.052 A 
ATOM     20  C   UNL A   1      31.331  27.268  21.990  1.00  0.00     0.004 A 
ATOM     21  C   UNL A   1      31.418  26.332  23.018  1.00  0.00     0.006 A 
BRANCH  17  22
ATOM     22  O   UNL A   1      28.395  29.185  22.902  1.00  0.00    -0.497 OA
ATOM     23  C   UNL A   1      28.856  30.531  22.893  1.00  0.00     0.278 C 
ENDBRANCH  17  22
ENDBRANCH  12  16
BRANCH  14  24
ATOM     24  C   UNL A   1      32.260  21.904  24.872  1.00  0.00    -0.002 A 
ATOM     25  C   UNL A   1      32.049  21.344  23.606  1.00  0.00     0.011 A 
ATOM     26  C   UNL A   1      32.869  21.165  25.889  1.00  0.00     0.011 A 
ATOM     27  C   UNL A   1      32.488  20.049  23.338  1.00  0.00     0.021 A 
ATOM     28  C   UNL A   1      33.284  19.856  25.632  1.00  0.00     0.021 A 
ATOM     29  C   UNL A   1      33.102  19.310  24.355  1.00  0.00     0.067 A 
BRANCH  29  30
ATOM     30  S   UNL A   1      33.718  17.683  23.986  1.00  0.00     0.175 S 
ATOM     31  C   UNL A   1      32.903  16.621  25.148  1.00  0.00     0.163 C 
ATOM     32  O   UNL A   1      33.245  17.355  22.655  1.00  0.00    -0.224 OA
ATOM     33  O   UNL A   1      35.135  17.671  24.300  1.00  0.00    -0.224 OA
ENDBRANCH  29  30
ENDBRANCH  14  24
ENDBRANCH   6  11
ENDBRANCH   3   5
ENDBRANCH   2   3
ENDBRANCH   1   2
BRANCH   1  34
ATOM     34  C   UNL A   1      32.200  33.216  27.579  1.00  0.00     0.275 C 
BRANCH  34  35
ATOM     35  O   UNL A   1      33.117  34.326  27.554  1.00  0.00    -0.458 OA
BRANCH  35  36
ATOM     36  C   UNL A   1      33.153  35.077  28.677  1.00  0.00     0.338 C 
ATOM     37  O   UNL A   1      32.345  35.916  29.039  1.00  0.00    -0.246 OA
BRANCH  36  38
ATOM     38  C   UNL A   1      34.334  34.732  29.485  1.00  0.00     0.060 A 
ATOM     39  C   UNL A   1      35.589  34.758  28.892  1.00  0.00     0.016 A 
ATOM     40  C   UNL A   1      34.184  34.202  30.764  1.00  0.00     0.016 A 
ATOM     41  C   UNL A   1      36.665  34.110  29.495  1.00  0.00     0.010 A 
ATOM     42  C   UNL A   1      35.302  33.689  31.435  1.00  0.00     0.010 A 
ATOM     43  C   UNL A   1      36.548  33.583  30.789  1.00  0.00    -0.014 A 
BRANCH  43  44
ATOM     44  C   UNL A   1      37.710  32.910  31.448  1.00  0.00     0.031 A 
ATOM     45  C   UNL A   1      38.411  31.756  30.772  1.00  0.00     0.074 A 
ATOM     46  C   UNL A   1      38.154  33.328  32.652  1.00  0.00     0.049 A 
ATOM     47  N   UNL A   1      39.294  30.917  31.260  1.00  0.00    -0.248 NA
ATOM     48  C   UNL A   1      38.061  31.496  29.367  1.00  0.00     0.031 C 
ATOM     49  C   UNL A   1      37.614  34.456  33.412  1.00  0.00     0.029 A 
ATOM     50  N   UNL A   1      39.170  32.854  33.449  1.00  0.00    -0.354 N 
ATOM     51  C   UNL A   1      39.550  29.998  30.249  1.00  0.00     0.074 A 
ATOM     52  C   UNL A   1      38.729  30.378  29.119  1.00  0.00     0.031 C 
ATOM     53  C   UNL A   1      38.329  34.619  34.533  1.00  0.00     0.029 A 
ATOM     54  C   UNL A   1      39.306  33.543  34.631  1.00  0.00     0.049 A 
ATOM     55  H   UNL A   1      39.744  32.096  33.198  1.00  0.00     0.167 HD
ATOM     56  C   UNL A   1      40.390  28.935  30.263  1.00  0.00     0.037 A 
ATOM     57  C   UNL A   1      40.087  33.310  35.703  1.00  0.00     0.037 A 
ATOM     58  C   UNL A   1      41.258  28.599  31.363  1.00  0.00     0.049 A 
ATOM     59  C   UNL A   1      40.991  32.111  35.707  1.00  0.00     0.074 A 
ATOM     60  C   UNL A   1      42.164  27.556  31.463  1.00  0.00     0.029 A 
ATOM     61  N   UNL A   1      41.339  29.309  32.552  1.00  0.00    -0.354 N 
ATOM     62  N   UNL A   1      41.181  31.216  34.768  1.00  0.00    -0.248 NA
ATOM     63  C   UNL A   1      41.773  31.876  36.929  1.00  0.00     0.031 C 
ATOM     64  C   UNL A   1      42.765  27.614  32.724  1.00  0.00     0.029 A 
ATOM     65  C   UNL A   1      42.271  28.720  33.394  1.00  0.00     0.049 A 
ATOM     66  H   UNL A   1      40.814  30.114  32.765  1.00  0.00     0.167 HD
ATOM     67  C   UNL A   1      42.109  30.321  35.280  1.00  0.00     0.074 A 
ATOM     68  C   UNL A   1      42.462  30.793  36.601  1.00  0.00     0.031 C 
ATOM     69  C   UNL A   1      42.617  29.204  34.705  1.00  0.00     0.037 A 
BRANCH  56  70
ATOM     70  C   UNL A   1      40.396  28.029  29.063  1.00  0.00     0.064 A 
ATOM     71  C   UNL A   1      41.180  28.293  27.931  1.00  0.00     0.173 A 
ATOM     72  C   UNL A   1      39.635  26.849  29.070  1.00  0.00     0.173 A 
ATOM     73  F   UNL A   1      41.920  29.410  27.867  1.00  0.00    -0.203 F 
ATOM     74  C   UNL A   1      41.181  27.424  26.841  1.00  0.00     0.198 A 
ATOM     75  C   UNL A   1      39.661  25.967  27.993  1.00  0.00     0.198 A 
ATOM     76  F   UNL A   1      38.875  26.541  30.133  1.00  0.00    -0.203 F 
ATOM     77  F   UNL A   1      41.905  27.719  25.753  1.00  0.00    -0.200 F 
ATOM     78  C   UNL A   1      40.428  26.260  26.877  1.00  0.00     0.200 A 
ATOM     79  F   UNL A   1      38.946  24.834  28.037  1.00  0.00    -0.200 F 
ATOM     80  F   UNL A   1      40.440  25.420  25.831  1.00  0.00    -0.200 F 
ENDBRANCH  56  70
BRANCH  57  81
ATOM     81  C   UNL A   1      40.009  34.212  36.884  1.00  0.00     0.064 A 
ATOM     82  C   UNL A   1      40.804  35.362  36.968  1.00  0.00     0.173 A 
ATOM     83  C   UNL A   1      39.130  33.947  37.945  1.00  0.00     0.173 A 
ATOM     84  F   UNL A   1      41.682  35.643  35.993  1.00  0.00    -0.203 F 
ATOM     85  C   UNL A   1      40.729  36.210  38.072  1.00  0.00     0.198 A 
ATOM     86  C   UNL A   1      39.030  34.813  39.031  1.00  0.00     0.198 A 
ATOM     87  F   UNL A   1      38.348  32.858  37.916  1.00  0.00    -0.203 F 
ATOM     88  F   UNL A   1      41.531  37.280  38.148  1.00  0.00    -0.200 F 
ATOM     89  C   UNL A   1      39.834  35.940  39.098  1.00  0.00     0.200 A 
ATOM     90  F   UNL A   1      38.153  34.557  40.012  1.00  0.00    -0.200 F 
ATOM     91  F   UNL A   1      39.754  36.761  40.153  1.00  0.00    -0.200 F 
ENDBRANCH  57  81
BRANCH  69  92
ATOM     92  C   UNL A   1      43.637  28.436  35.491  1.00  0.00     0.064 A 
ATOM     93  C   UNL A   1      43.267  27.413  36.376  1.00  0.00     0.173 A 
ATOM     94  C   UNL A   1      45.005  28.713  35.340  1.00  0.00     0.173 A 
ATOM     95  F   UNL A   1      41.971  27.123  36.569  1.00  0.00    -0.203 F 
ATOM     96  C   UNL A   1      44.228  26.711  37.100  1.00  0.00     0.198 A 
ATOM     97  C   UNL A   1      45.964  27.991  36.045  1.00  0.00     0.198 A 
ATOM     98  F   UNL A   1      45.410  29.680  34.503  1.00  0.00    -0.203 F 
ATOM     99  F   UNL A   1      43.849  25.772  37.977  1.00  0.00    -0.200 F 
ATOM    100  C   UNL A   1      45.574  26.997  36.930  1.00  0.00     0.200 A 
ATOM    101  F   UNL A   1      47.265  28.261  35.871  1.00  0.00    -0.200 F 
ATOM    102  F   UNL A   1      46.498  26.320  37.625  1.00  0.00    -0.200 F 
ENDBRANCH  69  92
ENDBRANCH  43  44
ENDBRANCH  36  38
ENDBRANCH  35  36
ENDBRANCH  34  35
ENDBRANCH   1  34
TORSDOF 16
ENDMDL
MODEL 3
REMARK VINA RESULT:     -13.1      2.789      8.002
REMARK SMILES COc1cccc([C@H]2CC(c3ccc(S(C)(=O)=O)cc3)=NN2c2ccc(C(=O)OCCOC(=O)c3ccc(-c4c5nc(c(-c6c(F)c(F)c(F)c(F)c6F)c6ccc([nH]6)c(-c6c(F)c(F)c(F)c(F)c6F)c6nc(c(-c7c(F)c(F)c(F)c(F)c7F)c7ccc4[nH]7)C=C6)C=C5)cc3)cc2)c1
REMARK SMILES IDX 30 1 29 2 27 3 28 4 26 5 23 6 24 7 99 8 25 9 98 10 22 11
REMARK SMILES IDX 8 12 9 13 10 14 21 15 7 16 3 17 4 18 100 19 5 20 6 21 2 22
REMARK SMILES IDX 1 23 11 24 12 25 20 26 13 27 19 28 14 29 15 30 16 31 17 32
REMARK SMILES IDX 18 33 31 34 32 35 33 36 34 37 35 38 36 39 97 40 37 41 96 42
REMARK SMILES IDX 38 43 39 44 40 45 90 46 41 47 95 48 89 49 91 50 42 51 94 52
REMARK SMILES IDX 88 53 87 54 43 56 75 57 55 58 74 59 56 60 59 61 73 62 92 63
REMARK SMILES IDX 57 64 58 65 72 67 93 68 60 69 44 70 45 71 53 72 46 73 47 74
REMARK SMILES IDX 51 75 54 76 48 77 49 78 52 79 50 80 76 81 77 82 85 83 78 84
REMARK SMILES IDX 79 85 83 86 86 87 80 88 81 89 84 90 82 91 61 92 62 93 70 94
REMARK SMILES IDX 63 95 64 96 68 97 71 98 65 99 66 100 69 101 67 102
REMARK H PARENT 91 55 59 66
REMARK Flexibility Score: inf
ROOT
ATOM      1  C   UNL A   1      32.562  32.120  27.461  1.00  0.00     0.275 C 
ENDROOT
BRANCH   1   2
ATOM      2  O   UNL A   1      33.415  31.190  26.758  1.00  0.00    -0.458 OA
BRANCH   2   3
ATOM      3  C   UNL A   1      33.961  30.214  27.523  1.00  0.00     0.338 C 
ATOM      4  O   UNL A   1      34.763  30.365  28.433  1.00  0.00    -0.246 OA
BRANCH   3   5
ATOM      5  C   UNL A   1      33.397  28.892  27.180  1.00  0.00     0.060 A 
ATOM      6  C   UNL A   1      32.320  26.454  26.273  1.00  0.00     0.060 A 
ATOM      7  C   UNL A   1      33.621  26.829  25.935  1.00  0.00     0.029 A 
ATOM      8  C   UNL A   1      31.579  27.303  27.109  1.00  0.00     0.029 A 
ATOM      9  C   UNL A   1      34.135  28.053  26.345  1.00  0.00     0.018 A 
ATOM     10  C   UNL A   1      32.119  28.508  27.585  1.00  0.00     0.018 A 
BRANCH   6  11
ATOM     11  N   UNL A   1      31.790  25.288  25.738  1.00  0.00    -0.257 N 
ATOM     12  C   UNL A   1      30.509  25.221  25.035  1.00  0.00     0.144 C 
ATOM     13  C   UNL A   1      30.533  23.812  24.425  1.00  0.00     0.091 C 
ATOM     14  C   UNL A   1      31.888  23.346  24.879  1.00  0.00     0.071 C 
ATOM     15  N   UNL A   1      32.576  24.191  25.578  1.00  0.00    -0.176 NA
BRANCH  12  16
ATOM     16  C   UNL A   1      30.342  26.328  23.999  1.00  0.00    -0.019 A 
ATOM     17  C   UNL A   1      29.138  28.232  23.058  1.00  0.00     0.119 A 
ATOM     18  C   UNL A   1      30.057  28.292  22.011  1.00  0.00     0.046 A 
ATOM     19  C   UNL A   1      29.268  27.240  24.036  1.00  0.00     0.052 A 
ATOM     20  C   UNL A   1      31.118  27.390  21.951  1.00  0.00     0.004 A 
ATOM     21  C   UNL A   1      31.260  26.418  22.939  1.00  0.00     0.006 A 
BRANCH  17  22
ATOM     22  O   UNL A   1      28.132  29.158  22.995  1.00  0.00    -0.497 OA
ATOM     23  C   UNL A   1      28.061  29.913  21.792  1.00  0.00     0.278 C 
ENDBRANCH  17  22
ENDBRANCH  12  16
BRANCH  14  24
ATOM     24  C   UNL A   1      32.350  21.979  24.614  1.00  0.00    -0.002 A 
ATOM     25  C   UNL A   1      32.968  21.283  25.660  1.00  0.00     0.011 A 
ATOM     26  C   UNL A   1      32.142  21.370  23.374  1.00  0.00     0.011 A 
ATOM     27  C   UNL A   1      33.342  19.953  25.483  1.00  0.00     0.021 A 
ATOM     28  C   UNL A   1      32.544  20.045  23.185  1.00  0.00     0.021 A 
ATOM     29  C   UNL A   1      33.130  19.340  24.244  1.00  0.00     0.067 A 
BRANCH  29  30
ATOM     30  S   UNL A   1      33.551  17.624  24.047  1.00  0.00     0.175 S 
ATOM     31  C   UNL A   1      32.677  16.796  25.348  1.00  0.00     0.163 C 
ATOM     32  O   UNL A   1      32.991  17.205  22.777  1.00  0.00    -0.224 OA
ATOM     33  O   UNL A   1      34.971  17.489  24.318  1.00  0.00    -0.224 OA
ENDBRANCH  29  30
ENDBRANCH  14  24
ENDBRANCH   6  11
ENDBRANCH   3   5
ENDBRANCH   2   3
ENDBRANCH   1   2
BRANCH   1  34
ATOM     34  C   UNL A   1      33.190  33.512  27.536  1.00  0.00     0.275 C 
BRANCH  34  35
ATOM     35  O   UNL A   1      32.395  34.376  28.371  1.00  0.00    -0.458 OA
BRANCH  35  36
ATOM     36  C   UNL A   1      33.059  35.401  28.948  1.00  0.00     0.338 C 
ATOM     37  O   UNL A   1      32.794  36.590  28.887  1.00  0.00    -0.246 OA
BRANCH  36  38
ATOM     38  C   UNL A   1      34.195  34.895  29.736  1.00  0.00     0.060 A 
ATOM     39  C   UNL A   1      35.446  34.808  29.139  1.00  0.00     0.016 A 
ATOM     40  C   UNL A   1      33.988  34.332  30.992  1.00  0.00     0.016 A 
ATOM     41  C   UNL A   1      36.443  34.021  29.710  1.00  0.00     0.010 A 
ATOM     42  C   UNL A   1      35.042  33.672  31.636  1.00  0.00     0.010 A 
ATOM     43  C   UNL A   1      36.270  33.457  30.981  1.00  0.00    -0.014 A 
BRANCH  43  44
ATOM     44  C   UNL A   1      37.351  32.633  31.607  1.00  0.00     0.031 A 
ATOM     45  C   UNL A   1      37.812  32.918  33.015  1.00  0.00     0.074 A 
ATOM     46  C   UNL A   1      37.924  31.619  30.924  1.00  0.00     0.049 A 
ATOM     47  N   UNL A   1      38.860  32.460  33.657  1.00  0.00    -0.248 NA
ATOM     48  C   UNL A   1      36.999  33.857  33.805  1.00  0.00     0.031 C 
ATOM     49  C   UNL A   1      37.558  31.190  29.573  1.00  0.00     0.029 A 
ATOM     50  N   UNL A   1      38.936  30.757  31.278  1.00  0.00    -0.354 N 
ATOM     51  C   UNL A   1      38.868  33.103  34.889  1.00  0.00     0.074 A 
ATOM     52  C   UNL A   1      37.722  33.986  34.908  1.00  0.00     0.031 C 
ATOM     53  C   UNL A   1      38.293  30.123  29.233  1.00  0.00     0.029 A 
ATOM     54  C   UNL A   1      39.260  29.858  30.290  1.00  0.00     0.049 A 
ATOM     55  H   UNL A   1      39.385  30.783  32.153  1.00  0.00     0.167 HD
ATOM     56  C   UNL A   1      39.751  32.970  35.909  1.00  0.00     0.037 A 
ATOM     57  C   UNL A   1      40.255  28.954  30.212  1.00  0.00     0.037 A 
ATOM     58  C   UNL A   1      40.852  32.039  35.915  1.00  0.00     0.049 A 
ATOM     59  C   UNL A   1      41.238  28.844  31.343  1.00  0.00     0.074 A 
ATOM     60  C   UNL A   1      41.787  31.813  36.912  1.00  0.00     0.029 A 
ATOM     61  N   UNL A   1      41.158  31.169  34.880  1.00  0.00    -0.354 N 
ATOM     62  N   UNL A   1      41.269  29.499  32.477  1.00  0.00    -0.248 NA
ATOM     63  C   UNL A   1      42.337  27.884  31.171  1.00  0.00     0.031 C 
ATOM     64  C   UNL A   1      42.679  30.833  36.464  1.00  0.00     0.029 A 
ATOM     65  C   UNL A   1      42.273  30.413  35.209  1.00  0.00     0.049 A 
ATOM     66  H   UNL A   1      40.656  31.097  34.036  1.00  0.00     0.167 HD
ATOM     67  C   UNL A   1      42.380  29.024  33.159  1.00  0.00     0.074 A 
ATOM     68  C   UNL A   1      42.983  28.009  32.321  1.00  0.00     0.031 C 
ATOM     69  C   UNL A   1      42.859  29.402  34.368  1.00  0.00     0.037 A 
BRANCH  56  70
ATOM     70  C   UNL A   1      39.590  33.874  37.099  1.00  0.00     0.064 A 
ATOM     71  C   UNL A   1      40.124  35.170  37.129  1.00  0.00     0.173 A 
ATOM     72  C   UNL A   1      38.846  33.447  38.211  1.00  0.00     0.173 A 
ATOM     73  F   UNL A   1      40.849  35.627  36.098  1.00  0.00    -0.203 F 
ATOM     74  C   UNL A   1      39.941  35.995  38.238  1.00  0.00     0.198 A 
ATOM     75  C   UNL A   1      38.640  34.284  39.305  1.00  0.00     0.198 A 
ATOM     76  F   UNL A   1      38.303  32.220  38.230  1.00  0.00    -0.203 F 
ATOM     77  F   UNL A   1      40.497  37.214  38.263  1.00  0.00    -0.200 F 
ATOM     78  C   UNL A   1      39.194  35.553  39.321  1.00  0.00     0.200 A 
ATOM     79  F   UNL A   1      37.903  33.861  40.342  1.00  0.00    -0.200 F 
ATOM     80  F   UNL A   1      39.012  36.353  40.381  1.00  0.00    -0.200 F 
ENDBRANCH  56  70
BRANCH  57  81
ATOM     81  C   UNL A   1      40.397  28.116  28.991  1.00  0.00     0.064 A 
ATOM     82  C   UNL A   1      39.727  26.892  28.873  1.00  0.00     0.173 A 
ATOM     83  C   UNL A   1      41.198  28.529  27.914  1.00  0.00     0.173 A 
ATOM     84  F   UNL A   1      38.974  26.441  29.887  1.00  0.00    -0.203 F 
ATOM     85  C   UNL A   1      39.857  26.109  27.727  1.00  0.00     0.198 A 
ATOM     86  C   UNL A   1      41.299  27.761  26.756  1.00  0.00     0.198 A 
ATOM     87  F   UNL A   1      41.863  29.691  27.976  1.00  0.00    -0.203 F 
ATOM     88  F   UNL A   1      39.239  24.921  27.657  1.00  0.00    -0.200 F 
ATOM     89  C   UNL A   1      40.634  26.548  26.666  1.00  0.00     0.200 A 
ATOM     90  F   UNL A   1      42.038  28.199  25.727  1.00  0.00    -0.200 F 
ATOM     91  F   UNL A   1      40.749  25.800  25.561  1.00  0.00    -0.200 F 
ENDBRANCH  57  81
BRANCH  69  92
ATOM     92  C   UNL A   1      44.078  28.687  34.873  1.00  0.00     0.064 A 
ATOM     93  C   UNL A   1      45.371  29.171  34.626  1.00  0.00     0.173 A 
ATOM     94  C   UNL A   1      43.947  27.514  35.633  1.00  0.00     0.173 A 
ATOM     95  F   UNL A   1      45.547  30.279  33.889  1.00  0.00    -0.203 F 
ATOM     96  C   UNL A   1      46.491  28.493  35.100  1.00  0.00     0.198 A 
ATOM     97  C   UNL A   1      45.068  26.855  36.129  1.00  0.00     0.198 A 
ATOM     98  F   UNL A   1      42.732  27.013  35.900  1.00  0.00    -0.203 F 
ATOM     99  F   UNL A   1      47.718  28.946  34.810  1.00  0.00    -0.200 F 
ATOM    100  C   UNL A   1      46.338  27.340  35.856  1.00  0.00     0.200 A 
ATOM    101  F   UNL A   1      44.919  25.746  36.867  1.00  0.00    -0.200 F 
ATOM    102  F   UNL A   1      47.417  26.690  36.313  1.00  0.00    -0.200 F 
ENDBRANCH  69  92
ENDBRANCH  43  44
ENDBRANCH  36  38
ENDBRANCH  35  36
ENDBRANCH  34  35
ENDBRANCH   1  34
TORSDOF 16
ENDMDL
