MODEL 1
REMARK VINA RESULT:     -11.4      0.000      0.000
REMARK SMILES C[N@@H+]1CCC[C@@H](NC(=O)N(CC(=O)OCCOC(=O)c2ccc(-c3c4nc(c(-c5c(F)c(F)c(F)c(F)c5F)c5ccc([nH]5)c(-c5c(F)c(F)c(F)c(F)c5F)c5nc(c(-c6c(F)c(F)c(F)c(F)c6F)c6ccc3[nH]6)C=C5)C=C4)cc2)C(C)(C)C)C1
REMARK SMILES IDX 15 1 14 2 12 3 13 4 11 5 10 6 8 7 7 8 9 10 6 11 1 12 2 13
REMARK SMILES IDX 3 14 87 15 4 17 5 18 83 19 84 20 85 21 86 22 16 23 17 24
REMARK SMILES IDX 18 25 19 26 20 27 21 28 82 29 22 30 81 31 23 32 24 33 25 34
REMARK SMILES IDX 75 35 26 36 80 37 74 38 76 39 27 40 79 41 73 42 72 43 28 45
REMARK SMILES IDX 60 46 40 47 59 48 41 49 44 50 58 51 77 52 42 53 43 54 57 56
REMARK SMILES IDX 78 57 45 58 29 59 30 60 38 61 31 62 32 63 36 64 39 65 33 66
REMARK SMILES IDX 34 67 37 68 35 69 61 70 62 71 70 72 63 73 64 74 68 75 71 76
REMARK SMILES IDX 65 77 66 78 69 79 67 80 46 81 47 82 55 83 48 84 49 85 53 86
REMARK SMILES IDX 56 87 50 88 51 89 54 90 52 91
REMARK H PARENT 7 9 2 16 76 44 44 55
REMARK Flexibility Score: inf
ROOT
ATOM      1  C   UNL A   1      31.656  31.234  26.524  1.00  0.00     0.274 C 
ENDROOT
BRANCH   1   2
ATOM      2  O   UNL A   1      32.908  30.578  26.802  1.00  0.00    -0.461 OA
BRANCH   2   3
ATOM      3  C   UNL A   1      33.069  29.374  26.193  1.00  0.00     0.325 C 
ATOM      4  O   UNL A   1      34.159  28.851  25.963  1.00  0.00    -0.250 OA
BRANCH   3   5
ATOM      5  C   UNL A   1      31.759  28.638  25.904  1.00  0.00     0.244 C 
BRANCH   5   6
ATOM      6  N   UNL A   1      31.609  28.059  24.574  1.00  0.00    -0.309 N 
BRANCH   6   7
ATOM      7  C   UNL A   1      31.631  28.837  23.436  1.00  0.00     0.318 C 
ATOM      8  N   UNL A   1      30.597  29.591  23.018  1.00  0.00    -0.330 N 
ATOM      9  H   UNL A   1      30.853  30.073  22.198  1.00  0.00     0.165 HD
ATOM     10  O   UNL A   1      32.621  28.908  22.703  1.00  0.00    -0.249 OA
BRANCH   8  11
ATOM     11  C   UNL A   1      29.214  29.937  23.378  1.00  0.00     0.139 C 
ATOM     12  C   UNL A   1      29.089  33.733  23.199  1.00  0.00     0.332 C 
ATOM     13  N   UNL A   1      29.221  32.360  22.707  1.00  0.00    -0.336 N 
ATOM     14  C   UNL A   1      28.211  32.093  21.673  1.00  0.00     0.262 C 
ATOM     15  C   UNL A   1      29.095  31.410  23.827  1.00  0.00     0.287 C 
ATOM     16  H   UNL A   1      30.143  32.242  22.287  1.00  0.00     0.347 HD
ATOM     17  C   UNL A   1      28.364  30.681  21.110  1.00  0.00     0.064 C 
ATOM     18  C   UNL A   1      28.267  29.631  22.211  1.00  0.00     0.037 C 
ENDBRANCH   8  11
ENDBRANCH   6   7
BRANCH   6  19
ATOM     19  C   UNL A   1      31.470  26.551  24.434  1.00  0.00     0.037 C 
ATOM     20  C   UNL A   1      32.837  25.903  24.128  1.00  0.00     0.034 C 
ATOM     21  C   UNL A   1      30.867  25.941  25.724  1.00  0.00     0.034 C 
ATOM     22  C   UNL A   1      30.522  26.092  23.293  1.00  0.00     0.034 C 
ENDBRANCH   6  19
ENDBRANCH   5   6
ENDBRANCH   3   5
ENDBRANCH   2   3
ENDBRANCH   1   2
BRANCH   1  23
ATOM     23  C   UNL A   1      31.693  32.699  26.958  1.00  0.00     0.275 C 
BRANCH  23  24
ATOM     24  O   UNL A   1      33.049  33.105  27.229  1.00  0.00    -0.458 OA
BRANCH  24  25
ATOM     25  C   UNL A   1      33.208  33.964  28.259  1.00  0.00     0.338 C 
ATOM     26  O   UNL A   1      32.469  34.890  28.566  1.00  0.00    -0.246 OA
BRANCH  25  27
ATOM     27  C   UNL A   1      34.422  33.640  29.040  1.00  0.00     0.060 A 
ATOM     28  C   UNL A   1      35.613  34.354  28.888  1.00  0.00     0.016 A 
ATOM     29  C   UNL A   1      34.395  32.516  29.867  1.00  0.00     0.016 A 
ATOM     30  C   UNL A   1      36.790  33.901  29.484  1.00  0.00     0.010 A 
ATOM     31  C   UNL A   1      35.551  32.122  30.544  1.00  0.00     0.010 A 
ATOM     32  C   UNL A   1      36.767  32.794  30.341  1.00  0.00    -0.014 A 
BRANCH  32  33
ATOM     33  C   UNL A   1      37.989  32.323  31.046  1.00  0.00     0.031 A 
ATOM     34  C   UNL A   1      38.820  31.216  30.457  1.00  0.00     0.074 A 
ATOM     35  C   UNL A   1      38.321  32.834  32.248  1.00  0.00     0.049 A 
ATOM     36  N   UNL A   1      39.730  30.468  31.026  1.00  0.00    -0.248 NA
ATOM     37  C   UNL A   1      38.578  30.899  29.040  1.00  0.00     0.031 C 
ATOM     38  C   UNL A   1      37.640  33.941  32.919  1.00  0.00     0.029 A 
ATOM     39  N   UNL A   1      39.308  32.467  33.130  1.00  0.00    -0.354 N 
ATOM     40  C   UNL A   1      40.121  29.549  30.061  1.00  0.00     0.074 A 
ATOM     41  C   UNL A   1      39.361  29.843  28.863  1.00  0.00     0.031 C 
ATOM     42  C   UNL A   1      38.234  34.172  34.099  1.00  0.00     0.029 A 
ATOM     43  C   UNL A   1      39.276  33.173  34.307  1.00  0.00     0.049 A 
ATOM     44  H   UNL A   1      39.972  31.766  32.937  1.00  0.00     0.167 HD
ATOM     45  C   UNL A   1      41.025  28.546  30.172  1.00  0.00     0.037 A 
ATOM     46  C   UNL A   1      39.965  33.002  35.450  1.00  0.00     0.037 A 
ATOM     47  C   UNL A   1      41.818  28.295  31.347  1.00  0.00     0.049 A 
ATOM     48  C   UNL A   1      40.935  31.862  35.565  1.00  0.00     0.074 A 
ATOM     49  C   UNL A   1      42.787  27.325  31.545  1.00  0.00     0.029 A 
ATOM     50  N   UNL A   1      41.743  29.029  32.522  1.00  0.00    -0.354 N 
ATOM     51  N   UNL A   1      41.258  30.961  34.672  1.00  0.00    -0.248 NA
ATOM     52  C   UNL A   1      41.616  31.703  36.858  1.00  0.00     0.031 C 
ATOM     53  C   UNL A   1      43.277  27.454  32.850  1.00  0.00     0.029 A 
ATOM     54  C   UNL A   1      42.639  28.526  33.452  1.00  0.00     0.049 A 
ATOM     55  H   UNL A   1      41.141  29.793  32.672  1.00  0.00     0.167 HD
ATOM     56  C   UNL A   1      42.190  30.137  35.284  1.00  0.00     0.074 A 
ATOM     57  C   UNL A   1      42.387  30.649  36.624  1.00  0.00     0.031 C 
ATOM     58  C   UNL A   1      42.826  29.052  34.779  1.00  0.00     0.037 A 
BRANCH  45  59
ATOM     59  C   UNL A   1      41.181  27.619  29.006  1.00  0.00     0.064 A 
ATOM     60  C   UNL A   1      42.226  27.754  28.081  1.00  0.00     0.173 A 
ATOM     61  C   UNL A   1      40.288  26.548  28.836  1.00  0.00     0.173 A 
ATOM     62  F   UNL A   1      43.096  28.769  28.192  1.00  0.00    -0.203 F 
ATOM     63  C   UNL A   1      42.360  26.864  27.018  1.00  0.00     0.198 A 
ATOM     64  C   UNL A   1      40.439  25.647  27.786  1.00  0.00     0.198 A 
ATOM     65  F   UNL A   1      39.273  26.372  29.696  1.00  0.00    -0.203 F 
ATOM     66  F   UNL A   1      43.345  27.034  26.125  1.00  0.00    -0.200 F 
ATOM     67  C   UNL A   1      41.472  25.809  26.875  1.00  0.00     0.200 A 
ATOM     68  F   UNL A   1      39.586  24.622  27.656  1.00  0.00    -0.200 F 
ATOM     69  F   UNL A   1      41.607  24.950  25.855  1.00  0.00    -0.200 F 
ENDBRANCH  45  59
BRANCH  46  70
ATOM     70  C   UNL A   1      39.724  33.921  36.590  1.00  0.00     0.064 A 
ATOM     71  C   UNL A   1      38.871  33.550  37.637  1.00  0.00     0.173 A 
ATOM     72  C   UNL A   1      40.367  35.164  36.676  1.00  0.00     0.173 A 
ATOM     73  F   UNL A   1      38.217  32.380  37.585  1.00  0.00    -0.203 F 
ATOM     74  C   UNL A   1      38.674  34.387  38.733  1.00  0.00     0.198 A 
ATOM     75  C   UNL A   1      40.189  35.989  37.783  1.00  0.00     0.198 A 
ATOM     76  F   UNL A   1      41.194  35.562  35.698  1.00  0.00    -0.203 F 
ATOM     77  F   UNL A   1      37.839  34.019  39.713  1.00  0.00    -0.200 F 
ATOM     78  C   UNL A   1      39.341  35.601  38.809  1.00  0.00     0.200 A 
ATOM     79  F   UNL A   1      40.846  37.155  37.860  1.00  0.00    -0.200 F 
ATOM     80  F   UNL A   1      39.165  36.398  39.872  1.00  0.00    -0.200 F 
ENDBRANCH  46  70
BRANCH  58  81
ATOM     81  C   UNL A   1      43.821  28.370  35.667  1.00  0.00     0.064 A 
ATOM     82  C   UNL A   1      45.173  28.743  35.674  1.00  0.00     0.173 A 
ATOM     83  C   UNL A   1      43.410  27.354  36.541  1.00  0.00     0.173 A 
ATOM     84  F   UNL A   1      45.614  29.696  34.841  1.00  0.00    -0.203 F 
ATOM     85  C   UNL A   1      46.082  28.108  36.516  1.00  0.00     0.198 A 
ATOM     86  C   UNL A   1      44.317  26.736  37.395  1.00  0.00     0.198 A 
ATOM     87  F   UNL A   1      42.127  26.965  36.569  1.00  0.00    -0.203 F 
ATOM     88  F   UNL A   1      47.376  28.454  36.484  1.00  0.00    -0.200 F 
ATOM     89  C   UNL A   1      45.653  27.111  37.379  1.00  0.00     0.200 A 
ATOM     90  F   UNL A   1      43.901  25.776  38.233  1.00  0.00    -0.200 F 
ATOM     91  F   UNL A   1      46.530  26.503  38.191  1.00  0.00    -0.200 F 
ENDBRANCH  58  81
ENDBRANCH  32  33
ENDBRANCH  25  27
ENDBRANCH  24  25
ENDBRANCH  23  24
ENDBRANCH   1  23
TORSDOF 15
ENDMDL
MODEL 2
REMARK VINA RESULT:     -11.3      5.698     11.192
REMARK SMILES C[N@@H+]1CCC[C@@H](NC(=O)N(CC(=O)OCCOC(=O)c2ccc(-c3c4nc(c(-c5c(F)c(F)c(F)c(F)c5F)c5ccc([nH]5)c(-c5c(F)c(F)c(F)c(F)c5F)c5nc(c(-c6c(F)c(F)c(F)c(F)c6F)c6ccc3[nH]6)C=C5)C=C4)cc2)C(C)(C)C)C1
REMARK SMILES IDX 15 1 14 2 12 3 13 4 11 5 10 6 8 7 7 8 9 10 6 11 1 12 2 13
REMARK SMILES IDX 3 14 87 15 4 17 5 18 83 19 84 20 85 21 86 22 16 23 17 24
REMARK SMILES IDX 18 25 19 26 20 27 21 28 82 29 22 30 81 31 23 32 24 33 25 34
REMARK SMILES IDX 75 35 26 36 80 37 74 38 76 39 27 40 79 41 73 42 72 43 28 45
REMARK SMILES IDX 60 46 40 47 59 48 41 49 44 50 58 51 77 52 42 53 43 54 57 56
REMARK SMILES IDX 78 57 45 58 29 59 30 60 38 61 31 62 32 63 36 64 39 65 33 66
REMARK SMILES IDX 34 67 37 68 35 69 61 70 62 71 70 72 63 73 64 74 68 75 71 76
REMARK SMILES IDX 65 77 66 78 69 79 67 80 46 81 47 82 55 83 48 84 49 85 53 86
REMARK SMILES IDX 56 87 50 88 51 89 54 90 52 91
REMARK H PARENT 7 9 2 16 76 44 44 55
REMARK Flexibility Score: inf
ROOT
ATOM      1  C   UNL A   1      36.803  21.997  23.909  1.00  0.00     0.274 C 
ENDROOT
BRANCH   1   2
ATOM      2  O   UNL A   1      36.741  23.300  24.522  1.00  0.00    -0.461 OA
BRANCH   2   3
ATOM      3  C   UNL A   1      35.486  23.748  24.786  1.00  0.00     0.325 C 
ATOM      4  O   UNL A   1      35.229  24.837  25.297  1.00  0.00    -0.250 OA
BRANCH   3   5
ATOM      5  C   UNL A   1      34.373  22.824  24.288  1.00  0.00     0.244 C 
BRANCH   5   6
ATOM      6  N   UNL A   1      33.465  22.285  25.295  1.00  0.00    -0.309 N 
BRANCH   6   7
ATOM      7  C   UNL A   1      33.825  21.231  26.109  1.00  0.00     0.318 C 
ATOM      8  N   UNL A   1      34.014  19.972  25.675  1.00  0.00    -0.330 N 
ATOM      9  H   UNL A   1      34.286  19.401  26.430  1.00  0.00     0.165 HD
ATOM     10  O   UNL A   1      34.013  21.368  27.321  1.00  0.00    -0.249 OA
BRANCH   8  11
ATOM     11  C   UNL A   1      33.950  19.163  24.448  1.00  0.00     0.139 C 
ATOM     12  C   UNL A   1      35.556  15.848  25.391  1.00  0.00     0.332 C 
ATOM     13  N   UNL A   1      34.563  16.924  25.414  1.00  0.00    -0.336 N 
ATOM     14  C   UNL A   1      33.235  16.396  25.072  1.00  0.00     0.262 C 
ATOM     15  C   UNL A   1      34.961  17.996  24.484  1.00  0.00     0.287 C 
ATOM     16  H   UNL A   1      34.515  17.316  26.355  1.00  0.00     0.347 HD
ATOM     17  C   UNL A   1      32.174  17.494  25.139  1.00  0.00     0.064 C 
ATOM     18  C   UNL A   1      32.521  18.657  24.217  1.00  0.00     0.037 C 
ENDBRANCH   8  11
ENDBRANCH   6   7
BRANCH   6  19
ATOM     19  C   UNL A   1      32.101  22.929  25.483  1.00  0.00     0.037 C 
ATOM     20  C   UNL A   1      32.150  23.993  26.600  1.00  0.00     0.034 C 
ATOM     21  C   UNL A   1      31.617  23.570  24.159  1.00  0.00     0.034 C 
ATOM     22  C   UNL A   1      30.971  21.945  25.889  1.00  0.00     0.034 C 
ENDBRANCH   6  19
ENDBRANCH   5   6
ENDBRANCH   3   5
ENDBRANCH   2   3
ENDBRANCH   1   2
BRANCH   1  23
ATOM     23  C   UNL A   1      37.432  20.974  24.854  1.00  0.00     0.275 C 
BRANCH  23  24
ATOM     24  O   UNL A   1      37.904  21.623  26.051  1.00  0.00    -0.458 OA
BRANCH  24  25
ATOM     25  C   UNL A   1      39.219  21.468  26.321  1.00  0.00     0.338 C 
ATOM     26  O   UNL A   1      39.883  20.449  26.185  1.00  0.00    -0.246 OA
BRANCH  25  27
ATOM     27  C   UNL A   1      39.816  22.733  26.802  1.00  0.00     0.060 A 
ATOM     28  C   UNL A   1      39.373  23.979  26.354  1.00  0.00     0.016 A 
ATOM     29  C   UNL A   1      40.929  22.660  27.641  1.00  0.00     0.016 A 
ATOM     30  C   UNL A   1      40.084  25.138  26.669  1.00  0.00     0.010 A 
ATOM     31  C   UNL A   1      41.581  23.830  28.038  1.00  0.00     0.010 A 
ATOM     32  C   UNL A   1      41.182  25.079  27.535  1.00  0.00    -0.014 A 
BRANCH  32  33
ATOM     33  C   UNL A   1      41.924  26.302  27.945  1.00  0.00     0.031 A 
ATOM     34  C   UNL A   1      41.241  27.354  28.774  1.00  0.00     0.074 A 
ATOM     35  C   UNL A   1      43.185  26.508  27.517  1.00  0.00     0.049 A 
ATOM     36  N   UNL A   1      41.590  28.597  28.989  1.00  0.00    -0.248 NA
ATOM     37  C   UNL A   1      39.988  26.957  29.435  1.00  0.00     0.031 C 
ATOM     38  C   UNL A   1      43.989  25.558  26.750  1.00  0.00     0.029 A 
ATOM     39  N   UNL A   1      44.004  27.603  27.653  1.00  0.00    -0.354 N 
ATOM     40  C   UNL A   1      40.569  29.149  29.752  1.00  0.00     0.074 A 
ATOM     41  C   UNL A   1      39.594  28.101  29.977  1.00  0.00     0.031 C 
ATOM     42  C   UNL A   1      45.188  26.102  26.492  1.00  0.00     0.029 A 
ATOM     43  C   UNL A   1      45.202  27.471  26.996  1.00  0.00     0.049 A 
ATOM     44  H   UNL A   1      43.755  28.402  28.170  1.00  0.00     0.167 HD
ATOM     45  C   UNL A   1      40.455  30.418  30.212  1.00  0.00     0.037 A 
ATOM     46  C   UNL A   1      46.181  28.366  26.772  1.00  0.00     0.037 A 
ATOM     47  C   UNL A   1      41.454  31.440  30.033  1.00  0.00     0.049 A 
ATOM     48  C   UNL A   1      46.018  29.777  27.258  1.00  0.00     0.074 A 
ATOM     49  C   UNL A   1      41.446  32.746  30.492  1.00  0.00     0.029 A 
ATOM     50  N   UNL A   1      42.648  31.264  29.349  1.00  0.00    -0.354 N 
ATOM     51  N   UNL A   1      45.027  30.309  27.926  1.00  0.00    -0.248 NA
ATOM     52  C   UNL A   1      47.102  30.715  26.935  1.00  0.00     0.031 C 
ATOM     53  C   UNL A   1      42.623  33.369  30.061  1.00  0.00     0.029 A 
ATOM     54  C   UNL A   1      43.380  32.441  29.364  1.00  0.00     0.049 A 
ATOM     55  H   UNL A   1      42.933  30.427  28.917  1.00  0.00     0.167 HD
ATOM     56  C   UNL A   1      45.369  31.639  28.119  1.00  0.00     0.074 A 
ATOM     57  C   UNL A   1      46.665  31.832  27.503  1.00  0.00     0.031 C 
ATOM     58  C   UNL A   1      44.670  32.614  28.751  1.00  0.00     0.037 A 
BRANCH  45  59
ATOM     59  C   UNL A   1      39.188  30.789  30.921  1.00  0.00     0.064 A 
ATOM     60  C   UNL A   1      39.050  30.668  32.311  1.00  0.00     0.173 A 
ATOM     61  C   UNL A   1      38.105  31.314  30.197  1.00  0.00     0.173 A 
ATOM     62  F   UNL A   1      40.051  30.158  33.045  1.00  0.00    -0.203 F 
ATOM     63  C   UNL A   1      37.869  31.042  32.948  1.00  0.00     0.198 A 
ATOM     64  C   UNL A   1      36.935  31.708  30.839  1.00  0.00     0.198 A 
ATOM     65  F   UNL A   1      38.188  31.454  28.865  1.00  0.00    -0.203 F 
ATOM     66  F   UNL A   1      37.746  30.883  34.273  1.00  0.00    -0.200 F 
ATOM     67  C   UNL A   1      36.816  31.566  32.213  1.00  0.00     0.200 A 
ATOM     68  F   UNL A   1      35.923  32.225  30.129  1.00  0.00    -0.200 F 
ATOM     69  F   UNL A   1      35.683  31.931  32.829  1.00  0.00    -0.200 F 
ENDBRANCH  45  59
BRANCH  46  70
ATOM     70  C   UNL A   1      47.387  27.951  26.013  1.00  0.00     0.064 A 
ATOM     71  C   UNL A   1      48.572  27.621  26.684  1.00  0.00     0.173 A 
ATOM     72  C   UNL A   1      47.369  27.836  24.616  1.00  0.00     0.173 A 
ATOM     73  F   UNL A   1      48.641  27.738  28.018  1.00  0.00    -0.203 F 
ATOM     74  C   UNL A   1      49.695  27.186  25.983  1.00  0.00     0.198 A 
ATOM     75  C   UNL A   1      48.484  27.378  23.919  1.00  0.00     0.198 A 
ATOM     76  F   UNL A   1      46.256  28.140  23.932  1.00  0.00    -0.203 F 
ATOM     77  F   UNL A   1      50.822  26.895  26.644  1.00  0.00    -0.200 F 
ATOM     78  C   UNL A   1      49.646  27.056  24.603  1.00  0.00     0.200 A 
ATOM     79  F   UNL A   1      48.428  27.239  22.587  1.00  0.00    -0.200 F 
ATOM     80  F   UNL A   1      50.721  26.620  23.931  1.00  0.00    -0.200 F 
ENDBRANCH  46  70
BRANCH  58  81
ATOM     81  C   UNL A   1      45.311  33.964  28.841  1.00  0.00     0.064 A 
ATOM     82  C   UNL A   1      46.184  34.293  29.887  1.00  0.00     0.173 A 
ATOM     83  C   UNL A   1      45.072  34.928  27.850  1.00  0.00     0.173 A 
ATOM     84  F   UNL A   1      46.426  33.410  30.867  1.00  0.00    -0.203 F 
ATOM     85  C   UNL A   1      46.783  35.549  29.947  1.00  0.00     0.198 A 
ATOM     86  C   UNL A   1      45.688  36.174  27.902  1.00  0.00     0.198 A 
ATOM     87  F   UNL A   1      44.246  34.656  26.829  1.00  0.00    -0.203 F 
ATOM     88  F   UNL A   1      47.586  35.858  30.974  1.00  0.00    -0.200 F 
ATOM     89  C   UNL A   1      46.539  36.484  28.953  1.00  0.00     0.200 A 
ATOM     90  F   UNL A   1      45.457  37.076  26.938  1.00  0.00    -0.200 F 
ATOM     91  F   UNL A   1      47.119  37.692  29.011  1.00  0.00    -0.200 F 
ENDBRANCH  58  81
ENDBRANCH  32  33
ENDBRANCH  25  27
ENDBRANCH  24  25
ENDBRANCH  23  24
ENDBRANCH   1  23
TORSDOF 15
ENDMDL
MODEL 3
REMARK VINA RESULT:     -11.2      2.235      4.428
REMARK SMILES C[N@@H+]1CCC[C@@H](NC(=O)N(CC(=O)OCCOC(=O)c2ccc(-c3c4nc(c(-c5c(F)c(F)c(F)c(F)c5F)c5ccc([nH]5)c(-c5c(F)c(F)c(F)c(F)c5F)c5nc(c(-c6c(F)c(F)c(F)c(F)c6F)c6ccc3[nH]6)C=C5)C=C4)cc2)C(C)(C)C)C1
REMARK SMILES IDX 15 1 14 2 12 3 13 4 11 5 10 6 8 7 7 8 9 10 6 11 1 12 2 13
REMARK SMILES IDX 3 14 87 15 4 17 5 18 83 19 84 20 85 21 86 22 16 23 17 24
REMARK SMILES IDX 18 25 19 26 20 27 21 28 82 29 22 30 81 31 23 32 24 33 25 34
REMARK SMILES IDX 75 35 26 36 80 37 74 38 76 39 27 40 79 41 73 42 72 43 28 45
REMARK SMILES IDX 60 46 40 47 59 48 41 49 44 50 58 51 77 52 42 53 43 54 57 56
REMARK SMILES IDX 78 57 45 58 29 59 30 60 38 61 31 62 32 63 36 64 39 65 33 66
REMARK SMILES IDX 34 67 37 68 35 69 61 70 62 71 70 72 63 73 64 74 68 75 71 76
REMARK SMILES IDX 65 77 66 78 69 79 67 80 46 81 47 82 55 83 48 84 49 85 53 86
REMARK SMILES IDX 56 87 50 88 51 89 54 90 52 91
REMARK H PARENT 7 9 2 16 76 44 44 55
REMARK Flexibility Score: inf
ROOT
ATOM      1  C   UNL A   1      31.775  28.989  24.153  1.00  0.00     0.274 C 
ENDROOT
BRANCH   1   2
ATOM      2  O   UNL A   1      33.070  29.092  23.530  1.00  0.00    -0.461 OA
BRANCH   2   3
ATOM      3  C   UNL A   1      33.588  27.915  23.091  1.00  0.00     0.325 C 
ATOM      4  O   UNL A   1      34.035  27.729  21.960  1.00  0.00    -0.250 OA
BRANCH   3   5
ATOM      5  C   UNL A   1      33.683  26.832  24.169  1.00  0.00     0.244 C 
BRANCH   5   6
ATOM      6  N   UNL A   1      33.141  25.520  23.832  1.00  0.00    -0.309 N 
BRANCH   6   7
ATOM      7  C   UNL A   1      33.839  24.624  23.050  1.00  0.00     0.318 C 
ATOM      8  N   UNL A   1      34.956  23.987  23.446  1.00  0.00    -0.330 N 
ATOM      9  H   UNL A   1      35.262  23.384  22.729  1.00  0.00     0.165 HD
ATOM     10  O   UNL A   1      33.480  24.327  21.907  1.00  0.00    -0.249 OA
BRANCH   8  11
ATOM     11  C   UNL A   1      35.873  23.890  24.591  1.00  0.00     0.139 C 
ATOM     12  C   UNL A   1      33.799  22.309  27.359  1.00  0.00     0.332 C 
ATOM     13  N   UNL A   1      34.501  22.395  26.076  1.00  0.00    -0.336 N 
ATOM     14  C   UNL A   1      35.521  21.341  25.984  1.00  0.00     0.262 C 
ATOM     15  C   UNL A   1      35.105  23.730  25.922  1.00  0.00     0.287 C 
ATOM     16  H   UNL A   1      33.832  22.256  25.318  1.00  0.00     0.347 HD
ATOM     17  C   UNL A   1      36.231  21.382  24.631  1.00  0.00     0.064 C 
ATOM     18  C   UNL A   1      36.869  22.743  24.381  1.00  0.00     0.037 C 
ENDBRANCH   8  11
ENDBRANCH   6   7
BRANCH   6  19
ATOM     19  C   UNL A   1      31.790  25.110  24.396  1.00  0.00     0.037 C 
ATOM     20  C   UNL A   1      31.617  25.637  25.837  1.00  0.00     0.034 C 
ATOM     21  C   UNL A   1      30.645  25.637  23.496  1.00  0.00     0.034 C 
ATOM     22  C   UNL A   1      31.561  23.576  24.479  1.00  0.00     0.034 C 
ENDBRANCH   6  19
ENDBRANCH   5   6
ENDBRANCH   3   5
ENDBRANCH   2   3
ENDBRANCH   1   2
BRANCH   1  23
ATOM     23  C   UNL A   1      31.806  29.536  25.580  1.00  0.00     0.275 C 
BRANCH  23  24
ATOM     24  O   UNL A   1      33.135  29.977  25.917  1.00  0.00    -0.458 OA
BRANCH  24  25
ATOM     25  C   UNL A   1      33.206  31.009  26.786  1.00  0.00     0.338 C 
ATOM     26  O   UNL A   1      32.396  31.917  26.917  1.00  0.00    -0.246 OA
BRANCH  25  27
ATOM     27  C   UNL A   1      34.418  30.914  27.629  1.00  0.00     0.060 A 
ATOM     28  C   UNL A   1      35.304  31.984  27.775  1.00  0.00     0.016 A 
ATOM     29  C   UNL A   1      34.733  29.679  28.197  1.00  0.00     0.016 A 
ATOM     30  C   UNL A   1      36.535  31.802  28.407  1.00  0.00     0.010 A 
ATOM     31  C   UNL A   1      35.919  29.525  28.918  1.00  0.00     0.010 A 
ATOM     32  C   UNL A   1      36.845  30.577  29.009  1.00  0.00    -0.014 A 
BRANCH  32  33
ATOM     33  C   UNL A   1      38.118  30.367  29.749  1.00  0.00     0.031 A 
ATOM     34  C   UNL A   1      39.190  29.485  29.169  1.00  0.00     0.074 A 
ATOM     35  C   UNL A   1      38.291  30.906  30.971  1.00  0.00     0.049 A 
ATOM     36  N   UNL A   1      40.224  28.940  29.757  1.00  0.00    -0.248 NA
ATOM     37  C   UNL A   1      39.068  29.160  27.739  1.00  0.00     0.031 C 
ATOM     38  C   UNL A   1      37.364  31.818  31.638  1.00  0.00     0.029 A 
ATOM     39  N   UNL A   1      39.307  30.741  31.881  1.00  0.00    -0.354 N 
ATOM     40  C   UNL A   1      40.838  28.155  28.789  1.00  0.00     0.074 A 
ATOM     41  C   UNL A   1      40.070  28.307  27.570  1.00  0.00     0.031 C 
ATOM     42  C   UNL A   1      37.855  32.143  32.843  1.00  0.00     0.029 A 
ATOM     43  C   UNL A   1      39.084  31.392  33.070  1.00  0.00     0.049 A 
ATOM     44  H   UNL A   1      40.115  30.209  31.699  1.00  0.00     0.167 HD
ATOM     45  C   UNL A   1      41.937  27.373  28.914  1.00  0.00     0.037 A 
ATOM     46  C   UNL A   1      39.758  31.347  34.234  1.00  0.00     0.037 A 
ATOM     47  C   UNL A   1      42.729  27.270  30.112  1.00  0.00     0.049 A 
ATOM     48  C   UNL A   1      40.951  30.445  34.362  1.00  0.00     0.074 A 
ATOM     49  C   UNL A   1      43.881  26.531  30.326  1.00  0.00     0.029 A 
ATOM     50  N   UNL A   1      42.457  27.939  31.297  1.00  0.00    -0.354 N 
ATOM     51  N   UNL A   1      41.492  29.661  33.464  1.00  0.00    -0.248 NA
ATOM     52  C   UNL A   1      41.610  30.405  35.675  1.00  0.00     0.031 C 
ATOM     53  C   UNL A   1      44.289  26.731  31.650  1.00  0.00     0.029 A 
ATOM     54  C   UNL A   1      43.412  27.621  32.249  1.00  0.00     0.049 A 
ATOM     55  H   UNL A   1      41.698  28.549  31.440  1.00  0.00     0.167 HD
ATOM     56  C   UNL A   1      42.564  29.045  34.094  1.00  0.00     0.074 A 
ATOM     57  C   UNL A   1      42.601  29.552  35.450  1.00  0.00     0.031 C 
ATOM     58  C   UNL A   1      43.438  28.139  33.592  1.00  0.00     0.037 A 
BRANCH  45  59
ATOM     59  C   UNL A   1      42.329  26.533  27.737  1.00  0.00     0.064 A 
ATOM     60  C   UNL A   1      41.737  25.289  27.479  1.00  0.00     0.173 A 
ATOM     61  C   UNL A   1      43.289  27.005  26.826  1.00  0.00     0.173 A 
ATOM     62  F   UNL A   1      40.826  24.788  28.327  1.00  0.00    -0.203 F 
ATOM     63  C   UNL A   1      42.105  24.539  26.364  1.00  0.00     0.198 A 
ATOM     64  C   UNL A   1      43.637  26.263  25.701  1.00  0.00     0.198 A 
ATOM     65  F   UNL A   1      43.882  28.192  27.025  1.00  0.00    -0.203 F 
ATOM     66  F   UNL A   1      41.553  23.335  26.158  1.00  0.00    -0.200 F 
ATOM     67  C   UNL A   1      43.049  25.028  25.474  1.00  0.00     0.200 A 
ATOM     68  F   UNL A   1      44.542  26.744  24.837  1.00  0.00    -0.200 F 
ATOM     69  F   UNL A   1      43.397  24.308  24.399  1.00  0.00    -0.200 F 
ENDBRANCH  45  59
BRANCH  46  70
ATOM     70  C   UNL A   1      39.285  32.160  35.381  1.00  0.00     0.064 A 
ATOM     71  C   UNL A   1      38.443  31.602  36.352  1.00  0.00     0.173 A 
ATOM     72  C   UNL A   1      39.693  33.491  35.552  1.00  0.00     0.173 A 
ATOM     73  F   UNL A   1      38.009  30.340  36.215  1.00  0.00    -0.203 F 
ATOM     74  C   UNL A   1      38.031  32.344  37.456  1.00  0.00     0.198 A 
ATOM     75  C   UNL A   1      39.301  34.223  36.668  1.00  0.00     0.198 A 
ATOM     76  F   UNL A   1      40.500  34.067  34.649  1.00  0.00    -0.203 F 
ATOM     77  F   UNL A   1      37.211  31.795  38.361  1.00  0.00    -0.200 F 
ATOM     78  C   UNL A   1      38.468  33.651  37.618  1.00  0.00     0.200 A 
ATOM     79  F   UNL A   1      39.737  35.481  36.829  1.00  0.00    -0.200 F 
ATOM     80  F   UNL A   1      38.086  34.358  38.690  1.00  0.00    -0.200 F 
ENDBRANCH  46  70
BRANCH  58  81
ATOM     81  C   UNL A   1      44.531  27.670  34.502  1.00  0.00     0.064 A 
ATOM     82  C   UNL A   1      44.389  26.515  35.283  1.00  0.00     0.173 A 
ATOM     83  C   UNL A   1      45.745  28.368  34.568  1.00  0.00     0.173 A 
ATOM     84  F   UNL A   1      43.238  25.826  35.266  1.00  0.00    -0.203 F 
ATOM     85  C   UNL A   1      45.421  26.084  36.113  1.00  0.00     0.198 A 
ATOM     86  C   UNL A   1      46.782  27.924  35.382  1.00  0.00     0.198 A 
ATOM     87  F   UNL A   1      45.927  29.478  33.837  1.00  0.00    -0.203 F 
ATOM     88  F   UNL A   1      45.253  24.998  36.879  1.00  0.00    -0.200 F 
ATOM     89  C   UNL A   1      46.616  26.785  36.157  1.00  0.00     0.200 A 
ATOM     90  F   UNL A   1      47.939  28.598  35.421  1.00  0.00    -0.200 F 
ATOM     91  F   UNL A   1      47.610  26.367  36.955  1.00  0.00    -0.200 F 
ENDBRANCH  58  81
ENDBRANCH  32  33
ENDBRANCH  25  27
ENDBRANCH  24  25
ENDBRANCH  23  24
ENDBRANCH   1  23
TORSDOF 15
ENDMDL
