MODEL 1
REMARK VINA RESULT:     -11.9      0.000      0.000
REMARK SMILES CCOc1cccc(-c2ccc([C@@H](C)C(=O)OCCOC(=O)c3ccc(-c4c5nc(c(-c6c(F)c(F)c(F)c(F)c6F)c6ccc([nH]6)c(-c6c(F)c(F)c(F)c(F)c6F)c6nc(c(-c7c(F)c(F)c(F)c(F)c7F)c7ccc4[nH]7)C=C6)C=C5)cc3)cc2F)c1
REMARK SMILES IDX 18 1 17 2 15 3 16 4 13 5 14 6 12 7 9 8 10 9 87 10 11 11
REMARK SMILES IDX 86 12 88 13 8 14 4 15 5 16 89 17 6 18 7 19 3 20 2 21 1 22
REMARK SMILES IDX 19 23 20 24 21 25 22 26 23 27 24 28 85 29 25 30 84 31 26 32
REMARK SMILES IDX 27 33 28 34 78 35 29 36 83 37 77 38 79 39 30 40 82 41 76 42
REMARK SMILES IDX 75 43 31 45 63 46 43 47 62 48 44 49 47 50 61 51 80 52 45 53
REMARK SMILES IDX 46 54 60 56 81 57 48 58 32 59 33 60 41 61 34 62 35 63 39 64
REMARK SMILES IDX 42 65 36 66 37 67 40 68 38 69 64 70 65 71 73 72 66 73 67 74
REMARK SMILES IDX 71 75 74 76 68 77 69 78 72 79 70 80 49 81 50 82 58 83 51 84
REMARK SMILES IDX 52 85 56 86 59 87 53 88 54 89 57 90 55 91
REMARK H PARENT 79 44 47 55
REMARK Flexibility Score: inf
ROOT
ATOM      1  C   UNL A   1      43.881  21.568  25.455  1.00  0.00     0.274 C 
ENDROOT
BRANCH   1   2
ATOM      2  O   UNL A   1      42.787  20.686  25.133  1.00  0.00    -0.462 OA
BRANCH   2   3
ATOM      3  C   UNL A   1      41.924  20.388  26.139  1.00  0.00     0.313 C 
ATOM      4  O   UNL A   1      41.789  19.268  26.624  1.00  0.00    -0.252 OA
BRANCH   3   5
ATOM      5  C   UNL A   1      41.074  21.570  26.594  1.00  0.00     0.126 C 
ATOM      6  C   UNL A   1      41.156  21.718  28.112  1.00  0.00     0.025 C 
BRANCH   5   7
ATOM      7  C   UNL A   1      39.642  21.600  26.081  1.00  0.00    -0.031 A 
ATOM      8  C   UNL A   1      36.953  21.725  25.135  1.00  0.00     0.018 A 
ATOM      9  C   UNL A   1      37.727  20.563  24.985  1.00  0.00     0.012 A 
ATOM     10  C   UNL A   1      37.558  22.815  25.774  1.00  0.00     0.131 A 
ATOM     11  C   UNL A   1      39.048  20.500  25.449  1.00  0.00     0.005 A 
ATOM     12  C   UNL A   1      38.869  22.757  26.247  1.00  0.00     0.044 A 
ATOM     13  F   UNL A   1      36.879  23.957  25.965  1.00  0.00    -0.206 F 
BRANCH   8  14
ATOM     14  C   UNL A   1      35.568  21.790  24.635  1.00  0.00    -0.012 A 
ATOM     15  C   UNL A   1      33.260  21.013  24.690  1.00  0.00     0.119 A 
ATOM     16  C   UNL A   1      32.919  21.887  23.662  1.00  0.00     0.046 A 
ATOM     17  C   UNL A   1      34.572  20.948  25.156  1.00  0.00     0.055 A 
ATOM     18  C   UNL A   1      33.892  22.730  23.127  1.00  0.00     0.004 A 
ATOM     19  C   UNL A   1      35.202  22.685  23.614  1.00  0.00     0.009 A 
BRANCH  15  20
ATOM     20  O   UNL A   1      32.308  20.149  25.153  1.00  0.00    -0.494 OA
BRANCH  20  21
ATOM     21  C   UNL A   1      32.756  18.787  25.150  1.00  0.00     0.226 C 
ATOM     22  C   UNL A   1      32.847  18.246  23.733  1.00  0.00     0.049 C 
ENDBRANCH  20  21
ENDBRANCH  15  20
ENDBRANCH   8  14
ENDBRANCH   5   7
ENDBRANCH   3   5
ENDBRANCH   2   3
ENDBRANCH   1   2
BRANCH   1  23
ATOM     23  C   UNL A   1      44.143  22.577  24.334  1.00  0.00     0.275 C 
BRANCH  23  24
ATOM     24  O   UNL A   1      43.447  23.814  24.569  1.00  0.00    -0.458 OA
BRANCH  24  25
ATOM     25  C   UNL A   1      44.215  24.818  25.048  1.00  0.00     0.338 C 
ATOM     26  O   UNL A   1      45.295  25.192  24.626  1.00  0.00    -0.246 OA
BRANCH  25  27
ATOM     27  C   UNL A   1      43.489  25.535  26.108  1.00  0.00     0.060 A 
ATOM     28  C   UNL A   1      43.956  26.802  26.455  1.00  0.00     0.016 A 
ATOM     29  C   UNL A   1      42.439  24.949  26.814  1.00  0.00     0.016 A 
ATOM     30  C   UNL A   1      43.397  27.486  27.528  1.00  0.00     0.010 A 
ATOM     31  C   UNL A   1      41.865  25.643  27.888  1.00  0.00     0.010 A 
ATOM     32  C   UNL A   1      42.355  26.907  28.262  1.00  0.00    -0.014 A 
BRANCH  32  33
ATOM     33  C   UNL A   1      41.832  27.631  29.444  1.00  0.00     0.031 A 
ATOM     34  C   UNL A   1      42.558  27.558  30.757  1.00  0.00     0.074 A 
ATOM     35  C   UNL A   1      40.749  28.420  29.314  1.00  0.00     0.049 A 
ATOM     36  N   UNL A   1      42.282  28.153  31.890  1.00  0.00    -0.248 NA
ATOM     37  C   UNL A   1      43.754  26.704  30.800  1.00  0.00     0.031 C 
ATOM     38  C   UNL A   1      39.980  28.597  28.083  1.00  0.00     0.029 A 
ATOM     39  N   UNL A   1      40.120  29.232  30.224  1.00  0.00    -0.354 N 
ATOM     40  C   UNL A   1      43.261  27.739  32.783  1.00  0.00     0.074 A 
ATOM     41  C   UNL A   1      44.127  26.825  32.066  1.00  0.00     0.031 C 
ATOM     42  C   UNL A   1      38.994  29.481  28.308  1.00  0.00     0.029 A 
ATOM     43  C   UNL A   1      39.044  29.906  29.704  1.00  0.00     0.049 A 
ATOM     44  H   UNL A   1      40.414  29.323  31.159  1.00  0.00     0.167 HD
ATOM     45  C   UNL A   1      43.426  28.095  34.079  1.00  0.00     0.037 A 
ATOM     46  C   UNL A   1      38.193  30.770  30.290  1.00  0.00     0.037 A 
ATOM     47  C   UNL A   1      42.575  29.016  34.788  1.00  0.00     0.049 A 
ATOM     48  C   UNL A   1      38.388  31.131  31.736  1.00  0.00     0.074 A 
ATOM     49  C   UNL A   1      42.667  29.443  36.102  1.00  0.00     0.029 A 
ATOM     50  N   UNL A   1      41.475  29.657  34.237  1.00  0.00    -0.354 N 
ATOM     51  N   UNL A   1      39.318  30.735  32.570  1.00  0.00    -0.248 NA
ATOM     52  C   UNL A   1      37.415  32.064  32.321  1.00  0.00     0.031 C 
ATOM     53  C   UNL A   1      41.603  30.317  36.355  1.00  0.00     0.029 A 
ATOM     54  C   UNL A   1      40.872  30.465  35.188  1.00  0.00     0.049 A 
ATOM     55  H   UNL A   1      41.170  29.553  33.306  1.00  0.00     0.167 HD
ATOM     56  C   UNL A   1      39.052  31.377  33.772  1.00  0.00     0.074 A 
ATOM     57  C   UNL A   1      37.886  32.209  33.552  1.00  0.00     0.031 C 
ATOM     58  C   UNL A   1      39.709  31.282  34.954  1.00  0.00     0.037 A 
BRANCH  45  59
ATOM     59  C   UNL A   1      44.563  27.466  34.826  1.00  0.00     0.064 A 
ATOM     60  C   UNL A   1      45.823  28.077  34.901  1.00  0.00     0.173 A 
ATOM     61  C   UNL A   1      44.380  26.250  35.503  1.00  0.00     0.173 A 
ATOM     62  F   UNL A   1      46.051  29.233  34.260  1.00  0.00    -0.203 F 
ATOM     63  C   UNL A   1      46.865  27.484  35.610  1.00  0.00     0.198 A 
ATOM     64  C   UNL A   1      45.417  25.672  36.229  1.00  0.00     0.198 A 
ATOM     65  F   UNL A   1      43.193  25.628  35.464  1.00  0.00    -0.203 F 
ATOM     66  F   UNL A   1      48.072  28.066  35.637  1.00  0.00    -0.200 F 
ATOM     67  C   UNL A   1      46.660  26.286  36.277  1.00  0.00     0.200 A 
ATOM     68  F   UNL A   1      45.215  24.518  36.882  1.00  0.00    -0.200 F 
ATOM     69  F   UNL A   1      47.662  25.718  36.963  1.00  0.00    -0.200 F 
ENDBRANCH  45  59
BRANCH  46  70
ATOM     70  C   UNL A   1      37.078  31.354  29.503  1.00  0.00     0.064 A 
ATOM     71  C   UNL A   1      35.970  30.580  29.135  1.00  0.00     0.173 A 
ATOM     72  C   UNL A   1      37.103  32.697  29.100  1.00  0.00     0.173 A 
ATOM     73  F   UNL A   1      35.915  29.285  29.475  1.00  0.00    -0.203 F 
ATOM     74  C   UNL A   1      34.933  31.125  28.381  1.00  0.00     0.198 A 
ATOM     75  C   UNL A   1      36.054  33.248  28.368  1.00  0.00     0.198 A 
ATOM     76  F   UNL A   1      38.143  33.478  29.426  1.00  0.00    -0.203 F 
ATOM     77  F   UNL A   1      33.903  30.354  28.006  1.00  0.00    -0.200 F 
ATOM     78  C   UNL A   1      34.973  32.459  28.004  1.00  0.00     0.200 A 
ATOM     79  F   UNL A   1      36.091  34.539  28.014  1.00  0.00    -0.200 F 
ATOM     80  F   UNL A   1      33.973  32.983  27.281  1.00  0.00    -0.200 F 
ENDBRANCH  46  70
BRANCH  58  81
ATOM     81  C   UNL A   1      39.187  32.109  36.089  1.00  0.00     0.064 A 
ATOM     82  C   UNL A   1      38.247  31.599  36.995  1.00  0.00     0.173 A 
ATOM     83  C   UNL A   1      39.641  33.423  36.282  1.00  0.00     0.173 A 
ATOM     84  F   UNL A   1      37.770  30.353  36.842  1.00  0.00    -0.203 F 
ATOM     85  C   UNL A   1      37.755  32.382  38.035  1.00  0.00     0.198 A 
ATOM     86  C   UNL A   1      39.167  34.195  37.338  1.00  0.00     0.198 A 
ATOM     87  F   UNL A   1      40.544  33.956  35.446  1.00  0.00    -0.203 F 
ATOM     88  F   UNL A   1      36.819  31.891  38.858  1.00  0.00    -0.200 F 
ATOM     89  C   UNL A   1      38.218  33.679  38.208  1.00  0.00     0.200 A 
ATOM     90  F   UNL A   1      39.620  35.445  37.509  1.00  0.00    -0.200 F 
ATOM     91  F   UNL A   1      37.742  34.434  39.208  1.00  0.00    -0.200 F 
ENDBRANCH  58  81
ENDBRANCH  32  33
ENDBRANCH  25  27
ENDBRANCH  24  25
ENDBRANCH  23  24
ENDBRANCH   1  23
TORSDOF 15
ENDMDL
MODEL 2
REMARK VINA RESULT:     -11.8      4.966      9.888
REMARK SMILES CCOc1cccc(-c2ccc([C@@H](C)C(=O)OCCOC(=O)c3ccc(-c4c5nc(c(-c6c(F)c(F)c(F)c(F)c6F)c6ccc([nH]6)c(-c6c(F)c(F)c(F)c(F)c6F)c6nc(c(-c7c(F)c(F)c(F)c(F)c7F)c7ccc4[nH]7)C=C6)C=C5)cc3)cc2F)c1
REMARK SMILES IDX 18 1 17 2 15 3 16 4 13 5 14 6 12 7 9 8 10 9 87 10 11 11
REMARK SMILES IDX 86 12 88 13 8 14 4 15 5 16 89 17 6 18 7 19 3 20 2 21 1 22
REMARK SMILES IDX 19 23 20 24 21 25 22 26 23 27 24 28 85 29 25 30 84 31 26 32
REMARK SMILES IDX 27 33 28 34 78 35 29 36 83 37 77 38 79 39 30 40 82 41 76 42
REMARK SMILES IDX 75 43 31 45 63 46 43 47 62 48 44 49 47 50 61 51 80 52 45 53
REMARK SMILES IDX 46 54 60 56 81 57 48 58 32 59 33 60 41 61 34 62 35 63 39 64
REMARK SMILES IDX 42 65 36 66 37 67 40 68 38 69 64 70 65 71 73 72 66 73 67 74
REMARK SMILES IDX 71 75 74 76 68 77 69 78 72 79 70 80 49 81 50 82 58 83 51 84
REMARK SMILES IDX 52 85 56 86 59 87 53 88 54 89 57 90 55 91
REMARK H PARENT 79 44 47 55
REMARK Flexibility Score: inf
ROOT
ATOM      1  C   UNL A   1      33.437  34.836  28.837  1.00  0.00     0.274 C 
ENDROOT
BRANCH   1   2
ATOM      2  O   UNL A   1      34.690  34.179  29.113  1.00  0.00    -0.462 OA
BRANCH   2   3
ATOM      3  C   UNL A   1      34.624  32.895  29.551  1.00  0.00     0.313 C 
ATOM      4  O   UNL A   1      34.086  32.549  30.600  1.00  0.00    -0.252 OA
BRANCH   3   5
ATOM      5  C   UNL A   1      35.337  31.896  28.645  1.00  0.00     0.126 C 
ATOM      6  C   UNL A   1      36.389  32.615  27.802  1.00  0.00     0.025 C 
BRANCH   5   7
ATOM      7  C   UNL A   1      34.442  30.991  27.812  1.00  0.00    -0.031 A 
ATOM      8  C   UNL A   1      32.717  29.347  26.242  1.00  0.00     0.018 A 
ATOM      9  C   UNL A   1      33.964  28.880  26.688  1.00  0.00     0.012 A 
ATOM     10  C   UNL A   1      32.357  30.651  26.606  1.00  0.00     0.131 A 
ATOM     11  C   UNL A   1      34.812  29.687  27.460  1.00  0.00     0.005 A 
ATOM     12  C   UNL A   1      33.191  31.455  27.382  1.00  0.00     0.044 A 
ATOM     13  F   UNL A   1      31.176  31.163  26.228  1.00  0.00    -0.206 F 
BRANCH   8  14
ATOM     14  C   UNL A   1      31.834  28.500  25.421  1.00  0.00    -0.012 A 
ATOM     15  C   UNL A   1      30.667  28.065  23.328  1.00  0.00     0.119 A 
ATOM     16  C   UNL A   1      30.119  26.898  23.851  1.00  0.00     0.046 A 
ATOM     17  C   UNL A   1      31.496  28.868  24.109  1.00  0.00     0.055 A 
ATOM     18  C   UNL A   1      30.437  26.514  25.152  1.00  0.00     0.004 A 
ATOM     19  C   UNL A   1      31.291  27.305  25.927  1.00  0.00     0.009 A 
BRANCH  15  20
ATOM     20  O   UNL A   1      30.289  28.458  22.075  1.00  0.00    -0.494 OA
BRANCH  20  21
ATOM     21  C   UNL A   1      29.789  29.800  22.049  1.00  0.00     0.226 C 
ATOM     22  C   UNL A   1      28.271  29.820  22.131  1.00  0.00     0.049 C 
ENDBRANCH  20  21
ENDBRANCH  15  20
ENDBRANCH   8  14
ENDBRANCH   5   7
ENDBRANCH   3   5
ENDBRANCH   2   3
ENDBRANCH   1   2
BRANCH   1  23
ATOM     23  C   UNL A   1      33.098  35.878  29.906  1.00  0.00     0.275 C 
BRANCH  23  24
ATOM     24  O   UNL A   1      32.480  35.269  31.054  1.00  0.00    -0.458 OA
BRANCH  24  25
ATOM     25  C   UNL A   1      32.841  35.799  32.244  1.00  0.00     0.338 C 
ATOM     26  O   UNL A   1      32.241  36.634  32.898  1.00  0.00    -0.246 OA
BRANCH  25  27
ATOM     27  C   UNL A   1      34.038  35.110  32.750  1.00  0.00     0.060 A 
ATOM     28  C   UNL A   1      35.274  35.696  32.479  1.00  0.00     0.016 A 
ATOM     29  C   UNL A   1      33.965  33.873  33.391  1.00  0.00     0.016 A 
ATOM     30  C   UNL A   1      36.451  35.040  32.819  1.00  0.00     0.010 A 
ATOM     31  C   UNL A   1      35.152  33.216  33.747  1.00  0.00     0.010 A 
ATOM     32  C   UNL A   1      36.401  33.788  33.445  1.00  0.00    -0.014 A 
BRANCH  32  33
ATOM     33  C   UNL A   1      37.674  33.084  33.727  1.00  0.00     0.031 A 
ATOM     34  C   UNL A   1      38.403  33.329  35.016  1.00  0.00     0.074 A 
ATOM     35  C   UNL A   1      38.129  32.163  32.857  1.00  0.00     0.049 A 
ATOM     36  N   UNL A   1      39.505  32.779  35.462  1.00  0.00    -0.248 NA
ATOM     37  C   UNL A   1      37.815  34.323  35.926  1.00  0.00     0.031 C 
ATOM     38  C   UNL A   1      37.490  31.815  31.589  1.00  0.00     0.029 A 
ATOM     39  N   UNL A   1      39.226  31.340  32.919  1.00  0.00    -0.354 N 
ATOM     40  C   UNL A   1      39.747  33.365  36.697  1.00  0.00     0.074 A 
ATOM     41  C   UNL A   1      38.690  34.330  36.921  1.00  0.00     0.031 C 
ATOM     42  C   UNL A   1      38.195  30.834  31.001  1.00  0.00     0.029 A 
ATOM     43  C   UNL A   1      39.348  30.508  31.835  1.00  0.00     0.049 A 
ATOM     44  H   UNL A   1      39.863  31.346  33.670  1.00  0.00     0.167 HD
ATOM     45  C   UNL A   1      40.755  33.116  37.566  1.00  0.00     0.037 A 
ATOM     46  C   UNL A   1      40.287  29.587  31.547  1.00  0.00     0.037 A 
ATOM     47  C   UNL A   1      41.798  32.146  37.350  1.00  0.00     0.049 A 
ATOM     48  C   UNL A   1      41.407  29.346  32.521  1.00  0.00     0.074 A 
ATOM     49  C   UNL A   1      42.860  31.819  38.177  1.00  0.00     0.029 A 
ATOM     50  N   UNL A   1      41.907  31.342  36.225  1.00  0.00    -0.354 N 
ATOM     51  N   UNL A   1      41.626  29.905  33.686  1.00  0.00    -0.248 NA
ATOM     52  C   UNL A   1      42.409  28.341  32.140  1.00  0.00     0.031 C 
ATOM     53  C   UNL A   1      43.629  30.840  37.537  1.00  0.00     0.029 A 
ATOM     54  C   UNL A   1      43.025  30.530  36.330  1.00  0.00     0.049 A 
ATOM     55  H   UNL A   1      41.281  31.348  35.465  1.00  0.00     0.167 HD
ATOM     56  C   UNL A   1      42.779  29.314  34.182  1.00  0.00     0.074 A 
ATOM     57  C   UNL A   1      43.202  28.334  33.202  1.00  0.00     0.031 C 
ATOM     58  C   UNL A   1      43.434  29.564  35.343  1.00  0.00     0.037 A 
BRANCH  45  59
ATOM     59  C   UNL A   1      40.793  33.926  38.827  1.00  0.00     0.064 A 
ATOM     60  C   UNL A   1      40.095  33.531  39.976  1.00  0.00     0.173 A 
ATOM     61  C   UNL A   1      41.565  35.096  38.894  1.00  0.00     0.173 A 
ATOM     62  F   UNL A   1      39.333  32.427  39.957  1.00  0.00    -0.203 F 
ATOM     63  C   UNL A   1      40.150  34.289  41.144  1.00  0.00     0.198 A 
ATOM     64  C   UNL A   1      41.636  35.839  40.070  1.00  0.00     0.198 A 
ATOM     65  F   UNL A   1      42.253  35.514  37.823  1.00  0.00    -0.203 F 
ATOM     66  F   UNL A   1      39.445  33.914  42.220  1.00  0.00    -0.200 F 
ATOM     67  C   UNL A   1      40.925  35.438  41.191  1.00  0.00     0.200 A 
ATOM     68  F   UNL A   1      42.393  36.945  40.117  1.00  0.00    -0.200 F 
ATOM     69  F   UNL A   1      40.982  36.165  42.316  1.00  0.00    -0.200 F 
ENDBRANCH  45  59
BRANCH  46  70
ATOM     70  C   UNL A   1      40.205  28.822  30.278  1.00  0.00     0.064 A 
ATOM     71  C   UNL A   1      40.780  29.314  29.099  1.00  0.00     0.173 A 
ATOM     72  C   UNL A   1      39.544  27.586  30.219  1.00  0.00     0.173 A 
ATOM     73  F   UNL A   1      41.398  30.503  29.101  1.00  0.00    -0.203 F 
ATOM     74  C   UNL A   1      40.685  28.604  27.904  1.00  0.00     0.198 A 
ATOM     75  C   UNL A   1      39.472  26.865  29.030  1.00  0.00     0.198 A 
ATOM     76  F   UNL A   1      38.975  27.075  31.321  1.00  0.00    -0.203 F 
ATOM     77  F   UNL A   1      41.208  29.114  26.781  1.00  0.00    -0.200 F 
ATOM     78  C   UNL A   1      40.038  27.378  27.872  1.00  0.00     0.200 A 
ATOM     79  F   UNL A   1      38.854  25.677  29.005  1.00  0.00    -0.200 F 
ATOM     80  F   UNL A   1      39.951  26.694  26.723  1.00  0.00    -0.200 F 
ENDBRANCH  46  70
BRANCH  58  81
ATOM     81  C   UNL A   1      44.666  28.754  35.615  1.00  0.00     0.064 A 
ATOM     82  C   UNL A   1      45.932  29.183  35.192  1.00  0.00     0.173 A 
ATOM     83  C   UNL A   1      44.581  27.542  36.318  1.00  0.00     0.173 A 
ATOM     84  F   UNL A   1      46.061  30.327  34.502  1.00  0.00    -0.203 F 
ATOM     85  C   UNL A   1      47.066  28.413  35.434  1.00  0.00     0.198 A 
ATOM     86  C   UNL A   1      45.721  26.788  36.581  1.00  0.00     0.198 A 
ATOM     87  F   UNL A   1      43.394  27.092  36.748  1.00  0.00    -0.203 F 
ATOM     88  F   UNL A   1      48.259  28.817  34.977  1.00  0.00    -0.200 F 
ATOM     89  C   UNL A   1      46.961  27.219  36.132  1.00  0.00     0.200 A 
ATOM     90  F   UNL A   1      45.619  25.637  37.261  1.00  0.00    -0.200 F 
ATOM     91  F   UNL A   1      48.052  26.477  36.362  1.00  0.00    -0.200 F 
ENDBRANCH  58  81
ENDBRANCH  32  33
ENDBRANCH  25  27
ENDBRANCH  24  25
ENDBRANCH  23  24
ENDBRANCH   1  23
TORSDOF 15
ENDMDL
MODEL 3
REMARK VINA RESULT:     -11.8      3.224      8.651
REMARK SMILES CCOc1cccc(-c2ccc([C@@H](C)C(=O)OCCOC(=O)c3ccc(-c4c5nc(c(-c6c(F)c(F)c(F)c(F)c6F)c6ccc([nH]6)c(-c6c(F)c(F)c(F)c(F)c6F)c6nc(c(-c7c(F)c(F)c(F)c(F)c7F)c7ccc4[nH]7)C=C6)C=C5)cc3)cc2F)c1
REMARK SMILES IDX 18 1 17 2 15 3 16 4 13 5 14 6 12 7 9 8 10 9 87 10 11 11
REMARK SMILES IDX 86 12 88 13 8 14 4 15 5 16 89 17 6 18 7 19 3 20 2 21 1 22
REMARK SMILES IDX 19 23 20 24 21 25 22 26 23 27 24 28 85 29 25 30 84 31 26 32
REMARK SMILES IDX 27 33 28 34 78 35 29 36 83 37 77 38 79 39 30 40 82 41 76 42
REMARK SMILES IDX 75 43 31 45 63 46 43 47 62 48 44 49 47 50 61 51 80 52 45 53
REMARK SMILES IDX 46 54 60 56 81 57 48 58 32 59 33 60 41 61 34 62 35 63 39 64
REMARK SMILES IDX 42 65 36 66 37 67 40 68 38 69 64 70 65 71 73 72 66 73 67 74
REMARK SMILES IDX 71 75 74 76 68 77 69 78 72 79 70 80 49 81 50 82 58 83 51 84
REMARK SMILES IDX 52 85 56 86 59 87 53 88 54 89 57 90 55 91
REMARK H PARENT 79 44 47 55
REMARK Flexibility Score: inf
ROOT
ATOM      1  C   UNL A   1      32.266  29.700  25.053  1.00  0.00     0.274 C 
ENDROOT
BRANCH   1   2
ATOM      2  O   UNL A   1      31.209  28.853  24.559  1.00  0.00    -0.462 OA
BRANCH   2   3
ATOM      3  C   UNL A   1      31.582  27.779  23.815  1.00  0.00     0.313 C 
ATOM      4  O   UNL A   1      30.796  26.986  23.304  1.00  0.00    -0.252 OA
BRANCH   3   5
ATOM      5  C   UNL A   1      33.093  27.599  23.707  1.00  0.00     0.126 C 
ATOM      6  C   UNL A   1      33.595  28.185  22.389  1.00  0.00     0.025 C 
BRANCH   5   7
ATOM      7  C   UNL A   1      33.618  26.193  23.959  1.00  0.00    -0.031 A 
ATOM      8  C   UNL A   1      34.600  23.545  24.362  1.00  0.00     0.018 A 
ATOM      9  C   UNL A   1      34.515  24.461  25.422  1.00  0.00     0.012 A 
ATOM     10  C   UNL A   1      34.177  23.987  23.102  1.00  0.00     0.131 A 
ATOM     11  C   UNL A   1      34.032  25.763  25.226  1.00  0.00     0.005 A 
ATOM     12  C   UNL A   1      33.687  25.277  22.901  1.00  0.00     0.044 A 
ATOM     13  F   UNL A   1      34.217  23.166  22.041  1.00  0.00    -0.206 F 
BRANCH   8  14
ATOM     14  C   UNL A   1      35.119  22.181  24.571  1.00  0.00    -0.012 A 
ATOM     15  C   UNL A   1      34.743  19.784  24.785  1.00  0.00     0.119 A 
ATOM     16  C   UNL A   1      36.100  19.569  25.001  1.00  0.00     0.046 A 
ATOM     17  C   UNL A   1      34.254  21.076  24.595  1.00  0.00     0.055 A 
ATOM     18  C   UNL A   1      36.978  20.652  24.985  1.00  0.00     0.004 A 
ATOM     19  C   UNL A   1      36.491  21.944  24.767  1.00  0.00     0.009 A 
BRANCH  15  20
ATOM     20  O   UNL A   1      33.892  18.718  24.872  1.00  0.00    -0.494 OA
BRANCH  20  21
ATOM     21  C   UNL A   1      34.470  17.512  24.359  1.00  0.00     0.226 C 
ATOM     22  C   UNL A   1      33.723  17.030  23.126  1.00  0.00     0.049 C 
ENDBRANCH  20  21
ENDBRANCH  15  20
ENDBRANCH   8  14
ENDBRANCH   5   7
ENDBRANCH   3   5
ENDBRANCH   2   3
ENDBRANCH   1   2
BRANCH   1  23
ATOM     23  C   UNL A   1      31.738  30.747  26.038  1.00  0.00     0.275 C 
BRANCH  23  24
ATOM     24  O   UNL A   1      32.523  30.774  27.243  1.00  0.00    -0.458 OA
BRANCH  24  25
ATOM     25  C   UNL A   1      33.293  31.875  27.396  1.00  0.00     0.338 C 
ATOM     26  O   UNL A   1      32.961  33.039  27.253  1.00  0.00    -0.246 OA
BRANCH  25  27
ATOM     27  C   UNL A   1      34.611  31.489  27.922  1.00  0.00     0.060 A 
ATOM     28  C   UNL A   1      34.780  30.158  28.306  1.00  0.00     0.016 A 
ATOM     29  C   UNL A   1      35.630  32.419  28.126  1.00  0.00     0.016 A 
ATOM     30  C   UNL A   1      35.956  29.750  28.923  1.00  0.00     0.010 A 
ATOM     31  C   UNL A   1      36.822  32.006  28.737  1.00  0.00     0.010 A 
ATOM     32  C   UNL A   1      36.983  30.673  29.155  1.00  0.00    -0.014 A 
BRANCH  32  33
ATOM     33  C   UNL A   1      38.193  30.220  29.881  1.00  0.00     0.031 A 
ATOM     34  C   UNL A   1      38.425  30.647  31.302  1.00  0.00     0.074 A 
ATOM     35  C   UNL A   1      39.041  29.360  29.287  1.00  0.00     0.049 A 
ATOM     36  N   UNL A   1      39.398  30.323  32.116  1.00  0.00    -0.248 NA
ATOM     37  C   UNL A   1      37.429  31.557  31.887  1.00  0.00     0.031 C 
ATOM     38  C   UNL A   1      38.903  28.849  27.924  1.00  0.00     0.029 A 
ATOM     39  N   UNL A   1      40.174  28.750  29.762  1.00  0.00    -0.354 N 
ATOM     40  C   UNL A   1      39.139  30.995  33.302  1.00  0.00     0.074 A 
ATOM     41  C   UNL A   1      37.929  31.763  33.097  1.00  0.00     0.031 C 
ATOM     42  C   UNL A   1      39.902  27.986  27.678  1.00  0.00     0.029 A 
ATOM     43  C   UNL A   1      40.765  27.908  28.854  1.00  0.00     0.049 A 
ATOM     44  H   UNL A   1      40.529  28.903  30.668  1.00  0.00     0.167 HD
ATOM     45  C   UNL A   1      39.843  30.968  34.459  1.00  0.00     0.037 A 
ATOM     46  C   UNL A   1      41.879  27.159  28.959  1.00  0.00     0.037 A 
ATOM     47  C   UNL A   1      41.039  30.193  34.669  1.00  0.00     0.049 A 
ATOM     48  C   UNL A   1      42.653  27.165  30.248  1.00  0.00     0.074 A 
ATOM     49  C   UNL A   1      41.819  30.097  35.809  1.00  0.00     0.029 A 
ATOM     50  N   UNL A   1      41.626  29.374  33.715  1.00  0.00    -0.354 N 
ATOM     51  N   UNL A   1      42.398  27.803  31.364  1.00  0.00    -0.248 NA
ATOM     52  C   UNL A   1      43.869  26.340  30.292  1.00  0.00     0.031 C 
ATOM     53  C   UNL A   1      42.895  29.245  35.534  1.00  0.00     0.029 A 
ATOM     54  C   UNL A   1      42.765  28.781  34.236  1.00  0.00     0.049 A 
ATOM     55  H   UNL A   1      41.282  29.235  32.802  1.00  0.00     0.167 HD
ATOM     56  C   UNL A   1      43.411  27.450  32.245  1.00  0.00     0.074 A 
ATOM     57  C   UNL A   1      44.272  26.521  31.542  1.00  0.00     0.031 C 
ATOM     58  C   UNL A   1      43.613  27.863  33.520  1.00  0.00     0.037 A 
BRANCH  45  59
ATOM     59  C   UNL A   1      39.350  31.825  35.586  1.00  0.00     0.064 A 
ATOM     60  C   UNL A   1      38.448  31.335  36.541  1.00  0.00     0.173 A 
ATOM     61  C   UNL A   1      39.810  33.142  35.728  1.00  0.00     0.173 A 
ATOM     62  F   UNL A   1      37.969  30.086  36.440  1.00  0.00    -0.203 F 
ATOM     63  C   UNL A   1      38.009  32.141  37.589  1.00  0.00     0.198 A 
ATOM     64  C   UNL A   1      39.386  33.938  36.790  1.00  0.00     0.198 A 
ATOM     65  F   UNL A   1      40.676  33.656  34.842  1.00  0.00    -0.203 F 
ATOM     66  F   UNL A   1      37.118  31.667  38.470  1.00  0.00    -0.200 F 
ATOM     67  C   UNL A   1      38.482  33.438  37.716  1.00  0.00     0.200 A 
ATOM     68  F   UNL A   1      39.852  35.188  36.916  1.00  0.00    -0.200 F 
ATOM     69  F   UNL A   1      38.063  34.212  38.727  1.00  0.00    -0.200 F 
ENDBRANCH  45  59
BRANCH  46  70
ATOM     70  C   UNL A   1      42.327  26.338  27.806  1.00  0.00     0.064 A 
ATOM     71  C   UNL A   1      41.783  25.070  27.568  1.00  0.00     0.173 A 
ATOM     72  C   UNL A   1      43.312  26.805  26.925  1.00  0.00     0.173 A 
ATOM     73  F   UNL A   1      40.857  24.571  28.399  1.00  0.00    -0.203 F 
ATOM     74  C   UNL A   1      42.218  24.292  26.496  1.00  0.00     0.198 A 
ATOM     75  C   UNL A   1      43.728  26.038  25.839  1.00  0.00     0.198 A 
ATOM     76  F   UNL A   1      43.865  28.013  27.112  1.00  0.00    -0.203 F 
ATOM     77  F   UNL A   1      41.711  23.065  26.313  1.00  0.00    -0.200 F 
ATOM     78  C   UNL A   1      43.185  24.780  25.630  1.00  0.00     0.200 A 
ATOM     79  F   UNL A   1      44.655  26.516  24.999  1.00  0.00    -0.200 F 
ATOM     80  F   UNL A   1      43.600  24.033  24.598  1.00  0.00    -0.200 F 
ENDBRANCH  46  70
BRANCH  58  81
ATOM     81  C   UNL A   1      44.805  27.299  34.235  1.00  0.00     0.064 A 
ATOM     82  C   UNL A   1      46.063  27.912  34.156  1.00  0.00     0.173 A 
ATOM     83  C   UNL A   1      44.685  26.141  35.017  1.00  0.00     0.173 A 
ATOM     84  F   UNL A   1      46.231  29.013  33.406  1.00  0.00    -0.203 F 
ATOM     85  C   UNL A   1      47.166  27.369  34.808  1.00  0.00     0.198 A 
ATOM     86  C   UNL A   1      45.784  25.615  35.690  1.00  0.00     0.198 A 
ATOM     87  F   UNL A   1      43.501  25.520  35.129  1.00  0.00    -0.203 F 
ATOM     88  F   UNL A   1      48.370  27.943  34.677  1.00  0.00    -0.200 F 
ATOM     89  C   UNL A   1      47.025  26.224  35.578  1.00  0.00     0.200 A 
ATOM     90  F   UNL A   1      45.645  24.512  36.439  1.00  0.00    -0.200 F 
ATOM     91  F   UNL A   1      48.088  25.700  36.203  1.00  0.00    -0.200 F 
ENDBRANCH  58  81
ENDBRANCH  32  33
ENDBRANCH  25  27
ENDBRANCH  24  25
ENDBRANCH  23  24
ENDBRANCH   1  23
TORSDOF 15
ENDMDL
