MODEL 1
REMARK VINA RESULT:     -14.6      0.000      0.000
REMARK SMILES CC(=O)Nc1ccc(/C=C2/CCc3oc(C(=O)OCCOC(=O)c4ccc(-c5c6nc(c(-c7c(F)c(F)c(F)c(F)c7F)c7ccc([nH]7)c(-c7c(F)c(F)c(F)c(F)c7F)c7nc(c(-c8c(F)c(F)c(F)c(F)c8F)c8ccc5[nH]8)C=C7)C=C6)cc4)c(C)c3C2=O)cc1
REMARK SMILES IDX 19 1 18 2 16 3 17 4 15 5 9 6 10 7 11 8 90 9 12 10 89 11
REMARK SMILES IDX 91 12 13 13 87 14 14 15 88 16 8 17 5 18 6 19 93 20 7 21
REMARK SMILES IDX 92 22 4 23 1 24 2 25 3 26 20 28 21 29 22 30 23 31 24 32
REMARK SMILES IDX 25 33 86 34 26 35 85 36 27 37 28 38 29 39 79 40 30 41 84 42
REMARK SMILES IDX 78 43 80 44 31 45 83 46 77 47 76 48 32 50 64 51 44 52 63 53
REMARK SMILES IDX 45 54 48 55 62 56 81 57 46 58 47 59 61 61 82 62 49 63 33 64
REMARK SMILES IDX 34 65 42 66 35 67 36 68 40 69 43 70 37 71 38 72 41 73 39 74
REMARK SMILES IDX 65 75 66 76 74 77 67 78 68 79 72 80 75 81 69 82 70 83 73 84
REMARK SMILES IDX 71 85 50 86 51 87 59 88 52 89 53 90 57 91 60 92 54 93 55 94
REMARK SMILES IDX 58 95 56 96
REMARK H PARENT 4 27 80 49 48 60
REMARK Flexibility Score: inf
ROOT
ATOM      1  C   UNL A   1      32.112  30.867  26.821  1.00  0.00     0.275 C 
ENDROOT
BRANCH   1   2
ATOM      2  O   UNL A   1      31.556  29.829  26.000  1.00  0.00    -0.456 OA
BRANCH   2   3
ATOM      3  C   UNL A   1      31.554  28.568  26.525  1.00  0.00     0.374 C 
ATOM      4  O   UNL A   1      31.393  28.316  27.717  1.00  0.00    -0.242 OA
BRANCH   3   5
ATOM      5  C   UNL A   1      31.697  27.587  25.472  1.00  0.00     0.215 A 
ATOM      6  C   UNL A   1      33.330  23.181  22.427  1.00  0.00     0.016 C 
ATOM      7  C   UNL A   1      32.607  24.320  22.428  1.00  0.00     0.001 C 
ATOM      8  C   UNL A   1      32.977  25.519  21.557  1.00  0.00     0.048 C 
ATOM      9  C   UNL A   1      31.444  24.600  23.336  1.00  0.00     0.192 C 
ATOM     10  C   UNL A   1      33.374  26.750  22.404  1.00  0.00     0.081 C 
ATOM     11  C   UNL A   1      31.645  25.835  24.063  1.00  0.00     0.067 A 
ATOM     12  O   UNL A   1      30.444  23.903  23.416  1.00  0.00    -0.289 OA
ATOM     13  C   UNL A   1      32.515  26.795  23.607  1.00  0.00     0.116 A 
ATOM     14  C   UNL A   1      31.101  26.339  25.279  1.00  0.00     0.014 A 
ATOM     15  O   UNL A   1      32.558  27.858  24.433  1.00  0.00    -0.453 OA
ATOM     16  C   UNL A   1      30.115  25.636  26.142  1.00  0.00     0.049 C 
BRANCH   6  17
ATOM     17  C   UNL A   1      33.297  21.965  23.273  1.00  0.00    -0.025 A 
ATOM     18  C   UNL A   1      33.192  19.490  24.665  1.00  0.00     0.041 A 
ATOM     19  C   UNL A   1      34.085  20.483  25.050  1.00  0.00     0.027 A 
ATOM     20  C   UNL A   1      32.302  19.753  23.628  1.00  0.00     0.027 A 
ATOM     21  C   UNL A   1      34.158  21.687  24.338  1.00  0.00     0.010 A 
ATOM     22  C   UNL A   1      32.349  20.979  22.949  1.00  0.00     0.010 A 
BRANCH  18  23
ATOM     23  N   UNL A   1      33.221  18.284  25.378  1.00  0.00    -0.326 N 
ATOM     24  C   UNL A   1      34.167  16.825  23.606  1.00  0.00     0.114 C 
ATOM     25  C   UNL A   1      33.523  17.021  24.954  1.00  0.00     0.221 C 
ATOM     26  O   UNL A   1      33.348  16.069  25.717  1.00  0.00    -0.275 OA
ATOM     27  H   UNL A   1      32.989  18.359  26.332  1.00  0.00     0.169 HD
ENDBRANCH  18  23
ENDBRANCH   6  17
ENDBRANCH   3   5
ENDBRANCH   2   3
ENDBRANCH   1   2
BRANCH   1  28
ATOM     28  C   UNL A   1      33.634  30.817  26.844  1.00  0.00     0.275 C 
BRANCH  28  29
ATOM     29  O   UNL A   1      34.154  31.182  28.122  1.00  0.00    -0.458 OA
BRANCH  29  30
ATOM     30  C   UNL A   1      35.295  31.906  28.092  1.00  0.00     0.338 C 
ATOM     31  O   UNL A   1      35.484  32.967  27.523  1.00  0.00    -0.246 OA
BRANCH  30  32
ATOM     32  C   UNL A   1      36.376  31.125  28.701  1.00  0.00     0.060 A 
ATOM     33  C   UNL A   1      37.440  31.835  29.265  1.00  0.00     0.016 A 
ATOM     34  C   UNL A   1      36.444  29.742  28.479  1.00  0.00     0.016 A 
ATOM     35  C   UNL A   1      38.637  31.179  29.459  1.00  0.00     0.010 A 
ATOM     36  C   UNL A   1      37.640  29.091  28.670  1.00  0.00     0.010 A 
ATOM     37  C   UNL A   1      38.741  29.833  29.086  1.00  0.00    -0.014 A 
BRANCH  37  38
ATOM     38  C   UNL A   1      40.023  29.182  29.248  1.00  0.00     0.031 A 
ATOM     39  C   UNL A   1      40.390  28.958  30.668  1.00  0.00     0.074 A 
ATOM     40  C   UNL A   1      40.743  28.730  28.204  1.00  0.00     0.049 A 
ATOM     41  N   UNL A   1      41.400  29.444  31.306  1.00  0.00    -0.248 NA
ATOM     42  C   UNL A   1      39.432  28.230  31.518  1.00  0.00     0.031 C 
ATOM     43  C   UNL A   1      40.365  28.656  26.792  1.00  0.00     0.029 A 
ATOM     44  N   UNL A   1      41.968  28.144  28.219  1.00  0.00    -0.354 N 
ATOM     45  C   UNL A   1      41.306  28.943  32.600  1.00  0.00     0.074 A 
ATOM     46  C   UNL A   1      40.006  28.338  32.716  1.00  0.00     0.031 C 
ATOM     47  C   UNL A   1      41.234  27.850  26.139  1.00  0.00     0.029 A 
ATOM     48  C   UNL A   1      42.294  27.464  27.055  1.00  0.00     0.049 A 
ATOM     49  H   UNL A   1      42.574  28.197  28.993  1.00  0.00     0.167 HD
ATOM     50  C   UNL A   1      42.403  28.865  33.399  1.00  0.00     0.037 A 
ATOM     51  C   UNL A   1      43.312  26.576  26.919  1.00  0.00     0.037 A 
ATOM     52  C   UNL A   1      43.436  29.766  32.959  1.00  0.00     0.049 A 
ATOM     53  C   UNL A   1      44.279  26.844  28.021  1.00  0.00     0.074 A 
ATOM     54  C   UNL A   1      43.500  31.137  32.789  1.00  0.00     0.029 A 
ATOM     55  N   UNL A   1      44.488  29.257  32.236  1.00  0.00    -0.354 N 
ATOM     56  N   UNL A   1      44.994  27.934  28.102  1.00  0.00    -0.248 NA
ATOM     57  C   UNL A   1      44.070  26.138  29.279  1.00  0.00     0.031 C 
ATOM     58  C   UNL A   1      44.237  31.322  31.583  1.00  0.00     0.029 A 
ATOM     59  C   UNL A   1      44.645  30.066  31.138  1.00  0.00     0.049 A 
ATOM     60  H   UNL A   1      45.027  28.466  32.464  1.00  0.00     0.167 HD
ATOM     61  C   UNL A   1      44.958  28.280  29.445  1.00  0.00     0.074 A 
ATOM     62  C   UNL A   1      44.421  27.106  30.132  1.00  0.00     0.031 C 
ATOM     63  C   UNL A   1      45.079  29.578  29.851  1.00  0.00     0.037 A 
BRANCH  50  64
ATOM     64  C   UNL A   1      42.667  27.710  34.331  1.00  0.00     0.064 A 
ATOM     65  C   UNL A   1      43.157  26.501  33.802  1.00  0.00     0.173 A 
ATOM     66  C   UNL A   1      42.172  27.642  35.652  1.00  0.00     0.173 A 
ATOM     67  F   UNL A   1      43.632  26.446  32.549  1.00  0.00    -0.203 F 
ATOM     68  C   UNL A   1      43.079  25.301  34.515  1.00  0.00     0.198 A 
ATOM     69  C   UNL A   1      42.145  26.454  36.379  1.00  0.00     0.198 A 
ATOM     70  F   UNL A   1      41.588  28.685  36.254  1.00  0.00    -0.203 F 
ATOM     71  F   UNL A   1      43.436  24.154  33.924  1.00  0.00    -0.200 F 
ATOM     72  C   UNL A   1      42.567  25.279  35.799  1.00  0.00     0.200 A 
ATOM     73  F   UNL A   1      41.626  26.451  37.615  1.00  0.00    -0.200 F 
ATOM     74  F   UNL A   1      42.430  24.121  36.457  1.00  0.00    -0.200 F 
ENDBRANCH  50  64
BRANCH  51  75
ATOM     75  C   UNL A   1      43.296  25.302  26.157  1.00  0.00     0.064 A 
ATOM     76  C   UNL A   1      44.299  24.996  25.222  1.00  0.00     0.173 A 
ATOM     77  C   UNL A   1      42.444  24.239  26.523  1.00  0.00     0.173 A 
ATOM     78  F   UNL A   1      45.188  25.932  24.859  1.00  0.00    -0.203 F 
ATOM     79  C   UNL A   1      44.447  23.706  24.698  1.00  0.00     0.198 A 
ATOM     80  C   UNL A   1      42.587  22.956  25.994  1.00  0.00     0.198 A 
ATOM     81  F   UNL A   1      41.511  24.397  27.472  1.00  0.00    -0.203 F 
ATOM     82  F   UNL A   1      45.450  23.439  23.850  1.00  0.00    -0.200 F 
ATOM     83  C   UNL A   1      43.596  22.686  25.089  1.00  0.00     0.200 A 
ATOM     84  F   UNL A   1      41.780  21.971  26.413  1.00  0.00    -0.200 F 
ATOM     85  F   UNL A   1      43.771  21.438  24.631  1.00  0.00    -0.200 F 
ENDBRANCH  51  75
BRANCH  63  86
ATOM     86  C   UNL A   1      45.462  30.614  28.829  1.00  0.00     0.064 A 
ATOM     87  C   UNL A   1      44.542  31.271  27.992  1.00  0.00     0.173 A 
ATOM     88  C   UNL A   1      46.784  31.079  28.819  1.00  0.00     0.173 A 
ATOM     89  F   UNL A   1      43.240  30.961  28.020  1.00  0.00    -0.203 F 
ATOM     90  C   UNL A   1      44.941  32.313  27.155  1.00  0.00     0.198 A 
ATOM     91  C   UNL A   1      47.170  32.144  28.010  1.00  0.00     0.198 A 
ATOM     92  F   UNL A   1      47.695  30.531  29.639  1.00  0.00    -0.203 F 
ATOM     93  F   UNL A   1      44.044  32.916  26.359  1.00  0.00    -0.200 F 
ATOM     94  C   UNL A   1      46.252  32.754  27.171  1.00  0.00     0.200 A 
ATOM     95  F   UNL A   1      48.430  32.601  28.068  1.00  0.00    -0.200 F 
ATOM     96  F   UNL A   1      46.626  33.785  26.399  1.00  0.00    -0.200 F 
ENDBRANCH  63  86
ENDBRANCH  37  38
ENDBRANCH  30  32
ENDBRANCH  29  30
ENDBRANCH  28  29
ENDBRANCH   1  28
TORSDOF 13
ENDMDL
MODEL 2
REMARK VINA RESULT:     -14.5      3.642      9.111
REMARK SMILES CC(=O)Nc1ccc(/C=C2/CCc3oc(C(=O)OCCOC(=O)c4ccc(-c5c6nc(c(-c7c(F)c(F)c(F)c(F)c7F)c7ccc([nH]7)c(-c7c(F)c(F)c(F)c(F)c7F)c7nc(c(-c8c(F)c(F)c(F)c(F)c8F)c8ccc5[nH]8)C=C7)C=C6)cc4)c(C)c3C2=O)cc1
REMARK SMILES IDX 19 1 18 2 16 3 17 4 15 5 9 6 10 7 11 8 90 9 12 10 89 11
REMARK SMILES IDX 91 12 13 13 87 14 14 15 88 16 8 17 5 18 6 19 93 20 7 21
REMARK SMILES IDX 92 22 4 23 1 24 2 25 3 26 20 28 21 29 22 30 23 31 24 32
REMARK SMILES IDX 25 33 86 34 26 35 85 36 27 37 28 38 29 39 79 40 30 41 84 42
REMARK SMILES IDX 78 43 80 44 31 45 83 46 77 47 76 48 32 50 64 51 44 52 63 53
REMARK SMILES IDX 45 54 48 55 62 56 81 57 46 58 47 59 61 61 82 62 49 63 33 64
REMARK SMILES IDX 34 65 42 66 35 67 36 68 40 69 43 70 37 71 38 72 41 73 39 74
REMARK SMILES IDX 65 75 66 76 74 77 67 78 68 79 72 80 75 81 69 82 70 83 73 84
REMARK SMILES IDX 71 85 50 86 51 87 59 88 52 89 53 90 57 91 60 92 54 93 55 94
REMARK SMILES IDX 58 95 56 96
REMARK H PARENT 4 27 80 49 48 60
REMARK Flexibility Score: inf
ROOT
ATOM      1  C   UNL A   1      37.746  22.556  25.566  1.00  0.00     0.275 C 
ENDROOT
BRANCH   1   2
ATOM      2  O   UNL A   1      36.792  21.847  24.760  1.00  0.00    -0.456 OA
BRANCH   2   3
ATOM      3  C   UNL A   1      36.147  22.570  23.797  1.00  0.00     0.374 C 
ATOM      4  O   UNL A   1      36.643  22.880  22.716  1.00  0.00    -0.242 OA
BRANCH   3   5
ATOM      5  C   UNL A   1      34.790  22.852  24.209  1.00  0.00     0.215 A 
ATOM      6  C   UNL A   1      30.087  25.459  25.770  1.00  0.00     0.016 C 
ATOM      7  C   UNL A   1      30.691  24.263  25.617  1.00  0.00     0.001 C 
ATOM      8  C   UNL A   1      31.014  23.357  26.804  1.00  0.00     0.048 C 
ATOM      9  C   UNL A   1      31.215  23.723  24.317  1.00  0.00     0.192 C 
ATOM     10  C   UNL A   1      32.538  23.171  26.993  1.00  0.00     0.081 C 
ATOM     11  C   UNL A   1      32.610  23.359  24.436  1.00  0.00     0.067 A 
ATOM     12  O   UNL A   1      30.542  23.570  23.309  1.00  0.00    -0.289 OA
ATOM     13  C   UNL A   1      33.176  23.101  25.660  1.00  0.00     0.116 A 
ATOM     14  C   UNL A   1      33.651  23.199  23.478  1.00  0.00     0.014 A 
ATOM     15  O   UNL A   1      34.481  22.789  25.549  1.00  0.00    -0.453 OA
ATOM     16  C   UNL A   1      33.512  23.388  22.009  1.00  0.00     0.049 C 
BRANCH   6  17
ATOM     17  C   UNL A   1      29.818  26.580  24.839  1.00  0.00    -0.025 A 
ATOM     18  C   UNL A   1      29.565  28.716  22.982  1.00  0.00     0.041 A 
ATOM     19  C   UNL A   1      28.545  27.784  23.135  1.00  0.00     0.027 A 
ATOM     20  C   UNL A   1      30.685  28.626  23.803  1.00  0.00     0.027 A 
ATOM     21  C   UNL A   1      28.690  26.712  24.025  1.00  0.00     0.010 A 
ATOM     22  C   UNL A   1      30.803  27.576  24.726  1.00  0.00     0.010 A 
BRANCH  18  23
ATOM     23  N   UNL A   1      29.383  29.721  22.024  1.00  0.00    -0.326 N 
ATOM     24  C   UNL A   1      27.853  31.192  23.311  1.00  0.00     0.114 C 
ATOM     25  C   UNL A   1      28.544  30.800  22.031  1.00  0.00     0.221 C 
ATOM     26  O   UNL A   1      28.435  31.489  21.016  1.00  0.00    -0.275 OA
ATOM     27  H   UNL A   1      29.947  29.638  21.221  1.00  0.00     0.169 HD
ENDBRANCH  18  23
ENDBRANCH   6  17
ENDBRANCH   3   5
ENDBRANCH   2   3
ENDBRANCH   1   2
BRANCH   1  28
ATOM     28  C   UNL A   1      38.932  21.679  25.943  1.00  0.00     0.275 C 
BRANCH  28  29
ATOM     29  O   UNL A   1      39.754  22.300  26.931  1.00  0.00    -0.458 OA
BRANCH  29  30
ATOM     30  C   UNL A   1      41.013  22.587  26.533  1.00  0.00     0.338 C 
ATOM     31  O   UNL A   1      41.857  21.807  26.126  1.00  0.00    -0.246 OA
BRANCH  30  32
ATOM     32  C   UNL A   1      41.309  23.989  26.844  1.00  0.00     0.060 A 
ATOM     33  C   UNL A   1      42.244  24.238  27.852  1.00  0.00     0.016 A 
ATOM     34  C   UNL A   1      40.489  25.003  26.328  1.00  0.00     0.016 A 
ATOM     35  C   UNL A   1      42.244  25.477  28.456  1.00  0.00     0.010 A 
ATOM     36  C   UNL A   1      40.486  26.236  26.935  1.00  0.00     0.010 A 
ATOM     37  C   UNL A   1      41.310  26.435  28.039  1.00  0.00    -0.014 A 
BRANCH  37  38
ATOM     38  C   UNL A   1      41.292  27.709  28.726  1.00  0.00     0.031 A 
ATOM     39  C   UNL A   1      42.427  28.589  28.356  1.00  0.00     0.074 A 
ATOM     40  C   UNL A   1      40.278  28.083  29.529  1.00  0.00     0.049 A 
ATOM     41  N   UNL A   1      43.360  29.036  29.126  1.00  0.00    -0.248 NA
ATOM     42  C   UNL A   1      42.634  28.879  26.927  1.00  0.00     0.031 C 
ATOM     43  C   UNL A   1      38.994  27.419  29.757  1.00  0.00     0.029 A 
ATOM     44  N   UNL A   1      40.162  29.224  30.256  1.00  0.00    -0.354 N 
ATOM     45  C   UNL A   1      44.181  29.811  28.314  1.00  0.00     0.074 A 
ATOM     46  C   UNL A   1      43.782  29.554  26.957  1.00  0.00     0.031 C 
ATOM     47  C   UNL A   1      38.149  28.281  30.370  1.00  0.00     0.029 A 
ATOM     48  C   UNL A   1      38.873  29.499  30.690  1.00  0.00     0.049 A 
ATOM     49  H   UNL A   1      40.928  29.808  30.459  1.00  0.00     0.167 HD
ATOM     50  C   UNL A   1      44.971  30.782  28.846  1.00  0.00     0.037 A 
ATOM     51  C   UNL A   1      38.444  30.690  31.182  1.00  0.00     0.037 A 
ATOM     52  C   UNL A   1      45.210  30.554  30.247  1.00  0.00     0.049 A 
ATOM     53  C   UNL A   1      39.650  31.439  31.636  1.00  0.00     0.074 A 
ATOM     54  C   UNL A   1      45.784  29.518  30.962  1.00  0.00     0.029 A 
ATOM     55  N   UNL A   1      44.486  31.276  31.164  1.00  0.00    -0.354 N 
ATOM     56  N   UNL A   1      40.382  31.073  32.654  1.00  0.00    -0.248 NA
ATOM     57  C   UNL A   1      40.319  32.287  30.657  1.00  0.00     0.031 C 
ATOM     58  C   UNL A   1      44.965  29.375  32.120  1.00  0.00     0.029 A 
ATOM     59  C   UNL A   1      43.998  30.378  32.082  1.00  0.00     0.049 A 
ATOM     60  H   UNL A   1      44.346  32.250  31.165  1.00  0.00     0.167 HD
ATOM     61  C   UNL A   1      41.690  31.275  32.237  1.00  0.00     0.074 A 
ATOM     62  C   UNL A   1      41.588  32.077  31.019  1.00  0.00     0.031 C 
ATOM     63  C   UNL A   1      42.720  30.530  32.736  1.00  0.00     0.037 A 
BRANCH  50  64
ATOM     64  C   UNL A   1      45.198  32.117  28.184  1.00  0.00     0.064 A 
ATOM     65  C   UNL A   1      44.102  32.977  27.981  1.00  0.00     0.173 A 
ATOM     66  C   UNL A   1      46.374  32.447  27.473  1.00  0.00     0.173 A 
ATOM     67  F   UNL A   1      42.931  32.746  28.591  1.00  0.00    -0.203 F 
ATOM     68  C   UNL A   1      44.158  34.037  27.072  1.00  0.00     0.198 A 
ATOM     69  C   UNL A   1      46.441  33.537  26.608  1.00  0.00     0.198 A 
ATOM     70  F   UNL A   1      47.465  31.672  27.491  1.00  0.00    -0.203 F 
ATOM     71  F   UNL A   1      43.053  34.748  26.813  1.00  0.00    -0.200 F 
ATOM     72  C   UNL A   1      45.325  34.311  26.382  1.00  0.00     0.200 A 
ATOM     73  F   UNL A   1      47.576  33.772  25.934  1.00  0.00    -0.200 F 
ATOM     74  F   UNL A   1      45.360  35.283  25.461  1.00  0.00    -0.200 F 
ENDBRANCH  50  64
BRANCH  51  75
ATOM     75  C   UNL A   1      37.140  31.351  30.920  1.00  0.00     0.064 A 
ATOM     76  C   UNL A   1      36.260  31.671  31.967  1.00  0.00     0.173 A 
ATOM     77  C   UNL A   1      36.846  31.924  29.666  1.00  0.00     0.173 A 
ATOM     78  F   UNL A   1      36.493  31.214  33.206  1.00  0.00    -0.203 F 
ATOM     79  C   UNL A   1      35.163  32.520  31.772  1.00  0.00     0.198 A 
ATOM     80  C   UNL A   1      35.750  32.765  29.471  1.00  0.00     0.198 A 
ATOM     81  F   UNL A   1      37.670  31.759  28.621  1.00  0.00    -0.203 F 
ATOM     82  F   UNL A   1      34.378  32.847  32.808  1.00  0.00    -0.200 F 
ATOM     83  C   UNL A   1      34.914  33.073  30.527  1.00  0.00     0.200 A 
ATOM     84  F   UNL A   1      35.545  33.322  28.268  1.00  0.00    -0.200 F 
ATOM     85  F   UNL A   1      33.898  33.930  30.353  1.00  0.00    -0.200 F 
ENDBRANCH  51  75
BRANCH  63  86
ATOM     86  C   UNL A   1      42.447  29.622  33.904  1.00  0.00     0.064 A 
ATOM     87  C   UNL A   1      41.890  28.336  33.787  1.00  0.00     0.173 A 
ATOM     88  C   UNL A   1      42.923  30.001  35.166  1.00  0.00     0.173 A 
ATOM     89  F   UNL A   1      41.509  27.854  32.597  1.00  0.00    -0.203 F 
ATOM     90  C   UNL A   1      41.778  27.491  34.891  1.00  0.00     0.198 A 
ATOM     91  C   UNL A   1      42.844  29.142  36.258  1.00  0.00     0.198 A 
ATOM     92  F   UNL A   1      43.518  31.194  35.328  1.00  0.00    -0.203 F 
ATOM     93  F   UNL A   1      41.234  26.272  34.753  1.00  0.00    -0.200 F 
ATOM     94  C   UNL A   1      42.263  27.892  36.124  1.00  0.00     0.200 A 
ATOM     95  F   UNL A   1      43.363  29.515  37.437  1.00  0.00    -0.200 F 
ATOM     96  F   UNL A   1      42.197  27.064  37.176  1.00  0.00    -0.200 F 
ENDBRANCH  63  86
ENDBRANCH  37  38
ENDBRANCH  30  32
ENDBRANCH  29  30
ENDBRANCH  28  29
ENDBRANCH   1  28
TORSDOF 13
ENDMDL
MODEL 3
REMARK VINA RESULT:     -14.5      0.374      1.596
REMARK SMILES CC(=O)Nc1ccc(/C=C2/CCc3oc(C(=O)OCCOC(=O)c4ccc(-c5c6nc(c(-c7c(F)c(F)c(F)c(F)c7F)c7ccc([nH]7)c(-c7c(F)c(F)c(F)c(F)c7F)c7nc(c(-c8c(F)c(F)c(F)c(F)c8F)c8ccc5[nH]8)C=C7)C=C6)cc4)c(C)c3C2=O)cc1
REMARK SMILES IDX 19 1 18 2 16 3 17 4 15 5 9 6 10 7 11 8 90 9 12 10 89 11
REMARK SMILES IDX 91 12 13 13 87 14 14 15 88 16 8 17 5 18 6 19 93 20 7 21
REMARK SMILES IDX 92 22 4 23 1 24 2 25 3 26 20 28 21 29 22 30 23 31 24 32
REMARK SMILES IDX 25 33 86 34 26 35 85 36 27 37 28 38 29 39 79 40 30 41 84 42
REMARK SMILES IDX 78 43 80 44 31 45 83 46 77 47 76 48 32 50 64 51 44 52 63 53
REMARK SMILES IDX 45 54 48 55 62 56 81 57 46 58 47 59 61 61 82 62 49 63 33 64
REMARK SMILES IDX 34 65 42 66 35 67 36 68 40 69 43 70 37 71 38 72 41 73 39 74
REMARK SMILES IDX 65 75 66 76 74 77 67 78 68 79 72 80 75 81 69 82 70 83 73 84
REMARK SMILES IDX 71 85 50 86 51 87 59 88 52 89 53 90 57 91 60 92 54 93 55 94
REMARK SMILES IDX 58 95 56 96
REMARK H PARENT 4 27 80 49 48 60
REMARK Flexibility Score: inf
ROOT
ATOM      1  C   UNL A   1      32.116  30.887  26.821  1.00  0.00     0.275 C 
ENDROOT
BRANCH   1   2
ATOM      2  O   UNL A   1      31.543  29.855  26.002  1.00  0.00    -0.456 OA
BRANCH   2   3
ATOM      3  C   UNL A   1      31.539  28.592  26.524  1.00  0.00     0.374 C 
ATOM      4  O   UNL A   1      31.384  28.337  27.716  1.00  0.00    -0.242 OA
BRANCH   3   5
ATOM      5  C   UNL A   1      31.674  27.614  25.467  1.00  0.00     0.215 A 
ATOM      6  C   UNL A   1      33.295  23.228  22.388  1.00  0.00     0.016 C 
ATOM      7  C   UNL A   1      32.562  24.359  22.403  1.00  0.00     0.001 C 
ATOM      8  C   UNL A   1      32.905  25.563  21.527  1.00  0.00     0.048 C 
ATOM      9  C   UNL A   1      31.412  24.627  23.332  1.00  0.00     0.192 C 
ATOM     10  C   UNL A   1      33.305  26.797  22.370  1.00  0.00     0.081 C 
ATOM     11  C   UNL A   1      31.614  25.863  24.057  1.00  0.00     0.067 A 
ATOM     12  O   UNL A   1      30.420  23.920  23.428  1.00  0.00    -0.289 OA
ATOM     13  C   UNL A   1      32.466  26.832  23.587  1.00  0.00     0.116 A 
ATOM     14  C   UNL A   1      31.087  26.360  25.283  1.00  0.00     0.014 A 
ATOM     15  O   UNL A   1      32.514  27.895  24.413  1.00  0.00    -0.453 OA
ATOM     16  C   UNL A   1      30.122  25.647  26.162  1.00  0.00     0.049 C 
BRANCH   6  17
ATOM     17  C   UNL A   1      33.289  22.010  23.233  1.00  0.00    -0.025 A 
ATOM     18  C   UNL A   1      33.233  19.532  24.623  1.00  0.00     0.041 A 
ATOM     19  C   UNL A   1      34.119  20.536  24.997  1.00  0.00     0.027 A 
ATOM     20  C   UNL A   1      32.325  19.785  23.599  1.00  0.00     0.027 A 
ATOM     21  C   UNL A   1      34.168  21.742  24.285  1.00  0.00     0.010 A 
ATOM     22  C   UNL A   1      32.348  21.013  22.920  1.00  0.00     0.010 A 
BRANCH  18  23
ATOM     23  N   UNL A   1      33.287  18.326  25.334  1.00  0.00    -0.326 N 
ATOM     24  C   UNL A   1      34.142  16.862  23.521  1.00  0.00     0.114 C 
ATOM     25  C   UNL A   1      33.561  17.061  24.897  1.00  0.00     0.221 C 
ATOM     26  O   UNL A   1      33.414  16.110  25.666  1.00  0.00    -0.275 OA
ATOM     27  H   UNL A   1      33.098  18.403  26.297  1.00  0.00     0.169 HD
ENDBRANCH  18  23
ENDBRANCH   6  17
ENDBRANCH   3   5
ENDBRANCH   2   3
ENDBRANCH   1   2
BRANCH   1  28
ATOM     28  C   UNL A   1      33.637  30.823  26.830  1.00  0.00     0.275 C 
BRANCH  28  29
ATOM     29  O   UNL A   1      34.172  31.201  28.098  1.00  0.00    -0.458 OA
BRANCH  29  30
ATOM     30  C   UNL A   1      35.339  31.881  28.049  1.00  0.00     0.338 C 
ATOM     31  O   UNL A   1      35.564  32.926  27.462  1.00  0.00    -0.246 OA
BRANCH  30  32
ATOM     32  C   UNL A   1      36.395  31.071  28.663  1.00  0.00     0.060 A 
ATOM     33  C   UNL A   1      37.450  31.751  29.277  1.00  0.00     0.016 A 
ATOM     34  C   UNL A   1      36.455  29.694  28.400  1.00  0.00     0.016 A 
ATOM     35  C   UNL A   1      38.635  31.076  29.483  1.00  0.00     0.010 A 
ATOM     36  C   UNL A   1      37.638  29.024  28.603  1.00  0.00     0.010 A 
ATOM     37  C   UNL A   1      38.735  29.741  29.072  1.00  0.00    -0.014 A 
BRANCH  37  38
ATOM     38  C   UNL A   1      40.006  29.070  29.249  1.00  0.00     0.031 A 
ATOM     39  C   UNL A   1      40.305  28.750  30.665  1.00  0.00     0.074 A 
ATOM     40  C   UNL A   1      40.771  28.684  28.210  1.00  0.00     0.049 A 
ATOM     41  N   UNL A   1      41.287  29.185  31.381  1.00  0.00    -0.248 NA
ATOM     42  C   UNL A   1      39.306  27.974  31.420  1.00  0.00     0.031 C 
ATOM     43  C   UNL A   1      40.458  28.707  26.781  1.00  0.00     0.029 A 
ATOM     44  N   UNL A   1      41.991  28.088  28.243  1.00  0.00    -0.354 N 
ATOM     45  C   UNL A   1      41.131  28.600  32.633  1.00  0.00     0.074 A 
ATOM     46  C   UNL A   1      39.825  27.998  32.648  1.00  0.00     0.031 C 
ATOM     47  C   UNL A   1      41.353  27.939  26.116  1.00  0.00     0.029 A 
ATOM     48  C   UNL A   1      42.367  27.485  27.052  1.00  0.00     0.049 A 
ATOM     49  H   UNL A   1      42.561  28.085  29.045  1.00  0.00     0.167 HD
ATOM     50  C   UNL A   1      42.190  28.460  33.474  1.00  0.00     0.037 A 
ATOM     51  C   UNL A   1      43.387  26.601  26.904  1.00  0.00     0.037 A 
ATOM     52  C   UNL A   1      43.246  29.380  33.143  1.00  0.00     0.049 A 
ATOM     53  C   UNL A   1      44.303  26.787  28.064  1.00  0.00     0.074 A 
ATOM     54  C   UNL A   1      43.324  30.759  33.068  1.00  0.00     0.029 A 
ATOM     55  N   UNL A   1      44.328  28.913  32.437  1.00  0.00    -0.354 N 
ATOM     56  N   UNL A   1      45.018  27.864  28.251  1.00  0.00    -0.248 NA
ATOM     57  C   UNL A   1      44.033  26.001  29.262  1.00  0.00     0.031 C 
ATOM     58  C   UNL A   1      44.117  31.019  31.912  1.00  0.00     0.029 A 
ATOM     59  C   UNL A   1      44.539  29.792  31.403  1.00  0.00     0.049 A 
ATOM     60  H   UNL A   1      44.852  28.104  32.635  1.00  0.00     0.167 HD
ATOM     61  C   UNL A   1      44.922  28.120  29.611  1.00  0.00     0.074 A 
ATOM     62  C   UNL A   1      44.349  26.907  30.192  1.00  0.00     0.031 C 
ATOM     63  C   UNL A   1      45.030  29.387  30.107  1.00  0.00     0.037 A 
BRANCH  50  64
ATOM     64  C   UNL A   1      42.405  27.244  34.337  1.00  0.00     0.064 A 
ATOM     65  C   UNL A   1      42.055  27.300  35.700  1.00  0.00     0.173 A 
ATOM     66  C   UNL A   1      43.215  26.150  33.959  1.00  0.00     0.173 A 
ATOM     67  F   UNL A   1      41.305  28.306  36.171  1.00  0.00    -0.203 F 
ATOM     68  C   UNL A   1      42.548  26.375  36.624  1.00  0.00     0.198 A 
ATOM     69  C   UNL A   1      43.661  25.200  34.875  1.00  0.00     0.198 A 
ATOM     70  F   UNL A   1      43.706  26.014  32.722  1.00  0.00    -0.203 F 
ATOM     71  F   UNL A   1      42.296  26.542  37.929  1.00  0.00    -0.200 F 
ATOM     72  C   UNL A   1      43.356  25.331  36.212  1.00  0.00     0.200 A 
ATOM     73  F   UNL A   1      44.460  24.208  34.458  1.00  0.00    -0.200 F 
ATOM     74  F   UNL A   1      43.884  24.484  37.105  1.00  0.00    -0.200 F 
ENDBRANCH  50  64
BRANCH  51  75
ATOM     75  C   UNL A   1      43.400  25.380  26.059  1.00  0.00     0.064 A 
ATOM     76  C   UNL A   1      44.487  25.083  25.220  1.00  0.00     0.173 A 
ATOM     77  C   UNL A   1      42.466  24.342  26.254  1.00  0.00     0.173 A 
ATOM     78  F   UNL A   1      45.453  25.992  25.022  1.00  0.00    -0.203 F 
ATOM     79  C   UNL A   1      44.636  23.822  24.627  1.00  0.00     0.198 A 
ATOM     80  C   UNL A   1      42.610  23.089  25.657  1.00  0.00     0.198 A 
ATOM     81  F   UNL A   1      41.440  24.487  27.105  1.00  0.00    -0.203 F 
ATOM     82  F   UNL A   1      45.716  23.559  23.879  1.00  0.00    -0.200 F 
ATOM     83  C   UNL A   1      43.702  22.825  24.852  1.00  0.00     0.200 A 
ATOM     84  F   UNL A   1      41.718  22.123  25.916  1.00  0.00    -0.200 F 
ATOM     85  F   UNL A   1      43.873  21.602  24.330  1.00  0.00    -0.200 F 
ENDBRANCH  51  75
BRANCH  63  86
ATOM     86  C   UNL A   1      45.464  30.486  29.176  1.00  0.00     0.064 A 
ATOM     87  C   UNL A   1      46.807  30.793  28.893  1.00  0.00     0.173 A 
ATOM     88  C   UNL A   1      44.484  31.136  28.415  1.00  0.00     0.173 A 
ATOM     89  F   UNL A   1      47.807  30.140  29.498  1.00  0.00    -0.203 F 
ATOM     90  C   UNL A   1      47.146  31.738  27.924  1.00  0.00     0.198 A 
ATOM     91  C   UNL A   1      44.826  32.051  27.423  1.00  0.00     0.198 A 
ATOM     92  F   UNL A   1      43.187  30.842  28.598  1.00  0.00    -0.203 F 
ATOM     93  F   UNL A   1      48.435  32.019  27.680  1.00  0.00    -0.200 F 
ATOM     94  C   UNL A   1      46.155  32.360  27.184  1.00  0.00     0.200 A 
ATOM     95  F   UNL A   1      43.865  32.610  26.673  1.00  0.00    -0.200 F 
ATOM     96  F   UNL A   1      46.481  33.234  26.222  1.00  0.00    -0.200 F 
ENDBRANCH  63  86
ENDBRANCH  37  38
ENDBRANCH  30  32
ENDBRANCH  29  30
ENDBRANCH  28  29
ENDBRANCH   1  28
TORSDOF 13
ENDMDL
