MODEL 1
REMARK VINA RESULT:     -15.6      0.000      0.000
REMARK SMILES Cc1c(NC(=O)c2cccc(-c3cc4ccccc4oc3=O)c2)cccc1C(=O)OCCOC(=O)c1ccc(-c2c3nc(c(-c4c(F)c(F)c(F)c(F)c4F)c4ccc([nH]4)c(-c4c(F)c(F)c(F)c(F)c4F)c4nc(c(-c5c(F)c(F)c(F)c(F)c5F)c5ccc2[nH]5)C=C4)C=C3)cc1
REMARK SMILES IDX 31 1 30 2 28 3 29 4 27 5 1 6 2 7 3 8 24 9 26 10 25 11 4 12
REMARK SMILES IDX 5 13 6 15 7 16 8 17 23 18 9 19 11 20 10 21 12 22 13 23 21 24
REMARK SMILES IDX 14 25 20 26 22 27 15 28 19 29 16 30 18 31 17 32 32 33 33 34
REMARK SMILES IDX 34 35 35 36 36 37 37 38 98 39 38 40 97 41 39 42 40 43 41 44
REMARK SMILES IDX 91 45 42 46 96 47 90 48 92 49 43 50 95 51 89 52 88 53 44 55
REMARK SMILES IDX 76 56 56 57 75 58 57 59 60 60 74 61 93 62 58 63 59 64 73 66
REMARK SMILES IDX 94 67 61 68 45 69 46 70 54 71 47 72 48 73 52 74 55 75 49 76
REMARK SMILES IDX 50 77 53 78 51 79 77 80 78 81 86 82 79 83 80 84 84 85 87 86
REMARK SMILES IDX 81 87 82 88 85 89 83 90 62 91 63 92 71 93 64 94 65 95 69 96
REMARK SMILES IDX 72 97 66 98 67 99 70 100 68 101
REMARK H PARENT 4 14 92 54 60 65
REMARK Flexibility Score: inf
ROOT
ATOM      1  C   UNL A   1      32.904  30.079  26.003  1.00  0.00     0.275 C 
ENDROOT
BRANCH   1   2
ATOM      2  O   UNL A   1      33.302  29.158  24.938  1.00  0.00    -0.458 OA
BRANCH   2   3
ATOM      3  C   UNL A   1      33.477  27.853  25.203  1.00  0.00     0.338 C 
ATOM      4  O   UNL A   1      34.549  27.388  25.553  1.00  0.00    -0.246 OA
BRANCH   3   5
ATOM      5  C   UNL A   1      32.339  26.920  24.936  1.00  0.00     0.065 A 
ATOM      6  C   UNL A   1      31.157  27.138  27.186  1.00  0.00     0.047 C 
ATOM      7  C   UNL A   1      31.327  26.518  25.827  1.00  0.00    -0.013 A 
ATOM      8  C   UNL A   1      30.557  25.385  25.447  1.00  0.00     0.045 A 
ATOM      9  C   UNL A   1      30.549  24.923  24.124  1.00  0.00     0.026 A 
ATOM     10  C   UNL A   1      32.430  26.290  23.672  1.00  0.00     0.016 A 
ATOM     11  C   UNL A   1      31.497  25.370  23.230  1.00  0.00     0.003 A 
BRANCH   8  12
ATOM     12  N   UNL A   1      29.875  24.635  26.423  1.00  0.00    -0.322 N 
ATOM     13  C   UNL A   1      30.159  23.382  26.943  1.00  0.00     0.255 C 
ATOM     14  H   UNL A   1      29.071  25.067  26.792  1.00  0.00     0.170 HD
ATOM     15  O   UNL A   1      29.293  22.839  27.634  1.00  0.00    -0.269 OA
BRANCH  13  16
ATOM     16  C   UNL A   1      31.492  22.699  26.815  1.00  0.00     0.040 A 
ATOM     17  C   UNL A   1      32.487  23.030  27.744  1.00  0.00     0.014 A 
ATOM     18  C   UNL A   1      31.843  21.871  25.735  1.00  0.00     0.022 A 
ATOM     19  C   UNL A   1      33.778  22.507  27.629  1.00  0.00     0.001 A 
ATOM     20  C   UNL A   1      33.139  21.329  25.608  1.00  0.00    -0.010 A 
ATOM     21  C   UNL A   1      34.099  21.652  26.575  1.00  0.00     0.009 A 
BRANCH  20  22
ATOM     22  C   UNL A   1      33.627  20.638  24.373  1.00  0.00     0.068 A 
ATOM     23  C   UNL A   1      34.647  19.753  24.407  1.00  0.00     0.028 A 
ATOM     24  C   UNL A   1      32.470  20.042  23.619  1.00  0.00     0.344 A 
ATOM     25  C   UNL A   1      34.266  18.341  24.614  1.00  0.00     0.018 A 
ATOM     26  O   UNL A   1      31.933  18.937  24.266  1.00  0.00    -0.422 OA
ATOM     27  O   UNL A   1      31.988  20.566  22.624  1.00  0.00    -0.246 OA
ATOM     28  C   UNL A   1      35.191  17.318  24.756  1.00  0.00     0.012 A 
ATOM     29  C   UNL A   1      32.904  18.035  24.729  1.00  0.00     0.138 A 
ATOM     30  C   UNL A   1      34.739  16.044  25.113  1.00  0.00     0.001 A 
ATOM     31  C   UNL A   1      32.467  16.818  25.234  1.00  0.00     0.048 A 
ATOM     32  C   UNL A   1      33.403  15.819  25.453  1.00  0.00     0.004 A 
ENDBRANCH  20  22
ENDBRANCH  13  16
ENDBRANCH   8  12
ENDBRANCH   3   5
ENDBRANCH   2   3
ENDBRANCH   1   2
BRANCH   1  33
ATOM     33  C   UNL A   1      33.752  30.342  27.298  1.00  0.00     0.275 C 
BRANCH  33  34
ATOM     34  O   UNL A   1      35.191  30.075  27.429  1.00  0.00    -0.458 OA
BRANCH  34  35
ATOM     35  C   UNL A   1      36.065  30.822  28.163  1.00  0.00     0.338 C 
ATOM     36  O   UNL A   1      36.019  32.003  28.339  1.00  0.00    -0.246 OA
BRANCH  35  37
ATOM     37  C   UNL A   1      37.234  29.997  28.551  1.00  0.00     0.060 A 
ATOM     38  C   UNL A   1      37.213  29.202  29.704  1.00  0.00     0.016 A 
ATOM     39  C   UNL A   1      38.251  29.910  27.613  1.00  0.00     0.016 A 
ATOM     40  C   UNL A   1      38.162  28.198  29.841  1.00  0.00     0.010 A 
ATOM     41  C   UNL A   1      39.056  28.815  27.644  1.00  0.00     0.010 A 
ATOM     42  C   UNL A   1      39.058  28.010  28.791  1.00  0.00    -0.014 A 
BRANCH  42  43
ATOM     43  C   UNL A   1      40.356  27.394  28.948  1.00  0.00     0.031 A 
ATOM     44  C   UNL A   1      40.652  26.063  28.424  1.00  0.00     0.074 A 
ATOM     45  C   UNL A   1      41.248  28.363  29.257  1.00  0.00     0.049 A 
ATOM     46  N   UNL A   1      41.669  25.366  28.780  1.00  0.00    -0.248 NA
ATOM     47  C   UNL A   1      39.805  25.375  27.454  1.00  0.00     0.031 C 
ATOM     48  C   UNL A   1      42.681  28.457  29.091  1.00  0.00     0.029 A 
ATOM     49  N   UNL A   1      40.904  29.579  29.882  1.00  0.00    -0.354 N 
ATOM     50  C   UNL A   1      41.814  24.348  27.859  1.00  0.00     0.074 A 
ATOM     51  C   UNL A   1      40.547  24.297  27.167  1.00  0.00     0.031 C 
ATOM     52  C   UNL A   1      43.124  29.459  29.880  1.00  0.00     0.029 A 
ATOM     53  C   UNL A   1      41.989  29.943  30.669  1.00  0.00     0.049 A 
ATOM     54  H   UNL A   1      40.059  30.074  29.781  1.00  0.00     0.167 HD
ATOM     55  C   UNL A   1      43.064  23.829  27.670  1.00  0.00     0.037 A 
ATOM     56  C   UNL A   1      41.817  29.799  32.017  1.00  0.00     0.037 A 
ATOM     57  C   UNL A   1      44.011  24.542  28.540  1.00  0.00     0.049 A 
ATOM     58  C   UNL A   1      42.660  28.651  32.513  1.00  0.00     0.074 A 
ATOM     59  C   UNL A   1      44.848  25.616  28.283  1.00  0.00     0.029 A 
ATOM     60  N   UNL A   1      43.877  24.467  29.925  1.00  0.00    -0.354 N 
ATOM     61  N   UNL A   1      42.958  27.595  31.803  1.00  0.00    -0.248 NA
ATOM     62  C   UNL A   1      43.295  28.660  33.823  1.00  0.00     0.031 C 
ATOM     63  C   UNL A   1      45.127  26.254  29.522  1.00  0.00     0.029 A 
ATOM     64  C   UNL A   1      44.474  25.563  30.529  1.00  0.00     0.049 A 
ATOM     65  H   UNL A   1      43.424  23.739  30.407  1.00  0.00     0.167 HD
ATOM     66  C   UNL A   1      43.867  26.841  32.487  1.00  0.00     0.074 A 
ATOM     67  C   UNL A   1      44.027  27.537  33.756  1.00  0.00     0.031 C 
ATOM     68  C   UNL A   1      44.455  25.720  31.976  1.00  0.00     0.037 A 
BRANCH  55  69
ATOM     69  C   UNL A   1      43.527  22.959  26.510  1.00  0.00     0.064 A 
ATOM     70  C   UNL A   1      43.235  21.572  26.500  1.00  0.00     0.173 A 
ATOM     71  C   UNL A   1      44.273  23.394  25.397  1.00  0.00     0.173 A 
ATOM     72  F   UNL A   1      42.456  21.015  27.436  1.00  0.00    -0.203 F 
ATOM     73  C   UNL A   1      43.724  20.695  25.525  1.00  0.00     0.198 A 
ATOM     74  C   UNL A   1      44.785  22.513  24.433  1.00  0.00     0.198 A 
ATOM     75  F   UNL A   1      44.496  24.690  25.162  1.00  0.00    -0.203 F 
ATOM     76  F   UNL A   1      43.420  19.391  25.592  1.00  0.00    -0.200 F 
ATOM     77  C   UNL A   1      44.518  21.162  24.502  1.00  0.00     0.200 A 
ATOM     78  F   UNL A   1      45.535  22.991  23.429  1.00  0.00    -0.200 F 
ATOM     79  F   UNL A   1      45.002  20.322  23.576  1.00  0.00    -0.200 F 
ENDBRANCH  55  69
BRANCH  56  80
ATOM     80  C   UNL A   1      40.434  30.148  32.510  1.00  0.00     0.064 A 
ATOM     81  C   UNL A   1      39.984  31.486  32.393  1.00  0.00     0.173 A 
ATOM     82  C   UNL A   1      39.463  29.198  32.854  1.00  0.00     0.173 A 
ATOM     83  F   UNL A   1      40.850  32.458  32.060  1.00  0.00    -0.203 F 
ATOM     84  C   UNL A   1      38.638  31.837  32.530  1.00  0.00     0.198 A 
ATOM     85  C   UNL A   1      38.115  29.555  33.009  1.00  0.00     0.198 A 
ATOM     86  F   UNL A   1      39.790  27.904  32.977  1.00  0.00    -0.203 F 
ATOM     87  F   UNL A   1      38.251  33.103  32.320  1.00  0.00    -0.200 F 
ATOM     88  C   UNL A   1      37.701  30.868  32.828  1.00  0.00     0.200 A 
ATOM     89  F   UNL A   1      37.197  28.611  33.267  1.00  0.00    -0.200 F 
ATOM     90  F   UNL A   1      36.399  31.183  32.902  1.00  0.00    -0.200 F 
ENDBRANCH  56  80
BRANCH  68  91
ATOM     91  C   UNL A   1      45.169  24.701  32.816  1.00  0.00     0.064 A 
ATOM     92  C   UNL A   1      46.465  24.903  33.317  1.00  0.00     0.173 A 
ATOM     93  C   UNL A   1      44.491  23.555  33.293  1.00  0.00     0.173 A 
ATOM     94  F   UNL A   1      47.153  26.020  33.045  1.00  0.00    -0.203 F 
ATOM     95  C   UNL A   1      47.071  23.983  34.169  1.00  0.00     0.198 A 
ATOM     96  C   UNL A   1      45.074  22.680  34.203  1.00  0.00     0.198 A 
ATOM     97  F   UNL A   1      43.235  23.273  32.917  1.00  0.00    -0.203 F 
ATOM     98  F   UNL A   1      48.333  24.191  34.572  1.00  0.00    -0.200 F 
ATOM     99  C   UNL A   1      46.372  22.882  34.623  1.00  0.00     0.200 A 
ATOM    100  F   UNL A   1      44.360  21.656  34.689  1.00  0.00    -0.200 F 
ATOM    101  F   UNL A   1      46.942  22.029  35.484  1.00  0.00    -0.200 F 
ENDBRANCH  68  91
ENDBRANCH  42  43
ENDBRANCH  35  37
ENDBRANCH  34  35
ENDBRANCH  33  34
ENDBRANCH   1  33
TORSDOF 14
ENDMDL
MODEL 2
REMARK VINA RESULT:     -15.4      4.011     10.453
REMARK SMILES Cc1c(NC(=O)c2cccc(-c3cc4ccccc4oc3=O)c2)cccc1C(=O)OCCOC(=O)c1ccc(-c2c3nc(c(-c4c(F)c(F)c(F)c(F)c4F)c4ccc([nH]4)c(-c4c(F)c(F)c(F)c(F)c4F)c4nc(c(-c5c(F)c(F)c(F)c(F)c5F)c5ccc2[nH]5)C=C4)C=C3)cc1
REMARK SMILES IDX 31 1 30 2 28 3 29 4 27 5 1 6 2 7 3 8 24 9 26 10 25 11 4 12
REMARK SMILES IDX 5 13 6 15 7 16 8 17 23 18 9 19 11 20 10 21 12 22 13 23 21 24
REMARK SMILES IDX 14 25 20 26 22 27 15 28 19 29 16 30 18 31 17 32 32 33 33 34
REMARK SMILES IDX 34 35 35 36 36 37 37 38 98 39 38 40 97 41 39 42 40 43 41 44
REMARK SMILES IDX 91 45 42 46 96 47 90 48 92 49 43 50 95 51 89 52 88 53 44 55
REMARK SMILES IDX 76 56 56 57 75 58 57 59 60 60 74 61 93 62 58 63 59 64 73 66
REMARK SMILES IDX 94 67 61 68 45 69 46 70 54 71 47 72 48 73 52 74 55 75 49 76
REMARK SMILES IDX 50 77 53 78 51 79 77 80 78 81 86 82 79 83 80 84 84 85 87 86
REMARK SMILES IDX 81 87 82 88 85 89 83 90 62 91 63 92 71 93 64 94 65 95 69 96
REMARK SMILES IDX 72 97 66 98 67 99 70 100 68 101
REMARK H PARENT 4 14 92 54 60 65
REMARK Flexibility Score: inf
ROOT
ATOM      1  C   UNL A   1      36.704  23.131  26.094  1.00  0.00     0.275 C 
ENDROOT
BRANCH   1   2
ATOM      2  O   UNL A   1      35.407  23.809  26.104  1.00  0.00    -0.458 OA
BRANCH   2   3
ATOM      3  C   UNL A   1      34.270  23.096  26.157  1.00  0.00     0.338 C 
ATOM      4  O   UNL A   1      34.049  22.266  27.023  1.00  0.00    -0.246 OA
BRANCH   3   5
ATOM      5  C   UNL A   1      33.293  23.243  25.034  1.00  0.00     0.065 A 
ATOM      6  C   UNL A   1      34.889  22.776  23.100  1.00  0.00     0.047 C 
ATOM      7  C   UNL A   1      33.552  23.183  23.652  1.00  0.00    -0.013 A 
ATOM      8  C   UNL A   1      32.532  23.674  22.792  1.00  0.00     0.045 A 
ATOM      9  C   UNL A   1      31.222  23.861  23.251  1.00  0.00     0.026 A 
ATOM     10  C   UNL A   1      32.005  23.631  25.475  1.00  0.00     0.016 A 
ATOM     11  C   UNL A   1      30.954  23.848  24.602  1.00  0.00     0.003 A 
BRANCH   8  12
ATOM     12  N   UNL A   1      32.851  24.092  21.486  1.00  0.00    -0.322 N 
ATOM     13  C   UNL A   1      32.784  25.351  20.912  1.00  0.00     0.255 C 
ATOM     14  H   UNL A   1      33.171  23.378  20.888  1.00  0.00     0.170 HD
ATOM     15  O   UNL A   1      32.911  25.431  19.688  1.00  0.00    -0.269 OA
BRANCH  13  16
ATOM     16  C   UNL A   1      32.683  26.630  21.696  1.00  0.00     0.040 A 
ATOM     17  C   UNL A   1      33.873  27.293  22.021  1.00  0.00     0.014 A 
ATOM     18  C   UNL A   1      31.484  27.112  22.249  1.00  0.00     0.022 A 
ATOM     19  C   UNL A   1      33.862  28.434  22.828  1.00  0.00     0.001 A 
ATOM     20  C   UNL A   1      31.454  28.267  23.060  1.00  0.00    -0.010 A 
ATOM     21  C   UNL A   1      32.658  28.925  23.334  1.00  0.00     0.009 A 
BRANCH  20  22
ATOM     22  C   UNL A   1      30.256  28.686  23.853  1.00  0.00     0.068 A 
ATOM     23  C   UNL A   1      30.047  29.976  24.200  1.00  0.00     0.028 A 
ATOM     24  C   UNL A   1      29.003  28.121  23.243  1.00  0.00     0.344 A 
ATOM     25  C   UNL A   1      29.251  30.776  23.248  1.00  0.00     0.018 A 
ATOM     26  O   UNL A   1      28.675  28.741  22.044  1.00  0.00    -0.422 OA
ATOM     27  O   UNL A   1      28.431  27.139  23.694  1.00  0.00    -0.246 OA
ATOM     28  C   UNL A   1      29.013  32.132  23.409  1.00  0.00     0.012 A 
ATOM     29  C   UNL A   1      28.764  30.141  22.098  1.00  0.00     0.138 A 
ATOM     30  C   UNL A   1      28.392  32.836  22.373  1.00  0.00     0.001 A 
ATOM     31  C   UNL A   1      28.292  30.861  21.008  1.00  0.00     0.048 A 
ATOM     32  C   UNL A   1      28.129  32.231  21.143  1.00  0.00     0.004 A 
ENDBRANCH  20  22
ENDBRANCH  13  16
ENDBRANCH   8  12
ENDBRANCH   3   5
ENDBRANCH   2   3
ENDBRANCH   1   2
BRANCH   1  33
ATOM     33  C   UNL A   1      38.082  23.873  26.209  1.00  0.00     0.275 C 
BRANCH  33  34
ATOM     34  O   UNL A   1      39.210  23.427  27.038  1.00  0.00    -0.458 OA
BRANCH  34  35
ATOM     35  C   UNL A   1      40.488  23.900  26.946  1.00  0.00     0.338 C 
ATOM     36  O   UNL A   1      41.473  23.253  26.744  1.00  0.00    -0.246 OA
BRANCH  35  37
ATOM     37  C   UNL A   1      40.530  25.324  27.352  1.00  0.00     0.060 A 
ATOM     38  C   UNL A   1      40.698  26.346  26.408  1.00  0.00     0.016 A 
ATOM     39  C   UNL A   1      40.201  25.587  28.673  1.00  0.00     0.016 A 
ATOM     40  C   UNL A   1      40.385  27.648  26.770  1.00  0.00     0.010 A 
ATOM     41  C   UNL A   1      39.710  26.818  28.975  1.00  0.00     0.010 A 
ATOM     42  C   UNL A   1      39.874  27.856  28.049  1.00  0.00    -0.014 A 
BRANCH  42  43
ATOM     43  C   UNL A   1      39.959  29.120  28.747  1.00  0.00     0.031 A 
ATOM     44  C   UNL A   1      38.839  30.056  28.797  1.00  0.00     0.074 A 
ATOM     45  C   UNL A   1      41.006  29.060  29.601  1.00  0.00     0.049 A 
ATOM     46  N   UNL A   1      38.951  31.286  29.144  1.00  0.00    -0.248 NA
ATOM     47  C   UNL A   1      37.473  29.693  28.432  1.00  0.00     0.031 C 
ATOM     48  C   UNL A   1      41.309  29.771  30.823  1.00  0.00     0.029 A 
ATOM     49  N   UNL A   1      42.122  28.216  29.420  1.00  0.00    -0.354 N 
ATOM     50  C   UNL A   1      37.681  31.760  29.400  1.00  0.00     0.074 A 
ATOM     51  C   UNL A   1      36.800  30.797  28.784  1.00  0.00     0.031 C 
ATOM     52  C   UNL A   1      42.624  29.602  31.085  1.00  0.00     0.029 A 
ATOM     53  C   UNL A   1      43.217  28.883  29.954  1.00  0.00     0.049 A 
ATOM     54  H   UNL A   1      42.124  27.327  28.997  1.00  0.00     0.167 HD
ATOM     55  C   UNL A   1      37.551  32.796  30.282  1.00  0.00     0.037 A 
ATOM     56  C   UNL A   1      44.104  29.387  29.046  1.00  0.00     0.037 A 
ATOM     57  C   UNL A   1      38.883  33.162  30.786  1.00  0.00     0.049 A 
ATOM     58  C   UNL A   1      44.006  30.892  29.028  1.00  0.00     0.074 A 
ATOM     59  C   UNL A   1      39.552  32.784  31.940  1.00  0.00     0.029 A 
ATOM     60  N   UNL A   1      39.849  33.653  29.911  1.00  0.00    -0.354 N 
ATOM     61  N   UNL A   1      42.911  31.563  29.274  1.00  0.00    -0.248 NA
ATOM     62  C   UNL A   1      45.165  31.746  28.812  1.00  0.00     0.031 C 
ATOM     63  C   UNL A   1      40.944  32.949  31.706  1.00  0.00     0.029 A 
ATOM     64  C   UNL A   1      41.119  33.439  30.422  1.00  0.00     0.049 A 
ATOM     65  H   UNL A   1      39.657  34.091  29.051  1.00  0.00     0.167 HD
ATOM     66  C   UNL A   1      43.210  32.893  29.343  1.00  0.00     0.074 A 
ATOM     67  C   UNL A   1      44.629  32.959  29.021  1.00  0.00     0.031 C 
ATOM     68  C   UNL A   1      42.302  33.853  29.681  1.00  0.00     0.037 A 
BRANCH  55  69
ATOM     69  C   UNL A   1      36.270  33.262  30.962  1.00  0.00     0.064 A 
ATOM     70  C   UNL A   1      35.374  34.121  30.279  1.00  0.00     0.173 A 
ATOM     71  C   UNL A   1      35.866  32.938  32.272  1.00  0.00     0.173 A 
ATOM     72  F   UNL A   1      35.562  34.450  28.994  1.00  0.00    -0.203 F 
ATOM     73  C   UNL A   1      34.239  34.676  30.881  1.00  0.00     0.198 A 
ATOM     74  C   UNL A   1      34.743  33.513  32.885  1.00  0.00     0.198 A 
ATOM     75  F   UNL A   1      36.504  32.016  32.998  1.00  0.00    -0.203 F 
ATOM     76  F   UNL A   1      33.446  35.496  30.176  1.00  0.00    -0.200 F 
ATOM     77  C   UNL A   1      33.935  34.389  32.193  1.00  0.00     0.200 A 
ATOM     78  F   UNL A   1      34.448  33.201  34.156  1.00  0.00    -0.200 F 
ATOM     79  F   UNL A   1      32.857  34.932  32.777  1.00  0.00    -0.200 F 
ENDBRANCH  55  69
BRANCH  56  80
ATOM     80  C   UNL A   1      44.327  28.510  27.839  1.00  0.00     0.064 A 
ATOM     81  C   UNL A   1      45.082  27.320  27.989  1.00  0.00     0.173 A 
ATOM     82  C   UNL A   1      43.639  28.655  26.627  1.00  0.00     0.173 A 
ATOM     83  F   UNL A   1      45.767  27.100  29.123  1.00  0.00    -0.203 F 
ATOM     84  C   UNL A   1      45.081  26.307  27.026  1.00  0.00     0.198 A 
ATOM     85  C   UNL A   1      43.653  27.644  25.653  1.00  0.00     0.198 A 
ATOM     86  F   UNL A   1      42.888  29.740  26.397  1.00  0.00    -0.203 F 
ATOM     87  F   UNL A   1      45.739  25.162  27.257  1.00  0.00    -0.200 F 
ATOM     88  C   UNL A   1      44.357  26.465  25.861  1.00  0.00     0.200 A 
ATOM     89  F   UNL A   1      42.925  27.781  24.535  1.00  0.00    -0.200 F 
ATOM     90  F   UNL A   1      44.300  25.475  24.958  1.00  0.00    -0.200 F 
ENDBRANCH  56  80
BRANCH  68  91
ATOM     91  C   UNL A   1      42.507  35.318  29.424  1.00  0.00     0.064 A 
ATOM     92  C   UNL A   1      43.278  36.136  30.266  1.00  0.00     0.173 A 
ATOM     93  C   UNL A   1      42.078  35.906  28.212  1.00  0.00     0.173 A 
ATOM     94  F   UNL A   1      43.854  35.653  31.375  1.00  0.00    -0.203 F 
ATOM     95  C   UNL A   1      43.530  37.471  29.958  1.00  0.00     0.198 A 
ATOM     96  C   UNL A   1      42.398  37.216  27.874  1.00  0.00     0.198 A 
ATOM     97  F   UNL A   1      41.367  35.216  27.308  1.00  0.00    -0.203 F 
ATOM     98  F   UNL A   1      44.219  38.228  30.823  1.00  0.00    -0.200 F 
ATOM     99  C   UNL A   1      43.104  38.006  28.758  1.00  0.00     0.200 A 
ATOM    100  F   UNL A   1      42.038  37.700  26.678  1.00  0.00    -0.200 F 
ATOM    101  F   UNL A   1      43.395  39.274  28.443  1.00  0.00    -0.200 F 
ENDBRANCH  68  91
ENDBRANCH  42  43
ENDBRANCH  35  37
ENDBRANCH  34  35
ENDBRANCH  33  34
ENDBRANCH   1  33
TORSDOF 14
ENDMDL
MODEL 3
REMARK VINA RESULT:     -15.3      1.630      2.021
REMARK SMILES Cc1c(NC(=O)c2cccc(-c3cc4ccccc4oc3=O)c2)cccc1C(=O)OCCOC(=O)c1ccc(-c2c3nc(c(-c4c(F)c(F)c(F)c(F)c4F)c4ccc([nH]4)c(-c4c(F)c(F)c(F)c(F)c4F)c4nc(c(-c5c(F)c(F)c(F)c(F)c5F)c5ccc2[nH]5)C=C4)C=C3)cc1
REMARK SMILES IDX 31 1 30 2 28 3 29 4 27 5 1 6 2 7 3 8 24 9 26 10 25 11 4 12
REMARK SMILES IDX 5 13 6 15 7 16 8 17 23 18 9 19 11 20 10 21 12 22 13 23 21 24
REMARK SMILES IDX 14 25 20 26 22 27 15 28 19 29 16 30 18 31 17 32 32 33 33 34
REMARK SMILES IDX 34 35 35 36 36 37 37 38 98 39 38 40 97 41 39 42 40 43 41 44
REMARK SMILES IDX 91 45 42 46 96 47 90 48 92 49 43 50 95 51 89 52 88 53 44 55
REMARK SMILES IDX 76 56 56 57 75 58 57 59 60 60 74 61 93 62 58 63 59 64 73 66
REMARK SMILES IDX 94 67 61 68 45 69 46 70 54 71 47 72 48 73 52 74 55 75 49 76
REMARK SMILES IDX 50 77 53 78 51 79 77 80 78 81 86 82 79 83 80 84 84 85 87 86
REMARK SMILES IDX 81 87 82 88 85 89 83 90 62 91 63 92 71 93 64 94 65 95 69 96
REMARK SMILES IDX 72 97 66 98 67 99 70 100 68 101
REMARK H PARENT 4 14 92 54 60 65
REMARK Flexibility Score: inf
ROOT
ATOM      1  C   UNL A   1      32.534  29.931  26.241  1.00  0.00     0.275 C 
ENDROOT
BRANCH   1   2
ATOM      2  O   UNL A   1      33.067  29.181  25.103  1.00  0.00    -0.458 OA
BRANCH   2   3
ATOM      3  C   UNL A   1      33.410  27.890  25.243  1.00  0.00     0.338 C 
ATOM      4  O   UNL A   1      34.401  27.532  25.857  1.00  0.00    -0.246 OA
BRANCH   3   5
ATOM      5  C   UNL A   1      32.605  26.864  24.510  1.00  0.00     0.065 A 
ATOM      6  C   UNL A   1      30.966  26.287  26.378  1.00  0.00     0.047 C 
ATOM      7  C   UNL A   1      31.556  26.073  25.012  1.00  0.00    -0.013 A 
ATOM      8  C   UNL A   1      31.172  24.951  24.226  1.00  0.00     0.045 A 
ATOM      9  C   UNL A   1      31.548  24.845  22.880  1.00  0.00     0.026 A 
ATOM     10  C   UNL A   1      33.103  26.602  23.212  1.00  0.00     0.016 A 
ATOM     11  C   UNL A   1      32.526  25.669  22.368  1.00  0.00     0.003 A 
BRANCH   8  12
ATOM     12  N   UNL A   1      30.501  23.868  24.821  1.00  0.00    -0.322 N 
ATOM     13  C   UNL A   1      31.006  22.774  25.507  1.00  0.00     0.255 C 
ATOM     14  H   UNL A   1      29.520  23.889  24.737  1.00  0.00     0.170 HD
ATOM     15  O   UNL A   1      30.234  21.843  25.750  1.00  0.00    -0.269 OA
BRANCH  13  16
ATOM     16  C   UNL A   1      32.398  22.703  26.070  1.00  0.00     0.040 A 
ATOM     17  C   UNL A   1      32.535  22.580  27.459  1.00  0.00     0.014 A 
ATOM     18  C   UNL A   1      33.559  22.907  25.306  1.00  0.00     0.022 A 
ATOM     19  C   UNL A   1      33.796  22.604  28.060  1.00  0.00     0.001 A 
ATOM     20  C   UNL A   1      34.841  22.926  25.896  1.00  0.00    -0.010 A 
ATOM     21  C   UNL A   1      34.943  22.764  27.283  1.00  0.00     0.009 A 
BRANCH  20  22
ATOM     22  C   UNL A   1      36.075  23.363  25.172  1.00  0.00     0.068 A 
ATOM     23  C   UNL A   1      37.297  23.308  25.749  1.00  0.00     0.028 A 
ATOM     24  C   UNL A   1      36.134  22.727  23.811  1.00  0.00     0.344 A 
ATOM     25  C   UNL A   1      38.050  22.055  25.539  1.00  0.00     0.018 A 
ATOM     26  O   UNL A   1      36.412  21.368  23.876  1.00  0.00    -0.422 OA
ATOM     27  O   UNL A   1      35.833  23.325  22.787  1.00  0.00    -0.246 OA
ATOM     28  C   UNL A   1      39.279  21.801  26.127  1.00  0.00     0.012 A 
ATOM     29  C   UNL A   1      37.462  21.056  24.754  1.00  0.00     0.138 A 
ATOM     30  C   UNL A   1      39.836  20.525  26.003  1.00  0.00     0.001 A 
ATOM     31  C   UNL A   1      37.931  19.749  24.760  1.00  0.00     0.048 A 
ATOM     32  C   UNL A   1      39.122  19.478  25.417  1.00  0.00     0.004 A 
ENDBRANCH  20  22
ENDBRANCH  13  16
ENDBRANCH   8  12
ENDBRANCH   3   5
ENDBRANCH   2   3
ENDBRANCH   1   2
BRANCH   1  33
ATOM     33  C   UNL A   1      33.420  30.757  27.239  1.00  0.00     0.275 C 
BRANCH  33  34
ATOM     34  O   UNL A   1      34.718  30.319  27.771  1.00  0.00    -0.458 OA
BRANCH  34  35
ATOM     35  C   UNL A   1      35.738  31.149  28.137  1.00  0.00     0.338 C 
ATOM     36  O   UNL A   1      35.775  32.336  27.997  1.00  0.00    -0.246 OA
BRANCH  35  37
ATOM     37  C   UNL A   1      36.918  30.351  28.547  1.00  0.00     0.060 A 
ATOM     38  C   UNL A   1      36.895  29.558  29.702  1.00  0.00     0.016 A 
ATOM     39  C   UNL A   1      37.952  30.285  27.626  1.00  0.00     0.016 A 
ATOM     40  C   UNL A   1      37.863  28.576  29.857  1.00  0.00     0.010 A 
ATOM     41  C   UNL A   1      38.780  29.208  27.674  1.00  0.00     0.010 A 
ATOM     42  C   UNL A   1      38.780  28.406  28.822  1.00  0.00    -0.014 A 
BRANCH  42  43
ATOM     43  C   UNL A   1      40.089  27.819  29.003  1.00  0.00     0.031 A 
ATOM     44  C   UNL A   1      40.412  26.479  28.520  1.00  0.00     0.074 A 
ATOM     45  C   UNL A   1      40.962  28.813  29.287  1.00  0.00     0.049 A 
ATOM     46  N   UNL A   1      41.440  25.812  28.900  1.00  0.00    -0.248 NA
ATOM     47  C   UNL A   1      39.582  25.747  27.568  1.00  0.00     0.031 C 
ATOM     48  C   UNL A   1      42.393  28.928  29.124  1.00  0.00     0.029 A 
ATOM     49  N   UNL A   1      40.592  30.041  29.874  1.00  0.00    -0.354 N 
ATOM     50  C   UNL A   1      41.608  24.770  28.011  1.00  0.00     0.074 A 
ATOM     51  C   UNL A   1      40.346  24.675  27.316  1.00  0.00     0.031 C 
ATOM     52  C   UNL A   1      42.814  29.962  29.884  1.00  0.00     0.029 A 
ATOM     53  C   UNL A   1      41.667  30.448  30.655  1.00  0.00     0.049 A 
ATOM     54  H   UNL A   1      39.738  30.516  29.755  1.00  0.00     0.167 HD
ATOM     55  C   UNL A   1      42.868  24.269  27.843  1.00  0.00     0.037 A 
ATOM     56  C   UNL A   1      41.492  30.341  32.005  1.00  0.00     0.037 A 
ATOM     57  C   UNL A   1      43.798  25.025  28.695  1.00  0.00     0.049 A 
ATOM     58  C   UNL A   1      42.353  29.224  32.539  1.00  0.00     0.074 A 
ATOM     59  C   UNL A   1      44.616  26.106  28.410  1.00  0.00     0.029 A 
ATOM     60  N   UNL A   1      43.659  24.989  30.081  1.00  0.00    -0.354 N 
ATOM     61  N   UNL A   1      42.674  28.153  31.862  1.00  0.00    -0.248 NA
ATOM     62  C   UNL A   1      42.982  29.283  33.850  1.00  0.00     0.031 C 
ATOM     63  C   UNL A   1      44.878  26.785  29.630  1.00  0.00     0.029 A 
ATOM     64  C   UNL A   1      44.233  26.113  30.654  1.00  0.00     0.049 A 
ATOM     65  H   UNL A   1      43.217  24.267  30.583  1.00  0.00     0.167 HD
ATOM     66  C   UNL A   1      43.594  27.437  32.571  1.00  0.00     0.074 A 
ATOM     67  C   UNL A   1      43.735  28.172  33.820  1.00  0.00     0.031 C 
ATOM     68  C   UNL A   1      44.204  26.312  32.096  1.00  0.00     0.037 A 
BRANCH  55  69
ATOM     69  C   UNL A   1      43.353  23.373  26.710  1.00  0.00     0.064 A 
ATOM     70  C   UNL A   1      43.094  21.980  26.745  1.00  0.00     0.173 A 
ATOM     71  C   UNL A   1      44.088  23.791  25.584  1.00  0.00     0.173 A 
ATOM     72  F   UNL A   1      42.328  21.435  27.699  1.00  0.00    -0.203 F 
ATOM     73  C   UNL A   1      43.604  21.085  25.798  1.00  0.00     0.198 A 
ATOM     74  C   UNL A   1      44.622  22.891  24.648  1.00  0.00     0.198 A 
ATOM     75  F   UNL A   1      44.280  25.084  25.308  1.00  0.00    -0.203 F 
ATOM     76  F   UNL A   1      43.332  19.776  25.907  1.00  0.00    -0.200 F 
ATOM     77  C   UNL A   1      44.388  21.538  24.761  1.00  0.00     0.200 A 
ATOM     78  F   UNL A   1      45.361  23.355  23.630  1.00  0.00    -0.200 F 
ATOM     79  F   UNL A   1      44.891  20.681  23.862  1.00  0.00    -0.200 F 
ENDBRANCH  55  69
BRANCH  56  80
ATOM     80  C   UNL A   1      40.100  30.678  32.482  1.00  0.00     0.064 A 
ATOM     81  C   UNL A   1      39.647  32.017  32.378  1.00  0.00     0.173 A 
ATOM     82  C   UNL A   1      39.127  29.720  32.797  1.00  0.00     0.173 A 
ATOM     83  F   UNL A   1      40.515  32.995  32.073  1.00  0.00    -0.203 F 
ATOM     84  C   UNL A   1      38.298  32.362  32.500  1.00  0.00     0.198 A 
ATOM     85  C   UNL A   1      37.775  30.072  32.937  1.00  0.00     0.198 A 
ATOM     86  F   UNL A   1      39.456  28.426  32.906  1.00  0.00    -0.203 F 
ATOM     87  F   UNL A   1      37.911  33.630  32.302  1.00  0.00    -0.200 F 
ATOM     88  C   UNL A   1      37.360  31.385  32.769  1.00  0.00     0.200 A 
ATOM     89  F   UNL A   1      36.856  29.121  33.167  1.00  0.00    -0.200 F 
ATOM     90  F   UNL A   1      36.056  31.696  32.828  1.00  0.00    -0.200 F 
ENDBRANCH  56  80
BRANCH  68  91
ATOM     91  C   UNL A   1      44.933  25.331  32.969  1.00  0.00     0.064 A 
ATOM     92  C   UNL A   1      46.334  25.271  33.037  1.00  0.00     0.173 A 
ATOM     93  C   UNL A   1      44.232  24.537  33.904  1.00  0.00     0.173 A 
ATOM     94  F   UNL A   1      47.106  26.078  32.296  1.00  0.00    -0.203 F 
ATOM     95  C   UNL A   1      46.987  24.416  33.921  1.00  0.00     0.198 A 
ATOM     96  C   UNL A   1      44.890  23.742  34.837  1.00  0.00     0.198 A 
ATOM     97  F   UNL A   1      42.892  24.536  33.963  1.00  0.00    -0.203 F 
ATOM     98  F   UNL A   1      48.326  24.350  33.907  1.00  0.00    -0.200 F 
ATOM     99  C   UNL A   1      46.268  23.665  34.830  1.00  0.00     0.200 A 
ATOM    100  F   UNL A   1      44.182  23.073  35.756  1.00  0.00    -0.200 F 
ATOM    101  F   UNL A   1      46.902  22.884  35.713  1.00  0.00    -0.200 F 
ENDBRANCH  68  91
ENDBRANCH  42  43
ENDBRANCH  35  37
ENDBRANCH  34  35
ENDBRANCH  33  34
ENDBRANCH   1  33
TORSDOF 14
ENDMDL
