MODEL 1
REMARK VINA RESULT:     -11.2      0.000      0.000
REMARK SMILES COC(=O)[C@H]1CCN(C(=O)N[C@H](C(=O)OCCOC(=O)c2ccc(-c3c4nc(c(-c5c(F)c(F)c(F)c(F)c5F)c5ccc([nH]5)c(-c5c(F)c(F)c(F)c(F)c5F)c5nc(c(-c6c(F)c(F)c(F)c(F)c6F)c6ccc3[nH]6)C=C5)C=C4)cc2)C2CC2)C1
REMARK SMILES IDX 16 1 15 2 13 3 14 4 12 5 11 6 9 7 10 8 8 10 5 11 6 12 87 13
REMARK SMILES IDX 7 14 3 15 4 16 2 17 1 18 84 19 85 20 86 21 17 22 18 23 19 24
REMARK SMILES IDX 20 25 21 26 22 27 83 28 23 29 82 30 24 31 25 32 26 33 76 34
REMARK SMILES IDX 27 35 81 36 75 37 77 38 28 39 80 40 74 41 73 42 29 44 61 45
REMARK SMILES IDX 41 46 60 47 42 48 45 49 59 50 78 51 43 52 44 53 58 55 79 56
REMARK SMILES IDX 46 57 30 58 31 59 39 60 32 61 33 62 37 63 40 64 34 65 35 66
REMARK SMILES IDX 38 67 36 68 62 69 63 70 71 71 64 72 65 73 69 74 72 75 66 76
REMARK SMILES IDX 67 77 70 78 68 79 47 80 48 81 56 82 49 83 50 84 54 85 57 86
REMARK SMILES IDX 51 87 52 88 55 89 53 90
REMARK H PARENT 11 9 77 43 45 54
REMARK Flexibility Score: inf
ROOT
ATOM      1  C   UNL A   1      31.278  30.123  24.984  1.00  0.00     0.274 C 
ENDROOT
BRANCH   1   2
ATOM      2  O   UNL A   1      31.357  28.806  24.416  1.00  0.00    -0.461 OA
BRANCH   2   3
ATOM      3  C   UNL A   1      32.474  28.510  23.687  1.00  0.00     0.329 C 
ATOM      4  O   UNL A   1      33.159  29.346  23.105  1.00  0.00    -0.250 OA
BRANCH   3   5
ATOM      5  C   UNL A   1      32.795  27.002  23.714  1.00  0.00     0.197 C 
BRANCH   5   6
ATOM      6  N   UNL A   1      33.054  26.495  22.378  1.00  0.00    -0.324 N 
ATOM      7  C   UNL A   1      32.846  25.311  21.780  1.00  0.00     0.318 C 
ATOM      8  O   UNL A   1      33.134  25.257  20.581  1.00  0.00    -0.249 OA
ATOM      9  H   UNL A   1      33.469  27.162  21.784  1.00  0.00     0.166 HD
BRANCH   7  10
ATOM     10  N   UNL A   1      32.329  24.231  22.431  1.00  0.00    -0.324 N 
ATOM     11  C   UNL A   1      32.269  21.966  23.171  1.00  0.00     0.120 C 
ATOM     12  C   UNL A   1      31.336  22.803  24.032  1.00  0.00     0.039 C 
ATOM     13  C   UNL A   1      33.101  22.997  22.416  1.00  0.00     0.136 C 
ATOM     14  C   UNL A   1      31.109  24.036  23.193  1.00  0.00     0.122 C 
BRANCH  11  15
ATOM     15  C   UNL A   1      33.031  21.042  24.080  1.00  0.00     0.310 C 
ATOM     16  O   UNL A   1      34.189  21.253  24.421  1.00  0.00    -0.252 OA
BRANCH  15  17
ATOM     17  O   UNL A   1      32.346  19.897  24.324  1.00  0.00    -0.469 OA
ATOM     18  C   UNL A   1      32.872  19.099  25.381  1.00  0.00     0.282 C 
ENDBRANCH  15  17
ENDBRANCH  11  15
ENDBRANCH   7  10
ENDBRANCH   5   6
BRANCH   5  19
ATOM     19  C   UNL A   1      33.852  26.577  24.720  1.00  0.00     0.023 C 
ATOM     20  C   UNL A   1      33.796  26.994  26.176  1.00  0.00     0.007 C 
ATOM     21  C   UNL A   1      33.556  25.563  25.815  1.00  0.00     0.007 C 
ENDBRANCH   5  19
ENDBRANCH   3   5
ENDBRANCH   2   3
ENDBRANCH   1   2
BRANCH   1  22
ATOM     22  C   UNL A   1      31.816  30.163  26.416  1.00  0.00     0.275 C 
BRANCH  22  23
ATOM     23  O   UNL A   1      33.224  30.446  26.449  1.00  0.00    -0.458 OA
BRANCH  23  24
ATOM     24  C   UNL A   1      33.589  31.514  27.203  1.00  0.00     0.338 C 
ATOM     25  O   UNL A   1      32.927  32.499  27.468  1.00  0.00    -0.246 OA
BRANCH  24  26
ATOM     26  C   UNL A   1      34.885  31.218  27.837  1.00  0.00     0.060 A 
ATOM     27  C   UNL A   1      35.146  29.903  28.244  1.00  0.00     0.016 A 
ATOM     28  C   UNL A   1      35.826  32.227  28.033  1.00  0.00     0.016 A 
ATOM     29  C   UNL A   1      36.362  29.582  28.837  1.00  0.00     0.010 A 
ATOM     30  C   UNL A   1      37.034  31.911  28.648  1.00  0.00     0.010 A 
ATOM     31  C   UNL A   1      37.301  30.592  29.058  1.00  0.00    -0.014 A 
BRANCH  31  32
ATOM     32  C   UNL A   1      38.526  30.321  29.834  1.00  0.00     0.031 A 
ATOM     33  C   UNL A   1      39.529  29.369  29.263  1.00  0.00     0.074 A 
ATOM     34  C   UNL A   1      38.701  30.875  31.044  1.00  0.00     0.049 A 
ATOM     35  N   UNL A   1      40.560  28.808  29.834  1.00  0.00    -0.248 NA
ATOM     36  C   UNL A   1      39.331  28.983  27.856  1.00  0.00     0.031 C 
ATOM     37  C   UNL A   1      37.815  31.861  31.659  1.00  0.00     0.029 A 
ATOM     38  N   UNL A   1      39.673  30.656  31.986  1.00  0.00    -0.354 N 
ATOM     39  C   UNL A   1      41.117  27.982  28.868  1.00  0.00     0.074 A 
ATOM     40  C   UNL A   1      40.302  28.101  27.679  1.00  0.00     0.031 C 
ATOM     41  C   UNL A   1      38.266  32.140  32.894  1.00  0.00     0.029 A 
ATOM     42  C   UNL A   1      39.436  31.309  33.171  1.00  0.00     0.049 A 
ATOM     43  H   UNL A   1      40.461  30.087  31.830  1.00  0.00     0.167 HD
ATOM     44  C   UNL A   1      42.211  27.194  28.976  1.00  0.00     0.037 A 
ATOM     45  C   UNL A   1      40.069  31.204  34.355  1.00  0.00     0.037 A 
ATOM     46  C   UNL A   1      43.005  27.091  30.171  1.00  0.00     0.049 A 
ATOM     47  C   UNL A   1      41.235  30.255  34.476  1.00  0.00     0.074 A 
ATOM     48  C   UNL A   1      44.139  26.333  30.391  1.00  0.00     0.029 A 
ATOM     49  N   UNL A   1      42.736  27.768  31.353  1.00  0.00    -0.354 N 
ATOM     50  N   UNL A   1      41.763  29.473  33.565  1.00  0.00    -0.248 NA
ATOM     51  C   UNL A   1      41.889  30.169  35.789  1.00  0.00     0.031 C 
ATOM     52  C   UNL A   1      44.521  26.502  31.725  1.00  0.00     0.029 A 
ATOM     53  C   UNL A   1      43.671  27.425  32.315  1.00  0.00     0.049 A 
ATOM     54  H   UNL A   1      41.991  28.398  31.489  1.00  0.00     0.167 HD
ATOM     55  C   UNL A   1      42.837  28.841  34.179  1.00  0.00     0.074 A 
ATOM     56  C   UNL A   1      42.880  29.324  35.543  1.00  0.00     0.031 C 
ATOM     57  C   UNL A   1      43.713  27.947  33.658  1.00  0.00     0.037 A 
BRANCH  44  58
ATOM     58  C   UNL A   1      42.583  26.353  27.790  1.00  0.00     0.064 A 
ATOM     59  C   UNL A   1      43.538  26.776  26.852  1.00  0.00     0.173 A 
ATOM     60  C   UNL A   1      41.996  25.093  27.606  1.00  0.00     0.173 A 
ATOM     61  F   UNL A   1      44.117  27.979  26.972  1.00  0.00    -0.203 F 
ATOM     62  C   UNL A   1      43.868  25.978  25.759  1.00  0.00     0.198 A 
ATOM     63  C   UNL A   1      42.354  24.284  26.532  1.00  0.00     0.198 A 
ATOM     64  F   UNL A   1      41.079  24.640  28.474  1.00  0.00    -0.203 F 
ATOM     65  F   UNL A   1      44.742  26.425  24.846  1.00  0.00    -0.200 F 
ATOM     66  C   UNL A   1      43.282  24.731  25.605  1.00  0.00     0.200 A 
ATOM     67  F   UNL A   1      41.797  23.073  26.392  1.00  0.00    -0.200 F 
ATOM     68  F   UNL A   1      43.608  23.961  24.557  1.00  0.00    -0.200 F 
ENDBRANCH  44  58
BRANCH  45  69
ATOM     69  C   UNL A   1      39.602  31.997  35.522  1.00  0.00     0.064 A 
ATOM     70  C   UNL A   1      38.613  31.498  36.382  1.00  0.00     0.173 A 
ATOM     71  C   UNL A   1      40.124  33.269  35.800  1.00  0.00     0.173 A 
ATOM     72  F   UNL A   1      38.069  30.295  36.146  1.00  0.00    -0.203 F 
ATOM     73  C   UNL A   1      38.149  32.248  37.460  1.00  0.00     0.198 A 
ATOM     74  C   UNL A   1      39.681  34.006  36.898  1.00  0.00     0.198 A 
ATOM     75  F   UNL A   1      41.073  33.794  35.011  1.00  0.00    -0.203 F 
ATOM     76  F   UNL A   1      37.167  31.768  38.234  1.00  0.00    -0.200 F 
ATOM     77  C   UNL A   1      38.688  33.500  37.720  1.00  0.00     0.200 A 
ATOM     78  F   UNL A   1      40.216  35.208  37.155  1.00  0.00    -0.200 F 
ATOM     79  F   UNL A   1      38.242  34.220  38.759  1.00  0.00    -0.200 F 
ENDBRANCH  45  69
BRANCH  57  80
ATOM     80  C   UNL A   1      44.847  27.489  34.527  1.00  0.00     0.064 A 
ATOM     81  C   UNL A   1      46.046  28.207  34.628  1.00  0.00     0.173 A 
ATOM     82  C   UNL A   1      44.685  26.360  35.348  1.00  0.00     0.173 A 
ATOM     83  F   UNL A   1      46.255  29.284  33.855  1.00  0.00    -0.203 F 
ATOM     84  C   UNL A   1      47.044  27.809  35.513  1.00  0.00     0.198 A 
ATOM     85  C   UNL A   1      45.671  25.985  36.254  1.00  0.00     0.198 A 
ATOM     86  F   UNL A   1      43.552  25.643  35.294  1.00  0.00    -0.203 F 
ATOM     87  F   UNL A   1      48.195  28.494  35.573  1.00  0.00    -0.200 F 
ATOM     88  C   UNL A   1      46.850  26.707  36.334  1.00  0.00     0.200 A 
ATOM     89  F   UNL A   1      45.473  24.932  37.059  1.00  0.00    -0.200 F 
ATOM     90  F   UNL A   1      47.802  26.342  37.204  1.00  0.00    -0.200 F 
ENDBRANCH  57  80
ENDBRANCH  31  32
ENDBRANCH  24  26
ENDBRANCH  23  24
ENDBRANCH  22  23
ENDBRANCH   1  22
TORSDOF 16
ENDMDL
MODEL 2
REMARK VINA RESULT:     -11.2      4.270      9.776
REMARK SMILES COC(=O)[C@H]1CCN(C(=O)N[C@H](C(=O)OCCOC(=O)c2ccc(-c3c4nc(c(-c5c(F)c(F)c(F)c(F)c5F)c5ccc([nH]5)c(-c5c(F)c(F)c(F)c(F)c5F)c5nc(c(-c6c(F)c(F)c(F)c(F)c6F)c6ccc3[nH]6)C=C5)C=C4)cc2)C2CC2)C1
REMARK SMILES IDX 16 1 15 2 13 3 14 4 12 5 11 6 9 7 10 8 8 10 5 11 6 12 87 13
REMARK SMILES IDX 7 14 3 15 4 16 2 17 1 18 84 19 85 20 86 21 17 22 18 23 19 24
REMARK SMILES IDX 20 25 21 26 22 27 83 28 23 29 82 30 24 31 25 32 26 33 76 34
REMARK SMILES IDX 27 35 81 36 75 37 77 38 28 39 80 40 74 41 73 42 29 44 61 45
REMARK SMILES IDX 41 46 60 47 42 48 45 49 59 50 78 51 43 52 44 53 58 55 79 56
REMARK SMILES IDX 46 57 30 58 31 59 39 60 32 61 33 62 37 63 40 64 34 65 35 66
REMARK SMILES IDX 38 67 36 68 62 69 63 70 71 71 64 72 65 73 69 74 72 75 66 76
REMARK SMILES IDX 67 77 70 78 68 79 47 80 48 81 56 82 49 83 50 84 54 85 57 86
REMARK SMILES IDX 51 87 52 88 55 89 53 90
REMARK H PARENT 11 9 77 43 45 54
REMARK Flexibility Score: inf
ROOT
ATOM      1  C   UNL A   1      35.752  20.419  25.196  1.00  0.00     0.274 C 
ENDROOT
BRANCH   1   2
ATOM      2  O   UNL A   1      34.606  21.267  25.021  1.00  0.00    -0.461 OA
BRANCH   2   3
ATOM      3  C   UNL A   1      34.076  21.832  26.146  1.00  0.00     0.329 C 
ATOM      4  O   UNL A   1      34.247  21.400  27.282  1.00  0.00    -0.250 OA
BRANCH   3   5
ATOM      5  C   UNL A   1      33.264  23.103  25.823  1.00  0.00     0.197 C 
BRANCH   5   6
ATOM      6  N   UNL A   1      32.028  23.147  26.586  1.00  0.00    -0.324 N 
ATOM      7  C   UNL A   1      30.878  23.825  26.447  1.00  0.00     0.318 C 
ATOM      8  O   UNL A   1      29.993  23.555  27.265  1.00  0.00    -0.249 OA
ATOM      9  H   UNL A   1      32.036  22.552  27.370  1.00  0.00     0.166 HD
BRANCH   7  10
ATOM     10  N   UNL A   1      30.670  24.741  25.459  1.00  0.00    -0.324 N 
ATOM     11  C   UNL A   1      30.327  26.921  24.557  1.00  0.00     0.120 C 
ATOM     12  C   UNL A   1      30.779  25.982  23.450  1.00  0.00     0.039 C 
ATOM     13  C   UNL A   1      30.611  26.146  25.839  1.00  0.00     0.136 C 
ATOM     14  C   UNL A   1      30.498  24.615  24.023  1.00  0.00     0.122 C 
BRANCH  11  15
ATOM     15  C   UNL A   1      31.070  28.218  24.392  1.00  0.00     0.310 C 
ATOM     16  O   UNL A   1      30.513  29.268  24.093  1.00  0.00    -0.252 OA
BRANCH  15  17
ATOM     17  O   UNL A   1      32.414  28.040  24.448  1.00  0.00    -0.469 OA
ATOM     18  C   UNL A   1      33.172  28.959  23.667  1.00  0.00     0.282 C 
ENDBRANCH  15  17
ENDBRANCH  11  15
ENDBRANCH   7  10
ENDBRANCH   5   6
BRANCH   5  19
ATOM     19  C   UNL A   1      34.040  24.408  25.884  1.00  0.00     0.023 C 
ATOM     20  C   UNL A   1      35.476  24.517  25.411  1.00  0.00     0.007 C 
ATOM     21  C   UNL A   1      34.394  25.191  24.628  1.00  0.00     0.007 C 
ENDBRANCH   5  19
ENDBRANCH   3   5
ENDBRANCH   2   3
ENDBRANCH   1   2
BRANCH   1  22
ATOM     22  C   UNL A   1      37.044  21.100  24.738  1.00  0.00     0.275 C 
BRANCH  22  23
ATOM     23  O   UNL A   1      37.646  21.865  25.794  1.00  0.00    -0.458 OA
BRANCH  23  24
ATOM     24  C   UNL A   1      38.926  21.534  26.100  1.00  0.00     0.338 C 
ATOM     25  O   UNL A   1      39.502  20.489  25.862  1.00  0.00    -0.246 OA
BRANCH  24  26
ATOM     26  C   UNL A   1      39.609  22.733  26.615  1.00  0.00     0.060 A 
ATOM     27  C   UNL A   1      39.214  23.988  26.133  1.00  0.00     0.016 A 
ATOM     28  C   UNL A   1      40.630  22.617  27.556  1.00  0.00     0.016 A 
ATOM     29  C   UNL A   1      39.828  25.143  26.603  1.00  0.00     0.010 A 
ATOM     30  C   UNL A   1      41.262  23.772  28.010  1.00  0.00     0.010 A 
ATOM     31  C   UNL A   1      40.867  25.035  27.529  1.00  0.00    -0.014 A 
BRANCH  31  32
ATOM     32  C   UNL A   1      41.651  26.222  27.920  1.00  0.00     0.031 A 
ATOM     33  C   UNL A   1      40.964  27.298  28.700  1.00  0.00     0.074 A 
ATOM     34  C   UNL A   1      42.931  26.351  27.532  1.00  0.00     0.049 A 
ATOM     35  N   UNL A   1      41.363  28.511  28.970  1.00  0.00    -0.248 NA
ATOM     36  C   UNL A   1      39.635  26.962  29.237  1.00  0.00     0.031 C 
ATOM     37  C   UNL A   1      43.707  25.334  26.825  1.00  0.00     0.029 A 
ATOM     38  N   UNL A   1      43.790  27.412  27.653  1.00  0.00    -0.354 N 
ATOM     39  C   UNL A   1      40.324  29.094  29.682  1.00  0.00     0.074 A 
ATOM     40  C   UNL A   1      39.270  28.109  29.789  1.00  0.00     0.031 C 
ATOM     41  C   UNL A   1      44.922  25.833  26.545  1.00  0.00     0.029 A 
ATOM     42  C   UNL A   1      44.984  27.219  27.002  1.00  0.00     0.049 A 
ATOM     43  H   UNL A   1      43.574  28.230  28.156  1.00  0.00     0.167 HD
ATOM     44  C   UNL A   1      40.263  30.345  30.193  1.00  0.00     0.037 A 
ATOM     45  C   UNL A   1      45.986  28.087  26.766  1.00  0.00     0.037 A 
ATOM     46  C   UNL A   1      41.325  31.308  30.072  1.00  0.00     0.049 A 
ATOM     47  C   UNL A   1      45.861  29.502  27.271  1.00  0.00     0.074 A 
ATOM     48  C   UNL A   1      41.377  32.600  30.559  1.00  0.00     0.029 A 
ATOM     49  N   UNL A   1      42.521  31.079  29.405  1.00  0.00    -0.354 N 
ATOM     50  N   UNL A   1      44.880  30.056  27.944  1.00  0.00    -0.248 NA
ATOM     51  C   UNL A   1      46.976  30.414  26.982  1.00  0.00     0.031 C 
ATOM     52  C   UNL A   1      42.578  33.175  30.134  1.00  0.00     0.029 A 
ATOM     53  C   UNL A   1      43.308  32.216  29.448  1.00  0.00     0.049 A 
ATOM     54  H   UNL A   1      42.772  30.234  28.967  1.00  0.00     0.167 HD
ATOM     55  C   UNL A   1      45.279  31.362  28.199  1.00  0.00     0.074 A 
ATOM     56  C   UNL A   1      46.589  31.520  27.601  1.00  0.00     0.031 C 
ATOM     57  C   UNL A   1      44.625  32.338  28.874  1.00  0.00     0.037 A 
BRANCH  44  58
ATOM     58  C   UNL A   1      38.997  30.753  30.888  1.00  0.00     0.064 A 
ATOM     59  C   UNL A   1      38.850  30.653  32.279  1.00  0.00     0.173 A 
ATOM     60  C   UNL A   1      37.926  31.279  30.151  1.00  0.00     0.173 A 
ATOM     61  F   UNL A   1      39.837  30.141  33.029  1.00  0.00    -0.203 F 
ATOM     62  C   UNL A   1      37.665  31.038  32.903  1.00  0.00     0.198 A 
ATOM     63  C   UNL A   1      36.757  31.695  30.781  1.00  0.00     0.198 A 
ATOM     64  F   UNL A   1      38.015  31.398  28.817  1.00  0.00    -0.203 F 
ATOM     65  F   UNL A   1      37.526  30.883  34.227  1.00  0.00    -0.200 F 
ATOM     66  C   UNL A   1      36.624  31.566  32.154  1.00  0.00     0.200 A 
ATOM     67  F   UNL A   1      35.758  32.218  30.057  1.00  0.00    -0.200 F 
ATOM     68  F   UNL A   1      35.488  31.945  32.757  1.00  0.00    -0.200 F 
ENDBRANCH  44  58
BRANCH  45  69
ATOM     69  C   UNL A   1      47.181  27.652  25.995  1.00  0.00     0.064 A 
ATOM     70  C   UNL A   1      48.329  27.184  26.649  1.00  0.00     0.173 A 
ATOM     71  C   UNL A   1      47.207  27.704  24.593  1.00  0.00     0.173 A 
ATOM     72  F   UNL A   1      48.360  27.134  27.990  1.00  0.00    -0.203 F 
ATOM     73  C   UNL A   1      49.462  26.804  25.934  1.00  0.00     0.198 A 
ATOM     74  C   UNL A   1      48.330  27.295  23.877  1.00  0.00     0.198 A 
ATOM     75  F   UNL A   1      46.136  28.143  23.916  1.00  0.00    -0.203 F 
ATOM     76  F   UNL A   1      50.563  26.409  26.588  1.00  0.00    -0.200 F 
ATOM     77  C   UNL A   1      49.460  26.854  24.548  1.00  0.00     0.200 A 
ATOM     78  F   UNL A   1      48.319  27.330  22.537  1.00  0.00    -0.200 F 
ATOM     79  F   UNL A   1      50.551  26.487  23.861  1.00  0.00    -0.200 F 
ENDBRANCH  45  69
BRANCH  57  80
ATOM     80  C   UNL A   1      45.337  33.643  29.083  1.00  0.00     0.064 A 
ATOM     81  C   UNL A   1      46.203  33.854  30.164  1.00  0.00     0.173 A 
ATOM     82  C   UNL A   1      45.221  34.662  28.123  1.00  0.00     0.173 A 
ATOM     83  F   UNL A   1      46.338  32.917  31.114  1.00  0.00    -0.203 F 
ATOM     84  C   UNL A   1      46.921  35.041  30.281  1.00  0.00     0.198 A 
ATOM     85  C   UNL A   1      45.964  35.833  28.226  1.00  0.00     0.198 A 
ATOM     86  F   UNL A   1      44.410  34.504  27.065  1.00  0.00    -0.203 F 
ATOM     87  F   UNL A   1      47.722  35.236  31.338  1.00  0.00    -0.200 F 
ATOM     88  C   UNL A   1      46.812  36.023  29.306  1.00  0.00     0.200 A 
ATOM     89  F   UNL A   1      45.871  36.770  27.273  1.00  0.00    -0.200 F 
ATOM     90  F   UNL A   1      47.524  37.153  29.408  1.00  0.00    -0.200 F 
ENDBRANCH  57  80
ENDBRANCH  31  32
ENDBRANCH  24  26
ENDBRANCH  23  24
ENDBRANCH  22  23
ENDBRANCH   1  22
TORSDOF 16
ENDMDL
MODEL 3
REMARK VINA RESULT:     -11.1      1.133      2.343
REMARK SMILES COC(=O)[C@H]1CCN(C(=O)N[C@H](C(=O)OCCOC(=O)c2ccc(-c3c4nc(c(-c5c(F)c(F)c(F)c(F)c5F)c5ccc([nH]5)c(-c5c(F)c(F)c(F)c(F)c5F)c5nc(c(-c6c(F)c(F)c(F)c(F)c6F)c6ccc3[nH]6)C=C5)C=C4)cc2)C2CC2)C1
REMARK SMILES IDX 16 1 15 2 13 3 14 4 12 5 11 6 9 7 10 8 8 10 5 11 6 12 87 13
REMARK SMILES IDX 7 14 3 15 4 16 2 17 1 18 84 19 85 20 86 21 17 22 18 23 19 24
REMARK SMILES IDX 20 25 21 26 22 27 83 28 23 29 82 30 24 31 25 32 26 33 76 34
REMARK SMILES IDX 27 35 81 36 75 37 77 38 28 39 80 40 74 41 73 42 29 44 61 45
REMARK SMILES IDX 41 46 60 47 42 48 45 49 59 50 78 51 43 52 44 53 58 55 79 56
REMARK SMILES IDX 46 57 30 58 31 59 39 60 32 61 33 62 37 63 40 64 34 65 35 66
REMARK SMILES IDX 38 67 36 68 62 69 63 70 71 71 64 72 65 73 69 74 72 75 66 76
REMARK SMILES IDX 67 77 70 78 68 79 47 80 48 81 56 82 49 83 50 84 54 85 57 86
REMARK SMILES IDX 51 87 52 88 55 89 53 90
REMARK H PARENT 11 9 77 43 45 54
REMARK Flexibility Score: inf
ROOT
ATOM      1  C   UNL A   1      31.598  28.869  24.721  1.00  0.00     0.274 C 
ENDROOT
BRANCH   1   2
ATOM      2  O   UNL A   1      31.744  27.487  25.086  1.00  0.00    -0.461 OA
BRANCH   2   3
ATOM      3  C   UNL A   1      32.838  26.829  24.599  1.00  0.00     0.329 C 
ATOM      4  O   UNL A   1      33.879  27.381  24.257  1.00  0.00    -0.250 OA
BRANCH   3   5
ATOM      5  C   UNL A   1      32.622  25.302  24.566  1.00  0.00     0.197 C 
BRANCH   5   6
ATOM      6  N   UNL A   1      31.826  24.859  25.697  1.00  0.00    -0.324 N 
ATOM      7  C   UNL A   1      31.772  23.715  26.399  1.00  0.00     0.318 C 
ATOM      8  O   UNL A   1      31.003  23.716  27.366  1.00  0.00    -0.249 OA
ATOM      9  H   UNL A   1      31.193  25.542  26.018  1.00  0.00     0.166 HD
BRANCH   7  10
ATOM     10  N   UNL A   1      32.524  22.621  26.096  1.00  0.00    -0.324 N 
ATOM     11  C   UNL A   1      32.921  20.419  25.272  1.00  0.00     0.120 C 
ATOM     12  C   UNL A   1      34.237  21.179  25.336  1.00  0.00     0.039 C 
ATOM     13  C   UNL A   1      31.860  21.501  25.444  1.00  0.00     0.136 C 
ATOM     14  C   UNL A   1      33.931  22.315  26.281  1.00  0.00     0.122 C 
BRANCH  11  15
ATOM     15  C   UNL A   1      32.888  19.665  23.972  1.00  0.00     0.310 C 
ATOM     16  O   UNL A   1      32.174  19.994  23.032  1.00  0.00    -0.252 OA
BRANCH  15  17
ATOM     17  O   UNL A   1      33.599  18.512  24.040  1.00  0.00    -0.469 OA
ATOM     18  C   UNL A   1      33.136  17.472  23.182  1.00  0.00     0.282 C 
ENDBRANCH  15  17
ENDBRANCH  11  15
ENDBRANCH   7  10
ENDBRANCH   5   6
BRANCH   5  19
ATOM     19  C   UNL A   1      32.129  24.741  23.242  1.00  0.00     0.023 C 
ATOM     20  C   UNL A   1      32.825  25.037  21.929  1.00  0.00     0.007 C 
ATOM     21  C   UNL A   1      32.890  23.655  22.498  1.00  0.00     0.007 C 
ENDBRANCH   5  19
ENDBRANCH   3   5
ENDBRANCH   2   3
ENDBRANCH   1   2
BRANCH   1  22
ATOM     22  C   UNL A   1      31.787  29.801  25.920  1.00  0.00     0.275 C 
BRANCH  22  23
ATOM     23  O   UNL A   1      33.165  30.168  26.099  1.00  0.00    -0.458 OA
BRANCH  23  24
ATOM     24  C   UNL A   1      33.392  31.181  26.972  1.00  0.00     0.338 C 
ATOM     25  O   UNL A   1      32.621  32.059  27.311  1.00  0.00    -0.246 OA
BRANCH  24  26
ATOM     26  C   UNL A   1      34.694  30.954  27.623  1.00  0.00     0.060 A 
ATOM     27  C   UNL A   1      35.038  29.648  27.995  1.00  0.00     0.016 A 
ATOM     28  C   UNL A   1      35.559  32.019  27.868  1.00  0.00     0.016 A 
ATOM     29  C   UNL A   1      36.262  29.393  28.601  1.00  0.00     0.010 A 
ATOM     30  C   UNL A   1      36.775  31.768  28.497  1.00  0.00     0.010 A 
ATOM     31  C   UNL A   1      37.125  30.457  28.872  1.00  0.00    -0.014 A 
BRANCH  31  32
ATOM     32  C   UNL A   1      38.352  30.246  29.664  1.00  0.00     0.031 A 
ATOM     33  C   UNL A   1      39.396  29.325  29.118  1.00  0.00     0.074 A 
ATOM     34  C   UNL A   1      38.493  30.825  30.867  1.00  0.00     0.049 A 
ATOM     35  N   UNL A   1      40.443  28.814  29.707  1.00  0.00    -0.248 NA
ATOM     36  C   UNL A   1      39.228  28.910  27.715  1.00  0.00     0.031 C 
ATOM     37  C   UNL A   1      37.563  31.785  31.458  1.00  0.00     0.029 A 
ATOM     38  N   UNL A   1      39.463  30.660  31.821  1.00  0.00    -0.354 N 
ATOM     39  C   UNL A   1      41.041  27.995  28.760  1.00  0.00     0.074 A 
ATOM     40  C   UNL A   1      40.234  28.064  27.562  1.00  0.00     0.031 C 
ATOM     41  C   UNL A   1      37.991  32.101  32.692  1.00  0.00     0.029 A 
ATOM     42  C   UNL A   1      39.189  31.321  32.993  1.00  0.00     0.049 A 
ATOM     43  H   UNL A   1      40.274  30.119  31.681  1.00  0.00     0.167 HD
ATOM     44  C   UNL A   1      42.163  27.252  28.890  1.00  0.00     0.037 A 
ATOM     45  C   UNL A   1      39.814  31.260  34.184  1.00  0.00     0.037 A 
ATOM     46  C   UNL A   1      42.949  27.199  30.094  1.00  0.00     0.049 A 
ATOM     47  C   UNL A   1      41.014  30.359  34.332  1.00  0.00     0.074 A 
ATOM     48  C   UNL A   1      44.110  26.489  30.337  1.00  0.00     0.029 A 
ATOM     49  N   UNL A   1      42.642  27.883  31.263  1.00  0.00    -0.354 N 
ATOM     50  N   UNL A   1      41.582  29.583  33.439  1.00  0.00    -0.248 NA
ATOM     51  C   UNL A   1      41.658  30.318  35.652  1.00  0.00     0.031 C 
ATOM     52  C   UNL A   1      44.471  26.694  31.672  1.00  0.00     0.029 A 
ATOM     53  C   UNL A   1      43.580  27.591  32.239  1.00  0.00     0.049 A 
ATOM     54  H   UNL A   1      41.872  28.486  31.382  1.00  0.00     0.167 HD
ATOM     55  C   UNL A   1      42.673  29.003  34.072  1.00  0.00     0.074 A 
ATOM     56  C   UNL A   1      42.684  29.509  35.429  1.00  0.00     0.031 C 
ATOM     57  C   UNL A   1      43.588  28.136  33.574  1.00  0.00     0.037 A 
BRANCH  44  58
ATOM     58  C   UNL A   1      42.580  26.408  27.722  1.00  0.00     0.064 A 
ATOM     59  C   UNL A   1      42.029  25.139  27.489  1.00  0.00     0.173 A 
ATOM     60  C   UNL A   1      43.526  26.890  26.805  1.00  0.00     0.173 A 
ATOM     61  F   UNL A   1      41.133  24.624  28.344  1.00  0.00    -0.203 F 
ATOM     62  C   UNL A   1      42.431  24.374  26.397  1.00  0.00     0.198 A 
ATOM     63  C   UNL A   1      43.900  26.137  25.697  1.00  0.00     0.198 A 
ATOM     64  F   UNL A   1      44.083  28.098  26.979  1.00  0.00    -0.203 F 
ATOM     65  F   UNL A   1      41.931  23.142  26.225  1.00  0.00    -0.200 F 
ATOM     66  C   UNL A   1      43.359  24.876  25.499  1.00  0.00     0.200 A 
ATOM     67  F   UNL A   1      44.786  26.631  24.821  1.00  0.00    -0.200 F 
ATOM     68  F   UNL A   1      43.738  24.142  24.443  1.00  0.00    -0.200 F 
ENDBRANCH  44  58
BRANCH  45  69
ATOM     69  C   UNL A   1      39.305  32.051  35.334  1.00  0.00     0.064 A 
ATOM     70  C   UNL A   1      39.644  33.403  35.485  1.00  0.00     0.173 A 
ATOM     71  C   UNL A   1      38.479  31.476  36.312  1.00  0.00     0.173 A 
ATOM     72  F   UNL A   1      40.449  33.993  34.588  1.00  0.00    -0.203 F 
ATOM     73  C   UNL A   1      39.196  34.142  36.577  1.00  0.00     0.198 A 
ATOM     74  C   UNL A   1      38.004  32.224  37.387  1.00  0.00     0.198 A 
ATOM     75  F   UNL A   1      38.121  30.186  36.216  1.00  0.00    -0.203 F 
ATOM     76  F   UNL A   1      39.578  35.418  36.722  1.00  0.00    -0.200 F 
ATOM     77  C   UNL A   1      38.371  33.554  37.524  1.00  0.00     0.200 A 
ATOM     78  F   UNL A   1      37.195  31.656  38.292  1.00  0.00    -0.200 F 
ATOM     79  F   UNL A   1      37.938  34.266  38.574  1.00  0.00    -0.200 F 
ENDBRANCH  45  69
BRANCH  57  80
ATOM     80  C   UNL A   1      44.730  27.736  34.461  1.00  0.00     0.064 A 
ATOM     81  C   UNL A   1      45.902  28.499  34.557  1.00  0.00     0.173 A 
ATOM     82  C   UNL A   1      44.602  26.619  35.303  1.00  0.00     0.173 A 
ATOM     83  F   UNL A   1      46.079  29.567  33.764  1.00  0.00    -0.203 F 
ATOM     84  C   UNL A   1      46.906  28.154  35.457  1.00  0.00     0.198 A 
ATOM     85  C   UNL A   1      45.592  26.296  36.224  1.00  0.00     0.198 A 
ATOM     86  F   UNL A   1      43.495  25.861  35.254  1.00  0.00    -0.203 F 
ATOM     87  F   UNL A   1      48.031  28.881  35.513  1.00  0.00    -0.200 F 
ATOM     88  C   UNL A   1      46.745  27.063  36.299  1.00  0.00     0.200 A 
ATOM     89  F   UNL A   1      45.425  25.253  37.048  1.00  0.00    -0.200 F 
ATOM     90  F   UNL A   1      47.702  26.749  37.183  1.00  0.00    -0.200 F 
ENDBRANCH  57  80
ENDBRANCH  31  32
ENDBRANCH  24  26
ENDBRANCH  23  24
ENDBRANCH  22  23
ENDBRANCH   1  22
TORSDOF 16
ENDMDL
