MODEL 1
REMARK VINA RESULT:     -12.8      0.000      0.000
REMARK SMILES Cc1ccn2c([C@@H]3CCCC[C@@H]3C(=O)OCCOC(=O)c3ccc(-c4c5nc(c(-c6c(F)c(F)c(F)c(F)c6F)c6ccc([nH]6)c(-c6c(F)c(F)c(F)c(F)c6F)c6nc(c(-c7c(F)c(F)c(F)c(F)c7F)c7ccc4[nH]7)C=C6)C=C5)cc3)nnc2c1
REMARK SMILES IDX 17 1 16 2 15 3 13 4 14 5 12 6 7 7 8 8 9 9 11 10 10 11 6 12
REMARK SMILES IDX 1 13 2 14 3 15 87 16 4 17 86 18 5 19 85 20 84 21 18 22 19 23
REMARK SMILES IDX 20 24 21 25 22 26 83 27 23 28 82 29 24 30 25 31 26 32 76 33
REMARK SMILES IDX 27 34 81 35 75 36 77 37 28 38 80 39 74 40 73 41 29 43 61 44
REMARK SMILES IDX 41 45 60 46 42 47 45 48 59 49 78 50 43 51 44 52 58 54 79 55
REMARK SMILES IDX 46 56 30 57 31 58 39 59 32 60 33 61 37 62 40 63 34 64 35 65
REMARK SMILES IDX 38 66 36 67 62 68 63 69 71 70 64 71 65 72 69 73 72 74 66 75
REMARK SMILES IDX 67 76 70 77 68 78 47 79 48 80 56 81 49 82 50 83 54 84 57 85
REMARK SMILES IDX 51 86 52 87 55 88 53 89
REMARK H PARENT 77 42 45 53
REMARK Flexibility Score: inf
ROOT
ATOM      1  C   UNL A   1      38.323  21.787  25.955  1.00  0.00     0.275 C 
ENDROOT
BRANCH   1   2
ATOM      2  C   UNL A   1      37.247  22.767  25.466  1.00  0.00     0.274 C 
BRANCH   2   3
ATOM      3  O   UNL A   1      36.117  22.948  26.368  1.00  0.00    -0.462 OA
BRANCH   3   4
ATOM      4  C   UNL A   1      35.105  22.049  26.213  1.00  0.00     0.309 C 
ATOM      5  O   UNL A   1      34.587  21.473  27.161  1.00  0.00    -0.252 OA
BRANCH   4   6
ATOM      6  C   UNL A   1      34.848  21.658  24.747  1.00  0.00     0.110 C 
ATOM      7  C   UNL A   1      33.590  22.106  23.975  1.00  0.00     0.072 C 
ATOM      8  C   UNL A   1      32.251  21.578  24.481  1.00  0.00     0.012 C 
ATOM      9  C   UNL A   1      32.280  20.059  24.478  1.00  0.00     0.001 C 
ATOM     10  C   UNL A   1      34.858  20.115  24.674  1.00  0.00     0.016 C 
ATOM     11  C   UNL A   1      33.532  19.524  25.138  1.00  0.00     0.001 C 
BRANCH   7  12
ATOM     12  C   UNL A   1      33.555  23.511  23.512  1.00  0.00     0.141 A 
ATOM     13  C   UNL A   1      33.940  28.478  25.905  1.00  0.00     0.044 C 
ATOM     14  C   UNL A   1      33.597  27.184  25.238  1.00  0.00    -0.046 A 
ATOM     15  C   UNL A   1      33.084  26.108  26.085  1.00  0.00     0.022 A 
ATOM     16  C   UNL A   1      33.823  26.979  23.923  1.00  0.00     0.053 A 
ATOM     17  C   UNL A   1      33.016  24.861  25.587  1.00  0.00     0.095 A 
ATOM     18  C   UNL A   1      33.671  25.680  23.383  1.00  0.00     0.161 A 
ATOM     19  N   UNL A   1      33.372  24.648  24.260  1.00  0.00    -0.286 N 
ATOM     20  N   UNL A   1      33.820  25.209  22.168  1.00  0.00    -0.130 NA
ATOM     21  N   UNL A   1      33.738  23.849  22.247  1.00  0.00    -0.134 NA
ENDBRANCH   7  12
ENDBRANCH   4   6
ENDBRANCH   3   4
ENDBRANCH   2   3
ENDBRANCH   1   2
BRANCH   1  22
ATOM     22  O   UNL A   1      39.601  22.438  26.007  1.00  0.00    -0.458 OA
BRANCH  22  23
ATOM     23  C   UNL A   1      40.195  22.493  27.228  1.00  0.00     0.338 C 
ATOM     24  O   UNL A   1      40.487  21.560  27.938  1.00  0.00    -0.246 OA
BRANCH  23  25
ATOM     25  C   UNL A   1      40.749  23.861  27.384  1.00  0.00     0.060 A 
ATOM     26  C   UNL A   1      41.642  24.225  28.401  1.00  0.00     0.016 A 
ATOM     27  C   UNL A   1      40.126  24.837  26.617  1.00  0.00     0.016 A 
ATOM     28  C   UNL A   1      41.773  25.572  28.768  1.00  0.00     0.010 A 
ATOM     29  C   UNL A   1      40.249  26.162  26.997  1.00  0.00     0.010 A 
ATOM     30  C   UNL A   1      40.997  26.540  28.127  1.00  0.00    -0.014 A 
BRANCH  30  31
ATOM     31  C   UNL A   1      41.011  27.971  28.488  1.00  0.00     0.031 A 
ATOM     32  C   UNL A   1      42.105  28.700  27.822  1.00  0.00     0.074 A 
ATOM     33  C   UNL A   1      40.152  28.701  29.243  1.00  0.00     0.049 A 
ATOM     34  N   UNL A   1      43.312  28.747  28.276  1.00  0.00    -0.248 NA
ATOM     35  C   UNL A   1      41.941  29.291  26.486  1.00  0.00     0.031 C 
ATOM     36  C   UNL A   1      38.901  28.283  29.881  1.00  0.00     0.029 A 
ATOM     37  N   UNL A   1      40.182  30.052  29.519  1.00  0.00    -0.354 N 
ATOM     38  C   UNL A   1      43.969  29.617  27.433  1.00  0.00     0.074 A 
ATOM     39  C   UNL A   1      43.201  29.651  26.216  1.00  0.00     0.031 C 
ATOM     40  C   UNL A   1      38.180  29.377  30.247  1.00  0.00     0.029 A 
ATOM     41  C   UNL A   1      39.014  30.556  30.089  1.00  0.00     0.049 A 
ATOM     42  H   UNL A   1      40.967  30.616  29.329  1.00  0.00     0.167 HD
ATOM     43  C   UNL A   1      44.832  30.531  27.952  1.00  0.00     0.037 A 
ATOM     44  C   UNL A   1      38.798  31.813  30.553  1.00  0.00     0.037 A 
ATOM     45  C   UNL A   1      44.989  30.339  29.378  1.00  0.00     0.049 A 
ATOM     46  C   UNL A   1      40.083  32.251  31.137  1.00  0.00     0.074 A 
ATOM     47  C   UNL A   1      45.630  29.450  30.213  1.00  0.00     0.029 A 
ATOM     48  N   UNL A   1      44.030  30.966  30.129  1.00  0.00    -0.354 N 
ATOM     49  N   UNL A   1      40.613  31.687  32.185  1.00  0.00    -0.248 NA
ATOM     50  C   UNL A   1      40.945  33.182  30.417  1.00  0.00     0.031 C 
ATOM     51  C   UNL A   1      44.960  29.507  31.475  1.00  0.00     0.029 A 
ATOM     52  C   UNL A   1      43.941  30.448  31.398  1.00  0.00     0.049 A 
ATOM     53  H   UNL A   1      43.469  31.704  29.799  1.00  0.00     0.167 HD
ATOM     54  C   UNL A   1      41.963  31.796  31.952  1.00  0.00     0.074 A 
ATOM     55  C   UNL A   1      42.108  32.894  31.008  1.00  0.00     0.031 C 
ATOM     56  C   UNL A   1      42.794  30.751  32.224  1.00  0.00     0.037 A 
BRANCH  43  57
ATOM     57  C   UNL A   1      45.181  31.849  27.321  1.00  0.00     0.064 A 
ATOM     58  C   UNL A   1      46.490  32.038  26.839  1.00  0.00     0.173 A 
ATOM     59  C   UNL A   1      44.376  33.006  27.377  1.00  0.00     0.173 A 
ATOM     60  F   UNL A   1      47.351  31.011  26.794  1.00  0.00    -0.203 F 
ATOM     61  C   UNL A   1      46.958  33.295  26.454  1.00  0.00     0.198 A 
ATOM     62  C   UNL A   1      44.825  34.248  26.930  1.00  0.00     0.198 A 
ATOM     63  F   UNL A   1      43.174  33.009  27.965  1.00  0.00    -0.203 F 
ATOM     64  F   UNL A   1      48.240  33.445  26.093  1.00  0.00    -0.200 F 
ATOM     65  C   UNL A   1      46.123  34.397  26.489  1.00  0.00     0.200 A 
ATOM     66  F   UNL A   1      44.009  35.309  27.001  1.00  0.00    -0.200 F 
ATOM     67  F   UNL A   1      46.579  35.609  26.146  1.00  0.00    -0.200 F 
ENDBRANCH  43  57
BRANCH  44  68
ATOM     68  C   UNL A   1      37.602  32.683  30.658  1.00  0.00     0.064 A 
ATOM     69  C   UNL A   1      37.210  33.518  29.593  1.00  0.00     0.173 A 
ATOM     70  C   UNL A   1      36.632  32.428  31.642  1.00  0.00     0.173 A 
ATOM     71  F   UNL A   1      38.067  33.793  28.599  1.00  0.00    -0.203 F 
ATOM     72  C   UNL A   1      35.907  34.010  29.482  1.00  0.00     0.198 A 
ATOM     73  C   UNL A   1      35.327  32.923  31.530  1.00  0.00     0.198 A 
ATOM     74  F   UNL A   1      36.907  31.600  32.662  1.00  0.00    -0.203 F 
ATOM     75  F   UNL A   1      35.554  34.726  28.405  1.00  0.00    -0.200 F 
ATOM     76  C   UNL A   1      34.960  33.694  30.439  1.00  0.00     0.200 A 
ATOM     77  F   UNL A   1      34.404  32.585  32.442  1.00  0.00    -0.200 F 
ATOM     78  F   UNL A   1      33.688  34.090  30.286  1.00  0.00    -0.200 F 
ENDBRANCH  44  68
BRANCH  56  79
ATOM     79  C   UNL A   1      42.386  29.809  33.319  1.00  0.00     0.064 A 
ATOM     80  C   UNL A   1      41.795  28.550  33.123  1.00  0.00     0.173 A 
ATOM     81  C   UNL A   1      42.628  30.194  34.643  1.00  0.00     0.173 A 
ATOM     82  F   UNL A   1      41.570  28.080  31.894  1.00  0.00    -0.203 F 
ATOM     83  C   UNL A   1      41.443  27.730  34.195  1.00  0.00     0.198 A 
ATOM     84  C   UNL A   1      42.302  29.363  35.715  1.00  0.00     0.198 A 
ATOM     85  F   UNL A   1      43.201  31.380  34.902  1.00  0.00    -0.203 F 
ATOM     86  F   UNL A   1      40.866  26.539  33.969  1.00  0.00    -0.200 F 
ATOM     87  C   UNL A   1      41.704  28.135  35.491  1.00  0.00     0.200 A 
ATOM     88  F   UNL A   1      42.581  29.752  36.966  1.00  0.00    -0.200 F 
ATOM     89  F   UNL A   1      41.392  27.337  36.522  1.00  0.00    -0.200 F 
ENDBRANCH  56  79
ENDBRANCH  30  31
ENDBRANCH  23  25
ENDBRANCH  22  23
ENDBRANCH   1  22
TORSDOF 12
ENDMDL
MODEL 2
REMARK VINA RESULT:     -12.7      4.618      9.663
REMARK SMILES Cc1ccn2c([C@@H]3CCCC[C@@H]3C(=O)OCCOC(=O)c3ccc(-c4c5nc(c(-c6c(F)c(F)c(F)c(F)c6F)c6ccc([nH]6)c(-c6c(F)c(F)c(F)c(F)c6F)c6nc(c(-c7c(F)c(F)c(F)c(F)c7F)c7ccc4[nH]7)C=C6)C=C5)cc3)nnc2c1
REMARK SMILES IDX 17 1 16 2 15 3 13 4 14 5 12 6 7 7 8 8 9 9 11 10 10 11 6 12
REMARK SMILES IDX 1 13 2 14 3 15 87 16 4 17 86 18 5 19 85 20 84 21 18 22 19 23
REMARK SMILES IDX 20 24 21 25 22 26 83 27 23 28 82 29 24 30 25 31 26 32 76 33
REMARK SMILES IDX 27 34 81 35 75 36 77 37 28 38 80 39 74 40 73 41 29 43 61 44
REMARK SMILES IDX 41 45 60 46 42 47 45 48 59 49 78 50 43 51 44 52 58 54 79 55
REMARK SMILES IDX 46 56 30 57 31 58 39 59 32 60 33 61 37 62 40 63 34 64 35 65
REMARK SMILES IDX 38 66 36 67 62 68 63 69 71 70 64 71 65 72 69 73 72 74 66 75
REMARK SMILES IDX 67 76 70 77 68 78 47 79 48 80 56 81 49 82 50 83 54 84 57 85
REMARK SMILES IDX 51 86 52 87 55 88 53 89
REMARK H PARENT 77 42 45 53
REMARK Flexibility Score: inf
ROOT
ATOM      1  C   UNL A   1      35.292  29.616  27.965  1.00  0.00     0.275 C 
ENDROOT
BRANCH   1   2
ATOM      2  C   UNL A   1      34.694  29.046  26.670  1.00  0.00     0.274 C 
BRANCH   2   3
ATOM      3  O   UNL A   1      33.612  28.088  26.856  1.00  0.00    -0.462 OA
BRANCH   3   4
ATOM      4  C   UNL A   1      32.363  28.571  26.605  1.00  0.00     0.309 C 
ATOM      5  O   UNL A   1      31.779  29.315  27.382  1.00  0.00    -0.252 OA
BRANCH   4   6
ATOM      6  C   UNL A   1      31.681  27.912  25.394  1.00  0.00     0.110 C 
ATOM      7  C   UNL A   1      32.167  26.578  24.790  1.00  0.00     0.072 C 
ATOM      8  C   UNL A   1      33.558  26.575  24.165  1.00  0.00     0.012 C 
ATOM      9  C   UNL A   1      33.618  27.628  23.073  1.00  0.00     0.001 C 
ATOM     10  C   UNL A   1      31.713  28.934  24.236  1.00  0.00     0.016 C 
ATOM     11  C   UNL A   1      33.073  28.957  23.547  1.00  0.00     0.001 C 
BRANCH   7  12
ATOM     12  C   UNL A   1      31.830  25.345  25.536  1.00  0.00     0.141 A 
ATOM     13  C   UNL A   1      32.653  19.929  24.805  1.00  0.00     0.044 C 
ATOM     14  C   UNL A   1      32.199  21.348  24.939  1.00  0.00    -0.046 A 
ATOM     15  C   UNL A   1      32.150  22.154  23.720  1.00  0.00     0.022 A 
ATOM     16  C   UNL A   1      31.920  21.897  26.140  1.00  0.00     0.053 A 
ATOM     17  C   UNL A   1      32.009  23.487  23.823  1.00  0.00     0.095 A 
ATOM     18  C   UNL A   1      31.691  23.290  26.235  1.00  0.00     0.161 A 
ATOM     19  N   UNL A   1      31.846  24.049  25.084  1.00  0.00    -0.286 N 
ATOM     20  N   UNL A   1      31.403  24.068  27.251  1.00  0.00    -0.130 NA
ATOM     21  N   UNL A   1      31.481  25.357  26.811  1.00  0.00    -0.134 NA
ENDBRANCH   7  12
ENDBRANCH   4   6
ENDBRANCH   3   4
ENDBRANCH   2   3
ENDBRANCH   1   2
BRANCH   1  22
ATOM     22  O   UNL A   1      36.708  29.804  27.817  1.00  0.00    -0.458 OA
BRANCH  22  23
ATOM     23  C   UNL A   1      37.466  29.511  28.905  1.00  0.00     0.338 C 
ATOM     24  O   UNL A   1      37.073  29.191  30.003  1.00  0.00    -0.246 OA
BRANCH  23  25
ATOM     25  C   UNL A   1      38.855  29.301  28.427  1.00  0.00     0.060 A 
ATOM     26  C   UNL A   1      39.240  29.417  27.085  1.00  0.00     0.016 A 
ATOM     27  C   UNL A   1      39.712  28.718  29.353  1.00  0.00     0.016 A 
ATOM     28  C   UNL A   1      40.410  28.788  26.634  1.00  0.00     0.010 A 
ATOM     29  C   UNL A   1      40.856  28.086  28.896  1.00  0.00     0.010 A 
ATOM     30  C   UNL A   1      41.174  28.034  27.527  1.00  0.00    -0.014 A 
BRANCH  30  31
ATOM     31  C   UNL A   1      42.380  27.279  27.135  1.00  0.00     0.031 A 
ATOM     32  C   UNL A   1      42.079  25.866  26.842  1.00  0.00     0.074 A 
ATOM     33  C   UNL A   1      43.656  27.693  26.929  1.00  0.00     0.049 A 
ATOM     34  N   UNL A   1      42.006  24.949  27.749  1.00  0.00    -0.248 NA
ATOM     35  C   UNL A   1      41.665  25.423  25.504  1.00  0.00     0.031 C 
ATOM     36  C   UNL A   1      44.203  29.052  26.979  1.00  0.00     0.029 A 
ATOM     37  N   UNL A   1      44.746  26.955  26.520  1.00  0.00    -0.354 N 
ATOM     38  C   UNL A   1      41.830  23.777  27.046  1.00  0.00     0.074 A 
ATOM     39  C   UNL A   1      41.316  24.157  25.757  1.00  0.00     0.031 C 
ATOM     40  C   UNL A   1      45.427  29.079  26.385  1.00  0.00     0.029 A 
ATOM     41  C   UNL A   1      45.850  27.713  26.131  1.00  0.00     0.049 A 
ATOM     42  H   UNL A   1      44.745  25.970  26.504  1.00  0.00     0.167 HD
ATOM     43  C   UNL A   1      42.504  22.659  27.429  1.00  0.00     0.037 A 
ATOM     44  C   UNL A   1      47.081  27.260  25.783  1.00  0.00     0.037 A 
ATOM     45  C   UNL A   1      43.251  22.899  28.645  1.00  0.00     0.049 A 
ATOM     46  C   UNL A   1      47.332  26.083  26.641  1.00  0.00     0.074 A 
ATOM     47  C   UNL A   1      42.976  23.036  29.988  1.00  0.00     0.029 A 
ATOM     48  N   UNL A   1      44.487  23.451  28.436  1.00  0.00    -0.354 N 
ATOM     49  N   UNL A   1      47.455  26.165  27.936  1.00  0.00    -0.248 NA
ATOM     50  C   UNL A   1      47.211  24.733  26.102  1.00  0.00     0.031 C 
ATOM     51  C   UNL A   1      44.060  23.770  30.562  1.00  0.00     0.029 A 
ATOM     52  C   UNL A   1      44.990  24.045  29.567  1.00  0.00     0.049 A 
ATOM     53  H   UNL A   1      44.961  23.426  27.574  1.00  0.00     0.167 HD
ATOM     54  C   UNL A   1      46.929  24.974  28.377  1.00  0.00     0.074 A 
ATOM     55  C   UNL A   1      47.013  24.067  27.242  1.00  0.00     0.031 C 
ATOM     56  C   UNL A   1      46.117  24.946  29.471  1.00  0.00     0.037 A 
BRANCH  43  57
ATOM     57  C   UNL A   1      42.876  21.519  26.523  1.00  0.00     0.064 A 
ATOM     58  C   UNL A   1      42.313  20.253  26.771  1.00  0.00     0.173 A 
ATOM     59  C   UNL A   1      43.923  21.550  25.578  1.00  0.00     0.173 A 
ATOM     60  F   UNL A   1      41.345  20.108  27.688  1.00  0.00    -0.203 F 
ATOM     61  C   UNL A   1      42.776  19.103  26.129  1.00  0.00     0.198 A 
ATOM     62  C   UNL A   1      44.339  20.410  24.892  1.00  0.00     0.198 A 
ATOM     63  F   UNL A   1      44.658  22.648  25.366  1.00  0.00    -0.203 F 
ATOM     64  F   UNL A   1      42.277  17.906  26.468  1.00  0.00    -0.200 F 
ATOM     65  C   UNL A   1      43.780  19.183  25.183  1.00  0.00     0.200 A 
ATOM     66  F   UNL A   1      45.335  20.506  23.999  1.00  0.00    -0.200 F 
ATOM     67  F   UNL A   1      44.246  18.078  24.586  1.00  0.00    -0.200 F 
ENDBRANCH  43  57
BRANCH  44  68
ATOM     68  C   UNL A   1      48.140  27.749  24.868  1.00  0.00     0.064 A 
ATOM     69  C   UNL A   1      49.491  27.783  25.265  1.00  0.00     0.173 A 
ATOM     70  C   UNL A   1      47.892  27.833  23.488  1.00  0.00     0.173 A 
ATOM     71  F   UNL A   1      49.818  27.684  26.562  1.00  0.00    -0.203 F 
ATOM     72  C   UNL A   1      50.533  27.825  24.336  1.00  0.00     0.198 A 
ATOM     73  C   UNL A   1      48.937  27.877  22.557  1.00  0.00     0.198 A 
ATOM     74  F   UNL A   1      46.635  27.756  23.022  1.00  0.00    -0.203 F 
ATOM     75  F   UNL A   1      51.805  27.763  24.755  1.00  0.00    -0.200 F 
ATOM     76  C   UNL A   1      50.256  27.849  22.980  1.00  0.00     0.200 A 
ATOM     77  F   UNL A   1      48.663  27.865  21.244  1.00  0.00    -0.200 F 
ATOM     78  F   UNL A   1      51.254  27.799  22.087  1.00  0.00    -0.200 F 
ENDBRANCH  44  68
BRANCH  56  79
ATOM     79  C   UNL A   1      46.325  26.004  30.515  1.00  0.00     0.064 A 
ATOM     80  C   UNL A   1      47.435  26.087  31.371  1.00  0.00     0.173 A 
ATOM     81  C   UNL A   1      45.354  27.005  30.641  1.00  0.00     0.173 A 
ATOM     82  F   UNL A   1      48.432  25.203  31.291  1.00  0.00    -0.203 F 
ATOM     83  C   UNL A   1      47.557  27.103  32.319  1.00  0.00     0.198 A 
ATOM     84  C   UNL A   1      45.488  28.037  31.568  1.00  0.00     0.198 A 
ATOM     85  F   UNL A   1      44.273  26.994  29.845  1.00  0.00    -0.203 F 
ATOM     86  F   UNL A   1      48.625  27.141  33.130  1.00  0.00    -0.200 F 
ATOM     87  C   UNL A   1      46.585  28.082  32.412  1.00  0.00     0.200 A 
ATOM     88  F   UNL A   1      44.555  28.996  31.636  1.00  0.00    -0.200 F 
ATOM     89  F   UNL A   1      46.713  29.076  33.303  1.00  0.00    -0.200 F 
ENDBRANCH  56  79
ENDBRANCH  30  31
ENDBRANCH  23  25
ENDBRANCH  22  23
ENDBRANCH   1  22
TORSDOF 12
ENDMDL
MODEL 3
REMARK VINA RESULT:     -12.5      4.918      9.455
REMARK SMILES Cc1ccn2c([C@@H]3CCCC[C@@H]3C(=O)OCCOC(=O)c3ccc(-c4c5nc(c(-c6c(F)c(F)c(F)c(F)c6F)c6ccc([nH]6)c(-c6c(F)c(F)c(F)c(F)c6F)c6nc(c(-c7c(F)c(F)c(F)c(F)c7F)c7ccc4[nH]7)C=C6)C=C5)cc3)nnc2c1
REMARK SMILES IDX 17 1 16 2 15 3 13 4 14 5 12 6 7 7 8 8 9 9 11 10 10 11 6 12
REMARK SMILES IDX 1 13 2 14 3 15 87 16 4 17 86 18 5 19 85 20 84 21 18 22 19 23
REMARK SMILES IDX 20 24 21 25 22 26 83 27 23 28 82 29 24 30 25 31 26 32 76 33
REMARK SMILES IDX 27 34 81 35 75 36 77 37 28 38 80 39 74 40 73 41 29 43 61 44
REMARK SMILES IDX 41 45 60 46 42 47 45 48 59 49 78 50 43 51 44 52 58 54 79 55
REMARK SMILES IDX 46 56 30 57 31 58 39 59 32 60 33 61 37 62 40 63 34 64 35 65
REMARK SMILES IDX 38 66 36 67 62 68 63 69 71 70 64 71 65 72 69 73 72 74 66 75
REMARK SMILES IDX 67 76 70 77 68 78 47 79 48 80 56 81 49 82 50 83 54 84 57 85
REMARK SMILES IDX 51 86 52 87 55 88 53 89
REMARK H PARENT 77 42 45 53
REMARK Flexibility Score: inf
ROOT
ATOM      1  C   UNL A   1      47.803  33.339  27.717  1.00  0.00     0.275 C 
ENDROOT
BRANCH   1   2
ATOM      2  C   UNL A   1      47.157  32.660  26.501  1.00  0.00     0.274 C 
BRANCH   2   3
ATOM      3  O   UNL A   1      47.014  31.213  26.603  1.00  0.00    -0.462 OA
BRANCH   3   4
ATOM      4  C   UNL A   1      45.729  30.760  26.623  1.00  0.00     0.309 C 
ATOM      5  O   UNL A   1      44.803  31.390  26.129  1.00  0.00    -0.252 OA
BRANCH   4   6
ATOM      6  C   UNL A   1      45.526  29.525  27.519  1.00  0.00     0.110 C 
ATOM      7  C   UNL A   1      44.129  29.007  27.916  1.00  0.00     0.072 C 
ATOM      8  C   UNL A   1      43.276  29.929  28.781  1.00  0.00     0.012 C 
ATOM      9  C   UNL A   1      44.031  30.255  30.058  1.00  0.00     0.001 C 
ATOM     10  C   UNL A   1      46.268  29.794  28.846  1.00  0.00     0.016 C 
ATOM     11  C   UNL A   1      45.451  30.688  29.773  1.00  0.00     0.001 C 
BRANCH   7  12
ATOM     12  C   UNL A   1      43.371  28.268  26.881  1.00  0.00     0.141 A 
ATOM     13  C   UNL A   1      39.934  23.941  26.828  1.00  0.00     0.044 C 
ATOM     14  C   UNL A   1      41.029  24.957  26.747  1.00  0.00    -0.046 A 
ATOM     15  C   UNL A   1      42.000  24.984  27.840  1.00  0.00     0.022 A 
ATOM     16  C   UNL A   1      41.082  25.870  25.754  1.00  0.00     0.053 A 
ATOM     17  C   UNL A   1      42.831  26.035  27.949  1.00  0.00     0.095 A 
ATOM     18  C   UNL A   1      42.015  26.931  25.831  1.00  0.00     0.161 A 
ATOM     19  N   UNL A   1      42.786  27.030  26.979  1.00  0.00    -0.286 N 
ATOM     20  N   UNL A   1      42.278  27.932  25.024  1.00  0.00    -0.130 NA
ATOM     21  N   UNL A   1      43.136  28.766  25.679  1.00  0.00    -0.134 NA
ENDBRANCH   7  12
ENDBRANCH   4   6
ENDBRANCH   3   4
ENDBRANCH   2   3
ENDBRANCH   1   2
BRANCH   1  22
ATOM     22  O   UNL A   1      46.791  33.878  28.582  1.00  0.00    -0.458 OA
BRANCH  22  23
ATOM     23  C   UNL A   1      46.230  35.049  28.186  1.00  0.00     0.338 C 
ATOM     24  O   UNL A   1      46.648  35.811  27.346  1.00  0.00    -0.246 OA
BRANCH  23  25
ATOM     25  C   UNL A   1      44.836  35.061  28.697  1.00  0.00     0.060 A 
ATOM     26  C   UNL A   1      44.292  36.115  29.443  1.00  0.00     0.016 A 
ATOM     27  C   UNL A   1      44.173  33.843  28.619  1.00  0.00     0.016 A 
ATOM     28  C   UNL A   1      43.173  35.890  30.259  1.00  0.00     0.010 A 
ATOM     29  C   UNL A   1      43.079  33.626  29.439  1.00  0.00     0.010 A 
ATOM     30  C   UNL A   1      42.620  34.610  30.333  1.00  0.00    -0.014 A 
BRANCH  30  31
ATOM     31  C   UNL A   1      41.489  34.258  31.213  1.00  0.00     0.031 A 
ATOM     32  C   UNL A   1      41.880  34.227  32.634  1.00  0.00     0.074 A 
ATOM     33  C   UNL A   1      40.178  34.052  30.930  1.00  0.00     0.049 A 
ATOM     34  N   UNL A   1      42.422  33.202  33.203  1.00  0.00    -0.248 NA
ATOM     35  C   UNL A   1      41.841  35.432  33.475  1.00  0.00     0.031 C 
ATOM     36  C   UNL A   1      39.480  34.182  29.648  1.00  0.00     0.029 A 
ATOM     37  N   UNL A   1      39.144  33.765  31.796  1.00  0.00    -0.354 N 
ATOM     38  C   UNL A   1      42.511  33.548  34.533  1.00  0.00     0.074 A 
ATOM     39  C   UNL A   1      42.454  34.986  34.578  1.00  0.00     0.031 C 
ATOM     40  C   UNL A   1      38.136  34.223  29.854  1.00  0.00     0.029 A 
ATOM     41  C   UNL A   1      37.871  33.885  31.242  1.00  0.00     0.049 A 
ATOM     42  H   UNL A   1      39.294  33.497  32.732  1.00  0.00     0.167 HD
ATOM     43  C   UNL A   1      42.207  32.627  35.487  1.00  0.00     0.037 A 
ATOM     44  C   UNL A   1      36.684  33.572  31.823  1.00  0.00     0.037 A 
ATOM     45  C   UNL A   1      41.928  31.340  34.889  1.00  0.00     0.049 A 
ATOM     46  C   UNL A   1      36.951  32.386  32.664  1.00  0.00     0.074 A 
ATOM     47  C   UNL A   1      42.649  30.316  34.313  1.00  0.00     0.029 A 
ATOM     48  N   UNL A   1      40.631  31.191  34.475  1.00  0.00    -0.354 N 
ATOM     49  N   UNL A   1      37.299  31.232  32.169  1.00  0.00    -0.248 NA
ATOM     50  C   UNL A   1      37.078  32.517  34.111  1.00  0.00     0.031 C 
ATOM     51  C   UNL A   1      41.748  29.597  33.468  1.00  0.00     0.029 A 
ATOM     52  C   UNL A   1      40.489  30.176  33.562  1.00  0.00     0.049 A 
ATOM     53  H   UNL A   1      39.885  31.748  34.795  1.00  0.00     0.167 HD
ATOM     54  C   UNL A   1      38.129  30.713  33.134  1.00  0.00     0.074 A 
ATOM     55  C   UNL A   1      37.781  31.409  34.363  1.00  0.00     0.031 C 
ATOM     56  C   UNL A   1      39.278  30.072  32.779  1.00  0.00     0.037 A 
BRANCH  43  57
ATOM     57  C   UNL A   1      41.715  32.944  36.872  1.00  0.00     0.064 A 
ATOM     58  C   UNL A   1      42.449  32.462  37.972  1.00  0.00     0.173 A 
ATOM     59  C   UNL A   1      40.449  33.489  37.171  1.00  0.00     0.173 A 
ATOM     60  F   UNL A   1      43.643  31.879  37.789  1.00  0.00    -0.203 F 
ATOM     61  C   UNL A   1      41.943  32.512  39.272  1.00  0.00     0.198 A 
ATOM     62  C   UNL A   1      39.975  33.596  38.477  1.00  0.00     0.198 A 
ATOM     63  F   UNL A   1      39.578  33.831  36.214  1.00  0.00    -0.203 F 
ATOM     64  F   UNL A   1      42.634  31.953  40.276  1.00  0.00    -0.200 F 
ATOM     65  C   UNL A   1      40.712  33.088  39.525  1.00  0.00     0.200 A 
ATOM     66  F   UNL A   1      38.766  34.132  38.697  1.00  0.00    -0.200 F 
ATOM     67  F   UNL A   1      40.213  33.111  40.768  1.00  0.00    -0.200 F 
ENDBRANCH  43  57
BRANCH  44  68
ATOM     68  C   UNL A   1      35.302  34.091  31.692  1.00  0.00     0.064 A 
ATOM     69  C   UNL A   1      34.804  35.073  32.570  1.00  0.00     0.173 A 
ATOM     70  C   UNL A   1      34.594  33.908  30.493  1.00  0.00     0.173 A 
ATOM     71  F   UNL A   1      35.434  35.329  33.727  1.00  0.00    -0.203 F 
ATOM     72  C   UNL A   1      33.708  35.873  32.239  1.00  0.00     0.198 A 
ATOM     73  C   UNL A   1      33.494  34.710  30.162  1.00  0.00     0.198 A 
ATOM     74  F   UNL A   1      35.032  33.029  29.578  1.00  0.00    -0.203 F 
ATOM     75  F   UNL A   1      33.324  36.856  33.065  1.00  0.00    -0.200 F 
ATOM     76  C   UNL A   1      33.067  35.706  31.024  1.00  0.00     0.200 A 
ATOM     77  F   UNL A   1      32.898  34.567  28.969  1.00  0.00    -0.200 F 
ATOM     78  F   UNL A   1      32.073  36.532  30.667  1.00  0.00    -0.200 F 
ENDBRANCH  44  68
BRANCH  56  79
ATOM     79  C   UNL A   1      39.302  29.383  31.446  1.00  0.00     0.064 A 
ATOM     80  C   UNL A   1      39.734  29.965  30.243  1.00  0.00     0.173 A 
ATOM     81  C   UNL A   1      38.885  28.048  31.387  1.00  0.00     0.173 A 
ATOM     82  F   UNL A   1      40.193  31.218  30.212  1.00  0.00    -0.203 F 
ATOM     83  C   UNL A   1      39.726  29.258  29.041  1.00  0.00     0.198 A 
ATOM     84  C   UNL A   1      38.903  27.331  30.191  1.00  0.00     0.198 A 
ATOM     85  F   UNL A   1      38.471  27.425  32.501  1.00  0.00    -0.203 F 
ATOM     86  F   UNL A   1      40.132  29.853  27.908  1.00  0.00    -0.200 F 
ATOM     87  C   UNL A   1      39.317  27.938  29.017  1.00  0.00     0.200 A 
ATOM     88  F   UNL A   1      38.528  26.045  30.181  1.00  0.00    -0.200 F 
ATOM     89  F   UNL A   1      39.335  27.247  27.868  1.00  0.00    -0.200 F 
ENDBRANCH  56  79
ENDBRANCH  30  31
ENDBRANCH  23  25
ENDBRANCH  22  23
ENDBRANCH   1  22
TORSDOF 12
ENDMDL
