MODEL 1
REMARK VINA RESULT:     -10.7      0.000      0.000
REMARK SMILES Cc1ccsc1CNC(=O)NC[C@H]1CC[C@@H](C(=O)OCCOC(=O)c2ccc(-c3c4nc(c(-c5c(F)c(F)c(F)c(F)c5F)c5ccc([nH]5)c(-c5c(F)c(F)c(F)c(F)c5F)c5nc(c(-c6c(F)c(F)c(F)c(F)c6F)c6ccc3[nH]6)C=C5)C=C4)cc2)O1
REMARK SMILES IDX 20 1 19 2 17 3 18 4 16 5 13 6 14 7 88 8 15 9 12 10 11 11
REMARK SMILES IDX 8 12 9 13 10 15 7 17 6 18 1 19 2 20 3 21 4 22 5 23 21 24
REMARK SMILES IDX 22 25 23 26 24 27 25 28 26 29 87 30 27 31 86 32 28 33 29 34
REMARK SMILES IDX 30 35 80 36 31 37 85 38 79 39 81 40 32 41 84 42 78 43 77 44
REMARK SMILES IDX 33 46 65 47 45 48 64 49 46 50 49 51 63 52 82 53 47 54 48 55
REMARK SMILES IDX 62 57 83 58 50 59 34 60 35 61 43 62 36 63 37 64 41 65 44 66
REMARK SMILES IDX 38 67 39 68 42 69 40 70 66 71 67 72 75 73 68 74 69 75 73 76
REMARK SMILES IDX 76 77 70 78 71 79 74 80 72 81 51 82 52 83 60 84 53 85 54 86
REMARK SMILES IDX 58 87 61 88 55 89 56 90 59 91 57 92
REMARK H PARENT 8 14 11 16 81 45 49 56
REMARK Flexibility Score: inf
ROOT
ATOM      1  C   UNL A   1      33.214  34.136  28.216  1.00  0.00     0.274 C 
ENDROOT
BRANCH   1   2
ATOM      2  O   UNL A   1      32.944  34.599  29.555  1.00  0.00    -0.460 OA
BRANCH   2   3
ATOM      3  C   UNL A   1      32.931  35.956  29.691  1.00  0.00     0.335 C 
ATOM      4  O   UNL A   1      33.149  36.734  28.772  1.00  0.00    -0.249 OA
BRANCH   3   5
ATOM      5  C   UNL A   1      32.629  36.376  31.137  1.00  0.00     0.228 C 
ATOM      6  C   UNL A   1      33.565  34.933  32.736  1.00  0.00     0.138 C 
ATOM      7  C   UNL A   1      34.296  36.266  32.884  1.00  0.00     0.037 C 
ATOM      8  O   UNL A   1      32.390  35.233  31.974  1.00  0.00    -0.361 OA
ATOM      9  C   UNL A   1      33.764  37.158  31.774  1.00  0.00     0.047 C 
BRANCH   6  10
ATOM     10  C   UNL A   1      34.418  33.828  32.062  1.00  0.00     0.149 C 
BRANCH  10  11
ATOM     11  N   UNL A   1      35.652  34.288  31.443  1.00  0.00    -0.336 N 
ATOM     12  N   UNL A   1      37.290  32.553  31.617  1.00  0.00    -0.333 N 
ATOM     13  C   UNL A   1      36.803  33.689  31.101  1.00  0.00     0.315 C 
ATOM     14  H   UNL A   1      37.963  32.137  31.031  1.00  0.00     0.165 HD
ATOM     15  O   UNL A   1      37.454  34.216  30.192  1.00  0.00    -0.249 OA
ATOM     16  H   UNL A   1      35.641  35.249  31.229  1.00  0.00     0.165 HD
BRANCH  12  17
ATOM     17  C   UNL A   1      37.069  31.785  32.830  1.00  0.00     0.164 C 
BRANCH  17  18
ATOM     18  C   UNL A   1      37.811  32.331  34.047  1.00  0.00     0.027 A 
ATOM     19  C   UNL A   1      39.506  30.437  34.482  1.00  0.00     0.045 C 
ATOM     20  C   UNL A   1      38.934  31.798  34.681  1.00  0.00    -0.035 A 
ATOM     21  C   UNL A   1      39.571  32.773  35.524  1.00  0.00     0.015 A 
ATOM     22  C   UNL A   1      38.849  33.937  35.622  1.00  0.00     0.065 A 
ATOM     23  S   UNL A   1      37.345  33.785  34.841  1.00  0.00    -0.147 S 
ENDBRANCH  17  18
ENDBRANCH  12  17
ENDBRANCH  10  11
ENDBRANCH   6  10
ENDBRANCH   3   5
ENDBRANCH   2   3
ENDBRANCH   1   2
BRANCH   1  24
ATOM     24  C   UNL A   1      34.512  33.329  28.147  1.00  0.00     0.275 C 
BRANCH  24  25
ATOM     25  O   UNL A   1      34.379  32.054  28.811  1.00  0.00    -0.458 OA
BRANCH  25  26
ATOM     26  C   UNL A   1      34.629  30.943  28.078  1.00  0.00     0.338 C 
ATOM     27  O   UNL A   1      33.992  30.523  27.132  1.00  0.00    -0.246 OA
BRANCH  26  28
ATOM     28  C   UNL A   1      35.928  30.375  28.502  1.00  0.00     0.060 A 
ATOM     29  C   UNL A   1      36.997  30.500  27.623  1.00  0.00     0.016 A 
ATOM     30  C   UNL A   1      36.120  29.709  29.705  1.00  0.00     0.016 A 
ATOM     31  C   UNL A   1      38.277  30.046  27.951  1.00  0.00     0.010 A 
ATOM     32  C   UNL A   1      37.417  29.274  30.050  1.00  0.00     0.010 A 
ATOM     33  C   UNL A   1      38.523  29.475  29.193  1.00  0.00    -0.014 A 
BRANCH  33  34
ATOM     34  C   UNL A   1      39.887  28.956  29.519  1.00  0.00     0.031 A 
ATOM     35  C   UNL A   1      40.799  29.832  30.312  1.00  0.00     0.074 A 
ATOM     36  C   UNL A   1      40.322  27.714  29.209  1.00  0.00     0.049 A 
ATOM     37  N   UNL A   1      42.063  29.673  30.601  1.00  0.00    -0.248 NA
ATOM     38  C   UNL A   1      40.184  31.035  30.891  1.00  0.00     0.031 C 
ATOM     39  C   UNL A   1      39.507  26.654  28.640  1.00  0.00     0.029 A 
ATOM     40  N   UNL A   1      41.573  27.136  29.290  1.00  0.00    -0.354 N 
ATOM     41  C   UNL A   1      42.390  30.748  31.407  1.00  0.00     0.074 A 
ATOM     42  C   UNL A   1      41.219  31.594  31.496  1.00  0.00     0.031 C 
ATOM     43  C   UNL A   1      40.280  25.611  28.292  1.00  0.00     0.029 A 
ATOM     44  C   UNL A   1      41.658  25.916  28.647  1.00  0.00     0.049 A 
ATOM     45  H   UNL A   1      42.331  27.553  29.760  1.00  0.00     0.167 HD
ATOM     46  C   UNL A   1      43.552  30.986  32.058  1.00  0.00     0.037 A 
ATOM     47  C   UNL A   1      42.725  25.145  28.355  1.00  0.00     0.037 A 
ATOM     48  C   UNL A   1      44.712  30.144  31.989  1.00  0.00     0.049 A 
ATOM     49  C   UNL A   1      44.072  25.541  28.900  1.00  0.00     0.074 A 
ATOM     50  C   UNL A   1      45.940  30.323  32.598  1.00  0.00     0.029 A 
ATOM     51  N   UNL A   1      44.790  28.962  31.265  1.00  0.00    -0.354 N 
ATOM     52  N   UNL A   1      44.385  26.570  29.649  1.00  0.00    -0.248 NA
ATOM     53  C   UNL A   1      45.204  24.649  28.607  1.00  0.00     0.031 C 
ATOM     54  C   UNL A   1      46.781  29.278  32.200  1.00  0.00     0.029 A 
ATOM     55  C   UNL A   1      46.059  28.417  31.390  1.00  0.00     0.049 A 
ATOM     56  H   UNL A   1      44.055  28.570  30.741  1.00  0.00     0.167 HD
ATOM     57  C   UNL A   1      45.722  26.408  29.980  1.00  0.00     0.074 A 
ATOM     58  C   UNL A   1      46.171  25.193  29.334  1.00  0.00     0.031 C 
ATOM     59  C   UNL A   1      46.495  27.190  30.771  1.00  0.00     0.037 A 
BRANCH  46  60
ATOM     60  C   UNL A   1      43.602  32.241  32.869  1.00  0.00     0.064 A 
ATOM     61  C   UNL A   1      44.100  33.441  32.337  1.00  0.00     0.173 A 
ATOM     62  C   UNL A   1      43.217  32.222  34.216  1.00  0.00     0.173 A 
ATOM     63  F   UNL A   1      44.514  33.495  31.061  1.00  0.00    -0.203 F 
ATOM     64  C   UNL A   1      44.259  34.563  33.142  1.00  0.00     0.198 A 
ATOM     65  C   UNL A   1      43.345  33.357  35.008  1.00  0.00     0.198 A 
ATOM     66  F   UNL A   1      42.744  31.095  34.768  1.00  0.00    -0.203 F 
ATOM     67  F   UNL A   1      44.821  35.672  32.640  1.00  0.00    -0.200 F 
ATOM     68  C   UNL A   1      43.880  34.521  34.476  1.00  0.00     0.200 A 
ATOM     69  F   UNL A   1      42.977  33.316  36.296  1.00  0.00    -0.200 F 
ATOM     70  F   UNL A   1      44.051  35.597  35.256  1.00  0.00    -0.200 F 
ENDBRANCH  46  60
BRANCH  47  71
ATOM     71  C   UNL A   1      42.594  23.917  27.518  1.00  0.00     0.064 A 
ATOM     72  C   UNL A   1      42.277  22.677  28.091  1.00  0.00     0.173 A 
ATOM     73  C   UNL A   1      42.896  23.937  26.147  1.00  0.00     0.173 A 
ATOM     74  F   UNL A   1      42.023  22.594  29.405  1.00  0.00    -0.203 F 
ATOM     75  C   UNL A   1      42.309  21.502  27.339  1.00  0.00     0.198 A 
ATOM     76  C   UNL A   1      42.904  22.765  25.389  1.00  0.00     0.198 A 
ATOM     77  F   UNL A   1      43.232  25.090  25.550  1.00  0.00    -0.203 F 
ATOM     78  F   UNL A   1      42.087  20.321  27.934  1.00  0.00    -0.200 F 
ATOM     79  C   UNL A   1      42.624  21.546  25.989  1.00  0.00     0.200 A 
ATOM     80  F   UNL A   1      43.226  22.809  24.089  1.00  0.00    -0.200 F 
ATOM     81  F   UNL A   1      42.692  20.413  25.276  1.00  0.00    -0.200 F 
ENDBRANCH  47  71
BRANCH  59  82
ATOM     82  C   UNL A   1      47.893  26.727  31.056  1.00  0.00     0.064 A 
ATOM     83  C   UNL A   1      48.185  25.843  32.105  1.00  0.00     0.173 A 
ATOM     84  C   UNL A   1      48.949  27.126  30.221  1.00  0.00     0.173 A 
ATOM     85  F   UNL A   1      47.216  25.445  32.943  1.00  0.00    -0.203 F 
ATOM     86  C   UNL A   1      49.484  25.386  32.313  1.00  0.00     0.198 A 
ATOM     87  C   UNL A   1      50.239  26.640  30.411  1.00  0.00     0.198 A 
ATOM     88  F   UNL A   1      48.724  27.969  29.202  1.00  0.00    -0.203 F 
ATOM     89  F   UNL A   1      49.747  24.571  33.345  1.00  0.00    -0.200 F 
ATOM     90  C   UNL A   1      50.506  25.774  31.460  1.00  0.00     0.200 A 
ATOM     91  F   UNL A   1      51.220  27.004  29.574  1.00  0.00    -0.200 F 
ATOM     92  F   UNL A   1      51.751  25.316  31.650  1.00  0.00    -0.200 F 
ENDBRANCH  59  82
ENDBRANCH  33  34
ENDBRANCH  26  28
ENDBRANCH  25  26
ENDBRANCH  24  25
ENDBRANCH   1  24
TORSDOF 15
ENDMDL
MODEL 2
REMARK VINA RESULT:     -10.6      4.088      6.389
REMARK SMILES Cc1ccsc1CNC(=O)NC[C@H]1CC[C@@H](C(=O)OCCOC(=O)c2ccc(-c3c4nc(c(-c5c(F)c(F)c(F)c(F)c5F)c5ccc([nH]5)c(-c5c(F)c(F)c(F)c(F)c5F)c5nc(c(-c6c(F)c(F)c(F)c(F)c6F)c6ccc3[nH]6)C=C5)C=C4)cc2)O1
REMARK SMILES IDX 20 1 19 2 17 3 18 4 16 5 13 6 14 7 88 8 15 9 12 10 11 11
REMARK SMILES IDX 8 12 9 13 10 15 7 17 6 18 1 19 2 20 3 21 4 22 5 23 21 24
REMARK SMILES IDX 22 25 23 26 24 27 25 28 26 29 87 30 27 31 86 32 28 33 29 34
REMARK SMILES IDX 30 35 80 36 31 37 85 38 79 39 81 40 32 41 84 42 78 43 77 44
REMARK SMILES IDX 33 46 65 47 45 48 64 49 46 50 49 51 63 52 82 53 47 54 48 55
REMARK SMILES IDX 62 57 83 58 50 59 34 60 35 61 43 62 36 63 37 64 41 65 44 66
REMARK SMILES IDX 38 67 39 68 42 69 40 70 66 71 67 72 75 73 68 74 69 75 73 76
REMARK SMILES IDX 76 77 70 78 71 79 74 80 72 81 51 82 52 83 60 84 53 85 54 86
REMARK SMILES IDX 58 87 61 88 55 89 56 90 59 91 57 92
REMARK H PARENT 8 14 11 16 81 45 49 56
REMARK Flexibility Score: inf
ROOT
ATOM      1  C   UNL A   1      31.791  28.663  26.430  1.00  0.00     0.274 C 
ENDROOT
BRANCH   1   2
ATOM      2  O   UNL A   1      31.576  28.938  25.031  1.00  0.00    -0.460 OA
BRANCH   2   3
ATOM      3  C   UNL A   1      32.283  28.137  24.182  1.00  0.00     0.335 C 
ATOM      4  O   UNL A   1      33.502  28.041  24.194  1.00  0.00    -0.249 OA
BRANCH   3   5
ATOM      5  C   UNL A   1      31.358  27.392  23.207  1.00  0.00     0.228 C 
ATOM      6  C   UNL A   1      30.476  25.407  24.099  1.00  0.00     0.138 C 
ATOM      7  C   UNL A   1      29.295  26.360  23.925  1.00  0.00     0.037 C 
ATOM      8  O   UNL A   1      31.529  25.970  23.307  1.00  0.00    -0.361 OA
ATOM      9  C   UNL A   1      29.888  27.678  23.454  1.00  0.00     0.047 C 
BRANCH   6  10
ATOM     10  C   UNL A   1      30.908  25.215  25.575  1.00  0.00     0.149 C 
BRANCH  10  11
ATOM     11  N   UNL A   1      30.042  24.354  26.368  1.00  0.00    -0.336 N 
ATOM     12  N   UNL A   1      30.998  22.162  26.438  1.00  0.00    -0.333 N 
ATOM     13  C   UNL A   1      30.169  23.119  26.875  1.00  0.00     0.315 C 
ATOM     14  H   UNL A   1      31.154  21.466  27.116  1.00  0.00     0.165 HD
ATOM     15  O   UNL A   1      29.483  22.854  27.869  1.00  0.00    -0.249 OA
ATOM     16  H   UNL A   1      29.174  24.768  26.576  1.00  0.00     0.165 HD
BRANCH  12  17
ATOM     17  C   UNL A   1      31.722  21.900  25.206  1.00  0.00     0.164 C 
BRANCH  17  18
ATOM     18  C   UNL A   1      33.205  22.254  25.277  1.00  0.00     0.027 A 
ATOM     19  C   UNL A   1      33.621  23.115  22.882  1.00  0.00     0.045 C 
ATOM     20  C   UNL A   1      33.987  22.885  24.308  1.00  0.00    -0.035 A 
ATOM     21  C   UNL A   1      35.208  23.394  24.871  1.00  0.00     0.015 A 
ATOM     22  C   UNL A   1      35.383  23.015  26.179  1.00  0.00     0.065 A 
ATOM     23  S   UNL A   1      34.172  21.922  26.661  1.00  0.00    -0.147 S 
ENDBRANCH  17  18
ENDBRANCH  12  17
ENDBRANCH  10  11
ENDBRANCH   6  10
ENDBRANCH   3   5
ENDBRANCH   2   3
ENDBRANCH   1   2
BRANCH   1  24
ATOM     24  C   UNL A   1      32.454  29.842  27.144  1.00  0.00     0.275 C 
BRANCH  24  25
ATOM     25  O   UNL A   1      33.865  29.614  27.346  1.00  0.00    -0.458 OA
BRANCH  25  26
ATOM     26  C   UNL A   1      34.593  30.639  27.851  1.00  0.00     0.338 C 
ATOM     27  O   UNL A   1      34.225  31.780  28.048  1.00  0.00    -0.246 OA
BRANCH  26  28
ATOM     28  C   UNL A   1      35.904  30.116  28.296  1.00  0.00     0.060 A 
ATOM     29  C   UNL A   1      36.940  30.122  27.370  1.00  0.00     0.016 A 
ATOM     30  C   UNL A   1      36.136  29.601  29.564  1.00  0.00     0.016 A 
ATOM     31  C   UNL A   1      38.229  29.701  27.707  1.00  0.00     0.010 A 
ATOM     32  C   UNL A   1      37.442  29.201  29.914  1.00  0.00     0.010 A 
ATOM     33  C   UNL A   1      38.518  29.285  29.000  1.00  0.00    -0.014 A 
BRANCH  33  34
ATOM     34  C   UNL A   1      39.891  28.798  29.340  1.00  0.00     0.031 A 
ATOM     35  C   UNL A   1      40.780  29.702  30.127  1.00  0.00     0.074 A 
ATOM     36  C   UNL A   1      40.353  27.562  29.046  1.00  0.00     0.049 A 
ATOM     37  N   UNL A   1      42.045  29.573  30.424  1.00  0.00    -0.248 NA
ATOM     38  C   UNL A   1      40.138  30.899  30.688  1.00  0.00     0.031 C 
ATOM     39  C   UNL A   1      39.563  26.479  28.485  1.00  0.00     0.029 A 
ATOM     40  N   UNL A   1      41.615  27.010  29.140  1.00  0.00    -0.354 N 
ATOM     41  C   UNL A   1      42.347  30.663  31.219  1.00  0.00     0.074 A 
ATOM     42  C   UNL A   1      41.157  31.485  31.291  1.00  0.00     0.031 C 
ATOM     43  C   UNL A   1      40.359  25.448  28.154  1.00  0.00     0.029 A 
ATOM     44  C   UNL A   1      41.728  25.785  28.512  1.00  0.00     0.049 A 
ATOM     45  H   UNL A   1      42.361  27.448  29.609  1.00  0.00     0.167 HD
ATOM     46  C   UNL A   1      43.499  30.932  31.872  1.00  0.00     0.037 A 
ATOM     47  C   UNL A   1      42.813  25.033  28.235  1.00  0.00     0.037 A 
ATOM     48  C   UNL A   1      44.677  30.114  31.820  1.00  0.00     0.049 A 
ATOM     49  C   UNL A   1      44.148  25.464  28.782  1.00  0.00     0.074 A 
ATOM     50  C   UNL A   1      45.897  30.326  32.433  1.00  0.00     0.029 A 
ATOM     51  N   UNL A   1      44.783  28.926  31.110  1.00  0.00    -0.354 N 
ATOM     52  N   UNL A   1      44.436  26.507  29.520  1.00  0.00    -0.248 NA
ATOM     53  C   UNL A   1      45.300  24.592  28.505  1.00  0.00     0.031 C 
ATOM     54  C   UNL A   1      46.762  29.294  32.052  1.00  0.00     0.029 A 
ATOM     55  C   UNL A   1      46.062  28.408  31.248  1.00  0.00     0.049 A 
ATOM     56  H   UNL A   1      44.059  28.513  30.587  1.00  0.00     0.167 HD
ATOM     57  C   UNL A   1      45.774  26.377  29.860  1.00  0.00     0.074 A 
ATOM     58  C   UNL A   1      46.251  25.164  29.230  1.00  0.00     0.031 C 
ATOM     59  C   UNL A   1      46.527  27.184  30.646  1.00  0.00     0.037 A 
BRANCH  46  60
ATOM     60  C   UNL A   1      43.519  32.198  32.669  1.00  0.00     0.064 A 
ATOM     61  C   UNL A   1      43.129  32.225  34.017  1.00  0.00     0.173 A 
ATOM     62  C   UNL A   1      43.861  33.409  32.053  1.00  0.00     0.173 A 
ATOM     63  F   UNL A   1      42.759  31.093  34.637  1.00  0.00    -0.203 F 
ATOM     64  C   UNL A   1      43.031  33.429  34.705  1.00  0.00     0.198 A 
ATOM     65  C   UNL A   1      43.795  34.607  32.755  1.00  0.00     0.198 A 
ATOM     66  F   UNL A   1      44.232  33.432  30.764  1.00  0.00    -0.203 F 
ATOM     67  F   UNL A   1      42.570  33.445  35.964  1.00  0.00    -0.200 F 
ATOM     68  C   UNL A   1      43.366  34.618  34.074  1.00  0.00     0.200 A 
ATOM     69  F   UNL A   1      44.121  35.755  32.146  1.00  0.00    -0.200 F 
ATOM     70  F   UNL A   1      43.253  35.780  34.731  1.00  0.00    -0.200 F 
ENDBRANCH  46  60
BRANCH  47  71
ATOM     71  C   UNL A   1      42.711  23.793  27.412  1.00  0.00     0.064 A 
ATOM     72  C   UNL A   1      42.399  22.556  27.995  1.00  0.00     0.173 A 
ATOM     73  C   UNL A   1      43.037  23.800  26.046  1.00  0.00     0.173 A 
ATOM     74  F   UNL A   1      42.123  22.487  29.306  1.00  0.00    -0.203 F 
ATOM     75  C   UNL A   1      42.459  21.372  27.259  1.00  0.00     0.198 A 
ATOM     76  C   UNL A   1      43.073  22.618  25.304  1.00  0.00     0.198 A 
ATOM     77  F   UNL A   1      43.370  24.949  25.440  1.00  0.00    -0.203 F 
ATOM     78  F   UNL A   1      42.241  20.197  27.865  1.00  0.00    -0.200 F 
ATOM     79  C   UNL A   1      42.798  21.403  25.914  1.00  0.00     0.200 A 
ATOM     80  F   UNL A   1      43.417  22.649  24.009  1.00  0.00    -0.200 F 
ATOM     81  F   UNL A   1      42.892  20.262  25.218  1.00  0.00    -0.200 F 
ENDBRANCH  47  71
BRANCH  59  82
ATOM     82  C   UNL A   1      47.933  26.752  30.943  1.00  0.00     0.064 A 
ATOM     83  C   UNL A   1      48.232  25.851  31.975  1.00  0.00     0.173 A 
ATOM     84  C   UNL A   1      48.991  27.202  30.137  1.00  0.00     0.173 A 
ATOM     85  F   UNL A   1      47.261  25.405  32.785  1.00  0.00    -0.203 F 
ATOM     86  C   UNL A   1      49.540  25.426  32.194  1.00  0.00     0.198 A 
ATOM     87  C   UNL A   1      50.290  26.748  30.337  1.00  0.00     0.198 A 
ATOM     88  F   UNL A   1      48.758  28.064  29.135  1.00  0.00    -0.203 F 
ATOM     89  F   UNL A   1      49.809  24.593  33.210  1.00  0.00    -0.200 F 
ATOM     90  C   UNL A   1      50.565  25.864  31.369  1.00  0.00     0.200 A 
ATOM     91  F   UNL A   1      51.274  27.160  29.526  1.00  0.00    -0.200 F 
ATOM     92  F   UNL A   1      51.819  25.436  31.568  1.00  0.00    -0.200 F 
ENDBRANCH  59  82
ENDBRANCH  33  34
ENDBRANCH  26  28
ENDBRANCH  25  26
ENDBRANCH  24  25
ENDBRANCH   1  24
TORSDOF 15
ENDMDL
MODEL 3
REMARK VINA RESULT:     -10.5      4.561      7.424
REMARK SMILES Cc1ccsc1CNC(=O)NC[C@H]1CC[C@@H](C(=O)OCCOC(=O)c2ccc(-c3c4nc(c(-c5c(F)c(F)c(F)c(F)c5F)c5ccc([nH]5)c(-c5c(F)c(F)c(F)c(F)c5F)c5nc(c(-c6c(F)c(F)c(F)c(F)c6F)c6ccc3[nH]6)C=C5)C=C4)cc2)O1
REMARK SMILES IDX 20 1 19 2 17 3 18 4 16 5 13 6 14 7 88 8 15 9 12 10 11 11
REMARK SMILES IDX 8 12 9 13 10 15 7 17 6 18 1 19 2 20 3 21 4 22 5 23 21 24
REMARK SMILES IDX 22 25 23 26 24 27 25 28 26 29 87 30 27 31 86 32 28 33 29 34
REMARK SMILES IDX 30 35 80 36 31 37 85 38 79 39 81 40 32 41 84 42 78 43 77 44
REMARK SMILES IDX 33 46 65 47 45 48 64 49 46 50 49 51 63 52 82 53 47 54 48 55
REMARK SMILES IDX 62 57 83 58 50 59 34 60 35 61 43 62 36 63 37 64 41 65 44 66
REMARK SMILES IDX 38 67 39 68 42 69 40 70 66 71 67 72 75 73 68 74 69 75 73 76
REMARK SMILES IDX 76 77 70 78 71 79 74 80 72 81 51 82 52 83 60 84 53 85 54 86
REMARK SMILES IDX 58 87 61 88 55 89 56 90 59 91 57 92
REMARK H PARENT 8 14 11 16 81 45 49 56
REMARK Flexibility Score: inf
ROOT
ATOM      1  C   UNL A   1      32.434  30.748  26.559  1.00  0.00     0.274 C 
ENDROOT
BRANCH   1   2
ATOM      2  O   UNL A   1      32.382  29.723  27.571  1.00  0.00    -0.460 OA
BRANCH   2   3
ATOM      3  C   UNL A   1      31.778  28.566  27.173  1.00  0.00     0.335 C 
ATOM      4  O   UNL A   1      31.208  27.799  27.936  1.00  0.00    -0.249 OA
BRANCH   3   5
ATOM      5  C   UNL A   1      31.921  28.346  25.659  1.00  0.00     0.228 C 
ATOM      6  C   UNL A   1      32.388  26.117  25.086  1.00  0.00     0.138 C 
ATOM      7  C   UNL A   1      30.990  26.414  24.546  1.00  0.00     0.037 C 
ATOM      8  O   UNL A   1      32.961  27.401  25.365  1.00  0.00    -0.361 OA
ATOM      9  C   UNL A   1      30.651  27.818  25.017  1.00  0.00     0.047 C 
BRANCH   6  10
ATOM     10  C   UNL A   1      32.390  25.205  26.339  1.00  0.00     0.149 C 
BRANCH  10  11
ATOM     11  N   UNL A   1      31.085  24.695  26.737  1.00  0.00    -0.336 N 
ATOM     12  N   UNL A   1      30.971  22.370  26.187  1.00  0.00    -0.333 N 
ATOM     13  C   UNL A   1      30.555  23.467  26.832  1.00  0.00     0.315 C 
ATOM     14  H   UNL A   1      30.658  21.542  26.618  1.00  0.00     0.165 HD
ATOM     15  O   UNL A   1      29.617  23.327  27.626  1.00  0.00    -0.249 OA
ATOM     16  H   UNL A   1      30.454  25.407  26.990  1.00  0.00     0.165 HD
BRANCH  12  17
ATOM     17  C   UNL A   1      31.771  22.103  25.004  1.00  0.00     0.164 C 
BRANCH  17  18
ATOM     18  C   UNL A   1      33.137  21.496  25.309  1.00  0.00     0.027 A 
ATOM     19  C   UNL A   1      32.985  19.266  24.023  1.00  0.00     0.045 C 
ATOM     20  C   UNL A   1      33.696  20.328  24.789  1.00  0.00    -0.035 A 
ATOM     21  C   UNL A   1      35.118  20.289  25.001  1.00  0.00     0.015 A 
ATOM     22  C   UNL A   1      35.562  21.325  25.785  1.00  0.00     0.065 A 
ATOM     23  S   UNL A   1      34.256  22.230  26.392  1.00  0.00    -0.147 S 
ENDBRANCH  17  18
ENDBRANCH  12  17
ENDBRANCH  10  11
ENDBRANCH   6  10
ENDBRANCH   3   5
ENDBRANCH   2   3
ENDBRANCH   1   2
BRANCH   1  24
ATOM     24  C   UNL A   1      31.816  32.059  27.048  1.00  0.00     0.275 C 
BRANCH  24  25
ATOM     25  O   UNL A   1      32.713  33.173  26.853  1.00  0.00    -0.458 OA
BRANCH  25  26
ATOM     26  C   UNL A   1      33.106  33.855  27.956  1.00  0.00     0.338 C 
ATOM     27  O   UNL A   1      32.529  34.776  28.500  1.00  0.00    -0.246 OA
BRANCH  26  28
ATOM     28  C   UNL A   1      34.302  33.194  28.522  1.00  0.00     0.060 A 
ATOM     29  C   UNL A   1      34.112  32.361  29.618  1.00  0.00     0.016 A 
ATOM     30  C   UNL A   1      35.589  33.385  28.038  1.00  0.00     0.016 A 
ATOM     31  C   UNL A   1      35.168  31.648  30.193  1.00  0.00     0.010 A 
ATOM     32  C   UNL A   1      36.652  32.647  28.598  1.00  0.00     0.010 A 
ATOM     33  C   UNL A   1      36.447  31.734  29.659  1.00  0.00    -0.014 A 
BRANCH  33  34
ATOM     34  C   UNL A   1      37.578  30.999  30.306  1.00  0.00     0.031 A 
ATOM     35  C   UNL A   1      37.958  31.384  31.697  1.00  0.00     0.074 A 
ATOM     36  C   UNL A   1      38.228  29.958  29.742  1.00  0.00     0.049 A 
ATOM     37  N   UNL A   1      38.979  31.002  32.417  1.00  0.00    -0.248 NA
ATOM     38  C   UNL A   1      37.034  32.298  32.382  1.00  0.00     0.031 C 
ATOM     39  C   UNL A   1      37.856  29.306  28.498  1.00  0.00     0.029 A 
ATOM     40  N   UNL A   1      39.371  29.281  30.118  1.00  0.00    -0.354 N 
ATOM     41  C   UNL A   1      38.811  31.617  33.643  1.00  0.00     0.074 A 
ATOM     42  C   UNL A   1      37.639  32.460  33.546  1.00  0.00     0.031 C 
ATOM     43  C   UNL A   1      38.805  28.427  28.133  1.00  0.00     0.029 A 
ATOM     44  C   UNL A   1      39.852  28.428  29.144  1.00  0.00     0.049 A 
ATOM     45  H   UNL A   1      39.802  29.395  30.996  1.00  0.00     0.167 HD
ATOM     46  C   UNL A   1      39.542  31.457  34.770  1.00  0.00     0.037 A 
ATOM     47  C   UNL A   1      41.013  27.746  29.062  1.00  0.00     0.037 A 
ATOM     48  C   UNL A   1      40.696  30.610  34.879  1.00  0.00     0.049 A 
ATOM     49  C   UNL A   1      41.939  27.755  30.249  1.00  0.00     0.074 A 
ATOM     50  C   UNL A   1      41.511  30.407  35.978  1.00  0.00     0.029 A 
ATOM     51  N   UNL A   1      41.202  29.825  33.852  1.00  0.00    -0.354 N 
ATOM     52  N   UNL A   1      41.788  28.352  31.405  1.00  0.00    -0.248 NA
ATOM     53  C   UNL A   1      43.170  26.957  30.146  1.00  0.00     0.031 C 
ATOM     54  C   UNL A   1      42.543  29.541  35.601  1.00  0.00     0.029 A 
ATOM     55  C   UNL A   1      42.338  29.158  34.285  1.00  0.00     0.049 A 
ATOM     56  H   UNL A   1      40.813  29.754  32.950  1.00  0.00     0.167 HD
ATOM     57  C   UNL A   1      42.856  27.944  32.189  1.00  0.00     0.074 A 
ATOM     58  C   UNL A   1      43.663  27.062  31.373  1.00  0.00     0.031 C 
ATOM     59  C   UNL A   1      43.123  28.257  33.480  1.00  0.00     0.037 A 
BRANCH  46  60
ATOM     60  C   UNL A   1      39.106  32.260  35.953  1.00  0.00     0.064 A 
ATOM     61  C   UNL A   1      39.587  33.560  36.178  1.00  0.00     0.173 A 
ATOM     62  C   UNL A   1      38.255  31.693  36.911  1.00  0.00     0.173 A 
ATOM     63  F   UNL A   1      40.433  34.128  35.304  1.00  0.00    -0.203 F 
ATOM     64  C   UNL A   1      39.272  34.242  37.347  1.00  0.00     0.198 A 
ATOM     65  C   UNL A   1      37.914  32.393  38.062  1.00  0.00     0.198 A 
ATOM     66  F   UNL A   1      37.778  30.451  36.741  1.00  0.00    -0.203 F 
ATOM     67  F   UNL A   1      39.814  35.445  37.586  1.00  0.00    -0.200 F 
ATOM     68  C   UNL A   1      38.435  33.659  38.287  1.00  0.00     0.200 A 
ATOM     69  F   UNL A   1      37.104  31.830  38.969  1.00  0.00    -0.200 F 
ATOM     70  F   UNL A   1      38.147  34.309  39.423  1.00  0.00    -0.200 F 
ENDBRANCH  46  60
BRANCH  47  71
ATOM     71  C   UNL A   1      41.385  26.985  27.834  1.00  0.00     0.064 A 
ATOM     72  C   UNL A   1      41.177  25.601  27.744  1.00  0.00     0.173 A 
ATOM     73  C   UNL A   1      42.061  27.607  26.773  1.00  0.00     0.173 A 
ATOM     74  F   UNL A   1      40.575  24.950  28.751  1.00  0.00    -0.203 F 
ATOM     75  C   UNL A   1      41.667  24.863  26.665  1.00  0.00     0.198 A 
ATOM     76  C   UNL A   1      42.529  26.872  25.682  1.00  0.00     0.198 A 
ATOM     77  F   UNL A   1      42.312  28.924  26.815  1.00  0.00    -0.203 F 
ATOM     78  F   UNL A   1      41.529  23.530  26.651  1.00  0.00    -0.200 F 
ATOM     79  C   UNL A   1      42.344  25.498  25.636  1.00  0.00     0.200 A 
ATOM     80  F   UNL A   1      43.198  27.487  24.697  1.00  0.00    -0.200 F 
ATOM     81  F   UNL A   1      42.847  24.784  24.620  1.00  0.00    -0.200 F 
ENDBRANCH  47  71
BRANCH  59  82
ATOM     82  C   UNL A   1      44.297  27.586  34.131  1.00  0.00     0.064 A 
ATOM     83  C   UNL A   1      45.563  28.186  34.182  1.00  0.00     0.173 A 
ATOM     84  C   UNL A   1      44.131  26.348  34.773  1.00  0.00     0.173 A 
ATOM     85  F   UNL A   1      45.780  29.360  33.571  1.00  0.00    -0.203 F 
ATOM     86  C   UNL A   1      46.622  27.565  34.840  1.00  0.00     0.198 A 
ATOM     87  C   UNL A   1      45.181  25.747  35.458  1.00  0.00     0.198 A 
ATOM     88  F   UNL A   1      42.939  25.732  34.755  1.00  0.00    -0.203 F 
ATOM     89  F   UNL A   1      47.833  28.139  34.844  1.00  0.00    -0.200 F 
ATOM     90  C   UNL A   1      46.427  26.354  35.488  1.00  0.00     0.200 A 
ATOM     91  F   UNL A   1      44.984  24.586  36.098  1.00  0.00    -0.200 F 
ATOM     92  F   UNL A   1      47.442  25.769  36.140  1.00  0.00    -0.200 F 
ENDBRANCH  59  82
ENDBRANCH  33  34
ENDBRANCH  26  28
ENDBRANCH  25  26
ENDBRANCH  24  25
ENDBRANCH   1  24
TORSDOF 15
ENDMDL
