MODEL 1
REMARK VINA RESULT:     -12.3      0.000      0.000
REMARK SMILES COc1ccc(-c2ncn(CC(=O)OCCOC(=O)c3ccc(-c4c5nc(c(-c6c(F)c(F)c(F)c(F)c6F)c6ccc([nH]6)c(-c6c(F)c(F)c(F)c(F)c6F)c6nc(c(-c7c(F)c(F)c(F)c(F)c7F)c7ccc4[nH]7)C=C6)C=C5)cc3)c2-c2ccc(OC)cc2)cc1
REMARK SMILES IDX 15 1 14 2 12 3 13 4 11 5 10 6 7 7 8 8 83 9 9 10 6 11 3 12
REMARK SMILES IDX 4 13 93 14 5 15 92 16 2 17 1 18 84 19 85 20 91 21 86 22
REMARK SMILES IDX 90 23 87 24 88 25 89 26 16 27 17 28 18 29 19 30 20 31 21 32
REMARK SMILES IDX 82 33 22 34 81 35 23 36 24 37 25 38 75 39 26 40 80 41 74 42
REMARK SMILES IDX 76 43 27 44 79 45 73 46 72 47 28 49 60 50 40 51 59 52 41 53
REMARK SMILES IDX 44 54 58 55 77 56 42 57 43 58 57 60 78 61 45 62 29 63 30 64
REMARK SMILES IDX 38 65 31 66 32 67 36 68 39 69 33 70 34 71 37 72 35 73 61 74
REMARK SMILES IDX 62 75 70 76 63 77 64 78 68 79 71 80 65 81 66 82 69 83 67 84
REMARK SMILES IDX 46 85 47 86 55 87 48 88 49 89 53 90 56 91 50 92 51 93 54 94
REMARK SMILES IDX 52 95
REMARK H PARENT 76 48 44 59
REMARK Flexibility Score: inf
ROOT
ATOM      1  C   UNL A   1      35.082  21.468  24.821  1.00  0.00     0.274 C 
ENDROOT
BRANCH   1   2
ATOM      2  O   UNL A   1      34.195  22.038  23.849  1.00  0.00    -0.461 OA
BRANCH   2   3
ATOM      3  C   UNL A   1      32.923  21.573  23.861  1.00  0.00     0.326 C 
ATOM      4  O   UNL A   1      32.623  20.397  24.047  1.00  0.00    -0.250 OA
BRANCH   3   5
ATOM      5  C   UNL A   1      31.908  22.676  23.769  1.00  0.00     0.246 C 
BRANCH   5   6
ATOM      6  N   UNL A   1      31.758  23.556  24.922  1.00  0.00    -0.319 N 
ATOM      7  C   UNL A   1      32.170  25.312  26.167  1.00  0.00     0.096 A 
ATOM      8  N   UNL A   1      32.481  24.217  26.928  1.00  0.00    -0.236 NA
ATOM      9  C   UNL A   1      31.638  24.930  24.937  1.00  0.00     0.076 A 
ATOM     10  C   UNL A   1      32.166  23.182  26.181  1.00  0.00     0.201 A 
BRANCH   7  11
ATOM     11  C   UNL A   1      32.452  26.691  26.551  1.00  0.00     0.003 A 
ATOM     12  C   UNL A   1      32.836  29.467  26.829  1.00  0.00     0.118 A 
ATOM     13  C   UNL A   1      31.671  28.868  27.303  1.00  0.00     0.047 A 
ATOM     14  C   UNL A   1      33.842  28.671  26.279  1.00  0.00     0.047 A 
ATOM     15  C   UNL A   1      31.482  27.489  27.176  1.00  0.00     0.014 A 
ATOM     16  C   UNL A   1      33.650  27.289  26.139  1.00  0.00     0.014 A 
BRANCH  12  17
ATOM     17  O   UNL A   1      32.908  30.823  26.989  1.00  0.00    -0.497 OA
ATOM     18  C   UNL A   1      31.721  31.538  26.660  1.00  0.00     0.278 C 
ENDBRANCH  12  17
ENDBRANCH   7  11
BRANCH   9  19
ATOM     19  C   UNL A   1      31.069  25.795  23.912  1.00  0.00     0.001 A 
ATOM     20  C   UNL A   1      29.785  26.323  24.096  1.00  0.00     0.014 A 
ATOM     21  C   UNL A   1      31.906  26.376  22.965  1.00  0.00     0.014 A 
ATOM     22  C   UNL A   1      29.336  27.408  23.347  1.00  0.00     0.047 A 
ATOM     23  C   UNL A   1      31.482  27.511  22.279  1.00  0.00     0.047 A 
ATOM     24  C   UNL A   1      30.188  28.010  22.440  1.00  0.00     0.118 A 
BRANCH  24  25
ATOM     25  O   UNL A   1      29.821  29.210  21.906  1.00  0.00    -0.497 OA
ATOM     26  C   UNL A   1      28.487  29.613  22.212  1.00  0.00     0.278 C 
ENDBRANCH  24  25
ENDBRANCH   9  19
ENDBRANCH   5   6
ENDBRANCH   3   5
ENDBRANCH   2   3
ENDBRANCH   1   2
BRANCH   1  27
ATOM     27  C   UNL A   1      36.484  22.031  24.618  1.00  0.00     0.275 C 
BRANCH  27  28
ATOM     28  O   UNL A   1      37.249  22.409  25.787  1.00  0.00    -0.458 OA
BRANCH  28  29
ATOM     29  C   UNL A   1      38.560  22.099  25.924  1.00  0.00     0.338 C 
ATOM     30  O   UNL A   1      39.083  21.018  25.716  1.00  0.00    -0.246 OA
BRANCH  29  31
ATOM     31  C   UNL A   1      39.282  23.279  26.472  1.00  0.00     0.060 A 
ATOM     32  C   UNL A   1      40.516  23.118  27.121  1.00  0.00     0.016 A 
ATOM     33  C   UNL A   1      38.667  24.530  26.472  1.00  0.00     0.016 A 
ATOM     34  C   UNL A   1      41.038  24.159  27.905  1.00  0.00     0.010 A 
ATOM     35  C   UNL A   1      39.173  25.545  27.271  1.00  0.00     0.010 A 
ATOM     36  C   UNL A   1      40.308  25.344  28.064  1.00  0.00    -0.014 A 
BRANCH  36  37
ATOM     37  C   UNL A   1      40.833  26.506  28.806  1.00  0.00     0.031 A 
ATOM     38  C   UNL A   1      42.107  26.989  28.235  1.00  0.00     0.074 A 
ATOM     39  C   UNL A   1      40.182  27.271  29.721  1.00  0.00     0.049 A 
ATOM     40  N   UNL A   1      43.213  27.148  28.882  1.00  0.00    -0.248 NA
ATOM     41  C   UNL A   1      42.218  27.207  26.783  1.00  0.00     0.031 C 
ATOM     42  C   UNL A   1      38.900  27.028  30.354  1.00  0.00     0.029 A 
ATOM     43  N   UNL A   1      40.463  28.533  30.191  1.00  0.00    -0.354 N 
ATOM     44  C   UNL A   1      44.085  27.705  27.965  1.00  0.00     0.074 A 
ATOM     45  C   UNL A   1      43.504  27.527  26.662  1.00  0.00     0.031 C 
ATOM     46  C   UNL A   1      38.348  28.164  30.816  1.00  0.00     0.029 A 
ATOM     47  C   UNL A   1      39.346  29.198  30.711  1.00  0.00     0.049 A 
ATOM     48  H   UNL A   1      41.364  28.929  30.166  1.00  0.00     0.167 HD
ATOM     49  C   UNL A   1      45.038  28.577  28.374  1.00  0.00     0.037 A 
ATOM     50  C   UNL A   1      39.206  30.484  31.114  1.00  0.00     0.037 A 
ATOM     51  C   UNL A   1      45.322  28.460  29.779  1.00  0.00     0.049 A 
ATOM     52  C   UNL A   1      40.553  30.968  31.445  1.00  0.00     0.074 A 
ATOM     53  C   UNL A   1      45.672  27.412  30.610  1.00  0.00     0.029 A 
ATOM     54  N   UNL A   1      44.907  29.473  30.603  1.00  0.00    -0.354 N 
ATOM     55  N   UNL A   1      41.213  30.589  32.501  1.00  0.00    -0.248 NA
ATOM     56  C   UNL A   1      41.336  31.620  30.409  1.00  0.00     0.031 C 
ATOM     57  C   UNL A   1      45.057  27.694  31.863  1.00  0.00     0.029 A 
ATOM     58  C   UNL A   1      44.404  28.920  31.754  1.00  0.00     0.049 A 
ATOM     59  H   UNL A   1      44.959  30.434  30.403  1.00  0.00     0.167 HD
ATOM     60  C   UNL A   1      42.516  30.500  32.054  1.00  0.00     0.074 A 
ATOM     61  C   UNL A   1      42.558  31.319  30.848  1.00  0.00     0.031 C 
ATOM     62  C   UNL A   1      43.329  29.509  32.521  1.00  0.00     0.037 A 
BRANCH  49  63
ATOM     63  C   UNL A   1      45.377  29.788  27.555  1.00  0.00     0.064 A 
ATOM     64  C   UNL A   1      46.717  30.108  27.307  1.00  0.00     0.173 A 
ATOM     65  C   UNL A   1      44.426  30.780  27.218  1.00  0.00     0.173 A 
ATOM     66  F   UNL A   1      47.692  29.264  27.670  1.00  0.00    -0.203 F 
ATOM     67  C   UNL A   1      47.080  31.337  26.753  1.00  0.00     0.198 A 
ATOM     68  C   UNL A   1      44.784  31.974  26.603  1.00  0.00     0.198 A 
ATOM     69  F   UNL A   1      43.137  30.674  27.570  1.00  0.00    -0.203 F 
ATOM     70  F   UNL A   1      48.376  31.649  26.624  1.00  0.00    -0.200 F 
ATOM     71  C   UNL A   1      46.114  32.262  26.388  1.00  0.00     0.200 A 
ATOM     72  F   UNL A   1      43.834  32.867  26.291  1.00  0.00    -0.200 F 
ATOM     73  F   UNL A   1      46.465  33.452  25.885  1.00  0.00    -0.200 F 
ENDBRANCH  49  63
BRANCH  50  74
ATOM     74  C   UNL A   1      38.009  31.356  31.188  1.00  0.00     0.064 A 
ATOM     75  C   UNL A   1      37.290  31.696  30.029  1.00  0.00     0.173 A 
ATOM     76  C   UNL A   1      37.378  31.626  32.417  1.00  0.00     0.173 A 
ATOM     77  F   UNL A   1      37.810  31.462  28.816  1.00  0.00    -0.203 F 
ATOM     78  C   UNL A   1      35.992  32.211  30.093  1.00  0.00     0.198 A 
ATOM     79  C   UNL A   1      36.082  32.149  32.480  1.00  0.00     0.198 A 
ATOM     80  F   UNL A   1      37.963  31.296  33.577  1.00  0.00    -0.203 F 
ATOM     81  F   UNL A   1      35.310  32.442  28.963  1.00  0.00    -0.200 F 
ATOM     82  C   UNL A   1      35.382  32.419  31.318  1.00  0.00     0.200 A 
ATOM     83  F   UNL A   1      35.491  32.322  33.671  1.00  0.00    -0.200 F 
ATOM     84  F   UNL A   1      34.109  32.834  31.378  1.00  0.00    -0.200 F 
ENDBRANCH  50  74
BRANCH  62  85
ATOM     85  C   UNL A   1      42.932  28.820  33.800  1.00  0.00     0.064 A 
ATOM     86  C   UNL A   1      42.088  27.697  33.879  1.00  0.00     0.173 A 
ATOM     87  C   UNL A   1      43.524  29.259  34.993  1.00  0.00     0.173 A 
ATOM     88  F   UNL A   1      41.559  27.146  32.781  1.00  0.00    -0.203 F 
ATOM     89  C   UNL A   1      41.814  27.081  35.100  1.00  0.00     0.198 A 
ATOM     90  C   UNL A   1      43.283  28.614  36.203  1.00  0.00     0.198 A 
ATOM     91  F   UNL A   1      44.376  30.295  34.977  1.00  0.00    -0.203 F 
ATOM     92  F   UNL A   1      40.988  26.025  35.149  1.00  0.00    -0.200 F 
ATOM     93  C   UNL A   1      42.419  27.533  36.259  1.00  0.00     0.200 A 
ATOM     94  F   UNL A   1      43.911  29.027  37.313  1.00  0.00    -0.200 F 
ATOM     95  F   UNL A   1      42.194  26.911  37.424  1.00  0.00    -0.200 F 
ENDBRANCH  62  85
ENDBRANCH  36  37
ENDBRANCH  29  31
ENDBRANCH  28  29
ENDBRANCH  27  28
ENDBRANCH   1  27
TORSDOF 16
ENDMDL
MODEL 2
REMARK VINA RESULT:     -12.3      0.848      2.671
REMARK SMILES COc1ccc(-c2ncn(CC(=O)OCCOC(=O)c3ccc(-c4c5nc(c(-c6c(F)c(F)c(F)c(F)c6F)c6ccc([nH]6)c(-c6c(F)c(F)c(F)c(F)c6F)c6nc(c(-c7c(F)c(F)c(F)c(F)c7F)c7ccc4[nH]7)C=C6)C=C5)cc3)c2-c2ccc(OC)cc2)cc1
REMARK SMILES IDX 15 1 14 2 12 3 13 4 11 5 10 6 7 7 8 8 83 9 9 10 6 11 3 12
REMARK SMILES IDX 4 13 93 14 5 15 92 16 2 17 1 18 84 19 85 20 91 21 86 22
REMARK SMILES IDX 90 23 87 24 88 25 89 26 16 27 17 28 18 29 19 30 20 31 21 32
REMARK SMILES IDX 82 33 22 34 81 35 23 36 24 37 25 38 75 39 26 40 80 41 74 42
REMARK SMILES IDX 76 43 27 44 79 45 73 46 72 47 28 49 60 50 40 51 59 52 41 53
REMARK SMILES IDX 44 54 58 55 77 56 42 57 43 58 57 60 78 61 45 62 29 63 30 64
REMARK SMILES IDX 38 65 31 66 32 67 36 68 39 69 33 70 34 71 37 72 35 73 61 74
REMARK SMILES IDX 62 75 70 76 63 77 64 78 68 79 71 80 65 81 66 82 69 83 67 84
REMARK SMILES IDX 46 85 47 86 55 87 48 88 49 89 53 90 56 91 50 92 51 93 54 94
REMARK SMILES IDX 52 95
REMARK H PARENT 76 48 44 59
REMARK Flexibility Score: inf
ROOT
ATOM      1  C   UNL A   1      35.357  21.799  24.687  1.00  0.00     0.274 C 
ENDROOT
BRANCH   1   2
ATOM      2  O   UNL A   1      34.906  23.045  25.234  1.00  0.00    -0.461 OA
BRANCH   2   3
ATOM      3  C   UNL A   1      34.114  22.961  26.330  1.00  0.00     0.326 C 
ATOM      4  O   UNL A   1      34.536  22.943  27.482  1.00  0.00    -0.250 OA
BRANCH   3   5
ATOM      5  C   UNL A   1      32.653  23.039  25.989  1.00  0.00     0.246 C 
BRANCH   5   6
ATOM      6  N   UNL A   1      32.263  23.902  24.881  1.00  0.00    -0.319 N 
ATOM      7  C   UNL A   1      31.050  25.406  23.845  1.00  0.00     0.096 A 
ATOM      8  N   UNL A   1      30.963  24.260  23.102  1.00  0.00    -0.236 NA
ATOM      9  C   UNL A   1      31.921  25.239  24.920  1.00  0.00     0.076 A 
ATOM     10  C   UNL A   1      31.747  23.398  23.710  1.00  0.00     0.201 A 
BRANCH   7  11
ATOM     11  C   UNL A   1      30.259  26.608  23.604  1.00  0.00     0.003 A 
ATOM     12  C   UNL A   1      28.653  28.730  22.682  1.00  0.00     0.118 A 
ATOM     13  C   UNL A   1      28.094  27.704  23.441  1.00  0.00     0.047 A 
ATOM     14  C   UNL A   1      30.028  28.735  22.443  1.00  0.00     0.047 A 
ATOM     15  C   UNL A   1      28.890  26.655  23.909  1.00  0.00     0.014 A 
ATOM     16  C   UNL A   1      30.827  27.677  22.901  1.00  0.00     0.014 A 
BRANCH  12  17
ATOM     17  O   UNL A   1      27.780  29.695  22.263  1.00  0.00    -0.497 OA
ATOM     18  C   UNL A   1      28.313  30.637  21.338  1.00  0.00     0.278 C 
ENDBRANCH  12  17
ENDBRANCH   7  11
BRANCH   9  19
ATOM     19  C   UNL A   1      32.377  26.257  25.856  1.00  0.00     0.001 A 
ATOM     20  C   UNL A   1      33.561  26.955  25.588  1.00  0.00     0.014 A 
ATOM     21  C   UNL A   1      31.484  26.780  26.786  1.00  0.00     0.014 A 
ATOM     22  C   UNL A   1      33.858  28.151  26.238  1.00  0.00     0.047 A 
ATOM     23  C   UNL A   1      31.747  28.016  27.370  1.00  0.00     0.047 A 
ATOM     24  C   UNL A   1      32.946  28.688  27.126  1.00  0.00     0.118 A 
BRANCH  24  25
ATOM     25  O   UNL A   1      33.139  29.969  27.557  1.00  0.00    -0.497 OA
ATOM     26  C   UNL A   1      32.424  30.957  26.817  1.00  0.00     0.278 C 
ENDBRANCH  24  25
ENDBRANCH   9  19
ENDBRANCH   5   6
ENDBRANCH   3   5
ENDBRANCH   2   3
ENDBRANCH   1   2
BRANCH   1  27
ATOM     27  C   UNL A   1      36.678  21.408  25.342  1.00  0.00     0.275 C 
BRANCH  27  28
ATOM     28  O   UNL A   1      37.776  22.350  25.290  1.00  0.00    -0.458 OA
BRANCH  28  29
ATOM     29  C   UNL A   1      38.968  22.103  25.883  1.00  0.00     0.338 C 
ATOM     30  O   UNL A   1      39.655  21.105  25.758  1.00  0.00    -0.246 OA
BRANCH  29  31
ATOM     31  C   UNL A   1      39.287  23.221  26.812  1.00  0.00     0.060 A 
ATOM     32  C   UNL A   1      38.540  24.408  26.778  1.00  0.00     0.016 A 
ATOM     33  C   UNL A   1      40.422  23.149  27.619  1.00  0.00     0.016 A 
ATOM     34  C   UNL A   1      39.025  25.563  27.414  1.00  0.00     0.010 A 
ATOM     35  C   UNL A   1      40.911  24.299  28.221  1.00  0.00     0.010 A 
ATOM     36  C   UNL A   1      40.272  25.533  28.052  1.00  0.00    -0.014 A 
BRANCH  36  37
ATOM     37  C   UNL A   1      40.804  26.683  28.807  1.00  0.00     0.031 A 
ATOM     38  C   UNL A   1      42.065  27.185  28.222  1.00  0.00     0.074 A 
ATOM     39  C   UNL A   1      40.165  27.427  29.747  1.00  0.00     0.049 A 
ATOM     40  N   UNL A   1      43.181  27.337  28.852  1.00  0.00    -0.248 NA
ATOM     41  C   UNL A   1      42.147  27.431  26.772  1.00  0.00     0.031 C 
ATOM     42  C   UNL A   1      38.896  27.165  30.399  1.00  0.00     0.029 A 
ATOM     43  N   UNL A   1      40.449  28.681  30.237  1.00  0.00    -0.354 N 
ATOM     44  C   UNL A   1      44.033  27.917  27.930  1.00  0.00     0.074 A 
ATOM     45  C   UNL A   1      43.429  27.761  26.634  1.00  0.00     0.031 C 
ATOM     46  C   UNL A   1      38.347  28.288  30.893  1.00  0.00     0.029 A 
ATOM     47  C   UNL A   1      39.337  29.330  30.790  1.00  0.00     0.049 A 
ATOM     48  H   UNL A   1      41.347  29.082  30.204  1.00  0.00     0.167 HD
ATOM     49  C   UNL A   1      44.989  28.786  28.339  1.00  0.00     0.037 A 
ATOM     50  C   UNL A   1      39.198  30.607  31.220  1.00  0.00     0.037 A 
ATOM     51  C   UNL A   1      45.300  28.643  29.736  1.00  0.00     0.049 A 
ATOM     52  C   UNL A   1      40.548  31.092  31.536  1.00  0.00     0.074 A 
ATOM     53  C   UNL A   1      45.670  27.582  30.540  1.00  0.00     0.029 A 
ATOM     54  N   UNL A   1      44.893  29.637  30.587  1.00  0.00    -0.354 N 
ATOM     55  N   UNL A   1      41.229  30.697  32.573  1.00  0.00    -0.248 NA
ATOM     56  C   UNL A   1      41.309  31.768  30.499  1.00  0.00     0.031 C 
ATOM     57  C   UNL A   1      45.076  27.836  31.809  1.00  0.00     0.029 A 
ATOM     58  C   UNL A   1      44.415  29.060  31.735  1.00  0.00     0.049 A 
ATOM     59  H   UNL A   1      44.938  30.603  30.405  1.00  0.00     0.167 HD
ATOM     60  C   UNL A   1      42.524  30.623  32.101  1.00  0.00     0.074 A 
ATOM     61  C   UNL A   1      42.541  31.465  30.910  1.00  0.00     0.031 C 
ATOM     62  C   UNL A   1      43.351  29.628  32.533  1.00  0.00     0.037 A 
BRANCH  49  63
ATOM     63  C   UNL A   1      45.307  30.014  27.538  1.00  0.00     0.064 A 
ATOM     64  C   UNL A   1      46.639  30.333  27.250  1.00  0.00     0.173 A 
ATOM     65  C   UNL A   1      44.350  31.019  27.257  1.00  0.00     0.173 A 
ATOM     66  F   UNL A   1      47.622  29.476  27.560  1.00  0.00    -0.203 F 
ATOM     67  C   UNL A   1      46.990  31.573  26.713  1.00  0.00     0.198 A 
ATOM     68  C   UNL A   1      44.694  32.225  26.659  1.00  0.00     0.198 A 
ATOM     69  F   UNL A   1      43.073  30.911  27.651  1.00  0.00    -0.203 F 
ATOM     70  F   UNL A   1      48.283  31.882  26.547  1.00  0.00    -0.200 F 
ATOM     71  C   UNL A   1      46.017  32.511  26.405  1.00  0.00     0.200 A 
ATOM     72  F   UNL A   1      43.739  33.130  26.401  1.00  0.00    -0.200 F 
ATOM     73  F   UNL A   1      46.359  33.711  25.918  1.00  0.00    -0.200 F 
ENDBRANCH  49  63
BRANCH  50  74
ATOM     74  C   UNL A   1      37.998  31.471  31.333  1.00  0.00     0.064 A 
ATOM     75  C   UNL A   1      37.373  31.680  32.575  1.00  0.00     0.173 A 
ATOM     76  C   UNL A   1      37.623  32.339  30.291  1.00  0.00     0.173 A 
ATOM     77  F   UNL A   1      37.680  30.908  33.627  1.00  0.00    -0.203 F 
ATOM     78  C   UNL A   1      36.478  32.735  32.780  1.00  0.00     0.198 A 
ATOM     79  C   UNL A   1      36.722  33.389  30.495  1.00  0.00     0.198 A 
ATOM     80  F   UNL A   1      38.197  32.249  29.082  1.00  0.00    -0.203 F 
ATOM     81  F   UNL A   1      35.970  32.950  34.001  1.00  0.00    -0.200 F 
ATOM     82  C   UNL A   1      36.169  33.600  31.746  1.00  0.00     0.200 A 
ATOM     83  F   UNL A   1      36.449  34.237  29.493  1.00  0.00    -0.200 F 
ATOM     84  F   UNL A   1      35.377  34.659  31.963  1.00  0.00    -0.200 F 
ENDBRANCH  50  74
BRANCH  62  85
ATOM     85  C   UNL A   1      42.980  28.912  33.806  1.00  0.00     0.064 A 
ATOM     86  C   UNL A   1      42.123  27.799  33.881  1.00  0.00     0.173 A 
ATOM     87  C   UNL A   1      43.613  29.313  34.991  1.00  0.00     0.173 A 
ATOM     88  F   UNL A   1      41.556  27.283  32.785  1.00  0.00    -0.203 F 
ATOM     89  C   UNL A   1      41.876  27.156  35.093  1.00  0.00     0.198 A 
ATOM     90  C   UNL A   1      43.398  28.641  36.192  1.00  0.00     0.198 A 
ATOM     91  F   UNL A   1      44.479  30.338  34.976  1.00  0.00    -0.203 F 
ATOM     92  F   UNL A   1      41.036  26.111  35.140  1.00  0.00    -0.200 F 
ATOM     93  C   UNL A   1      42.520  27.571  36.246  1.00  0.00     0.200 A 
ATOM     94  F   UNL A   1      44.063  29.017  37.293  1.00  0.00    -0.200 F 
ATOM     95  F   UNL A   1      42.320  26.922  37.401  1.00  0.00    -0.200 F 
ENDBRANCH  62  85
ENDBRANCH  36  37
ENDBRANCH  29  31
ENDBRANCH  28  29
ENDBRANCH  27  28
ENDBRANCH   1  27
TORSDOF 16
ENDMDL
MODEL 3
REMARK VINA RESULT:     -12.2      3.550      9.082
REMARK SMILES COc1ccc(-c2ncn(CC(=O)OCCOC(=O)c3ccc(-c4c5nc(c(-c6c(F)c(F)c(F)c(F)c6F)c6ccc([nH]6)c(-c6c(F)c(F)c(F)c(F)c6F)c6nc(c(-c7c(F)c(F)c(F)c(F)c7F)c7ccc4[nH]7)C=C6)C=C5)cc3)c2-c2ccc(OC)cc2)cc1
REMARK SMILES IDX 15 1 14 2 12 3 13 4 11 5 10 6 7 7 8 8 83 9 9 10 6 11 3 12
REMARK SMILES IDX 4 13 93 14 5 15 92 16 2 17 1 18 84 19 85 20 91 21 86 22
REMARK SMILES IDX 90 23 87 24 88 25 89 26 16 27 17 28 18 29 19 30 20 31 21 32
REMARK SMILES IDX 82 33 22 34 81 35 23 36 24 37 25 38 75 39 26 40 80 41 74 42
REMARK SMILES IDX 76 43 27 44 79 45 73 46 72 47 28 49 60 50 40 51 59 52 41 53
REMARK SMILES IDX 44 54 58 55 77 56 42 57 43 58 57 60 78 61 45 62 29 63 30 64
REMARK SMILES IDX 38 65 31 66 32 67 36 68 39 69 33 70 34 71 37 72 35 73 61 74
REMARK SMILES IDX 62 75 70 76 63 77 64 78 68 79 71 80 65 81 66 82 69 83 67 84
REMARK SMILES IDX 46 85 47 86 55 87 48 88 49 89 53 90 56 91 50 92 51 93 54 94
REMARK SMILES IDX 52 95
REMARK H PARENT 76 48 44 59
REMARK Flexibility Score: inf
ROOT
ATOM      1  C   UNL A   1      33.449  29.826  26.251  1.00  0.00     0.274 C 
ENDROOT
BRANCH   1   2
ATOM      2  O   UNL A   1      33.933  28.801  25.372  1.00  0.00    -0.461 OA
BRANCH   2   3
ATOM      3  C   UNL A   1      33.156  28.525  24.297  1.00  0.00     0.326 C 
ATOM      4  O   UNL A   1      32.379  29.327  23.788  1.00  0.00    -0.250 OA
BRANCH   3   5
ATOM      5  C   UNL A   1      33.456  27.178  23.704  1.00  0.00     0.246 C 
BRANCH   5   6
ATOM      6  N   UNL A   1      32.722  26.031  24.226  1.00  0.00    -0.319 N 
ATOM      7  C   UNL A   1      31.999  23.962  24.256  1.00  0.00     0.096 A 
ATOM      8  N   UNL A   1      30.889  24.759  24.194  1.00  0.00    -0.236 NA
ATOM      9  C   UNL A   1      33.159  24.729  24.360  1.00  0.00     0.076 A 
ATOM     10  C   UNL A   1      31.348  25.989  24.241  1.00  0.00     0.201 A 
BRANCH   7  11
ATOM     11  C   UNL A   1      31.981  22.509  24.128  1.00  0.00     0.003 A 
ATOM     12  C   UNL A   1      32.448  19.744  23.861  1.00  0.00     0.118 A 
ATOM     13  C   UNL A   1      32.250  20.305  25.121  1.00  0.00     0.047 A 
ATOM     14  C   UNL A   1      32.342  20.551  22.726  1.00  0.00     0.047 A 
ATOM     15  C   UNL A   1      32.008  21.675  25.256  1.00  0.00     0.014 A 
ATOM     16  C   UNL A   1      32.111  21.928  22.860  1.00  0.00     0.014 A 
BRANCH  12  17
ATOM     17  O   UNL A   1      32.694  18.399  23.847  1.00  0.00    -0.497 OA
ATOM     18  C   UNL A   1      32.465  17.752  22.600  1.00  0.00     0.278 C 
ENDBRANCH  12  17
ENDBRANCH   7  11
BRANCH   9  19
ATOM     19  C   UNL A   1      34.517  24.253  24.579  1.00  0.00     0.001 A 
ATOM     20  C   UNL A   1      34.926  23.920  25.876  1.00  0.00     0.014 A 
ATOM     21  C   UNL A   1      35.263  23.792  23.500  1.00  0.00     0.014 A 
ATOM     22  C   UNL A   1      36.063  23.146  26.099  1.00  0.00     0.047 A 
ATOM     23  C   UNL A   1      36.349  22.950  23.725  1.00  0.00     0.047 A 
ATOM     24  C   UNL A   1      36.773  22.652  25.022  1.00  0.00     0.118 A 
BRANCH  24  25
ATOM     25  O   UNL A   1      37.723  21.701  25.254  1.00  0.00    -0.497 OA
ATOM     26  C   UNL A   1      38.870  22.168  25.962  1.00  0.00     0.278 C 
ENDBRANCH  24  25
ENDBRANCH   9  19
ENDBRANCH   5   6
ENDBRANCH   3   5
ENDBRANCH   2   3
ENDBRANCH   1   2
BRANCH   1  27
ATOM     27  C   UNL A   1      34.333  29.887  27.492  1.00  0.00     0.275 C 
BRANCH  27  28
ATOM     28  O   UNL A   1      35.769  29.852  27.315  1.00  0.00    -0.458 OA
BRANCH  28  29
ATOM     29  C   UNL A   1      36.600  30.687  27.982  1.00  0.00     0.338 C 
ATOM     30  O   UNL A   1      36.446  31.883  28.162  1.00  0.00    -0.246 OA
BRANCH  29  31
ATOM     31  C   UNL A   1      37.814  29.934  28.397  1.00  0.00     0.060 A 
ATOM     32  C   UNL A   1      38.997  30.616  28.719  1.00  0.00     0.016 A 
ATOM     33  C   UNL A   1      37.825  28.542  28.326  1.00  0.00     0.016 A 
ATOM     34  C   UNL A   1      40.212  29.916  28.800  1.00  0.00     0.010 A 
ATOM     35  C   UNL A   1      39.031  27.860  28.377  1.00  0.00     0.010 A 
ATOM     36  C   UNL A   1      40.243  28.543  28.524  1.00  0.00    -0.014 A 
BRANCH  36  37
ATOM     37  C   UNL A   1      41.467  27.733  28.668  1.00  0.00     0.031 A 
ATOM     38  C   UNL A   1      42.081  27.901  30.002  1.00  0.00     0.074 A 
ATOM     39  C   UNL A   1      41.901  26.731  27.858  1.00  0.00     0.049 A 
ATOM     40  N   UNL A   1      43.302  28.251  30.233  1.00  0.00    -0.248 NA
ATOM     41  C   UNL A   1      41.241  27.794  31.208  1.00  0.00     0.031 C 
ATOM     42  C   UNL A   1      41.402  26.344  26.553  1.00  0.00     0.029 A 
ATOM     43  N   UNL A   1      42.813  25.728  28.091  1.00  0.00    -0.354 N 
ATOM     44  C   UNL A   1      43.438  28.177  31.607  1.00  0.00     0.074 A 
ATOM     45  C   UNL A   1      42.115  28.102  32.164  1.00  0.00     0.031 C 
ATOM     46  C   UNL A   1      41.716  25.071  26.256  1.00  0.00     0.029 A 
ATOM     47  C   UNL A   1      42.639  24.612  27.262  1.00  0.00     0.049 A 
ATOM     48  H   UNL A   1      43.520  25.790  28.772  1.00  0.00     0.167 HD
ATOM     49  C   UNL A   1      44.627  27.829  32.156  1.00  0.00     0.037 A 
ATOM     50  C   UNL A   1      43.233  23.395  27.302  1.00  0.00     0.037 A 
ATOM     51  C   UNL A   1      45.728  28.029  31.252  1.00  0.00     0.049 A 
ATOM     52  C   UNL A   1      44.505  23.574  28.016  1.00  0.00     0.074 A 
ATOM     53  C   UNL A   1      46.184  29.099  30.505  1.00  0.00     0.029 A 
ATOM     54  N   UNL A   1      46.337  26.918  30.729  1.00  0.00    -0.354 N 
ATOM     55  N   UNL A   1      45.535  24.186  27.506  1.00  0.00    -0.248 NA
ATOM     56  C   UNL A   1      44.534  23.379  29.455  1.00  0.00     0.031 C 
ATOM     57  C   UNL A   1      46.715  28.535  29.310  1.00  0.00     0.029 A 
ATOM     58  C   UNL A   1      46.604  27.149  29.404  1.00  0.00     0.049 A 
ATOM     59  H   UNL A   1      46.547  26.092  31.221  1.00  0.00     0.167 HD
ATOM     60  C   UNL A   1      46.066  24.874  28.578  1.00  0.00     0.074 A 
ATOM     61  C   UNL A   1      45.543  24.196  29.758  1.00  0.00     0.031 C 
ATOM     62  C   UNL A   1      46.601  26.115  28.394  1.00  0.00     0.037 A 
BRANCH  49  63
ATOM     63  C   UNL A   1      44.689  26.928  33.354  1.00  0.00     0.064 A 
ATOM     64  C   UNL A   1      44.197  25.621  33.268  1.00  0.00     0.173 A 
ATOM     65  C   UNL A   1      44.990  27.398  34.655  1.00  0.00     0.173 A 
ATOM     66  F   UNL A   1      43.807  25.121  32.087  1.00  0.00    -0.203 F 
ATOM     67  C   UNL A   1      44.025  24.833  34.408  1.00  0.00     0.198 A 
ATOM     68  C   UNL A   1      44.883  26.588  35.780  1.00  0.00     0.198 A 
ATOM     69  F   UNL A   1      45.293  28.682  34.893  1.00  0.00    -0.203 F 
ATOM     70  F   UNL A   1      43.457  23.625  34.299  1.00  0.00    -0.200 F 
ATOM     71  C   UNL A   1      44.381  25.311  35.659  1.00  0.00     0.200 A 
ATOM     72  F   UNL A   1      45.202  27.084  36.983  1.00  0.00    -0.200 F 
ATOM     73  F   UNL A   1      44.186  24.565  36.754  1.00  0.00    -0.200 F 
ENDBRANCH  49  63
BRANCH  50  74
ATOM     74  C   UNL A   1      42.772  22.070  26.823  1.00  0.00     0.064 A 
ATOM     75  C   UNL A   1      43.447  21.403  25.785  1.00  0.00     0.173 A 
ATOM     76  C   UNL A   1      41.854  21.304  27.564  1.00  0.00     0.173 A 
ATOM     77  F   UNL A   1      44.350  22.052  25.037  1.00  0.00    -0.203 F 
ATOM     78  C   UNL A   1      43.265  20.037  25.548  1.00  0.00     0.198 A 
ATOM     79  C   UNL A   1      41.666  19.940  27.321  1.00  0.00     0.198 A 
ATOM     80  F   UNL A   1      41.194  21.838  28.603  1.00  0.00    -0.203 F 
ATOM     81  F   UNL A   1      43.991  19.422  24.605  1.00  0.00    -0.200 F 
ATOM     82  C   UNL A   1      42.389  19.303  26.329  1.00  0.00     0.200 A 
ATOM     83  F   UNL A   1      40.835  19.233  28.099  1.00  0.00    -0.200 F 
ATOM     84  F   UNL A   1      42.276  17.978  26.156  1.00  0.00    -0.200 F 
ENDBRANCH  50  74
BRANCH  62  85
ATOM     85  C   UNL A   1      46.981  26.514  26.991  1.00  0.00     0.064 A 
ATOM     86  C   UNL A   1      46.129  27.170  26.085  1.00  0.00     0.173 A 
ATOM     87  C   UNL A   1      48.309  26.312  26.590  1.00  0.00     0.173 A 
ATOM     88  F   UNL A   1      44.876  27.495  26.419  1.00  0.00    -0.203 F 
ATOM     89  C   UNL A   1      46.576  27.557  24.822  1.00  0.00     0.198 A 
ATOM     90  C   UNL A   1      48.764  26.740  25.345  1.00  0.00     0.198 A 
ATOM     91  F   UNL A   1      49.184  25.735  27.428  1.00  0.00    -0.203 F 
ATOM     92  F   UNL A   1      45.737  28.162  23.968  1.00  0.00    -0.200 F 
ATOM     93  C   UNL A   1      47.895  27.351  24.456  1.00  0.00     0.200 A 
ATOM     94  F   UNL A   1      50.054  26.582  25.018  1.00  0.00    -0.200 F 
ATOM     95  F   UNL A   1      48.337  27.767  23.262  1.00  0.00    -0.200 F 
ENDBRANCH  62  85
ENDBRANCH  36  37
ENDBRANCH  29  31
ENDBRANCH  28  29
ENDBRANCH  27  28
ENDBRANCH   1  27
TORSDOF 16
ENDMDL
