MODEL 1
REMARK VINA RESULT:     -12.2      0.000      0.000
REMARK SMILES C[C@@H]1[C@@H](C(=O)OCCOC(=O)c2ccc(-c3c4nc(c(-c5c(F)c(F)c(F)c(F)c5F)c5ccc([nH]5)c(-c5c(F)c(F)c(F)c(F)c5F)c5nc(c(-c6c(F)c(F)c(F)c(F)c6F)c6ccc3[nH]6)C=C5)C=C4)cc2)CC[N@H+]1[C@H]1CC[C@@H](C(F)(F)F)CC1
REMARK SMILES IDX 7 1 6 2 4 3 5 4 3 5 1 6 2 7 77 8 75 9 76 10 78 12 79 13
REMARK SMILES IDX 87 14 80 15 86 16 81 17 82 18 83 19 84 20 85 21 8 22 9 23
REMARK SMILES IDX 10 24 11 25 12 26 13 27 74 28 14 29 73 30 15 31 16 32 17 33
REMARK SMILES IDX 67 34 18 35 72 36 66 37 68 38 19 39 71 40 65 41 64 42 20 44
REMARK SMILES IDX 52 45 32 46 51 47 33 48 36 49 50 50 69 51 34 52 35 53 49 55
REMARK SMILES IDX 70 56 37 57 21 58 22 59 30 60 23 61 24 62 28 63 31 64 25 65
REMARK SMILES IDX 26 66 29 67 27 68 53 69 54 70 62 71 55 72 56 73 60 74 63 75
REMARK SMILES IDX 57 76 58 77 61 78 59 79 38 80 39 81 47 82 40 83 41 84 45 85
REMARK SMILES IDX 48 86 42 87 43 88 46 89 44 90
REMARK H PARENT 77 11 68 43 36 54
REMARK Flexibility Score: inf
ROOT
ATOM      1  C   UNL A   1      31.166  29.603  24.231  1.00  0.00     0.274 C 
ENDROOT
BRANCH   1   2
ATOM      2  O   UNL A   1      31.824  28.396  23.796  1.00  0.00    -0.462 OA
BRANCH   2   3
ATOM      3  C   UNL A   1      31.050  27.459  23.178  1.00  0.00     0.315 C 
ATOM      4  O   UNL A   1      30.713  27.490  22.003  1.00  0.00    -0.252 OA
BRANCH   3   5
ATOM      5  C   UNL A   1      30.677  26.372  24.169  1.00  0.00     0.162 C 
ATOM      6  C   UNL A   1      31.022  26.372  26.657  1.00  0.00     0.076 C 
ATOM      7  C   UNL A   1      31.717  26.215  25.300  1.00  0.00     0.195 C 
ATOM      8  N   UNL A   1      32.212  24.853  25.143  1.00  0.00    -0.330 N 
ATOM      9  C   UNL A   1      30.627  25.011  23.489  1.00  0.00     0.083 C 
ATOM     10  C   UNL A   1      31.989  24.404  23.782  1.00  0.00     0.263 C 
ATOM     11  H   UNL A   1      31.627  24.334  25.798  1.00  0.00     0.348 HD
BRANCH   8  12
ATOM     12  C   UNL A   1      33.388  24.348  25.840  1.00  0.00     0.184 C 
ATOM     13  C   UNL A   1      33.351  22.894  26.361  1.00  0.00     0.066 C 
ATOM     14  C   UNL A   1      34.548  24.581  24.858  1.00  0.00     0.066 C 
ATOM     15  C   UNL A   1      34.723  22.396  26.834  1.00  0.00     0.019 C 
ATOM     16  C   UNL A   1      35.886  24.076  25.376  1.00  0.00     0.019 C 
ATOM     17  C   UNL A   1      35.849  22.609  25.810  1.00  0.00     0.095 C 
BRANCH  17  18
ATOM     18  C   UNL A   1      35.766  21.643  24.628  1.00  0.00     0.391 C 
ATOM     19  F   UNL A   1      36.451  22.123  23.566  1.00  0.00    -0.171 F 
ATOM     20  F   UNL A   1      36.315  20.450  24.952  1.00  0.00    -0.171 F 
ATOM     21  F   UNL A   1      34.504  21.408  24.225  1.00  0.00    -0.171 F 
ENDBRANCH  17  18
ENDBRANCH   8  12
ENDBRANCH   3   5
ENDBRANCH   2   3
ENDBRANCH   1   2
BRANCH   1  22
ATOM     22  C   UNL A   1      31.465  29.864  25.707  1.00  0.00     0.275 C 
BRANCH  22  23
ATOM     23  O   UNL A   1      32.848  30.234  25.873  1.00  0.00    -0.458 OA
BRANCH  23  24
ATOM     24  C   UNL A   1      33.102  31.170  26.812  1.00  0.00     0.338 C 
ATOM     25  O   UNL A   1      32.360  32.056  27.211  1.00  0.00    -0.246 OA
BRANCH  24  26
ATOM     26  C   UNL A   1      34.422  30.916  27.402  1.00  0.00     0.060 A 
ATOM     27  C   UNL A   1      34.739  29.607  27.753  1.00  0.00     0.016 A 
ATOM     28  C   UNL A   1      35.288  31.958  27.724  1.00  0.00     0.016 A 
ATOM     29  C   UNL A   1      35.896  29.325  28.473  1.00  0.00     0.010 A 
ATOM     30  C   UNL A   1      36.483  31.669  28.398  1.00  0.00     0.010 A 
ATOM     31  C   UNL A   1      36.787  30.353  28.802  1.00  0.00    -0.014 A 
BRANCH  31  32
ATOM     32  C   UNL A   1      38.000  30.067  29.617  1.00  0.00     0.031 A 
ATOM     33  C   UNL A   1      39.090  29.195  29.057  1.00  0.00     0.074 A 
ATOM     34  C   UNL A   1      38.149  30.600  30.846  1.00  0.00     0.049 A 
ATOM     35  N   UNL A   1      40.128  28.669  29.659  1.00  0.00    -0.248 NA
ATOM     36  C   UNL A   1      38.998  28.868  27.626  1.00  0.00     0.031 C 
ATOM     37  C   UNL A   1      37.216  31.525  31.489  1.00  0.00     0.029 A 
ATOM     38  N   UNL A   1      39.150  30.438  31.773  1.00  0.00    -0.354 N 
ATOM     39  C   UNL A   1      40.783  27.914  28.696  1.00  0.00     0.074 A 
ATOM     40  C   UNL A   1      40.028  28.048  27.468  1.00  0.00     0.031 C 
ATOM     41  C   UNL A   1      37.698  31.864  32.696  1.00  0.00     0.029 A 
ATOM     42  C   UNL A   1      38.932  31.124  32.943  1.00  0.00     0.049 A 
ATOM     43  H   UNL A   1      39.949  29.884  31.614  1.00  0.00     0.167 HD
ATOM     44  C   UNL A   1      41.912  27.176  28.824  1.00  0.00     0.037 A 
ATOM     45  C   UNL A   1      39.621  31.123  34.101  1.00  0.00     0.037 A 
ATOM     46  C   UNL A   1      42.693  27.081  30.030  1.00  0.00     0.049 A 
ATOM     47  C   UNL A   1      40.838  30.249  34.238  1.00  0.00     0.074 A 
ATOM     48  C   UNL A   1      43.843  26.345  30.260  1.00  0.00     0.029 A 
ATOM     49  N   UNL A   1      42.414  27.761  31.206  1.00  0.00    -0.354 N 
ATOM     50  N   UNL A   1      41.405  29.472  33.349  1.00  0.00    -0.248 NA
ATOM     51  C   UNL A   1      41.498  30.234  35.552  1.00  0.00     0.031 C 
ATOM     52  C   UNL A   1      44.246  26.559  31.584  1.00  0.00     0.029 A 
ATOM     53  C   UNL A   1      43.366  27.457  32.166  1.00  0.00     0.049 A 
ATOM     54  H   UNL A   1      41.652  28.371  31.338  1.00  0.00     0.167 HD
ATOM     55  C   UNL A   1      42.494  28.892  33.986  1.00  0.00     0.074 A 
ATOM     56  C   UNL A   1      42.518  29.417  35.335  1.00  0.00     0.031 C 
ATOM     57  C   UNL A   1      43.387  27.997  33.500  1.00  0.00     0.037 A 
BRANCH  44  58
ATOM     58  C   UNL A   1      42.357  26.379  27.635  1.00  0.00     0.064 A 
ATOM     59  C   UNL A   1      43.332  26.856  26.747  1.00  0.00     0.173 A 
ATOM     60  C   UNL A   1      41.826  25.100  27.406  1.00  0.00     0.173 A 
ATOM     61  F   UNL A   1      43.859  28.078  26.916  1.00  0.00    -0.203 F 
ATOM     62  C   UNL A   1      43.744  26.088  25.660  1.00  0.00     0.198 A 
ATOM     63  C   UNL A   1      42.259  24.326  26.333  1.00  0.00     0.198 A 
ATOM     64  F   UNL A   1      40.895  24.597  28.229  1.00  0.00    -0.203 F 
ATOM     65  F   UNL A   1      44.649  26.579  24.801  1.00  0.00    -0.200 F 
ATOM     66  C   UNL A   1      43.213  24.824  25.458  1.00  0.00     0.200 A 
ATOM     67  F   UNL A   1      41.753  23.100  26.146  1.00  0.00    -0.200 F 
ATOM     68  F   UNL A   1      43.615  24.084  24.415  1.00  0.00    -0.200 F 
ENDBRANCH  44  58
BRANCH  45  69
ATOM     69  C   UNL A   1      39.153  31.945  35.246  1.00  0.00     0.064 A 
ATOM     70  C   UNL A   1      38.388  31.378  36.275  1.00  0.00     0.173 A 
ATOM     71  C   UNL A   1      39.440  33.316  35.326  1.00  0.00     0.173 A 
ATOM     72  F   UNL A   1      38.061  30.078  36.228  1.00  0.00    -0.203 F 
ATOM     73  C   UNL A   1      37.918  32.154  37.333  1.00  0.00     0.198 A 
ATOM     74  C   UNL A   1      38.994  34.084  36.398  1.00  0.00     0.198 A 
ATOM     75  F   UNL A   1      40.162  33.907  34.363  1.00  0.00    -0.203 F 
ATOM     76  F   UNL A   1      37.151  31.597  38.280  1.00  0.00    -0.200 F 
ATOM     77  C   UNL A   1      38.227  33.504  37.397  1.00  0.00     0.200 A 
ATOM     78  F   UNL A   1      39.303  35.387  36.461  1.00  0.00    -0.200 F 
ATOM     79  F   UNL A   1      37.776  34.249  38.416  1.00  0.00    -0.200 F 
ENDBRANCH  45  69
BRANCH  57  80
ATOM     80  C   UNL A   1      44.488  27.557  34.417  1.00  0.00     0.064 A 
ATOM     81  C   UNL A   1      44.362  26.413  35.217  1.00  0.00     0.173 A 
ATOM     82  C   UNL A   1      45.695  28.270  34.471  1.00  0.00     0.173 A 
ATOM     83  F   UNL A   1      43.219  25.708  35.213  1.00  0.00    -0.203 F 
ATOM     84  C   UNL A   1      45.399  26.007  36.052  1.00  0.00     0.198 A 
ATOM     85  C   UNL A   1      46.738  27.848  35.290  1.00  0.00     0.198 A 
ATOM     86  F   UNL A   1      45.865  29.369  33.721  1.00  0.00    -0.203 F 
ATOM     87  F   UNL A   1      45.243  24.932  36.839  1.00  0.00    -0.200 F 
ATOM     88  C   UNL A   1      46.588  26.722  36.084  1.00  0.00     0.200 A 
ATOM     89  F   UNL A   1      47.889  28.534  35.313  1.00  0.00    -0.200 F 
ATOM     90  F   UNL A   1      47.586  26.328  36.887  1.00  0.00    -0.200 F 
ENDBRANCH  57  80
ENDBRANCH  31  32
ENDBRANCH  24  26
ENDBRANCH  23  24
ENDBRANCH  22  23
ENDBRANCH   1  22
TORSDOF 13
ENDMDL
MODEL 2
REMARK VINA RESULT:     -12.1      0.777      2.195
REMARK SMILES C[C@@H]1[C@@H](C(=O)OCCOC(=O)c2ccc(-c3c4nc(c(-c5c(F)c(F)c(F)c(F)c5F)c5ccc([nH]5)c(-c5c(F)c(F)c(F)c(F)c5F)c5nc(c(-c6c(F)c(F)c(F)c(F)c6F)c6ccc3[nH]6)C=C5)C=C4)cc2)CC[N@H+]1[C@H]1CC[C@@H](C(F)(F)F)CC1
REMARK SMILES IDX 7 1 6 2 4 3 5 4 3 5 1 6 2 7 77 8 75 9 76 10 78 12 79 13
REMARK SMILES IDX 87 14 80 15 86 16 81 17 82 18 83 19 84 20 85 21 8 22 9 23
REMARK SMILES IDX 10 24 11 25 12 26 13 27 74 28 14 29 73 30 15 31 16 32 17 33
REMARK SMILES IDX 67 34 18 35 72 36 66 37 68 38 19 39 71 40 65 41 64 42 20 44
REMARK SMILES IDX 52 45 32 46 51 47 33 48 36 49 50 50 69 51 34 52 35 53 49 55
REMARK SMILES IDX 70 56 37 57 21 58 22 59 30 60 23 61 24 62 28 63 31 64 25 65
REMARK SMILES IDX 26 66 29 67 27 68 53 69 54 70 62 71 55 72 56 73 60 74 63 75
REMARK SMILES IDX 57 76 58 77 61 78 59 79 38 80 39 81 47 82 40 83 41 84 45 85
REMARK SMILES IDX 48 86 42 87 43 88 46 89 44 90
REMARK H PARENT 77 11 68 43 36 54
REMARK Flexibility Score: inf
ROOT
ATOM      1  C   UNL A   1      31.326  29.382  24.550  1.00  0.00     0.274 C 
ENDROOT
BRANCH   1   2
ATOM      2  O   UNL A   1      31.064  27.981  24.329  1.00  0.00    -0.462 OA
BRANCH   2   3
ATOM      3  C   UNL A   1      30.698  27.612  23.068  1.00  0.00     0.315 C 
ATOM      4  O   UNL A   1      30.189  28.351  22.239  1.00  0.00    -0.252 OA
BRANCH   3   5
ATOM      5  C   UNL A   1      31.026  26.146  22.853  1.00  0.00     0.162 C 
ATOM      6  C   UNL A   1      31.305  24.358  24.595  1.00  0.00     0.076 C 
ATOM      7  C   UNL A   1      31.963  25.578  23.941  1.00  0.00     0.195 C 
ATOM      8  N   UNL A   1      33.158  25.176  23.210  1.00  0.00    -0.330 N 
ATOM      9  C   UNL A   1      31.777  25.944  21.544  1.00  0.00     0.083 C 
ATOM     10  C   UNL A   1      33.239  25.908  21.961  1.00  0.00     0.263 C 
ATOM     11  H   UNL A   1      32.984  24.185  23.041  1.00  0.00     0.348 HD
BRANCH   8  12
ATOM     12  C   UNL A   1      34.408  24.812  23.866  1.00  0.00     0.184 C 
ATOM     13  C   UNL A   1      34.390  24.621  25.400  1.00  0.00     0.066 C 
ATOM     14  C   UNL A   1      34.874  23.545  23.131  1.00  0.00     0.066 C 
ATOM     15  C   UNL A   1      35.681  23.988  25.936  1.00  0.00     0.019 C 
ATOM     16  C   UNL A   1      36.159  22.960  23.696  1.00  0.00     0.019 C 
ATOM     17  C   UNL A   1      36.094  22.701  25.203  1.00  0.00     0.095 C 
BRANCH  17  18
ATOM     18  C   UNL A   1      35.210  21.506  25.561  1.00  0.00     0.391 C 
ATOM     19  F   UNL A   1      35.875  20.343  25.372  1.00  0.00    -0.171 F 
ATOM     20  F   UNL A   1      34.853  21.555  26.864  1.00  0.00    -0.171 F 
ATOM     21  F   UNL A   1      34.078  21.449  24.834  1.00  0.00    -0.171 F 
ENDBRANCH  17  18
ENDBRANCH   8  12
ENDBRANCH   3   5
ENDBRANCH   2   3
ENDBRANCH   1   2
BRANCH   1  22
ATOM     22  C   UNL A   1      31.787  29.612  25.988  1.00  0.00     0.275 C 
BRANCH  22  23
ATOM     23  O   UNL A   1      33.115  30.171  25.998  1.00  0.00    -0.458 OA
BRANCH  23  24
ATOM     24  C   UNL A   1      33.346  31.134  26.914  1.00  0.00     0.338 C 
ATOM     25  O   UNL A   1      32.592  32.029  27.271  1.00  0.00    -0.246 OA
BRANCH  24  26
ATOM     26  C   UNL A   1      34.653  30.904  27.540  1.00  0.00     0.060 A 
ATOM     27  C   UNL A   1      35.007  29.592  27.846  1.00  0.00     0.016 A 
ATOM     28  C   UNL A   1      35.468  31.960  27.937  1.00  0.00     0.016 A 
ATOM     29  C   UNL A   1      36.148  29.321  28.596  1.00  0.00     0.010 A 
ATOM     30  C   UNL A   1      36.649  31.686  28.640  1.00  0.00     0.010 A 
ATOM     31  C   UNL A   1      36.989  30.366  28.999  1.00  0.00    -0.014 A 
BRANCH  31  32
ATOM     32  C   UNL A   1      38.182  30.088  29.844  1.00  0.00     0.031 A 
ATOM     33  C   UNL A   1      39.299  29.237  29.307  1.00  0.00     0.074 A 
ATOM     34  C   UNL A   1      38.291  30.612  31.081  1.00  0.00     0.049 A 
ATOM     35  N   UNL A   1      40.328  28.719  29.932  1.00  0.00    -0.248 NA
ATOM     36  C   UNL A   1      39.251  28.921  27.871  1.00  0.00     0.031 C 
ATOM     37  C   UNL A   1      37.328  31.518  31.707  1.00  0.00     0.029 A 
ATOM     38  N   UNL A   1      39.268  30.455  32.034  1.00  0.00    -0.354 N 
ATOM     39  C   UNL A   1      41.019  27.982  28.981  1.00  0.00     0.074 A 
ATOM     40  C   UNL A   1      40.296  28.117  27.733  1.00  0.00     0.031 C 
ATOM     41  C   UNL A   1      37.772  31.853  32.930  1.00  0.00     0.029 A 
ATOM     42  C   UNL A   1      39.009  31.127  33.204  1.00  0.00     0.049 A 
ATOM     43  H   UNL A   1      40.079  29.914  31.892  1.00  0.00     0.167 HD
ATOM     44  C   UNL A   1      42.155  27.258  29.133  1.00  0.00     0.037 A 
ATOM     45  C   UNL A   1      39.666  31.125  34.380  1.00  0.00     0.037 A 
ATOM     46  C   UNL A   1      42.903  27.163  30.358  1.00  0.00     0.049 A 
ATOM     47  C   UNL A   1      40.892  30.266  34.542  1.00  0.00     0.074 A 
ATOM     48  C   UNL A   1      44.057  26.440  30.613  1.00  0.00     0.029 A 
ATOM     49  N   UNL A   1      42.583  27.828  31.532  1.00  0.00    -0.354 N 
ATOM     50  N   UNL A   1      41.493  29.505  33.662  1.00  0.00    -0.248 NA
ATOM     51  C   UNL A   1      41.515  30.247  35.874  1.00  0.00     0.031 C 
ATOM     52  C   UNL A   1      44.421  26.648  31.949  1.00  0.00     0.029 A 
ATOM     53  C   UNL A   1      43.513  27.528  32.515  1.00  0.00     0.049 A 
ATOM     54  H   UNL A   1      41.810  28.426  31.649  1.00  0.00     0.167 HD
ATOM     55  C   UNL A   1      42.572  28.934  34.324  1.00  0.00     0.074 A 
ATOM     56  C   UNL A   1      42.553  29.447  35.677  1.00  0.00     0.031 C 
ATOM     57  C   UNL A   1      43.490  28.055  33.853  1.00  0.00     0.037 A 
BRANCH  44  58
ATOM     58  C   UNL A   1      42.643  26.478  27.949  1.00  0.00     0.064 A 
ATOM     59  C   UNL A   1      42.202  25.172  27.691  1.00  0.00     0.173 A 
ATOM     60  C   UNL A   1      43.535  27.065  27.039  1.00  0.00     0.173 A 
ATOM     61  F   UNL A   1      41.361  24.563  28.539  1.00  0.00    -0.203 F 
ATOM     62  C   UNL A   1      42.655  24.474  26.573  1.00  0.00     0.198 A 
ATOM     63  C   UNL A   1      43.966  26.373  25.910  1.00  0.00     0.198 A 
ATOM     64  F   UNL A   1      43.982  28.314  27.239  1.00  0.00    -0.203 F 
ATOM     65  F   UNL A   1      42.252  23.213  26.365  1.00  0.00    -0.200 F 
ATOM     66  C   UNL A   1      43.530  25.077  25.682  1.00  0.00     0.200 A 
ATOM     67  F   UNL A   1      44.802  26.961  25.044  1.00  0.00    -0.200 F 
ATOM     68  F   UNL A   1      43.959  24.406  24.603  1.00  0.00    -0.200 F 
ENDBRANCH  44  58
BRANCH  45  69
ATOM     69  C   UNL A   1      39.156  31.929  35.520  1.00  0.00     0.064 A 
ATOM     70  C   UNL A   1      39.519  33.275  35.671  1.00  0.00     0.173 A 
ATOM     71  C   UNL A   1      38.316  31.366  36.492  1.00  0.00     0.173 A 
ATOM     72  F   UNL A   1      40.345  33.850  34.785  1.00  0.00    -0.203 F 
ATOM     73  C   UNL A   1      39.071  34.022  36.758  1.00  0.00     0.198 A 
ATOM     74  C   UNL A   1      37.846  32.122  37.562  1.00  0.00     0.198 A 
ATOM     75  F   UNL A   1      37.947  30.080  36.396  1.00  0.00    -0.203 F 
ATOM     76  F   UNL A   1      39.468  35.294  36.904  1.00  0.00    -0.200 F 
ATOM     77  C   UNL A   1      38.229  33.448  37.699  1.00  0.00     0.200 A 
ATOM     78  F   UNL A   1      37.026  31.565  38.464  1.00  0.00    -0.200 F 
ATOM     79  F   UNL A   1      37.797  34.167  38.743  1.00  0.00    -0.200 F 
ENDBRANCH  45  69
BRANCH  57  80
ATOM     80  C   UNL A   1      44.572  27.622  34.797  1.00  0.00     0.064 A 
ATOM     81  C   UNL A   1      45.762  28.349  34.931  1.00  0.00     0.173 A 
ATOM     82  C   UNL A   1      44.399  26.485  35.600  1.00  0.00     0.173 A 
ATOM     83  F   UNL A   1      45.980  29.434  34.172  1.00  0.00    -0.203 F 
ATOM     84  C   UNL A   1      46.751  27.943  35.823  1.00  0.00     0.198 A 
ATOM     85  C   UNL A   1      45.380  26.095  36.507  1.00  0.00     0.198 A 
ATOM     86  F   UNL A   1      43.275  25.757  35.511  1.00  0.00    -0.203 F 
ATOM     87  F   UNL A   1      47.899  28.631  35.907  1.00  0.00    -0.200 F 
ATOM     88  C   UNL A   1      46.557  26.820  36.614  1.00  0.00     0.200 A 
ATOM     89  F   UNL A   1      45.187  25.015  37.278  1.00  0.00    -0.200 F 
ATOM     90  F   UNL A   1      47.509  26.433  37.475  1.00  0.00    -0.200 F 
ENDBRANCH  57  80
ENDBRANCH  31  32
ENDBRANCH  24  26
ENDBRANCH  23  24
ENDBRANCH  22  23
ENDBRANCH   1  22
TORSDOF 13
ENDMDL
MODEL 3
REMARK VINA RESULT:     -12.1      4.670      9.648
REMARK SMILES C[C@@H]1[C@@H](C(=O)OCCOC(=O)c2ccc(-c3c4nc(c(-c5c(F)c(F)c(F)c(F)c5F)c5ccc([nH]5)c(-c5c(F)c(F)c(F)c(F)c5F)c5nc(c(-c6c(F)c(F)c(F)c(F)c6F)c6ccc3[nH]6)C=C5)C=C4)cc2)CC[N@H+]1[C@H]1CC[C@@H](C(F)(F)F)CC1
REMARK SMILES IDX 7 1 6 2 4 3 5 4 3 5 1 6 2 7 77 8 75 9 76 10 78 12 79 13
REMARK SMILES IDX 87 14 80 15 86 16 81 17 82 18 83 19 84 20 85 21 8 22 9 23
REMARK SMILES IDX 10 24 11 25 12 26 13 27 74 28 14 29 73 30 15 31 16 32 17 33
REMARK SMILES IDX 67 34 18 35 72 36 66 37 68 38 19 39 71 40 65 41 64 42 20 44
REMARK SMILES IDX 52 45 32 46 51 47 33 48 36 49 50 50 69 51 34 52 35 53 49 55
REMARK SMILES IDX 70 56 37 57 21 58 22 59 30 60 23 61 24 62 28 63 31 64 25 65
REMARK SMILES IDX 26 66 29 67 27 68 53 69 54 70 62 71 55 72 56 73 60 74 63 75
REMARK SMILES IDX 57 76 58 77 61 78 59 79 38 80 39 81 47 82 40 83 41 84 45 85
REMARK SMILES IDX 48 86 42 87 43 88 46 89 44 90
REMARK H PARENT 77 11 68 43 36 54
REMARK Flexibility Score: inf
ROOT
ATOM      1  C   UNL A   1      35.235  20.414  25.067  1.00  0.00     0.274 C 
ENDROOT
BRANCH   1   2
ATOM      2  O   UNL A   1      34.076  21.252  24.883  1.00  0.00    -0.462 OA
BRANCH   2   3
ATOM      3  C   UNL A   1      33.381  21.599  26.004  1.00  0.00     0.315 C 
ATOM      4  O   UNL A   1      33.758  21.414  27.151  1.00  0.00    -0.252 OA
BRANCH   3   5
ATOM      5  C   UNL A   1      32.072  22.255  25.606  1.00  0.00     0.162 C 
ATOM      6  C   UNL A   1      31.428  23.170  23.357  1.00  0.00     0.076 C 
ATOM      7  C   UNL A   1      32.266  23.423  24.614  1.00  0.00     0.195 C 
ATOM      8  N   UNL A   1      31.762  24.588  25.330  1.00  0.00    -0.330 N 
ATOM      9  C   UNL A   1      31.386  22.877  26.815  1.00  0.00     0.083 C 
ATOM     10  C   UNL A   1      31.798  24.339  26.759  1.00  0.00     0.263 C 
ATOM     11  H   UNL A   1      30.800  24.648  24.995  1.00  0.00     0.348 HD
BRANCH   8  12
ATOM     12  C   UNL A   1      31.974  25.956  24.874  1.00  0.00     0.184 C 
ATOM     13  C   UNL A   1      30.811  26.961  25.038  1.00  0.00     0.066 C 
ATOM     14  C   UNL A   1      33.243  26.416  25.610  1.00  0.00     0.066 C 
ATOM     15  C   UNL A   1      31.236  28.411  24.773  1.00  0.00     0.019 C 
ATOM     16  C   UNL A   1      33.625  27.857  25.310  1.00  0.00     0.019 C 
ATOM     17  C   UNL A   1      32.484  28.847  25.557  1.00  0.00     0.095 C 
BRANCH  17  18
ATOM     18  C   UNL A   1      32.204  29.068  27.043  1.00  0.00     0.391 C 
ATOM     19  F   UNL A   1      33.333  28.921  27.773  1.00  0.00    -0.171 F 
ATOM     20  F   UNL A   1      31.750  30.324  27.257  1.00  0.00    -0.171 F 
ATOM     21  F   UNL A   1      31.286  28.218  27.540  1.00  0.00    -0.171 F 
ENDBRANCH  17  18
ENDBRANCH   8  12
ENDBRANCH   3   5
ENDBRANCH   2   3
ENDBRANCH   1   2
BRANCH   1  22
ATOM     22  C   UNL A   1      36.494  21.145  24.601  1.00  0.00     0.275 C 
BRANCH  22  23
ATOM     23  O   UNL A   1      37.128  21.798  25.718  1.00  0.00    -0.458 OA
BRANCH  23  24
ATOM     24  C   UNL A   1      38.421  21.477  25.934  1.00  0.00     0.338 C 
ATOM     25  O   UNL A   1      39.002  20.444  25.630  1.00  0.00    -0.246 OA
BRANCH  24  26
ATOM     26  C   UNL A   1      39.112  22.628  26.527  1.00  0.00     0.060 A 
ATOM     27  C   UNL A   1      38.659  23.902  26.195  1.00  0.00     0.016 A 
ATOM     28  C   UNL A   1      40.263  22.471  27.295  1.00  0.00     0.016 A 
ATOM     29  C   UNL A   1      39.374  25.033  26.580  1.00  0.00     0.010 A 
ATOM     30  C   UNL A   1      40.952  23.611  27.734  1.00  0.00     0.010 A 
ATOM     31  C   UNL A   1      40.529  24.902  27.360  1.00  0.00    -0.014 A 
BRANCH  31  32
ATOM     32  C   UNL A   1      41.327  26.103  27.730  1.00  0.00     0.031 A 
ATOM     33  C   UNL A   1      40.714  27.174  28.591  1.00  0.00     0.074 A 
ATOM     34  C   UNL A   1      42.606  26.236  27.326  1.00  0.00     0.049 A 
ATOM     35  N   UNL A   1      41.159  28.374  28.871  1.00  0.00    -0.248 NA
ATOM     36  C   UNL A   1      39.424  26.851  29.220  1.00  0.00     0.031 C 
ATOM     37  C   UNL A   1      43.359  25.248  26.555  1.00  0.00     0.029 A 
ATOM     38  N   UNL A   1      43.499  27.263  27.513  1.00  0.00    -0.354 N 
ATOM     39  C   UNL A   1      40.185  28.963  29.666  1.00  0.00     0.074 A 
ATOM     40  C   UNL A   1      39.124  27.991  29.826  1.00  0.00     0.031 C 
ATOM     41  C   UNL A   1      44.606  25.706  26.352  1.00  0.00     0.029 A 
ATOM     42  C   UNL A   1      44.716  27.051  26.911  1.00  0.00     0.049 A 
ATOM     43  H   UNL A   1      43.288  28.074  28.030  1.00  0.00     0.167 HD
ATOM     44  C   UNL A   1      40.177  30.203  30.213  1.00  0.00     0.037 A 
ATOM     45  C   UNL A   1      45.784  27.862  26.784  1.00  0.00     0.037 A 
ATOM     46  C   UNL A   1      41.252  31.153  30.097  1.00  0.00     0.049 A 
ATOM     47  C   UNL A   1      45.727  29.256  27.349  1.00  0.00     0.074 A 
ATOM     48  C   UNL A   1      41.327  32.440  30.603  1.00  0.00     0.029 A 
ATOM     49  N   UNL A   1      42.451  30.911  29.445  1.00  0.00    -0.354 N 
ATOM     50  N   UNL A   1      44.770  29.836  28.028  1.00  0.00    -0.248 NA
ATOM     51  C   UNL A   1      46.895  30.116  27.106  1.00  0.00     0.031 C 
ATOM     52  C   UNL A   1      42.562  32.987  30.235  1.00  0.00     0.029 A 
ATOM     53  C   UNL A   1      43.269  32.027  29.530  1.00  0.00     0.049 A 
ATOM     54  H   UNL A   1      42.687  30.071  28.989  1.00  0.00     0.167 HD
ATOM     55  C   UNL A   1      45.223  31.119  28.309  1.00  0.00     0.074 A 
ATOM     56  C   UNL A   1      46.549  31.228  27.740  1.00  0.00     0.031 C 
ATOM     57  C   UNL A   1      44.592  32.118  28.971  1.00  0.00     0.037 A 
BRANCH  44  58
ATOM     58  C   UNL A   1      38.947  30.621  30.961  1.00  0.00     0.064 A 
ATOM     59  C   UNL A   1      38.824  30.435  32.346  1.00  0.00     0.173 A 
ATOM     60  C   UNL A   1      37.893  31.254  30.285  1.00  0.00     0.173 A 
ATOM     61  F   UNL A   1      39.799  29.823  33.034  1.00  0.00    -0.203 F 
ATOM     62  C   UNL A   1      37.680  30.851  33.023  1.00  0.00     0.198 A 
ATOM     63  C   UNL A   1      36.762  31.690  30.969  1.00  0.00     0.198 A 
ATOM     64  F   UNL A   1      37.964  31.459  28.962  1.00  0.00    -0.203 F 
ATOM     65  F   UNL A   1      37.566  30.629  34.340  1.00  0.00    -0.200 F 
ATOM     66  C   UNL A   1      36.654  31.483  32.336  1.00  0.00     0.200 A 
ATOM     67  F   UNL A   1      35.776  32.310  30.306  1.00  0.00    -0.200 F 
ATOM     68  F   UNL A   1      35.556  31.888  32.991  1.00  0.00    -0.200 F 
ENDBRANCH  44  58
BRANCH  45  69
ATOM     69  C   UNL A   1      46.989  27.397  26.051  1.00  0.00     0.064 A 
ATOM     70  C   UNL A   1      48.059  26.797  26.730  1.00  0.00     0.173 A 
ATOM     71  C   UNL A   1      47.107  27.561  24.662  1.00  0.00     0.173 A 
ATOM     72  F   UNL A   1      48.007  26.647  28.061  1.00  0.00    -0.203 F 
ATOM     73  C   UNL A   1      49.205  26.393  26.050  1.00  0.00     0.198 A 
ATOM     74  C   UNL A   1      48.241  27.130  23.980  1.00  0.00     0.198 A 
ATOM     75  F   UNL A   1      46.114  28.136  23.969  1.00  0.00    -0.203 F 
ATOM     76  F   UNL A   1      50.233  25.863  26.728  1.00  0.00    -0.200 F 
ATOM     77  C   UNL A   1      49.293  26.552  24.675  1.00  0.00     0.200 A 
ATOM     78  F   UNL A   1      48.317  27.278  22.650  1.00  0.00    -0.200 F 
ATOM     79  F   UNL A   1      50.395  26.160  24.021  1.00  0.00    -0.200 F 
ENDBRANCH  45  69
BRANCH  57  80
ATOM     80  C   UNL A   1      45.342  33.404  29.149  1.00  0.00     0.064 A 
ATOM     81  C   UNL A   1      46.170  33.622  30.259  1.00  0.00     0.173 A 
ATOM     82  C   UNL A   1      45.257  34.416  28.181  1.00  0.00     0.173 A 
ATOM     83  F   UNL A   1      46.270  32.690  31.220  1.00  0.00    -0.203 F 
ATOM     84  C   UNL A   1      46.873  34.815  30.402  1.00  0.00     0.198 A 
ATOM     85  C   UNL A   1      45.979  35.598  28.317  1.00  0.00     0.198 A 
ATOM     86  F   UNL A   1      44.480  34.253  27.099  1.00  0.00    -0.203 F 
ATOM     87  F   UNL A   1      47.629  35.019  31.491  1.00  0.00    -0.200 F 
ATOM     88  C   UNL A   1      46.781  35.799  29.429  1.00  0.00     0.200 A 
ATOM     89  F   UNL A   1      45.896  36.544  27.371  1.00  0.00    -0.200 F 
ATOM     90  F   UNL A   1      47.462  36.946  29.568  1.00  0.00    -0.200 F 
ENDBRANCH  57  80
ENDBRANCH  31  32
ENDBRANCH  24  26
ENDBRANCH  23  24
ENDBRANCH  22  23
ENDBRANCH   1  22
TORSDOF 13
ENDMDL
