MODEL 1
REMARK VINA RESULT:     -12.9      0.000      0.000
REMARK SMILES NS(=O)(=O)c1ccc(-n2nc(C(F)(F)F)cc2-c2ccc(CC(=O)OCCOC(=O)c3ccc(-c4c5nc(c(-c6c(F)c(F)c(F)c(F)c6F)c6ccc([nH]6)c(-c6c(F)c(F)c(F)c(F)c6F)c6nc(c(-c7c(F)c(F)c(F)c(F)c7F)c7ccc4[nH]7)C=C6)C=C5)cc3)cc2)cc1
REMARK SMILES IDX 25 1 23 2 24 3 22 4 21 5 18 6 19 7 95 8 20 9 94 10 17 11
REMARK SMILES IDX 9 12 10 13 11 14 16 15 8 16 5 17 6 18 97 19 7 20 96 21 2 22
REMARK SMILES IDX 3 23 4 24 1 25 12 28 13 29 14 30 15 31 26 32 27 33 28 34
REMARK SMILES IDX 29 35 30 36 31 37 32 38 93 39 33 40 92 41 34 42 35 43 36 44
REMARK SMILES IDX 86 45 37 46 91 47 85 48 87 49 38 50 90 51 84 52 83 53 39 55
REMARK SMILES IDX 71 56 51 57 70 58 52 59 55 60 69 61 88 62 53 63 54 64 68 66
REMARK SMILES IDX 89 67 56 68 40 69 41 70 49 71 42 72 43 73 47 74 50 75 44 76
REMARK SMILES IDX 45 77 48 78 46 79 72 80 73 81 81 82 74 83 75 84 79 85 82 86
REMARK SMILES IDX 76 87 77 88 80 89 78 90 57 91 58 92 66 93 59 94 60 95 64 96
REMARK SMILES IDX 67 97 61 98 62 99 65 100 63 101
REMARK H PARENT 1 26 1 27 87 54 55 65
REMARK Flexibility Score: inf
ROOT
ATOM      1  O   UNL A   1      35.110  22.217  24.425  1.00  0.00    -0.462 OA
ENDROOT
BRANCH   1   2
ATOM      2  C   UNL A   1      33.802  21.918  24.206  1.00  0.00     0.310 C 
ATOM      3  O   UNL A   1      33.315  20.803  24.384  1.00  0.00    -0.252 OA
BRANCH   2   4
ATOM      4  C   UNL A   1      32.986  23.049  23.619  1.00  0.00     0.158 C 
BRANCH   4   5
ATOM      5  C   UNL A   1      33.066  24.414  24.265  1.00  0.00    -0.037 A 
ATOM      6  C   UNL A   1      33.281  26.960  25.472  1.00  0.00     0.000 A 
ATOM      7  C   UNL A   1      33.962  26.682  24.287  1.00  0.00     0.010 A 
ATOM      8  C   UNL A   1      32.509  25.953  26.061  1.00  0.00     0.010 A 
ATOM      9  C   UNL A   1      33.878  25.413  23.715  1.00  0.00     0.005 A 
ATOM     10  C   UNL A   1      32.387  24.697  25.452  1.00  0.00     0.005 A 
BRANCH   6  11
ATOM     11  C   UNL A   1      33.447  28.253  26.129  1.00  0.00     0.075 A 
ATOM     12  N   UNL A   1      32.730  29.414  25.865  1.00  0.00    -0.233 N 
ATOM     13  N   UNL A   1      33.305  30.505  26.442  1.00  0.00    -0.163 NA
ATOM     14  C   UNL A   1      34.306  30.016  27.201  1.00  0.00     0.167 A 
ATOM     15  C   UNL A   1      34.454  28.626  26.995  1.00  0.00     0.064 A 
BRANCH  12  16
ATOM     16  C   UNL A   1      31.541  29.564  25.101  1.00  0.00     0.065 A 
ATOM     17  C   UNL A   1      29.284  29.927  23.510  1.00  0.00     0.082 A 
ATOM     18  C   UNL A   1      29.944  28.696  23.501  1.00  0.00     0.024 A 
ATOM     19  C   UNL A   1      29.723  30.968  24.333  1.00  0.00     0.024 A 
ATOM     20  C   UNL A   1      31.085  28.518  24.287  1.00  0.00     0.030 A 
ATOM     21  C   UNL A   1      30.836  30.775  25.156  1.00  0.00     0.030 A 
BRANCH  17  22
ATOM     22  S   UNL A   1      27.899  30.178  22.439  1.00  0.00     0.238 S 
ATOM     23  O   UNL A   1      28.301  29.982  21.071  1.00  0.00    -0.207 OA
ATOM     24  O   UNL A   1      27.181  31.361  22.875  1.00  0.00    -0.207 OA
BRANCH  22  25
ATOM     25  N   UNL A   1      26.913  28.870  22.807  1.00  0.00    -0.225 NA
ATOM     26  H   UNL A   1      26.591  28.433  21.944  1.00  0.00     0.137 HD
ATOM     27  H   UNL A   1      26.109  29.191  23.345  1.00  0.00     0.137 HD
ENDBRANCH  22  25
ENDBRANCH  17  22
ENDBRANCH  12  16
BRANCH  14  28
ATOM     28  C   UNL A   1      35.148  30.863  28.116  1.00  0.00     0.435 C 
ATOM     29  F   UNL A   1      36.221  31.421  27.500  1.00  0.00    -0.164 F 
ATOM     30  F   UNL A   1      34.431  31.876  28.670  1.00  0.00    -0.164 F 
ATOM     31  F   UNL A   1      35.640  30.133  29.158  1.00  0.00    -0.164 F 
ENDBRANCH  14  28
ENDBRANCH   6  11
ENDBRANCH   4   5
ENDBRANCH   2   4
ENDBRANCH   1   2
BRANCH   1  32
ATOM     32  C   UNL A   1      35.820  21.316  25.303  1.00  0.00     0.274 C 
BRANCH  32  33
ATOM     33  C   UNL A   1      37.315  21.217  24.999  1.00  0.00     0.275 C 
BRANCH  33  34
ATOM     34  O   UNL A   1      38.036  22.422  25.279  1.00  0.00    -0.458 OA
BRANCH  34  35
ATOM     35  C   UNL A   1      39.133  22.197  26.032  1.00  0.00     0.338 C 
ATOM     36  O   UNL A   1      39.776  21.163  26.091  1.00  0.00    -0.246 OA
BRANCH  35  37
ATOM     37  C   UNL A   1      39.342  23.247  27.022  1.00  0.00     0.060 A 
ATOM     38  C   UNL A   1      38.569  24.409  26.911  1.00  0.00     0.016 A 
ATOM     39  C   UNL A   1      40.538  23.221  27.742  1.00  0.00     0.016 A 
ATOM     40  C   UNL A   1      39.081  25.595  27.390  1.00  0.00     0.010 A 
ATOM     41  C   UNL A   1      41.055  24.408  28.209  1.00  0.00     0.010 A 
ATOM     42  C   UNL A   1      40.353  25.593  27.978  1.00  0.00    -0.014 A 
BRANCH  42  43
ATOM     43  C   UNL A   1      40.815  26.813  28.617  1.00  0.00     0.031 A 
ATOM     44  C   UNL A   1      42.084  27.264  27.989  1.00  0.00     0.074 A 
ATOM     45  C   UNL A   1      40.094  27.492  29.536  1.00  0.00     0.049 A 
ATOM     46  N   UNL A   1      43.251  27.312  28.535  1.00  0.00    -0.248 NA
ATOM     47  C   UNL A   1      42.114  27.460  26.524  1.00  0.00     0.031 C 
ATOM     48  C   UNL A   1      38.729  27.189  29.979  1.00  0.00     0.029 A 
ATOM     49  N   UNL A   1      40.373  28.663  30.193  1.00  0.00    -0.354 N 
ATOM     50  C   UNL A   1      44.097  27.818  27.550  1.00  0.00     0.074 A 
ATOM     51  C   UNL A   1      43.416  27.642  26.303  1.00  0.00     0.031 C 
ATOM     52  C   UNL A   1      38.218  28.257  30.636  1.00  0.00     0.029 A 
ATOM     53  C   UNL A   1      39.252  29.265  30.777  1.00  0.00     0.049 A 
ATOM     54  H   UNL A   1      41.280  29.044  30.250  1.00  0.00     0.167 HD
ATOM     55  C   UNL A   1      45.088  28.681  27.908  1.00  0.00     0.037 A 
ATOM     56  C   UNL A   1      39.184  30.522  31.293  1.00  0.00     0.037 A 
ATOM     57  C   UNL A   1      45.333  28.570  29.325  1.00  0.00     0.049 A 
ATOM     58  C   UNL A   1      40.570  30.963  31.559  1.00  0.00     0.074 A 
ATOM     59  C   UNL A   1      45.943  27.669  30.169  1.00  0.00     0.029 A 
ATOM     60  N   UNL A   1      44.473  29.322  30.078  1.00  0.00    -0.354 N 
ATOM     61  N   UNL A   1      41.304  30.466  32.513  1.00  0.00    -0.248 NA
ATOM     62  C   UNL A   1      41.290  31.705  30.528  1.00  0.00     0.031 C 
ATOM     63  C   UNL A   1      45.335  27.847  31.447  1.00  0.00     0.029 A 
ATOM     64  C   UNL A   1      44.427  28.899  31.374  1.00  0.00     0.049 A 
ATOM     65  H   UNL A   1      43.949  30.078  29.727  1.00  0.00     0.167 HD
ATOM     66  C   UNL A   1      42.570  30.429  31.967  1.00  0.00     0.074 A 
ATOM     67  C   UNL A   1      42.540  31.352  30.839  1.00  0.00     0.031 C 
ATOM     68  C   UNL A   1      43.406  29.394  32.263  1.00  0.00     0.037 A 
BRANCH  55  69
ATOM     69  C   UNL A   1      45.401  29.979  27.176  1.00  0.00     0.064 A 
ATOM     70  C   UNL A   1      46.757  30.343  27.015  1.00  0.00     0.173 A 
ATOM     71  C   UNL A   1      44.474  31.015  26.923  1.00  0.00     0.173 A 
ATOM     72  F   UNL A   1      47.735  29.451  27.230  1.00  0.00    -0.203 F 
ATOM     73  C   UNL A   1      47.147  31.654  26.721  1.00  0.00     0.198 A 
ATOM     74  C   UNL A   1      44.867  32.312  26.589  1.00  0.00     0.198 A 
ATOM     75  F   UNL A   1      43.157  30.867  27.083  1.00  0.00    -0.203 F 
ATOM     76  F   UNL A   1      48.448  31.972  26.700  1.00  0.00    -0.200 F 
ATOM     77  C   UNL A   1      46.201  32.640  26.518  1.00  0.00     0.200 A 
ATOM     78  F   UNL A   1      43.932  33.257  26.419  1.00  0.00    -0.200 F 
ATOM     79  F   UNL A   1      46.570  33.908  26.296  1.00  0.00    -0.200 F 
ENDBRANCH  55  69
BRANCH  56  80
ATOM     80  C   UNL A   1      38.057  31.484  31.388  1.00  0.00     0.064 A 
ATOM     81  C   UNL A   1      37.441  31.771  32.621  1.00  0.00     0.173 A 
ATOM     82  C   UNL A   1      37.782  32.373  30.333  1.00  0.00     0.173 A 
ATOM     83  F   UNL A   1      37.677  31.000  33.692  1.00  0.00    -0.203 F 
ATOM     84  C   UNL A   1      36.634  32.902  32.797  1.00  0.00     0.198 A 
ATOM     85  C   UNL A   1      36.976  33.501  30.511  1.00  0.00     0.198 A 
ATOM     86  F   UNL A   1      38.377  32.220  29.142  1.00  0.00    -0.203 F 
ATOM     87  F   UNL A   1      36.123  33.181  34.006  1.00  0.00    -0.200 F 
ATOM     88  C   UNL A   1      36.417  33.775  31.745  1.00  0.00     0.200 A 
ATOM     89  F   UNL A   1      36.806  34.361  29.496  1.00  0.00    -0.200 F 
ATOM     90  F   UNL A   1      35.708  34.898  31.931  1.00  0.00    -0.200 F 
ENDBRANCH  56  80
BRANCH  68  91
ATOM     91  C   UNL A   1      43.166  28.663  33.541  1.00  0.00     0.064 A 
ATOM     92  C   UNL A   1      42.231  27.630  33.718  1.00  0.00     0.173 A 
ATOM     93  C   UNL A   1      43.987  28.994  34.626  1.00  0.00     0.173 A 
ATOM     94  F   UNL A   1      41.465  27.211  32.700  1.00  0.00    -0.203 F 
ATOM     95  C   UNL A   1      42.104  26.987  34.948  1.00  0.00     0.198 A 
ATOM     96  C   UNL A   1      43.887  28.324  35.837  1.00  0.00     0.198 A 
ATOM     97  F   UNL A   1      44.920  29.950  34.494  1.00  0.00    -0.203 F 
ATOM     98  F   UNL A   1      41.192  26.017  35.109  1.00  0.00    -0.200 F 
ATOM     99  C   UNL A   1      42.937  27.331  36.003  1.00  0.00     0.200 A 
ATOM    100  F   UNL A   1      44.725  28.632  36.837  1.00  0.00    -0.200 F 
ATOM    101  F   UNL A   1      42.838  26.689  37.175  1.00  0.00    -0.200 F 
ENDBRANCH  68  91
ENDBRANCH  42  43
ENDBRANCH  35  37
ENDBRANCH  34  35
ENDBRANCH  33  34
ENDBRANCH  32  33
ENDBRANCH   1  32
TORSDOF 17
ENDMDL
MODEL 2
REMARK VINA RESULT:     -12.9      3.598      8.464
REMARK SMILES NS(=O)(=O)c1ccc(-n2nc(C(F)(F)F)cc2-c2ccc(CC(=O)OCCOC(=O)c3ccc(-c4c5nc(c(-c6c(F)c(F)c(F)c(F)c6F)c6ccc([nH]6)c(-c6c(F)c(F)c(F)c(F)c6F)c6nc(c(-c7c(F)c(F)c(F)c(F)c7F)c7ccc4[nH]7)C=C6)C=C5)cc3)cc2)cc1
REMARK SMILES IDX 25 1 23 2 24 3 22 4 21 5 18 6 19 7 95 8 20 9 94 10 17 11
REMARK SMILES IDX 9 12 10 13 11 14 16 15 8 16 5 17 6 18 97 19 7 20 96 21 2 22
REMARK SMILES IDX 3 23 4 24 1 25 12 28 13 29 14 30 15 31 26 32 27 33 28 34
REMARK SMILES IDX 29 35 30 36 31 37 32 38 93 39 33 40 92 41 34 42 35 43 36 44
REMARK SMILES IDX 86 45 37 46 91 47 85 48 87 49 38 50 90 51 84 52 83 53 39 55
REMARK SMILES IDX 71 56 51 57 70 58 52 59 55 60 69 61 88 62 53 63 54 64 68 66
REMARK SMILES IDX 89 67 56 68 40 69 41 70 49 71 42 72 43 73 47 74 50 75 44 76
REMARK SMILES IDX 45 77 48 78 46 79 72 80 73 81 81 82 74 83 75 84 79 85 82 86
REMARK SMILES IDX 76 87 77 88 80 89 78 90 57 91 58 92 66 93 59 94 60 95 64 96
REMARK SMILES IDX 67 97 61 98 62 99 65 100 63 101
REMARK H PARENT 1 26 1 27 87 54 55 65
REMARK Flexibility Score: inf
ROOT
ATOM      1  O   UNL A   1      35.087  32.591  27.573  1.00  0.00    -0.462 OA
ENDROOT
BRANCH   1   2
ATOM      2  C   UNL A   1      35.181  31.243  27.724  1.00  0.00     0.310 C 
ATOM      3  O   UNL A   1      36.219  30.605  27.561  1.00  0.00    -0.252 OA
BRANCH   2   4
ATOM      4  C   UNL A   1      33.869  30.549  28.017  1.00  0.00     0.158 C 
BRANCH   4   5
ATOM      5  C   UNL A   1      33.508  29.311  27.226  1.00  0.00    -0.037 A 
ATOM      6  C   UNL A   1      32.835  27.035  25.693  1.00  0.00     0.000 A 
ATOM      7  C   UNL A   1      33.959  27.794  25.370  1.00  0.00     0.010 A 
ATOM      8  C   UNL A   1      32.038  27.432  26.772  1.00  0.00     0.010 A 
ATOM      9  C   UNL A   1      34.267  28.936  26.112  1.00  0.00     0.005 A 
ATOM     10  C   UNL A   1      32.382  28.548  27.544  1.00  0.00     0.005 A 
BRANCH   6  11
ATOM     11  C   UNL A   1      32.451  25.900  24.859  1.00  0.00     0.075 A 
ATOM     12  N   UNL A   1      31.410  25.864  23.937  1.00  0.00    -0.233 N 
ATOM     13  N   UNL A   1      31.140  24.594  23.530  1.00  0.00    -0.163 NA
ATOM     14  C   UNL A   1      32.109  23.834  24.079  1.00  0.00     0.167 A 
ATOM     15  C   UNL A   1      32.915  24.604  24.947  1.00  0.00     0.064 A 
BRANCH  12  16
ATOM     16  C   UNL A   1      30.652  26.949  23.419  1.00  0.00     0.065 A 
ATOM     17  C   UNL A   1      29.168  29.132  22.529  1.00  0.00     0.082 A 
ATOM     18  C   UNL A   1      30.534  29.063  22.243  1.00  0.00     0.024 A 
ATOM     19  C   UNL A   1      28.531  28.102  23.228  1.00  0.00     0.024 A 
ATOM     20  C   UNL A   1      31.282  27.976  22.702  1.00  0.00     0.030 A 
ATOM     21  C   UNL A   1      29.269  26.991  23.646  1.00  0.00     0.030 A 
BRANCH  17  22
ATOM     22  S   UNL A   1      28.247  30.557  22.030  1.00  0.00     0.238 S 
ATOM     23  O   UNL A   1      27.306  30.911  23.060  1.00  0.00    -0.207 OA
ATOM     24  O   UNL A   1      27.854  30.396  20.643  1.00  0.00    -0.207 OA
BRANCH  22  25
ATOM     25  N   UNL A   1      29.410  31.767  22.051  1.00  0.00    -0.225 NA
ATOM     26  H   UNL A   1      29.249  32.407  21.273  1.00  0.00     0.137 HD
ATOM     27  H   UNL A   1      30.336  31.350  21.963  1.00  0.00     0.137 HD
ENDBRANCH  22  25
ENDBRANCH  17  22
ENDBRANCH  12  16
BRANCH  14  28
ATOM     28  C   UNL A   1      32.272  22.365  23.801  1.00  0.00     0.435 C 
ATOM     29  F   UNL A   1      33.564  21.989  23.624  1.00  0.00    -0.164 F 
ATOM     30  F   UNL A   1      31.766  21.601  24.806  1.00  0.00    -0.164 F 
ATOM     31  F   UNL A   1      31.605  21.993  22.671  1.00  0.00    -0.164 F 
ENDBRANCH  14  28
ENDBRANCH   6  11
ENDBRANCH   4   5
ENDBRANCH   2   4
ENDBRANCH   1   2
BRANCH   1  32
ATOM     32  C   UNL A   1      33.914  33.205  28.149  1.00  0.00     0.274 C 
BRANCH  32  33
ATOM     33  C   UNL A   1      34.196  33.976  29.438  1.00  0.00     0.275 C 
BRANCH  33  34
ATOM     34  O   UNL A   1      35.399  33.567  30.097  1.00  0.00    -0.458 OA
BRANCH  34  35
ATOM     35  C   UNL A   1      35.171  32.625  31.036  1.00  0.00     0.338 C 
ATOM     36  O   UNL A   1      34.170  32.508  31.722  1.00  0.00    -0.246 OA
BRANCH  35  37
ATOM     37  C   UNL A   1      36.381  31.883  31.372  1.00  0.00     0.060 A 
ATOM     38  C   UNL A   1      37.584  32.597  31.439  1.00  0.00     0.016 A 
ATOM     39  C   UNL A   1      36.351  30.498  31.205  1.00  0.00     0.016 A 
ATOM     40  C   UNL A   1      38.763  31.936  31.172  1.00  0.00     0.010 A 
ATOM     41  C   UNL A   1      37.528  29.840  30.926  1.00  0.00     0.010 A 
ATOM     42  C   UNL A   1      38.715  30.572  30.853  1.00  0.00    -0.014 A 
BRANCH  42  43
ATOM     43  C   UNL A   1      39.971  29.852  30.729  1.00  0.00     0.031 A 
ATOM     44  C   UNL A   1      40.621  29.735  32.059  1.00  0.00     0.074 A 
ATOM     45  C   UNL A   1      40.379  29.258  29.587  1.00  0.00     0.049 A 
ATOM     46  N   UNL A   1      41.726  30.281  32.439  1.00  0.00    -0.248 NA
ATOM     47  C   UNL A   1      39.848  29.144  33.172  1.00  0.00     0.031 C 
ATOM     48  C   UNL A   1      39.625  29.154  28.333  1.00  0.00     0.029 A 
ATOM     49  N   UNL A   1      41.504  28.519  29.324  1.00  0.00    -0.354 N 
ATOM     50  C   UNL A   1      41.914  29.856  33.753  1.00  0.00     0.074 A 
ATOM     51  C   UNL A   1      40.639  29.396  34.215  1.00  0.00     0.031 C 
ATOM     52  C   UNL A   1      40.191  28.217  27.538  1.00  0.00     0.029 A 
ATOM     53  C   UNL A   1      41.416  27.747  28.160  1.00  0.00     0.049 A 
ATOM     54  H   UNL A   1      42.302  28.532  29.903  1.00  0.00     0.167 HD
ATOM     55  C   UNL A   1      43.173  29.563  34.180  1.00  0.00     0.037 A 
ATOM     56  C   UNL A   1      42.273  26.764  27.773  1.00  0.00     0.037 A 
ATOM     57  C   UNL A   1      44.135  30.166  33.291  1.00  0.00     0.049 A 
ATOM     58  C   UNL A   1      43.534  26.961  28.519  1.00  0.00     0.074 A 
ATOM     59  C   UNL A   1      44.616  31.433  33.045  1.00  0.00     0.029 A 
ATOM     60  N   UNL A   1      44.387  29.407  32.180  1.00  0.00    -0.354 N 
ATOM     61  N   UNL A   1      44.350  27.949  28.288  1.00  0.00    -0.248 NA
ATOM     62  C   UNL A   1      43.723  26.268  29.790  1.00  0.00     0.031 C 
ATOM     63  C   UNL A   1      45.079  31.428  31.696  1.00  0.00     0.029 A 
ATOM     64  C   UNL A   1      44.942  30.144  31.175  1.00  0.00     0.049 A 
ATOM     65  H   UNL A   1      44.191  28.445  32.113  1.00  0.00     0.167 HD
ATOM     66  C   UNL A   1      44.820  28.287  29.540  1.00  0.00     0.074 A 
ATOM     67  C   UNL A   1      44.551  27.130  30.386  1.00  0.00     0.031 C 
ATOM     68  C   UNL A   1      45.053  29.594  29.848  1.00  0.00     0.037 A 
BRANCH  55  69
ATOM     69  C   UNL A   1      43.541  28.316  34.975  1.00  0.00     0.064 A 
ATOM     70  C   UNL A   1      43.124  27.061  34.476  1.00  0.00     0.173 A 
ATOM     71  C   UNL A   1      43.975  28.306  36.319  1.00  0.00     0.173 A 
ATOM     72  F   UNL A   1      42.684  26.938  33.215  1.00  0.00    -0.203 F 
ATOM     73  C   UNL A   1      43.060  25.922  35.284  1.00  0.00     0.198 A 
ATOM     74  C   UNL A   1      43.949  27.157  37.110  1.00  0.00     0.198 A 
ATOM     75  F   UNL A   1      44.349  29.411  36.970  1.00  0.00    -0.203 F 
ATOM     76  F   UNL A   1      42.542  24.787  34.796  1.00  0.00    -0.200 F 
ATOM     77  C   UNL A   1      43.464  25.973  36.605  1.00  0.00     0.200 A 
ATOM     78  F   UNL A   1      44.325  27.237  38.395  1.00  0.00    -0.200 F 
ATOM     79  F   UNL A   1      43.348  24.901  37.399  1.00  0.00    -0.200 F 
ENDBRANCH  55  69
BRANCH  56  80
ATOM     80  C   UNL A   1      42.055  25.529  26.978  1.00  0.00     0.064 A 
ATOM     81  C   UNL A   1      42.890  25.197  25.894  1.00  0.00     0.173 A 
ATOM     82  C   UNL A   1      41.229  24.499  27.464  1.00  0.00     0.173 A 
ATOM     83  F   UNL A   1      43.738  26.106  25.390  1.00  0.00    -0.203 F 
ATOM     84  C   UNL A   1      42.928  23.903  25.360  1.00  0.00     0.198 A 
ATOM     85  C   UNL A   1      41.269  23.208  26.930  1.00  0.00     0.198 A 
ATOM     86  F   UNL A   1      40.451  24.701  28.537  1.00  0.00    -0.203 F 
ATOM     87  F   UNL A   1      43.790  23.608  24.376  1.00  0.00    -0.200 F 
ATOM     88  C   UNL A   1      42.129  22.906  25.891  1.00  0.00     0.200 A 
ATOM     89  F   UNL A   1      40.520  22.240  27.479  1.00  0.00    -0.200 F 
ATOM     90  F   UNL A   1      42.219  21.649  25.433  1.00  0.00    -0.200 F 
ENDBRANCH  56  80
BRANCH  68  91
ATOM     91  C   UNL A   1      45.327  30.526  28.715  1.00  0.00     0.064 A 
ATOM     92  C   UNL A   1      44.352  31.253  28.013  1.00  0.00     0.173 A 
ATOM     93  C   UNL A   1      46.670  30.735  28.376  1.00  0.00     0.173 A 
ATOM     94  F   UNL A   1      43.054  31.158  28.336  1.00  0.00    -0.203 F 
ATOM     95  C   UNL A   1      44.715  32.124  26.988  1.00  0.00     0.198 A 
ATOM     96  C   UNL A   1      47.030  31.634  27.383  1.00  0.00     0.198 A 
ATOM     97  F   UNL A   1      47.639  30.089  29.044  1.00  0.00    -0.203 F 
ATOM     98  F   UNL A   1      43.773  32.797  26.311  1.00  0.00    -0.200 F 
ATOM     99  C   UNL A   1      46.054  32.318  26.679  1.00  0.00     0.200 A 
ATOM    100  F   UNL A   1      48.327  31.848  27.122  1.00  0.00    -0.200 F 
ATOM    101  F   UNL A   1      46.405  33.181  25.717  1.00  0.00    -0.200 F 
ENDBRANCH  68  91
ENDBRANCH  42  43
ENDBRANCH  35  37
ENDBRANCH  34  35
ENDBRANCH  33  34
ENDBRANCH  32  33
ENDBRANCH   1  32
TORSDOF 17
ENDMDL
MODEL 3
REMARK VINA RESULT:     -12.8      3.854      5.932
REMARK SMILES NS(=O)(=O)c1ccc(-n2nc(C(F)(F)F)cc2-c2ccc(CC(=O)OCCOC(=O)c3ccc(-c4c5nc(c(-c6c(F)c(F)c(F)c(F)c6F)c6ccc([nH]6)c(-c6c(F)c(F)c(F)c(F)c6F)c6nc(c(-c7c(F)c(F)c(F)c(F)c7F)c7ccc4[nH]7)C=C6)C=C5)cc3)cc2)cc1
REMARK SMILES IDX 25 1 23 2 24 3 22 4 21 5 18 6 19 7 95 8 20 9 94 10 17 11
REMARK SMILES IDX 9 12 10 13 11 14 16 15 8 16 5 17 6 18 97 19 7 20 96 21 2 22
REMARK SMILES IDX 3 23 4 24 1 25 12 28 13 29 14 30 15 31 26 32 27 33 28 34
REMARK SMILES IDX 29 35 30 36 31 37 32 38 93 39 33 40 92 41 34 42 35 43 36 44
REMARK SMILES IDX 86 45 37 46 91 47 85 48 87 49 38 50 90 51 84 52 83 53 39 55
REMARK SMILES IDX 71 56 51 57 70 58 52 59 55 60 69 61 88 62 53 63 54 64 68 66
REMARK SMILES IDX 89 67 56 68 40 69 41 70 49 71 42 72 43 73 47 74 50 75 44 76
REMARK SMILES IDX 45 77 48 78 46 79 72 80 73 81 81 82 74 83 75 84 79 85 82 86
REMARK SMILES IDX 76 87 77 88 80 89 78 90 57 91 58 92 66 93 59 94 60 95 64 96
REMARK SMILES IDX 67 97 61 98 62 99 65 100 63 101
REMARK H PARENT 1 26 1 27 87 54 55 65
REMARK Flexibility Score: inf
ROOT
ATOM      1  O   UNL A   1      41.390  20.569  25.809  1.00  0.00    -0.462 OA
ENDROOT
BRANCH   1   2
ATOM      2  C   UNL A   1      40.040  20.623  25.963  1.00  0.00     0.310 C 
ATOM      3  O   UNL A   1      39.282  19.690  25.705  1.00  0.00    -0.252 OA
BRANCH   2   4
ATOM      4  C   UNL A   1      39.508  21.973  26.391  1.00  0.00     0.158 C 
BRANCH   4   5
ATOM      5  C   UNL A   1      38.229  22.483  25.763  1.00  0.00    -0.037 A 
ATOM      6  C   UNL A   1      35.811  23.427  24.649  1.00  0.00     0.000 A 
ATOM      7  C   UNL A   1      36.325  24.006  25.808  1.00  0.00     0.010 A 
ATOM      8  C   UNL A   1      36.500  22.360  24.062  1.00  0.00     0.010 A 
ATOM      9  C   UNL A   1      37.503  23.513  26.371  1.00  0.00     0.005 A 
ATOM     10  C   UNL A   1      37.710  21.905  24.603  1.00  0.00     0.005 A 
BRANCH   6  11
ATOM     11  C   UNL A   1      34.527  23.871  24.114  1.00  0.00     0.075 A 
ATOM     12  N   UNL A   1      33.463  23.059  23.735  1.00  0.00    -0.233 N 
ATOM     13  N   UNL A   1      32.529  23.750  23.026  1.00  0.00    -0.163 NA
ATOM     14  C   UNL A   1      32.925  25.038  23.082  1.00  0.00     0.167 A 
ATOM     15  C   UNL A   1      34.186  25.145  23.711  1.00  0.00     0.064 A 
BRANCH  12  16
ATOM     16  C   UNL A   1      33.272  21.675  23.994  1.00  0.00     0.065 A 
ATOM     17  C   UNL A   1      33.005  18.935  24.419  1.00  0.00     0.082 A 
ATOM     18  C   UNL A   1      33.604  19.731  25.398  1.00  0.00     0.024 A 
ATOM     19  C   UNL A   1      32.508  19.503  23.241  1.00  0.00     0.024 A 
ATOM     20  C   UNL A   1      33.752  21.102  25.179  1.00  0.00     0.030 A 
ATOM     21  C   UNL A   1      32.612  20.883  23.043  1.00  0.00     0.030 A 
BRANCH  17  22
ATOM     22  S   UNL A   1      32.909  17.186  24.659  1.00  0.00     0.238 S 
ATOM     23  O   UNL A   1      33.126  16.511  23.406  1.00  0.00    -0.207 OA
ATOM     24  O   UNL A   1      31.772  16.894  25.511  1.00  0.00    -0.207 OA
BRANCH  22  25
ATOM     25  N   UNL A   1      34.277  16.869  25.579  1.00  0.00    -0.225 NA
ATOM     26  H   UNL A   1      35.072  17.379  25.193  1.00  0.00     0.137 HD
ATOM     27  H   UNL A   1      34.474  15.869  25.562  1.00  0.00     0.137 HD
ENDBRANCH  22  25
ENDBRANCH  17  22
ENDBRANCH  12  16
BRANCH  14  28
ATOM     28  C   UNL A   1      32.122  26.181  22.525  1.00  0.00     0.435 C 
ATOM     29  F   UNL A   1      31.522  25.893  21.342  1.00  0.00    -0.164 F 
ATOM     30  F   UNL A   1      31.146  26.580  23.383  1.00  0.00    -0.164 F 
ATOM     31  F   UNL A   1      32.902  27.278  22.303  1.00  0.00    -0.164 F 
ENDBRANCH  14  28
ENDBRANCH   6  11
ENDBRANCH   4   5
ENDBRANCH   2   4
ENDBRANCH   1   2
BRANCH   1  32
ATOM     32  C   UNL A   1      42.024  19.353  26.265  1.00  0.00     0.274 C 
BRANCH  32  33
ATOM     33  C   UNL A   1      43.384  19.093  25.619  1.00  0.00     0.275 C 
BRANCH  33  34
ATOM     34  O   UNL A   1      43.579  19.804  24.391  1.00  0.00    -0.458 OA
BRANCH  34  35
ATOM     35  C   UNL A   1      44.841  20.265  24.264  1.00  0.00     0.338 C 
ATOM     36  O   UNL A   1      45.835  19.606  24.010  1.00  0.00    -0.246 OA
BRANCH  35  37
ATOM     37  C   UNL A   1      44.974  21.636  24.742  1.00  0.00     0.060 A 
ATOM     38  C   UNL A   1      45.801  21.863  25.848  1.00  0.00     0.016 A 
ATOM     39  C   UNL A   1      43.988  22.547  24.356  1.00  0.00     0.016 A 
ATOM     40  C   UNL A   1      45.530  22.935  26.671  1.00  0.00     0.010 A 
ATOM     41  C   UNL A   1      43.710  23.610  25.185  1.00  0.00     0.010 A 
ATOM     42  C   UNL A   1      44.442  23.762  26.364  1.00  0.00    -0.014 A 
BRANCH  42  43
ATOM     43  C   UNL A   1      44.261  24.975  27.145  1.00  0.00     0.031 A 
ATOM     44  C   UNL A   1      45.380  25.916  26.884  1.00  0.00     0.074 A 
ATOM     45  C   UNL A   1      43.151  25.236  27.869  1.00  0.00     0.049 A 
ATOM     46  N   UNL A   1      46.288  26.298  27.715  1.00  0.00    -0.248 NA
ATOM     47  C   UNL A   1      45.669  26.296  25.485  1.00  0.00     0.031 C 
ATOM     48  C   UNL A   1      41.932  24.421  27.932  1.00  0.00     0.029 A 
ATOM     49  N   UNL A   1      42.819  26.336  28.618  1.00  0.00    -0.354 N 
ATOM     50  C   UNL A   1      47.089  27.189  27.001  1.00  0.00     0.074 A 
ATOM     51  C   UNL A   1      46.825  26.948  25.615  1.00  0.00     0.031 C 
ATOM     52  C   UNL A   1      40.927  25.150  28.471  1.00  0.00     0.029 A 
ATOM     53  C   UNL A   1      41.453  26.429  28.912  1.00  0.00     0.049 A 
ATOM     54  H   UNL A   1      43.482  26.999  28.921  1.00  0.00     0.167 HD
ATOM     55  C   UNL A   1      47.580  28.290  27.635  1.00  0.00     0.037 A 
ATOM     56  C   UNL A   1      40.809  27.507  29.437  1.00  0.00     0.037 A 
ATOM     57  C   UNL A   1      47.518  28.091  29.062  1.00  0.00     0.049 A 
ATOM     58  C   UNL A   1      41.834  28.366  30.069  1.00  0.00     0.074 A 
ATOM     59  C   UNL A   1      48.208  27.360  30.002  1.00  0.00     0.029 A 
ATOM     60  N   UNL A   1      46.293  28.393  29.593  1.00  0.00    -0.354 N 
ATOM     61  N   UNL A   1      42.461  28.038  31.162  1.00  0.00    -0.248 NA
ATOM     62  C   UNL A   1      42.443  29.437  29.287  1.00  0.00     0.031 C 
ATOM     63  C   UNL A   1      47.303  27.149  31.085  1.00  0.00     0.029 A 
ATOM     64  C   UNL A   1      46.113  27.819  30.817  1.00  0.00     0.049 A 
ATOM     65  H   UNL A   1      45.622  28.956  29.145  1.00  0.00     0.167 HD
ATOM     66  C   UNL A   1      43.740  28.515  30.963  1.00  0.00     0.074 A 
ATOM     67  C   UNL A   1      43.628  29.505  29.899  1.00  0.00     0.031 C 
ATOM     68  C   UNL A   1      44.808  27.808  31.427  1.00  0.00     0.037 A 
BRANCH  55  69
ATOM     69  C   UNL A   1      47.548  29.699  27.055  1.00  0.00     0.064 A 
ATOM     70  C   UNL A   1      48.692  30.513  27.221  1.00  0.00     0.173 A 
ATOM     71  C   UNL A   1      46.383  30.388  26.653  1.00  0.00     0.173 A 
ATOM     72  F   UNL A   1      49.861  29.979  27.606  1.00  0.00    -0.203 F 
ATOM     73  C   UNL A   1      48.642  31.904  27.086  1.00  0.00     0.198 A 
ATOM     74  C   UNL A   1      46.348  31.772  26.479  1.00  0.00     0.198 A 
ATOM     75  F   UNL A   1      45.198  29.788  26.506  1.00  0.00    -0.203 F 
ATOM     76  F   UNL A   1      49.725  32.639  27.373  1.00  0.00    -0.200 F 
ATOM     77  C   UNL A   1      47.467  32.534  26.724  1.00  0.00     0.200 A 
ATOM     78  F   UNL A   1      45.191  32.363  26.149  1.00  0.00    -0.200 F 
ATOM     79  F   UNL A   1      47.399  33.869  26.653  1.00  0.00    -0.200 F 
ENDBRANCH  55  69
BRANCH  56  80
ATOM     80  C   UNL A   1      39.417  27.994  29.271  1.00  0.00     0.064 A 
ATOM     81  C   UNL A   1      38.558  28.150  30.376  1.00  0.00     0.173 A 
ATOM     82  C   UNL A   1      39.013  28.618  28.077  1.00  0.00     0.173 A 
ATOM     83  F   UNL A   1      38.882  27.622  31.565  1.00  0.00    -0.203 F 
ATOM     84  C   UNL A   1      37.390  28.919  30.300  1.00  0.00     0.198 A 
ATOM     85  C   UNL A   1      37.847  29.385  28.003  1.00  0.00     0.198 A 
ATOM     86  F   UNL A   1      39.799  28.582  26.991  1.00  0.00    -0.203 F 
ATOM     87  F   UNL A   1      36.636  29.103  31.394  1.00  0.00    -0.200 F 
ATOM     88  C   UNL A   1      37.045  29.549  29.118  1.00  0.00     0.200 A 
ATOM     89  F   UNL A   1      37.544  30.024  26.864  1.00  0.00    -0.200 F 
ATOM     90  F   UNL A   1      35.969  30.347  29.064  1.00  0.00    -0.200 F 
ENDBRANCH  56  80
BRANCH  68  91
ATOM     91  C   UNL A   1      44.570  26.881  32.573  1.00  0.00     0.064 A 
ATOM     92  C   UNL A   1      44.436  27.273  33.915  1.00  0.00     0.173 A 
ATOM     93  C   UNL A   1      44.403  25.525  32.268  1.00  0.00     0.173 A 
ATOM     94  F   UNL A   1      44.510  28.565  34.267  1.00  0.00    -0.203 F 
ATOM     95  C   UNL A   1      44.184  26.331  34.910  1.00  0.00     0.198 A 
ATOM     96  C   UNL A   1      44.111  24.595  33.255  1.00  0.00     0.198 A 
ATOM     97  F   UNL A   1      44.486  25.108  30.994  1.00  0.00    -0.203 F 
ATOM     98  F   UNL A   1      44.080  26.716  36.190  1.00  0.00    -0.200 F 
ATOM     99  C   UNL A   1      44.015  24.994  34.577  1.00  0.00     0.200 A 
ATOM    100  F   UNL A   1      43.905  23.314  32.919  1.00  0.00    -0.200 F 
ATOM    101  F   UNL A   1      43.738  24.093  35.530  1.00  0.00    -0.200 F 
ENDBRANCH  68  91
ENDBRANCH  42  43
ENDBRANCH  35  37
ENDBRANCH  34  35
ENDBRANCH  33  34
ENDBRANCH  32  33
ENDBRANCH   1  32
TORSDOF 17
ENDMDL
