MODEL 1
REMARK VINA RESULT:     -12.8      0.000      0.000
REMARK SMILES O=C(NN1C(=O)/C(=C/c2ccc(C(=O)OCCOC(=O)c3ccc(-c4c5nc(c(-c6c(F)c(F)c(F)c(F)c6F)c6ccc([nH]6)c(-c6c(F)c(F)c(F)c(F)c6F)c6nc(c(-c7c(F)c(F)c(F)c(F)c7F)c7ccc4[nH]7)C=C6)C=C5)cc3)cc2)SC1=S)c1ccc(Cl)cc1
REMARK SMILES IDX 16 1 15 2 13 3 14 4 12 5 9 6 10 7 85 8 11 9 84 10 8 11 4 12
REMARK SMILES IDX 5 13 87 14 6 15 7 16 86 17 88 18 3 19 1 20 2 21 89 23 90 24
REMARK SMILES IDX 95 25 91 26 94 27 92 28 93 29 17 30 18 31 19 32 20 33 21 34
REMARK SMILES IDX 22 35 83 36 23 37 82 38 24 39 25 40 26 41 76 42 27 43 81 44
REMARK SMILES IDX 75 45 77 46 28 47 80 48 74 49 73 50 29 52 61 53 41 54 60 55
REMARK SMILES IDX 42 56 45 57 59 58 78 59 43 60 44 61 58 63 79 64 46 65 30 66
REMARK SMILES IDX 31 67 39 68 32 69 33 70 37 71 40 72 34 73 35 74 38 75 36 76
REMARK SMILES IDX 62 77 63 78 71 79 64 80 65 81 69 82 72 83 66 84 67 85 70 86
REMARK SMILES IDX 68 87 47 88 48 89 56 90 49 91 50 92 54 93 57 94 51 95 52 96
REMARK SMILES IDX 55 97 53 98
REMARK H PARENT 3 22 77 51 45 62
REMARK Flexibility Score: inf
ROOT
ATOM      1  C   UNL A   1      42.137  19.556  27.057  1.00  0.00     0.275 C 
ENDROOT
BRANCH   1   2
ATOM      2  O   UNL A   1      41.505  20.633  26.337  1.00  0.00    -0.458 OA
BRANCH   2   3
ATOM      3  C   UNL A   1      40.991  21.621  27.110  1.00  0.00     0.338 C 
ATOM      4  O   UNL A   1      41.508  22.110  28.102  1.00  0.00    -0.246 OA
BRANCH   3   5
ATOM      5  C   UNL A   1      39.711  22.126  26.560  1.00  0.00     0.060 A 
ATOM      6  C   UNL A   1      37.399  23.036  25.263  1.00  0.00    -0.024 A 
ATOM      7  C   UNL A   1      37.805  21.708  25.117  1.00  0.00     0.009 A 
ATOM      8  C   UNL A   1      38.111  23.887  26.120  1.00  0.00     0.009 A 
ATOM      9  C   UNL A   1      38.970  21.268  25.735  1.00  0.00     0.016 A 
ATOM     10  C   UNL A   1      39.265  23.433  26.773  1.00  0.00     0.016 A 
BRANCH   6  11
ATOM     11  C   UNL A   1      36.306  23.487  24.397  1.00  0.00     0.029 C 
ATOM     12  N   UNL A   1      32.820  24.384  24.660  1.00  0.00    -0.198 N 
ATOM     13  C   UNL A   1      34.027  24.355  23.977  1.00  0.00     0.285 C 
ATOM     14  C   UNL A   1      32.743  23.714  25.866  1.00  0.00     0.168 C 
ATOM     15  O   UNL A   1      34.244  24.798  22.857  1.00  0.00    -0.266 OA
ATOM     16  C   UNL A   1      35.047  23.676  24.819  1.00  0.00     0.082 C 
ATOM     17  S   UNL A   1      34.370  23.259  26.351  1.00  0.00    -0.052 SA
ATOM     18  S   UNL A   1      31.394  23.322  26.763  1.00  0.00    -0.050 S 
BRANCH  12  19
ATOM     19  N   UNL A   1      31.723  24.975  24.026  1.00  0.00    -0.255 N 
ATOM     20  O   UNL A   1      30.416  26.743  23.474  1.00  0.00    -0.267 OA
ATOM     21  C   UNL A   1      31.384  26.310  24.091  1.00  0.00     0.270 C 
ATOM     22  H   UNL A   1      31.143  24.388  23.488  1.00  0.00     0.192 HD
BRANCH  21  23
ATOM     23  C   UNL A   1      32.143  27.227  24.971  1.00  0.00     0.041 A 
ATOM     24  C   UNL A   1      33.273  27.919  24.524  1.00  0.00     0.015 A 
ATOM     25  C   UNL A   1      31.694  27.383  26.289  1.00  0.00     0.015 A 
ATOM     26  C   UNL A   1      33.989  28.720  25.418  1.00  0.00     0.021 A 
ATOM     27  C   UNL A   1      32.414  28.180  27.181  1.00  0.00     0.021 A 
ATOM     28  C   UNL A   1      33.563  28.837  26.744  1.00  0.00     0.041 A 
ATOM     29  Cl  UNL A   1      34.465  29.801  27.848  1.00  0.00    -0.084 Cl
ENDBRANCH  21  23
ENDBRANCH  12  19
ENDBRANCH   6  11
ENDBRANCH   3   5
ENDBRANCH   2   3
ENDBRANCH   1   2
BRANCH   1  30
ATOM     30  C   UNL A   1      42.832  18.587  26.101  1.00  0.00     0.275 C 
BRANCH  30  31
ATOM     31  O   UNL A   1      43.047  19.211  24.821  1.00  0.00    -0.458 OA
BRANCH  31  32
ATOM     32  C   UNL A   1      44.339  19.393  24.467  1.00  0.00     0.338 C 
ATOM     33  O   UNL A   1      45.109  18.573  23.998  1.00  0.00    -0.246 OA
BRANCH  32  34
ATOM     34  C   UNL A   1      44.726  20.796  24.692  1.00  0.00     0.060 A 
ATOM     35  C   UNL A   1      45.500  21.110  25.804  1.00  0.00     0.016 A 
ATOM     36  C   UNL A   1      44.191  21.814  23.907  1.00  0.00     0.016 A 
ATOM     37  C   UNL A   1      45.661  22.435  26.201  1.00  0.00     0.010 A 
ATOM     38  C   UNL A   1      44.443  23.151  24.245  1.00  0.00     0.010 A 
ATOM     39  C   UNL A   1      45.146  23.480  25.420  1.00  0.00    -0.014 A 
BRANCH  39  40
ATOM     40  C   UNL A   1      45.304  24.900  25.854  1.00  0.00     0.031 A 
ATOM     41  C   UNL A   1      46.624  25.609  25.671  1.00  0.00     0.074 A 
ATOM     42  C   UNL A   1      44.268  25.577  26.391  1.00  0.00     0.049 A 
ATOM     43  N   UNL A   1      47.019  26.765  26.146  1.00  0.00    -0.248 NA
ATOM     44  C   UNL A   1      47.638  24.922  24.856  1.00  0.00     0.031 C 
ATOM     45  C   UNL A   1      42.916  25.050  26.578  1.00  0.00     0.029 A 
ATOM     46  N   UNL A   1      44.186  26.864  26.867  1.00  0.00    -0.354 N 
ATOM     47  C   UNL A   1      48.341  26.910  25.744  1.00  0.00     0.074 A 
ATOM     48  C   UNL A   1      48.682  25.729  24.982  1.00  0.00     0.031 C 
ATOM     49  C   UNL A   1      42.130  26.016  27.077  1.00  0.00     0.029 A 
ATOM     50  C   UNL A   1      42.940  27.199  27.339  1.00  0.00     0.049 A 
ATOM     51  H   UNL A   1      44.949  27.488  26.869  1.00  0.00     0.167 HD
ATOM     52  C   UNL A   1      49.192  27.936  25.991  1.00  0.00     0.037 A 
ATOM     53  C   UNL A   1      42.504  28.314  27.957  1.00  0.00     0.037 A 
ATOM     54  C   UNL A   1      48.834  29.142  26.691  1.00  0.00     0.049 A 
ATOM     55  C   UNL A   1      43.475  29.424  28.248  1.00  0.00     0.074 A 
ATOM     56  C   UNL A   1      49.626  30.240  26.983  1.00  0.00     0.029 A 
ATOM     57  N   UNL A   1      47.570  29.420  27.190  1.00  0.00    -0.354 N 
ATOM     58  N   UNL A   1      44.743  29.515  27.936  1.00  0.00    -0.248 NA
ATOM     59  C   UNL A   1      42.957  30.573  29.003  1.00  0.00     0.031 C 
ATOM     60  C   UNL A   1      48.850  31.169  27.685  1.00  0.00     0.029 A 
ATOM     61  C   UNL A   1      47.563  30.668  27.793  1.00  0.00     0.049 A 
ATOM     62  H   UNL A   1      46.792  28.820  27.126  1.00  0.00     0.167 HD
ATOM     63  C   UNL A   1      45.173  30.733  28.444  1.00  0.00     0.074 A 
ATOM     64  C   UNL A   1      44.024  31.356  29.068  1.00  0.00     0.031 C 
ATOM     65  C   UNL A   1      46.412  31.280  28.402  1.00  0.00     0.037 A 
BRANCH  52  66
ATOM     66  C   UNL A   1      50.614  27.793  25.529  1.00  0.00     0.064 A 
ATOM     67  C   UNL A   1      51.641  27.394  26.395  1.00  0.00     0.173 A 
ATOM     68  C   UNL A   1      50.939  28.006  24.179  1.00  0.00     0.173 A 
ATOM     69  F   UNL A   1      51.386  27.189  27.696  1.00  0.00    -0.203 F 
ATOM     70  C   UNL A   1      52.945  27.231  25.930  1.00  0.00     0.198 A 
ATOM     71  C   UNL A   1      52.236  27.816  23.714  1.00  0.00     0.198 A 
ATOM     72  F   UNL A   1      49.991  28.382  23.307  1.00  0.00    -0.203 F 
ATOM     73  F   UNL A   1      53.920  26.884  26.784  1.00  0.00    -0.200 F 
ATOM     74  C   UNL A   1      53.240  27.434  24.591  1.00  0.00     0.200 A 
ATOM     75  F   UNL A   1      52.516  28.000  22.416  1.00  0.00    -0.200 F 
ATOM     76  F   UNL A   1      54.493  27.265  24.144  1.00  0.00    -0.200 F 
ENDBRANCH  52  66
BRANCH  53  77
ATOM     77  C   UNL A   1      41.081  28.419  28.374  1.00  0.00     0.064 A 
ATOM     78  C   UNL A   1      40.671  27.989  29.643  1.00  0.00     0.173 A 
ATOM     79  C   UNL A   1      40.105  28.957  27.520  1.00  0.00     0.173 A 
ATOM     80  F   UNL A   1      41.560  27.442  30.484  1.00  0.00    -0.203 F 
ATOM     81  C   UNL A   1      39.338  28.089  30.041  1.00  0.00     0.198 A 
ATOM     82  C   UNL A   1      38.781  29.084  27.931  1.00  0.00     0.198 A 
ATOM     83  F   UNL A   1      40.445  29.378  26.294  1.00  0.00    -0.203 F 
ATOM     84  F   UNL A   1      38.967  27.636  31.246  1.00  0.00    -0.200 F 
ATOM     85  C   UNL A   1      38.398  28.646  29.189  1.00  0.00     0.200 A 
ATOM     86  F   UNL A   1      37.878  29.636  27.109  1.00  0.00    -0.200 F 
ATOM     87  F   UNL A   1      37.120  28.753  29.577  1.00  0.00    -0.200 F 
ENDBRANCH  53  77
BRANCH  65  88
ATOM     88  C   UNL A   1      46.582  32.636  29.020  1.00  0.00     0.064 A 
ATOM     89  C   UNL A   1      46.961  32.791  30.361  1.00  0.00     0.173 A 
ATOM     90  C   UNL A   1      46.391  33.794  28.251  1.00  0.00     0.173 A 
ATOM     91  F   UNL A   1      47.139  31.713  31.140  1.00  0.00    -0.203 F 
ATOM     92  C   UNL A   1      47.123  34.057  30.916  1.00  0.00     0.198 A 
ATOM     93  C   UNL A   1      46.578  35.057  28.803  1.00  0.00     0.198 A 
ATOM     94  F   UNL A   1      46.031  33.698  26.962  1.00  0.00    -0.203 F 
ATOM     95  F   UNL A   1      47.444  34.182  32.212  1.00  0.00    -0.200 F 
ATOM     96  C   UNL A   1      46.937  35.189  30.136  1.00  0.00     0.200 A 
ATOM     97  F   UNL A   1      46.408  36.150  28.045  1.00  0.00    -0.200 F 
ATOM     98  F   UNL A   1      47.096  36.406  30.672  1.00  0.00    -0.200 F 
ENDBRANCH  65  88
ENDBRANCH  39  40
ENDBRANCH  32  34
ENDBRANCH  31  32
ENDBRANCH  30  31
ENDBRANCH   1  30
TORSDOF 14
ENDMDL
MODEL 2
REMARK VINA RESULT:     -12.7      0.207      1.216
REMARK SMILES O=C(NN1C(=O)/C(=C/c2ccc(C(=O)OCCOC(=O)c3ccc(-c4c5nc(c(-c6c(F)c(F)c(F)c(F)c6F)c6ccc([nH]6)c(-c6c(F)c(F)c(F)c(F)c6F)c6nc(c(-c7c(F)c(F)c(F)c(F)c7F)c7ccc4[nH]7)C=C6)C=C5)cc3)cc2)SC1=S)c1ccc(Cl)cc1
REMARK SMILES IDX 16 1 15 2 13 3 14 4 12 5 9 6 10 7 85 8 11 9 84 10 8 11 4 12
REMARK SMILES IDX 5 13 87 14 6 15 7 16 86 17 88 18 3 19 1 20 2 21 89 23 90 24
REMARK SMILES IDX 95 25 91 26 94 27 92 28 93 29 17 30 18 31 19 32 20 33 21 34
REMARK SMILES IDX 22 35 83 36 23 37 82 38 24 39 25 40 26 41 76 42 27 43 81 44
REMARK SMILES IDX 75 45 77 46 28 47 80 48 74 49 73 50 29 52 61 53 41 54 60 55
REMARK SMILES IDX 42 56 45 57 59 58 78 59 43 60 44 61 58 63 79 64 46 65 30 66
REMARK SMILES IDX 31 67 39 68 32 69 33 70 37 71 40 72 34 73 35 74 38 75 36 76
REMARK SMILES IDX 62 77 63 78 71 79 64 80 65 81 69 82 72 83 66 84 67 85 70 86
REMARK SMILES IDX 68 87 47 88 48 89 56 90 49 91 50 92 54 93 57 94 51 95 52 96
REMARK SMILES IDX 55 97 53 98
REMARK H PARENT 3 22 77 51 45 62
REMARK Flexibility Score: inf
ROOT
ATOM      1  C   UNL A   1      41.897  19.577  27.173  1.00  0.00     0.275 C 
ENDROOT
BRANCH   1   2
ATOM      2  O   UNL A   1      41.419  20.698  26.403  1.00  0.00    -0.458 OA
BRANCH   2   3
ATOM      3  C   UNL A   1      40.936  21.734  27.130  1.00  0.00     0.338 C 
ATOM      4  O   UNL A   1      41.480  22.269  28.083  1.00  0.00    -0.246 OA
BRANCH   3   5
ATOM      5  C   UNL A   1      39.651  22.227  26.579  1.00  0.00     0.060 A 
ATOM      6  C   UNL A   1      37.330  23.112  25.281  1.00  0.00    -0.024 A 
ATOM      7  C   UNL A   1      37.741  21.784  25.149  1.00  0.00     0.009 A 
ATOM      8  C   UNL A   1      38.041  23.976  26.125  1.00  0.00     0.009 A 
ATOM      9  C   UNL A   1      38.911  21.357  25.768  1.00  0.00     0.016 A 
ATOM     10  C   UNL A   1      39.200  23.534  26.779  1.00  0.00     0.016 A 
BRANCH   6  11
ATOM     11  C   UNL A   1      36.232  23.549  24.415  1.00  0.00     0.029 C 
ATOM     12  N   UNL A   1      32.737  24.408  24.677  1.00  0.00    -0.198 N 
ATOM     13  C   UNL A   1      33.943  24.390  23.992  1.00  0.00     0.285 C 
ATOM     14  C   UNL A   1      32.667  23.741  25.884  1.00  0.00     0.168 C 
ATOM     15  O   UNL A   1      34.155  24.832  22.871  1.00  0.00    -0.266 OA
ATOM     16  C   UNL A   1      34.972  23.725  24.837  1.00  0.00     0.082 C 
ATOM     17  S   UNL A   1      34.299  23.305  26.370  1.00  0.00    -0.052 SA
ATOM     18  S   UNL A   1      31.323  23.336  26.784  1.00  0.00    -0.050 S 
BRANCH  12  19
ATOM     19  N   UNL A   1      31.632  24.985  24.041  1.00  0.00    -0.255 N 
ATOM     20  O   UNL A   1      30.285  26.730  23.514  1.00  0.00    -0.267 OA
ATOM     21  C   UNL A   1      31.256  26.308  24.135  1.00  0.00     0.270 C 
ATOM     22  H   UNL A   1      31.077  24.396  23.479  1.00  0.00     0.192 HD
BRANCH  21  23
ATOM     23  C   UNL A   1      31.976  27.222  25.049  1.00  0.00     0.041 A 
ATOM     24  C   UNL A   1      31.600  27.383  26.386  1.00  0.00     0.015 A 
ATOM     25  C   UNL A   1      33.061  27.941  24.529  1.00  0.00     0.015 A 
ATOM     26  C   UNL A   1      32.274  28.311  27.185  1.00  0.00     0.021 A 
ATOM     27  C   UNL A   1      33.729  28.870  25.329  1.00  0.00     0.021 A 
ATOM     28  C   UNL A   1      33.326  29.058  26.650  1.00  0.00     0.041 A 
ATOM     29  Cl  UNL A   1      34.133  30.219  27.630  1.00  0.00    -0.084 Cl
ENDBRANCH  21  23
ENDBRANCH  12  19
ENDBRANCH   6  11
ENDBRANCH   3   5
ENDBRANCH   2   3
ENDBRANCH   1   2
BRANCH   1  30
ATOM     30  C   UNL A   1      42.657  18.586  26.292  1.00  0.00     0.275 C 
BRANCH  30  31
ATOM     31  O   UNL A   1      42.877  19.144  24.983  1.00  0.00    -0.458 OA
BRANCH  31  32
ATOM     32  C   UNL A   1      44.171  19.296  24.621  1.00  0.00     0.338 C 
ATOM     33  O   UNL A   1      44.925  18.454  24.166  1.00  0.00    -0.246 OA
BRANCH  32  34
ATOM     34  C   UNL A   1      44.584  20.696  24.814  1.00  0.00     0.060 A 
ATOM     35  C   UNL A   1      45.285  21.037  25.966  1.00  0.00     0.016 A 
ATOM     36  C   UNL A   1      44.137  21.694  23.951  1.00  0.00     0.016 A 
ATOM     37  C   UNL A   1      45.457  22.373  26.318  1.00  0.00     0.010 A 
ATOM     38  C   UNL A   1      44.405  23.036  24.251  1.00  0.00     0.010 A 
ATOM     39  C   UNL A   1      45.032  23.397  25.459  1.00  0.00    -0.014 A 
BRANCH  39  40
ATOM     40  C   UNL A   1      45.201  24.830  25.845  1.00  0.00     0.031 A 
ATOM     41  C   UNL A   1      46.526  25.522  25.637  1.00  0.00     0.074 A 
ATOM     42  C   UNL A   1      44.171  25.533  26.359  1.00  0.00     0.049 A 
ATOM     43  N   UNL A   1      46.931  26.690  26.071  1.00  0.00    -0.248 NA
ATOM     44  C   UNL A   1      47.534  24.799  24.844  1.00  0.00     0.031 C 
ATOM     45  C   UNL A   1      42.815  25.023  26.566  1.00  0.00     0.029 A 
ATOM     46  N   UNL A   1      44.100  26.836  26.791  1.00  0.00    -0.354 N 
ATOM     47  C   UNL A   1      48.253  26.812  25.663  1.00  0.00     0.074 A 
ATOM     48  C   UNL A   1      48.585  25.602  24.941  1.00  0.00     0.031 C 
ATOM     49  C   UNL A   1      42.037  26.011  27.032  1.00  0.00     0.029 A 
ATOM     50  C   UNL A   1      42.857  27.196  27.253  1.00  0.00     0.049 A 
ATOM     51  H   UNL A   1      44.867  27.453  26.771  1.00  0.00     0.167 HD
ATOM     52  C   UNL A   1      49.113  27.838  25.874  1.00  0.00     0.037 A 
ATOM     53  C   UNL A   1      42.430  28.335  27.832  1.00  0.00     0.037 A 
ATOM     54  C   UNL A   1      48.765  29.071  26.533  1.00  0.00     0.049 A 
ATOM     55  C   UNL A   1      43.410  29.447  28.085  1.00  0.00     0.074 A 
ATOM     56  C   UNL A   1      49.565  30.172  26.786  1.00  0.00     0.029 A 
ATOM     57  N   UNL A   1      47.503  29.376  27.023  1.00  0.00    -0.354 N 
ATOM     58  N   UNL A   1      44.678  29.518  27.768  1.00  0.00    -0.248 NA
ATOM     59  C   UNL A   1      42.901  30.625  28.801  1.00  0.00     0.031 C 
ATOM     60  C   UNL A   1      48.797  31.130  27.457  1.00  0.00     0.029 A 
ATOM     61  C   UNL A   1      47.507  30.643  27.583  1.00  0.00     0.049 A 
ATOM     62  H   UNL A   1      46.721  28.779  26.980  1.00  0.00     0.167 HD
ATOM     63  C   UNL A   1      45.118  30.748  28.234  1.00  0.00     0.074 A 
ATOM     64  C   UNL A   1      43.975  31.401  28.838  1.00  0.00     0.031 C 
ATOM     65  C   UNL A   1      46.361  31.285  28.173  1.00  0.00     0.037 A 
BRANCH  52  66
ATOM     66  C   UNL A   1      50.533  27.669  25.416  1.00  0.00     0.064 A 
ATOM     67  C   UNL A   1      50.918  27.892  24.087  1.00  0.00     0.173 A 
ATOM     68  C   UNL A   1      51.534  27.331  26.341  1.00  0.00     0.173 A 
ATOM     69  F   UNL A   1      49.998  28.205  23.161  1.00  0.00    -0.203 F 
ATOM     70  C   UNL A   1      52.250  27.766  23.697  1.00  0.00     0.198 A 
ATOM     71  C   UNL A   1      52.867  27.232  25.954  1.00  0.00     0.198 A 
ATOM     72  F   UNL A   1      51.220  27.115  27.628  1.00  0.00    -0.203 F 
ATOM     73  F   UNL A   1      52.590  27.947  22.413  1.00  0.00    -0.200 F 
ATOM     74  C   UNL A   1      53.223  27.444  24.631  1.00  0.00     0.200 A 
ATOM     75  F   UNL A   1      53.807  26.935  26.862  1.00  0.00    -0.200 F 
ATOM     76  F   UNL A   1      54.505  27.335  24.256  1.00  0.00    -0.200 F 
ENDBRANCH  52  66
BRANCH  53  77
ATOM     77  C   UNL A   1      41.008  28.466  28.247  1.00  0.00     0.064 A 
ATOM     78  C   UNL A   1      40.599  28.097  29.536  1.00  0.00     0.173 A 
ATOM     79  C   UNL A   1      40.033  28.967  27.371  1.00  0.00     0.173 A 
ATOM     80  F   UNL A   1      41.489  27.586  30.399  1.00  0.00    -0.203 F 
ATOM     81  C   UNL A   1      39.268  28.221  29.932  1.00  0.00     0.198 A 
ATOM     82  C   UNL A   1      38.710  29.119  27.778  1.00  0.00     0.198 A 
ATOM     83  F   UNL A   1      40.372  29.329  26.126  1.00  0.00    -0.203 F 
ATOM     84  F   UNL A   1      38.898  27.827  31.157  1.00  0.00    -0.200 F 
ATOM     85  C   UNL A   1      38.328  28.741  29.056  1.00  0.00     0.200 A 
ATOM     86  F   UNL A   1      37.807  29.636  26.933  1.00  0.00    -0.200 F 
ATOM     87  F   UNL A   1      37.051  28.872  29.442  1.00  0.00    -0.200 F 
ENDBRANCH  53  77
BRANCH  65  88
ATOM     88  C   UNL A   1      46.542  32.659  28.743  1.00  0.00     0.064 A 
ATOM     89  C   UNL A   1      46.922  32.857  30.078  1.00  0.00     0.173 A 
ATOM     90  C   UNL A   1      46.362  33.791  27.935  1.00  0.00     0.173 A 
ATOM     91  F   UNL A   1      47.091  31.805  30.895  1.00  0.00    -0.203 F 
ATOM     92  C   UNL A   1      47.094  34.140  30.590  1.00  0.00     0.198 A 
ATOM     93  C   UNL A   1      46.559  35.072  28.443  1.00  0.00     0.198 A 
ATOM     94  F   UNL A   1      46.002  33.655  26.650  1.00  0.00    -0.203 F 
ATOM     95  F   UNL A   1      47.415  34.307  31.881  1.00  0.00    -0.200 F 
ATOM     96  C   UNL A   1      46.919  35.246  29.771  1.00  0.00     0.200 A 
ATOM     97  F   UNL A   1      46.399  36.139  27.648  1.00  0.00    -0.200 F 
ATOM     98  F   UNL A   1      47.088  36.479  30.265  1.00  0.00    -0.200 F 
ENDBRANCH  65  88
ENDBRANCH  39  40
ENDBRANCH  32  34
ENDBRANCH  31  32
ENDBRANCH  30  31
ENDBRANCH   1  30
TORSDOF 14
ENDMDL
MODEL 3
REMARK VINA RESULT:     -12.7      6.674     12.311
REMARK SMILES O=C(NN1C(=O)/C(=C/c2ccc(C(=O)OCCOC(=O)c3ccc(-c4c5nc(c(-c6c(F)c(F)c(F)c(F)c6F)c6ccc([nH]6)c(-c6c(F)c(F)c(F)c(F)c6F)c6nc(c(-c7c(F)c(F)c(F)c(F)c7F)c7ccc4[nH]7)C=C6)C=C5)cc3)cc2)SC1=S)c1ccc(Cl)cc1
REMARK SMILES IDX 16 1 15 2 13 3 14 4 12 5 9 6 10 7 85 8 11 9 84 10 8 11 4 12
REMARK SMILES IDX 5 13 87 14 6 15 7 16 86 17 88 18 3 19 1 20 2 21 89 23 90 24
REMARK SMILES IDX 95 25 91 26 94 27 92 28 93 29 17 30 18 31 19 32 20 33 21 34
REMARK SMILES IDX 22 35 83 36 23 37 82 38 24 39 25 40 26 41 76 42 27 43 81 44
REMARK SMILES IDX 75 45 77 46 28 47 80 48 74 49 73 50 29 52 61 53 41 54 60 55
REMARK SMILES IDX 42 56 45 57 59 58 78 59 43 60 44 61 58 63 79 64 46 65 30 66
REMARK SMILES IDX 31 67 39 68 32 69 33 70 37 71 40 72 34 73 35 74 38 75 36 76
REMARK SMILES IDX 62 77 63 78 71 79 64 80 65 81 69 82 72 83 66 84 67 85 70 86
REMARK SMILES IDX 68 87 47 88 48 89 56 90 49 91 50 92 54 93 57 94 51 95 52 96
REMARK SMILES IDX 55 97 53 98
REMARK H PARENT 3 22 77 51 45 62
REMARK Flexibility Score: inf
ROOT
ATOM      1  C   UNL A   1      34.101  35.261  28.719  1.00  0.00     0.275 C 
ENDROOT
BRANCH   1   2
ATOM      2  O   UNL A   1      34.069  33.853  29.030  1.00  0.00    -0.458 OA
BRANCH   2   3
ATOM      3  C   UNL A   1      35.061  33.117  28.475  1.00  0.00     0.338 C 
ATOM      4  O   UNL A   1      36.246  33.408  28.433  1.00  0.00    -0.246 OA
BRANCH   3   5
ATOM      5  C   UNL A   1      34.551  31.821  27.965  1.00  0.00     0.060 A 
ATOM      6  C   UNL A   1      33.390  29.387  27.204  1.00  0.00    -0.024 A 
ATOM      7  C   UNL A   1      32.657  30.572  27.106  1.00  0.00     0.009 A 
ATOM      8  C   UNL A   1      34.730  29.434  27.612  1.00  0.00     0.009 A 
ATOM      9  C   UNL A   1      33.225  31.773  27.516  1.00  0.00     0.016 A 
ATOM     10  C   UNL A   1      35.314  30.651  27.989  1.00  0.00     0.016 A 
BRANCH   6  11
ATOM     11  C   UNL A   1      32.653  28.140  26.984  1.00  0.00     0.029 C 
ATOM     12  N   UNL A   1      32.381  25.544  24.492  1.00  0.00    -0.198 N 
ATOM     13  C   UNL A   1      32.165  26.040  25.769  1.00  0.00     0.285 C 
ATOM     14  C   UNL A   1      32.937  26.392  23.553  1.00  0.00     0.168 C 
ATOM     15  O   UNL A   1      31.590  25.471  26.687  1.00  0.00    -0.266 OA
ATOM     16  C   UNL A   1      32.738  27.410  25.862  1.00  0.00     0.082 C 
ATOM     17  S   UNL A   1      33.522  27.827  24.383  1.00  0.00    -0.052 SA
ATOM     18  S   UNL A   1      33.049  26.200  21.901  1.00  0.00    -0.050 S 
BRANCH  12  19
ATOM     19  N   UNL A   1      31.902  24.263  24.197  1.00  0.00    -0.255 N 
ATOM     20  O   UNL A   1      32.083  22.005  24.114  1.00  0.00    -0.267 OA
ATOM     21  C   UNL A   1      32.600  23.088  24.375  1.00  0.00     0.270 C 
ATOM     22  H   UNL A   1      30.990  24.196  23.832  1.00  0.00     0.192 HD
BRANCH  21  23
ATOM     23  C   UNL A   1      34.014  23.121  24.811  1.00  0.00     0.041 A 
ATOM     24  C   UNL A   1      34.374  23.076  26.162  1.00  0.00     0.015 A 
ATOM     25  C   UNL A   1      34.999  23.206  23.819  1.00  0.00     0.015 A 
ATOM     26  C   UNL A   1      35.722  23.179  26.518  1.00  0.00     0.021 A 
ATOM     27  C   UNL A   1      36.344  23.313  24.179  1.00  0.00     0.021 A 
ATOM     28  C   UNL A   1      36.698  23.308  25.527  1.00  0.00     0.041 A 
ATOM     29  Cl  UNL A   1      38.353  23.463  25.973  1.00  0.00    -0.084 Cl
ENDBRANCH  21  23
ENDBRANCH  12  19
ENDBRANCH   6  11
ENDBRANCH   3   5
ENDBRANCH   2   3
ENDBRANCH   1   2
BRANCH   1  30
ATOM     30  C   UNL A   1      32.967  36.007  29.420  1.00  0.00     0.275 C 
BRANCH  30  31
ATOM     31  O   UNL A   1      32.452  35.225  30.515  1.00  0.00    -0.458 OA
BRANCH  31  32
ATOM     32  C   UNL A   1      32.657  35.739  31.749  1.00  0.00     0.338 C 
ATOM     33  O   UNL A   1      32.023  36.617  32.308  1.00  0.00    -0.246 OA
BRANCH  32  34
ATOM     34  C   UNL A   1      33.782  35.047  32.399  1.00  0.00     0.060 A 
ATOM     35  C   UNL A   1      35.039  35.641  32.378  1.00  0.00     0.016 A 
ATOM     36  C   UNL A   1      33.635  33.747  32.876  1.00  0.00     0.016 A 
ATOM     37  C   UNL A   1      36.171  34.912  32.736  1.00  0.00     0.010 A 
ATOM     38  C   UNL A   1      34.760  33.050  33.337  1.00  0.00     0.010 A 
ATOM     39  C   UNL A   1      36.049  33.607  33.235  1.00  0.00    -0.014 A 
BRANCH  39  40
ATOM     40  C   UNL A   1      37.264  32.819  33.603  1.00  0.00     0.031 A 
ATOM     41  C   UNL A   1      37.915  33.011  34.950  1.00  0.00     0.074 A 
ATOM     42  C   UNL A   1      37.780  31.910  32.751  1.00  0.00     0.049 A 
ATOM     43  N   UNL A   1      39.070  32.570  35.385  1.00  0.00    -0.248 NA
ATOM     44  C   UNL A   1      37.176  33.816  35.935  1.00  0.00     0.031 C 
ATOM     45  C   UNL A   1      37.230  31.568  31.438  1.00  0.00     0.029 A 
ATOM     46  N   UNL A   1      38.880  31.094  32.867  1.00  0.00    -0.354 N 
ATOM     47  C   UNL A   1      39.223  33.095  36.662  1.00  0.00     0.074 A 
ATOM     48  C   UNL A   1      38.042  33.885  36.937  1.00  0.00     0.031 C 
ATOM     49  C   UNL A   1      37.959  30.581  30.897  1.00  0.00     0.029 A 
ATOM     50  C   UNL A   1      39.086  30.287  31.774  1.00  0.00     0.049 A 
ATOM     51  H   UNL A   1      39.465  31.087  33.660  1.00  0.00     0.167 HD
ATOM     52  C   UNL A   1      40.256  32.934  37.525  1.00  0.00     0.037 A 
ATOM     53  C   UNL A   1      40.092  29.438  31.484  1.00  0.00     0.037 A 
ATOM     54  C   UNL A   1      41.399  32.094  37.280  1.00  0.00     0.049 A 
ATOM     55  C   UNL A   1      41.241  29.302  32.442  1.00  0.00     0.074 A 
ATOM     56  C   UNL A   1      42.493  31.862  38.098  1.00  0.00     0.029 A 
ATOM     57  N   UNL A   1      41.587  31.328  36.138  1.00  0.00    -0.354 N 
ATOM     58  N   UNL A   1      41.415  29.868  33.610  1.00  0.00    -0.248 NA
ATOM     59  C   UNL A   1      42.348  28.429  32.026  1.00  0.00     0.031 C 
ATOM     60  C   UNL A   1      43.356  30.980  37.439  1.00  0.00     0.029 A 
ATOM     61  C   UNL A   1      42.781  30.629  36.229  1.00  0.00     0.049 A 
ATOM     62  H   UNL A   1      40.965  31.287  35.377  1.00  0.00     0.167 HD
ATOM     63  C   UNL A   1      42.641  29.413  34.074  1.00  0.00     0.074 A 
ATOM     64  C   UNL A   1      43.160  28.508  33.070  1.00  0.00     0.031 C 
ATOM     65  C   UNL A   1      43.281  29.726  35.227  1.00  0.00     0.037 A 
BRANCH  52  66
ATOM     66  C   UNL A   1      40.221  33.708  38.812  1.00  0.00     0.064 A 
ATOM     67  C   UNL A   1      39.524  33.247  39.938  1.00  0.00     0.173 A 
ATOM     68  C   UNL A   1      40.946  34.904  38.933  1.00  0.00     0.173 A 
ATOM     69  F   UNL A   1      38.805  32.116  39.871  1.00  0.00    -0.203 F 
ATOM     70  C   UNL A   1      39.541  33.965  41.132  1.00  0.00     0.198 A 
ATOM     71  C   UNL A   1      40.983  35.604  40.135  1.00  0.00     0.198 A 
ATOM     72  F   UNL A   1      41.637  35.384  37.887  1.00  0.00    -0.203 F 
ATOM     73  F   UNL A   1      38.837  33.525  42.185  1.00  0.00    -0.200 F 
ATOM     74  C   UNL A   1      40.275  35.137  41.232  1.00  0.00     0.200 A 
ATOM     75  F   UNL A   1      41.704  36.729  40.233  1.00  0.00    -0.200 F 
ATOM     76  F   UNL A   1      40.299  35.820  42.385  1.00  0.00    -0.200 F 
ENDBRANCH  52  66
BRANCH  53  77
ATOM     77  C   UNL A   1      40.071  28.676  30.208  1.00  0.00     0.064 A 
ATOM     78  C   UNL A   1      40.685  29.186  29.056  1.00  0.00     0.173 A 
ATOM     79  C   UNL A   1      39.445  27.424  30.113  1.00  0.00     0.173 A 
ATOM     80  F   UNL A   1      41.271  30.392  29.089  1.00  0.00    -0.203 F 
ATOM     81  C   UNL A   1      40.672  28.474  27.858  1.00  0.00     0.198 A 
ATOM     82  C   UNL A   1      39.459  26.700  28.923  1.00  0.00     0.198 A 
ATOM     83  F   UNL A   1      38.838  26.894  31.184  1.00  0.00    -0.203 F 
ATOM     84  F   UNL A   1      41.236  29.001  26.763  1.00  0.00    -0.200 F 
ATOM     85  C   UNL A   1      40.068  27.228  27.796  1.00  0.00     0.200 A 
ATOM     86  F   UNL A   1      38.887  25.489  28.872  1.00  0.00    -0.200 F 
ATOM     87  F   UNL A   1      40.068  26.538  26.647  1.00  0.00    -0.200 F 
ENDBRANCH  53  77
BRANCH  65  88
ATOM     88  C   UNL A   1      44.599  29.057  35.480  1.00  0.00     0.064 A 
ATOM     89  C   UNL A   1      44.681  27.816  36.129  1.00  0.00     0.173 A 
ATOM     90  C   UNL A   1      45.792  29.651  35.042  1.00  0.00     0.173 A 
ATOM     91  F   UNL A   1      43.569  27.216  36.581  1.00  0.00    -0.203 F 
ATOM     92  C   UNL A   1      45.912  27.205  36.349  1.00  0.00     0.198 A 
ATOM     93  C   UNL A   1      47.018  29.025  35.241  1.00  0.00     0.198 A 
ATOM     94  F   UNL A   1      45.766  30.836  34.413  1.00  0.00    -0.203 F 
ATOM     95  F   UNL A   1      45.971  26.040  37.009  1.00  0.00    -0.200 F 
ATOM     96  C   UNL A   1      47.079  27.806  35.899  1.00  0.00     0.200 A 
ATOM     97  F   UNL A   1      48.144  29.603  34.798  1.00  0.00    -0.200 F 
ATOM     98  F   UNL A   1      48.262  27.214  36.109  1.00  0.00    -0.200 F 
ENDBRANCH  65  88
ENDBRANCH  39  40
ENDBRANCH  32  34
ENDBRANCH  31  32
ENDBRANCH  30  31
ENDBRANCH   1  30
TORSDOF 14
ENDMDL
