MODEL 1
REMARK VINA RESULT:     -12.7      0.000      0.000
REMARK SMILES O=C(CC(=O)c1ccccc1)Nc1cccc(C(=O)OCCOC(=O)c2ccc(-c3c4nc(c(-c5c(F)c(F)c(F)c(F)c5F)c5ccc([nH]5)c(-c5c(F)c(F)c(F)c(F)c5F)c5nc(c(-c6c(F)c(F)c(F)c(F)c6F)c6ccc3[nH]6)C=C5)C=C4)cc2)c1
REMARK SMILES IDX 21 1 20 2 18 3 19 4 17 5 13 6 14 7 89 8 15 9 16 10 12 11
REMARK SMILES IDX 1 12 2 13 3 15 4 16 5 17 6 18 7 19 11 20 8 21 10 22 9 23
REMARK SMILES IDX 22 24 23 25 24 26 25 27 26 28 27 29 88 30 28 31 87 32 29 33
REMARK SMILES IDX 30 34 31 35 81 36 32 37 86 38 80 39 82 40 33 41 85 42 79 43
REMARK SMILES IDX 78 44 34 46 66 47 46 48 65 49 47 50 50 51 64 52 83 53 48 54
REMARK SMILES IDX 49 55 63 57 84 58 51 59 35 60 36 61 44 62 37 63 38 64 42 65
REMARK SMILES IDX 45 66 39 67 40 68 43 69 41 70 67 71 68 72 76 73 69 74 70 75
REMARK SMILES IDX 74 76 77 77 71 78 72 79 75 80 73 81 52 82 53 83 61 84 54 85
REMARK SMILES IDX 55 86 59 87 62 88 56 89 57 90 60 91 58 92
REMARK H PARENT 12 14 82 45 50 56
REMARK Flexibility Score: inf
ROOT
ATOM      1  C   UNL A   1      42.934  20.954  25.793  1.00  0.00     0.275 C 
ENDROOT
BRANCH   1   2
ATOM      2  O   UNL A   1      41.597  21.443  25.568  1.00  0.00    -0.458 OA
BRANCH   2   3
ATOM      3  C   UNL A   1      40.700  21.253  26.568  1.00  0.00     0.338 C 
ATOM      4  O   UNL A   1      40.896  20.678  27.621  1.00  0.00    -0.246 OA
BRANCH   3   5
ATOM      5  C   UNL A   1      39.437  21.979  26.265  1.00  0.00     0.062 A 
ATOM      6  C   UNL A   1      37.287  22.149  25.168  1.00  0.00     0.042 A 
ATOM      7  C   UNL A   1      37.198  23.490  25.565  1.00  0.00     0.026 A 
ATOM      8  C   UNL A   1      38.430  21.411  25.481  1.00  0.00     0.041 A 
ATOM      9  C   UNL A   1      38.176  24.044  26.388  1.00  0.00     0.003 A 
ATOM     10  C   UNL A   1      39.270  23.273  26.774  1.00  0.00     0.016 A 
BRANCH   6  11
ATOM     11  N   UNL A   1      36.156  21.596  24.535  1.00  0.00    -0.326 N 
ATOM     12  O   UNL A   1      34.823  21.159  26.398  1.00  0.00    -0.274 OA
ATOM     13  C   UNL A   1      34.984  21.237  25.182  1.00  0.00     0.232 C 
ATOM     14  H   UNL A   1      36.202  21.452  23.563  1.00  0.00     0.169 HD
BRANCH  13  15
ATOM     15  C   UNL A   1      33.826  20.998  24.254  1.00  0.00     0.181 C 
BRANCH  15  16
ATOM     16  C   UNL A   1      32.779  20.052  24.780  1.00  0.00     0.172 C 
ATOM     17  O   UNL A   1      31.717  20.465  25.243  1.00  0.00    -0.294 OA
BRANCH  16  18
ATOM     18  C   UNL A   1      33.029  18.591  24.763  1.00  0.00     0.018 A 
ATOM     19  C   UNL A   1      33.667  18.048  23.643  1.00  0.00     0.012 A 
ATOM     20  C   UNL A   1      32.564  17.749  25.779  1.00  0.00     0.012 A 
ATOM     21  C   UNL A   1      33.854  16.668  23.548  1.00  0.00     0.001 A 
ATOM     22  C   UNL A   1      32.739  16.368  25.671  1.00  0.00     0.001 A 
ATOM     23  C   UNL A   1      33.386  15.829  24.560  1.00  0.00     0.000 A 
ENDBRANCH  16  18
ENDBRANCH  15  16
ENDBRANCH  13  15
ENDBRANCH   6  11
ENDBRANCH   3   5
ENDBRANCH   2   3
ENDBRANCH   1   2
BRANCH   1  24
ATOM     24  C   UNL A   1      43.965  21.837  25.089  1.00  0.00     0.275 C 
BRANCH  24  25
ATOM     25  O   UNL A   1      43.361  23.082  24.689  1.00  0.00    -0.458 OA
BRANCH  25  26
ATOM     26  C   UNL A   1      44.029  24.197  25.053  1.00  0.00     0.338 C 
ATOM     27  O   UNL A   1      45.093  24.611  24.626  1.00  0.00    -0.246 OA
BRANCH  26  28
ATOM     28  C   UNL A   1      43.216  24.961  26.009  1.00  0.00     0.060 A 
ATOM     29  C   UNL A   1      43.213  26.346  25.882  1.00  0.00     0.016 A 
ATOM     30  C   UNL A   1      42.610  24.355  27.106  1.00  0.00     0.016 A 
ATOM     31  C   UNL A   1      42.665  27.149  26.875  1.00  0.00     0.010 A 
ATOM     32  C   UNL A   1      42.013  25.160  28.087  1.00  0.00     0.010 A 
ATOM     33  C   UNL A   1      42.075  26.565  28.002  1.00  0.00    -0.014 A 
BRANCH  33  34
ATOM     34  C   UNL A   1      41.653  27.429  29.139  1.00  0.00     0.031 A 
ATOM     35  C   UNL A   1      42.482  27.457  30.396  1.00  0.00     0.074 A 
ATOM     36  C   UNL A   1      40.585  28.242  29.033  1.00  0.00     0.049 A 
ATOM     37  N   UNL A   1      42.244  28.048  31.539  1.00  0.00    -0.248 NA
ATOM     38  C   UNL A   1      43.752  26.714  30.360  1.00  0.00     0.031 C 
ATOM     39  C   UNL A   1      39.737  28.379  27.848  1.00  0.00     0.029 A 
ATOM     40  N   UNL A   1      40.041  29.125  29.935  1.00  0.00    -0.354 N 
ATOM     41  C   UNL A   1      43.302  27.704  32.371  1.00  0.00     0.074 A 
ATOM     42  C   UNL A   1      44.181  26.848  31.606  1.00  0.00     0.031 C 
ATOM     43  C   UNL A   1      38.802  29.313  28.084  1.00  0.00     0.029 A 
ATOM     44  C   UNL A   1      38.941  29.794  29.456  1.00  0.00     0.049 A 
ATOM     45  H   UNL A   1      40.405  29.264  30.839  1.00  0.00     0.167 HD
ATOM     46  C   UNL A   1      43.521  28.071  33.657  1.00  0.00     0.037 A 
ATOM     47  C   UNL A   1      38.122  30.674  30.063  1.00  0.00     0.037 A 
ATOM     48  C   UNL A   1      42.677  28.967  34.403  1.00  0.00     0.049 A 
ATOM     49  C   UNL A   1      38.368  31.042  31.501  1.00  0.00     0.074 A 
ATOM     50  C   UNL A   1      42.808  29.390  35.715  1.00  0.00     0.029 A 
ATOM     51  N   UNL A   1      41.551  29.597  33.892  1.00  0.00    -0.354 N 
ATOM     52  N   UNL A   1      39.331  30.657  32.303  1.00  0.00    -0.248 NA
ATOM     53  C   UNL A   1      37.401  31.958  32.124  1.00  0.00     0.031 C 
ATOM     54  C   UNL A   1      41.746  30.255  36.006  1.00  0.00     0.029 A 
ATOM     55  C   UNL A   1      40.978  30.403  34.861  1.00  0.00     0.049 A 
ATOM     56  H   UNL A   1      41.210  29.486  32.975  1.00  0.00     0.167 HD
ATOM     57  C   UNL A   1      39.102  31.299  33.512  1.00  0.00     0.074 A 
ATOM     58  C   UNL A   1      37.916  32.111  33.336  1.00  0.00     0.031 C 
ATOM     59  C   UNL A   1      39.809  31.220  34.665  1.00  0.00     0.037 A 
BRANCH  46  60
ATOM     60  C   UNL A   1      44.709  27.471  34.351  1.00  0.00     0.064 A 
ATOM     61  C   UNL A   1      44.634  26.243  35.025  1.00  0.00     0.173 A 
ATOM     62  C   UNL A   1      45.945  28.135  34.333  1.00  0.00     0.173 A 
ATOM     63  F   UNL A   1      43.471  25.577  35.086  1.00  0.00    -0.203 F 
ATOM     64  C   UNL A   1      45.745  25.717  35.681  1.00  0.00     0.198 A 
ATOM     65  C   UNL A   1      47.062  27.593  34.964  1.00  0.00     0.198 A 
ATOM     66  F   UNL A   1      46.073  29.310  33.699  1.00  0.00    -0.203 F 
ATOM     67  F   UNL A   1      45.637  24.569  36.363  1.00  0.00    -0.200 F 
ATOM     68  C   UNL A   1      46.958  26.389  35.646  1.00  0.00     0.200 A 
ATOM     69  F   UNL A   1      48.235  28.238  34.919  1.00  0.00    -0.200 F 
ATOM     70  F   UNL A   1      48.026  25.881  36.276  1.00  0.00    -0.200 F 
ENDBRANCH  46  60
BRANCH  47  71
ATOM     71  C   UNL A   1      36.978  31.260  29.317  1.00  0.00     0.064 A 
ATOM     72  C   UNL A   1      36.995  32.602  28.908  1.00  0.00     0.173 A 
ATOM     73  C   UNL A   1      35.843  30.498  29.005  1.00  0.00     0.173 A 
ATOM     74  F   UNL A   1      38.046  33.379  29.209  1.00  0.00    -0.203 F 
ATOM     75  C   UNL A   1      35.916  33.160  28.226  1.00  0.00     0.198 A 
ATOM     76  C   UNL A   1      34.777  31.049  28.297  1.00  0.00     0.198 A 
ATOM     77  F   UNL A   1      35.774  29.212  29.377  1.00  0.00    -0.203 F 
ATOM     78  F   UNL A   1      35.942  34.455  27.885  1.00  0.00    -0.200 F 
ATOM     79  C   UNL A   1      34.812  32.382  27.914  1.00  0.00     0.200 A 
ATOM     80  F   UNL A   1      33.717  30.291  27.988  1.00  0.00    -0.200 F 
ATOM     81  F   UNL A   1      33.777  32.918  27.253  1.00  0.00    -0.200 F 
ENDBRANCH  47  71
BRANCH  59  82
ATOM     82  C   UNL A   1      39.349  32.071  35.812  1.00  0.00     0.064 A 
ATOM     83  C   UNL A   1      38.381  31.623  36.722  1.00  0.00     0.173 A 
ATOM     84  C   UNL A   1      39.909  33.341  36.019  1.00  0.00     0.173 A 
ATOM     85  F   UNL A   1      37.805  30.422  36.558  1.00  0.00    -0.203 F 
ATOM     86  C   UNL A   1      37.971  32.427  37.784  1.00  0.00     0.198 A 
ATOM     87  C   UNL A   1      39.516  34.131  37.095  1.00  0.00     0.198 A 
ATOM     88  F   UNL A   1      40.843  33.813  35.179  1.00  0.00    -0.203 F 
ATOM     89  F   UNL A   1      37.011  31.998  38.615  1.00  0.00    -0.200 F 
ATOM     90  C   UNL A   1      38.543  33.677  37.972  1.00  0.00     0.200 A 
ATOM     91  F   UNL A   1      40.076  35.334  37.282  1.00  0.00    -0.200 F 
ATOM     92  F   UNL A   1      38.149  34.447  38.995  1.00  0.00    -0.200 F 
ENDBRANCH  59  82
ENDBRANCH  33  34
ENDBRANCH  26  28
ENDBRANCH  25  26
ENDBRANCH  24  25
ENDBRANCH   1  24
TORSDOF 15
ENDMDL
MODEL 2
REMARK VINA RESULT:     -12.4      5.239      7.586
REMARK SMILES O=C(CC(=O)c1ccccc1)Nc1cccc(C(=O)OCCOC(=O)c2ccc(-c3c4nc(c(-c5c(F)c(F)c(F)c(F)c5F)c5ccc([nH]5)c(-c5c(F)c(F)c(F)c(F)c5F)c5nc(c(-c6c(F)c(F)c(F)c(F)c6F)c6ccc3[nH]6)C=C5)C=C4)cc2)c1
REMARK SMILES IDX 21 1 20 2 18 3 19 4 17 5 13 6 14 7 89 8 15 9 16 10 12 11
REMARK SMILES IDX 1 12 2 13 3 15 4 16 5 17 6 18 7 19 11 20 8 21 10 22 9 23
REMARK SMILES IDX 22 24 23 25 24 26 25 27 26 28 27 29 88 30 28 31 87 32 29 33
REMARK SMILES IDX 30 34 31 35 81 36 32 37 86 38 80 39 82 40 33 41 85 42 79 43
REMARK SMILES IDX 78 44 34 46 66 47 46 48 65 49 47 50 50 51 64 52 83 53 48 54
REMARK SMILES IDX 49 55 63 57 84 58 51 59 35 60 36 61 44 62 37 63 38 64 42 65
REMARK SMILES IDX 45 66 39 67 40 68 43 69 41 70 67 71 68 72 76 73 69 74 70 75
REMARK SMILES IDX 74 76 77 77 71 78 72 79 75 80 73 81 52 82 53 83 61 84 54 85
REMARK SMILES IDX 55 86 59 87 62 88 56 89 57 90 60 91 58 92
REMARK H PARENT 12 14 82 45 50 56
REMARK Flexibility Score: inf
ROOT
ATOM      1  C   UNL A   1      41.908  19.556  27.204  1.00  0.00     0.275 C 
ENDROOT
BRANCH   1   2
ATOM      2  O   UNL A   1      41.228  20.599  26.478  1.00  0.00    -0.458 OA
BRANCH   2   3
ATOM      3  C   UNL A   1      40.002  20.298  25.979  1.00  0.00     0.338 C 
ATOM      4  O   UNL A   1      39.610  19.202  25.628  1.00  0.00    -0.246 OA
BRANCH   3   5
ATOM      5  C   UNL A   1      39.119  21.493  26.042  1.00  0.00     0.062 A 
ATOM      6  C   UNL A   1      37.050  22.644  25.540  1.00  0.00     0.042 A 
ATOM      7  C   UNL A   1      37.609  23.840  26.006  1.00  0.00     0.026 A 
ATOM      8  C   UNL A   1      37.824  21.482  25.517  1.00  0.00     0.041 A 
ATOM      9  C   UNL A   1      38.881  23.844  26.576  1.00  0.00     0.003 A 
ATOM     10  C   UNL A   1      39.615  22.661  26.634  1.00  0.00     0.016 A 
BRANCH   6  11
ATOM     11  N   UNL A   1      35.684  22.671  25.193  1.00  0.00    -0.326 N 
ATOM     12  O   UNL A   1      35.858  23.000  22.892  1.00  0.00    -0.274 OA
ATOM     13  C   UNL A   1      35.199  22.748  23.898  1.00  0.00     0.232 C 
ATOM     14  H   UNL A   1      35.027  22.634  25.925  1.00  0.00     0.169 HD
BRANCH  13  15
ATOM     15  C   UNL A   1      33.737  22.420  23.775  1.00  0.00     0.181 C 
BRANCH  15  16
ATOM     16  C   UNL A   1      33.272  21.272  24.631  1.00  0.00     0.172 C 
ATOM     17  O   UNL A   1      32.771  21.460  25.738  1.00  0.00    -0.294 OA
BRANCH  16  18
ATOM     18  C   UNL A   1      33.434  19.879  24.149  1.00  0.00     0.018 A 
ATOM     19  C   UNL A   1      32.470  19.373  23.270  1.00  0.00     0.012 A 
ATOM     20  C   UNL A   1      34.454  19.047  24.621  1.00  0.00     0.012 A 
ATOM     21  C   UNL A   1      32.539  18.044  22.851  1.00  0.00     0.001 A 
ATOM     22  C   UNL A   1      34.508  17.713  24.212  1.00  0.00     0.001 A 
ATOM     23  C   UNL A   1      33.555  17.214  23.325  1.00  0.00     0.000 A 
ENDBRANCH  16  18
ENDBRANCH  15  16
ENDBRANCH  13  15
ENDBRANCH   6  11
ENDBRANCH   3   5
ENDBRANCH   2   3
ENDBRANCH   1   2
BRANCH   1  24
ATOM     24  C   UNL A   1      42.691  18.650  26.253  1.00  0.00     0.275 C 
BRANCH  24  25
ATOM     25  O   UNL A   1      42.901  19.316  24.994  1.00  0.00    -0.458 OA
BRANCH  25  26
ATOM     26  C   UNL A   1      44.187  19.407  24.591  1.00  0.00     0.338 C 
ATOM     27  O   UNL A   1      44.874  18.549  24.066  1.00  0.00    -0.246 OA
BRANCH  26  28
ATOM     28  C   UNL A   1      44.655  20.788  24.770  1.00  0.00     0.060 A 
ATOM     29  C   UNL A   1      45.404  21.066  25.909  1.00  0.00     0.016 A 
ATOM     30  C   UNL A   1      44.231  21.821  23.938  1.00  0.00     0.016 A 
ATOM     31  C   UNL A   1      45.684  22.379  26.271  1.00  0.00     0.010 A 
ATOM     32  C   UNL A   1      44.553  23.144  24.274  1.00  0.00     0.010 A 
ATOM     33  C   UNL A   1      45.244  23.436  25.467  1.00  0.00    -0.014 A 
BRANCH  33  34
ATOM     34  C   UNL A   1      45.393  24.836  25.952  1.00  0.00     0.031 A 
ATOM     35  C   UNL A   1      46.710  25.546  25.774  1.00  0.00     0.074 A 
ATOM     36  C   UNL A   1      44.348  25.503  26.478  1.00  0.00     0.049 A 
ATOM     37  N   UNL A   1      47.092  26.717  26.216  1.00  0.00    -0.248 NA
ATOM     38  C   UNL A   1      47.738  24.835  24.997  1.00  0.00     0.031 C 
ATOM     39  C   UNL A   1      42.995  24.970  26.636  1.00  0.00     0.029 A 
ATOM     40  N   UNL A   1      44.259  26.787  26.960  1.00  0.00    -0.354 N 
ATOM     41  C   UNL A   1      48.415  26.859  25.817  1.00  0.00     0.074 A 
ATOM     42  C   UNL A   1      48.774  25.653  25.105  1.00  0.00     0.031 C 
ATOM     43  C   UNL A   1      42.204  25.928  27.147  1.00  0.00     0.029 A 
ATOM     44  C   UNL A   1      43.006  27.119  27.413  1.00  0.00     0.049 A 
ATOM     45  H   UNL A   1      45.021  27.410  26.978  1.00  0.00     0.167 HD
ATOM     46  C   UNL A   1      49.255  27.902  26.025  1.00  0.00     0.037 A 
ATOM     47  C   UNL A   1      42.560  28.245  28.002  1.00  0.00     0.037 A 
ATOM     48  C   UNL A   1      48.884  29.126  26.686  1.00  0.00     0.049 A 
ATOM     49  C   UNL A   1      43.519  29.378  28.250  1.00  0.00     0.074 A 
ATOM     50  C   UNL A   1      49.666  30.236  26.956  1.00  0.00     0.029 A 
ATOM     51  N   UNL A   1      47.612  29.409  27.162  1.00  0.00    -0.354 N 
ATOM     52  N   UNL A   1      44.787  29.476  27.934  1.00  0.00    -0.248 NA
ATOM     53  C   UNL A   1      42.985  30.554  28.954  1.00  0.00     0.031 C 
ATOM     54  C   UNL A   1      48.874  31.180  27.620  1.00  0.00     0.029 A 
ATOM     55  C   UNL A   1      47.588  30.674  27.726  1.00  0.00     0.049 A 
ATOM     56  H   UNL A   1      46.841  28.800  27.109  1.00  0.00     0.167 HD
ATOM     57  C   UNL A   1      45.196  30.727  28.374  1.00  0.00     0.074 A 
ATOM     58  C   UNL A   1      44.038  31.360  28.970  1.00  0.00     0.031 C 
ATOM     59  C   UNL A   1      46.423  31.299  28.296  1.00  0.00     0.037 A 
BRANCH  46  60
ATOM     60  C   UNL A   1      50.674  27.747  25.561  1.00  0.00     0.064 A 
ATOM     61  C   UNL A   1      51.049  27.971  24.228  1.00  0.00     0.173 A 
ATOM     62  C   UNL A   1      51.675  27.376  26.471  1.00  0.00     0.173 A 
ATOM     63  F   UNL A   1      50.127  28.312  23.315  1.00  0.00    -0.203 F 
ATOM     64  C   UNL A   1      52.369  27.799  23.817  1.00  0.00     0.198 A 
ATOM     65  C   UNL A   1      52.999  27.233  26.064  1.00  0.00     0.198 A 
ATOM     66  F   UNL A   1      51.372  27.154  27.759  1.00  0.00    -0.203 F 
ATOM     67  F   UNL A   1      52.695  27.967  22.528  1.00  0.00    -0.200 F 
ATOM     68  C   UNL A   1      53.343  27.435  24.736  1.00  0.00     0.200 A 
ATOM     69  F   UNL A   1      53.940  26.893  26.955  1.00  0.00    -0.200 F 
ATOM     70  F   UNL A   1      54.613  27.272  24.339  1.00  0.00    -0.200 F 
ENDBRANCH  46  60
BRANCH  47  71
ATOM     71  C   UNL A   1      41.136  28.355  28.413  1.00  0.00     0.064 A 
ATOM     72  C   UNL A   1      40.178  28.910  27.553  1.00  0.00     0.173 A 
ATOM     73  C   UNL A   1      40.706  27.919  29.674  1.00  0.00     0.173 A 
ATOM     74  F   UNL A   1      40.547  29.368  26.347  1.00  0.00    -0.203 F 
ATOM     75  C   UNL A   1      38.845  29.032  27.943  1.00  0.00     0.198 A 
ATOM     76  C   UNL A   1      39.368  28.015  30.052  1.00  0.00     0.198 A 
ATOM     77  F   UNL A   1      41.584  27.386  30.537  1.00  0.00    -0.203 F 
ATOM     78  F   UNL A   1      37.959  29.604  27.117  1.00  0.00    -0.200 F 
ATOM     79  C   UNL A   1      38.441  28.578  29.189  1.00  0.00     0.200 A 
ATOM     80  F   UNL A   1      38.979  27.565  31.253  1.00  0.00    -0.200 F 
ATOM     81  F   UNL A   1      37.158  28.691  29.561  1.00  0.00    -0.200 F 
ENDBRANCH  47  71
BRANCH  59  82
ATOM     82  C   UNL A   1      46.564  32.696  28.822  1.00  0.00     0.064 A 
ATOM     83  C   UNL A   1      46.928  32.952  30.151  1.00  0.00     0.173 A 
ATOM     84  C   UNL A   1      46.360  33.795  27.972  1.00  0.00     0.173 A 
ATOM     85  F   UNL A   1      47.119  31.936  31.006  1.00  0.00    -0.203 F 
ATOM     86  C   UNL A   1      47.058  34.258  30.619  1.00  0.00     0.198 A 
ATOM     87  C   UNL A   1      46.516  35.098  28.436  1.00  0.00     0.198 A 
ATOM     88  F   UNL A   1      46.015  33.602  26.690  1.00  0.00    -0.203 F 
ATOM     89  F   UNL A   1      47.362  34.480  31.905  1.00  0.00    -0.200 F 
ATOM     90  C   UNL A   1      46.858  35.329  29.759  1.00  0.00     0.200 A 
ATOM     91  F   UNL A   1      46.332  36.131  27.602  1.00  0.00    -0.200 F 
ATOM     92  F   UNL A   1      46.987  36.584  30.211  1.00  0.00    -0.200 F 
ENDBRANCH  59  82
ENDBRANCH  33  34
ENDBRANCH  26  28
ENDBRANCH  25  26
ENDBRANCH  24  25
ENDBRANCH   1  24
TORSDOF 15
ENDMDL
MODEL 3
REMARK VINA RESULT:     -12.3      2.126      3.398
REMARK SMILES O=C(CC(=O)c1ccccc1)Nc1cccc(C(=O)OCCOC(=O)c2ccc(-c3c4nc(c(-c5c(F)c(F)c(F)c(F)c5F)c5ccc([nH]5)c(-c5c(F)c(F)c(F)c(F)c5F)c5nc(c(-c6c(F)c(F)c(F)c(F)c6F)c6ccc3[nH]6)C=C5)C=C4)cc2)c1
REMARK SMILES IDX 21 1 20 2 18 3 19 4 17 5 13 6 14 7 89 8 15 9 16 10 12 11
REMARK SMILES IDX 1 12 2 13 3 15 4 16 5 17 6 18 7 19 11 20 8 21 10 22 9 23
REMARK SMILES IDX 22 24 23 25 24 26 25 27 26 28 27 29 88 30 28 31 87 32 29 33
REMARK SMILES IDX 30 34 31 35 81 36 32 37 86 38 80 39 82 40 33 41 85 42 79 43
REMARK SMILES IDX 78 44 34 46 66 47 46 48 65 49 47 50 50 51 64 52 83 53 48 54
REMARK SMILES IDX 49 55 63 57 84 58 51 59 35 60 36 61 44 62 37 63 38 64 42 65
REMARK SMILES IDX 45 66 39 67 40 68 43 69 41 70 67 71 68 72 76 73 69 74 70 75
REMARK SMILES IDX 74 76 77 77 71 78 72 79 75 80 73 81 52 82 53 83 61 84 54 85
REMARK SMILES IDX 55 86 59 87 62 88 56 89 57 90 60 91 58 92
REMARK H PARENT 12 14 82 45 50 56
REMARK Flexibility Score: inf
ROOT
ATOM      1  C   UNL A   1      46.388  22.440  24.985  1.00  0.00     0.275 C 
ENDROOT
BRANCH   1   2
ATOM      2  O   UNL A   1      45.854  21.297  24.287  1.00  0.00    -0.458 OA
BRANCH   2   3
ATOM      3  C   UNL A   1      45.974  20.094  24.903  1.00  0.00     0.338 C 
ATOM      4  O   UNL A   1      47.007  19.497  25.137  1.00  0.00    -0.246 OA
BRANCH   3   5
ATOM      5  C   UNL A   1      44.647  19.638  25.396  1.00  0.00     0.062 A 
ATOM      6  C   UNL A   1      42.314  20.029  25.907  1.00  0.00     0.042 A 
ATOM      7  C   UNL A   1      42.249  18.780  26.538  1.00  0.00     0.026 A 
ATOM      8  C   UNL A   1      43.527  20.474  25.378  1.00  0.00     0.041 A 
ATOM      9  C   UNL A   1      43.349  17.925  26.513  1.00  0.00     0.003 A 
ATOM     10  C   UNL A   1      44.530  18.338  25.902  1.00  0.00     0.016 A 
BRANCH   6  11
ATOM     11  N   UNL A   1      41.103  20.738  25.772  1.00  0.00    -0.326 N 
ATOM     12  O   UNL A   1      40.632  21.167  28.014  1.00  0.00    -0.274 OA
ATOM     13  C   UNL A   1      40.413  21.331  26.817  1.00  0.00     0.232 C 
ATOM     14  H   UNL A   1      40.720  20.817  24.869  1.00  0.00     0.169 HD
BRANCH  13  15
ATOM     15  C   UNL A   1      39.354  22.302  26.374  1.00  0.00     0.181 C 
BRANCH  15  16
ATOM     16  C   UNL A   1      38.251  21.700  25.544  1.00  0.00     0.172 C 
ATOM     17  O   UNL A   1      38.237  20.502  25.268  1.00  0.00    -0.294 OA
BRANCH  16  18
ATOM     18  C   UNL A   1      37.163  22.564  25.025  1.00  0.00     0.018 A 
ATOM     19  C   UNL A   1      36.506  23.405  25.929  1.00  0.00     0.012 A 
ATOM     20  C   UNL A   1      36.726  22.485  23.699  1.00  0.00     0.012 A 
ATOM     21  C   UNL A   1      35.426  24.178  25.503  1.00  0.00     0.001 A 
ATOM     22  C   UNL A   1      35.633  23.248  23.282  1.00  0.00     0.001 A 
ATOM     23  C   UNL A   1      34.987  24.096  24.180  1.00  0.00     0.000 A 
ENDBRANCH  16  18
ENDBRANCH  15  16
ENDBRANCH  13  15
ENDBRANCH   6  11
ENDBRANCH   3   5
ENDBRANCH   2   3
ENDBRANCH   1   2
BRANCH   1  24
ATOM     24  C   UNL A   1      45.907  23.744  24.347  1.00  0.00     0.275 C 
BRANCH  24  25
ATOM     25  O   UNL A   1      45.024  24.440  25.247  1.00  0.00    -0.458 OA
BRANCH  25  26
ATOM     26  C   UNL A   1      43.705  24.285  25.004  1.00  0.00     0.338 C 
ATOM     27  O   UNL A   1      43.166  23.497  24.246  1.00  0.00    -0.246 OA
BRANCH  26  28
ATOM     28  C   UNL A   1      42.939  25.158  25.903  1.00  0.00     0.060 A 
ATOM     29  C   UNL A   1      43.370  26.474  26.035  1.00  0.00     0.016 A 
ATOM     30  C   UNL A   1      41.933  24.662  26.728  1.00  0.00     0.016 A 
ATOM     31  C   UNL A   1      42.852  27.294  27.031  1.00  0.00     0.010 A 
ATOM     32  C   UNL A   1      41.373  25.501  27.702  1.00  0.00     0.010 A 
ATOM     33  C   UNL A   1      41.859  26.810  27.891  1.00  0.00    -0.014 A 
BRANCH  33  34
ATOM     34  C   UNL A   1      41.440  27.631  29.061  1.00  0.00     0.031 A 
ATOM     35  C   UNL A   1      42.261  27.595  30.323  1.00  0.00     0.074 A 
ATOM     36  C   UNL A   1      40.383  28.462  28.983  1.00  0.00     0.049 A 
ATOM     37  N   UNL A   1      42.022  28.140  31.489  1.00  0.00    -0.248 NA
ATOM     38  C   UNL A   1      43.521  26.838  30.264  1.00  0.00     0.031 C 
ATOM     39  C   UNL A   1      39.546  28.659  27.800  1.00  0.00     0.029 A 
ATOM     40  N   UNL A   1      39.844  29.312  29.918  1.00  0.00    -0.354 N 
ATOM     41  C   UNL A   1      43.070  27.748  32.312  1.00  0.00     0.074 A 
ATOM     42  C   UNL A   1      43.944  26.914  31.517  1.00  0.00     0.031 C 
ATOM     43  C   UNL A   1      38.620  29.594  28.069  1.00  0.00     0.029 A 
ATOM     44  C   UNL A   1      38.756  30.014  29.461  1.00  0.00     0.049 A 
ATOM     45  H   UNL A   1      40.203  29.408  30.829  1.00  0.00     0.167 HD
ATOM     46  C   UNL A   1      43.285  28.057  33.614  1.00  0.00     0.037 A 
ATOM     47  C   UNL A   1      37.944  30.878  30.100  1.00  0.00     0.037 A 
ATOM     48  C   UNL A   1      42.447  28.931  34.392  1.00  0.00     0.049 A 
ATOM     49  C   UNL A   1      38.184  31.181  31.553  1.00  0.00     0.074 A 
ATOM     50  C   UNL A   1      42.574  29.296  35.721  1.00  0.00     0.029 A 
ATOM     51  N   UNL A   1      41.333  29.596  33.901  1.00  0.00    -0.354 N 
ATOM     52  N   UNL A   1      39.136  30.751  32.344  1.00  0.00    -0.248 NA
ATOM     53  C   UNL A   1      37.224  32.083  32.209  1.00  0.00     0.031 C 
ATOM     54  C   UNL A   1      41.521  30.161  36.042  1.00  0.00     0.029 A 
ATOM     55  C   UNL A   1      40.763  30.367  34.900  1.00  0.00     0.049 A 
ATOM     56  H   UNL A   1      40.996  29.529  32.978  1.00  0.00     0.167 HD
ATOM     57  C   UNL A   1      38.908  31.344  33.578  1.00  0.00     0.074 A 
ATOM     58  C   UNL A   1      37.733  32.177  33.430  1.00  0.00     0.031 C 
ATOM     59  C   UNL A   1      39.606  31.207  34.732  1.00  0.00     0.037 A 
BRANCH  46  60
ATOM     60  C   UNL A   1      44.461  27.413  34.290  1.00  0.00     0.064 A 
ATOM     61  C   UNL A   1      45.716  28.035  34.351  1.00  0.00     0.173 A 
ATOM     62  C   UNL A   1      44.322  26.153  34.894  1.00  0.00     0.173 A 
ATOM     63  F   UNL A   1      45.905  29.232  33.774  1.00  0.00    -0.203 F 
ATOM     64  C   UNL A   1      46.798  27.407  34.964  1.00  0.00     0.198 A 
ATOM     65  C   UNL A   1      45.397  25.541  35.532  1.00  0.00     0.198 A 
ATOM     66  F   UNL A   1      43.142  25.517  34.868  1.00  0.00    -0.203 F 
ATOM     67  F   UNL A   1      48.001  27.996  34.964  1.00  0.00    -0.200 F 
ATOM     68  C   UNL A   1      46.636  26.164  35.558  1.00  0.00     0.200 A 
ATOM     69  F   UNL A   1      45.236  24.346  36.115  1.00  0.00    -0.200 F 
ATOM     70  F   UNL A   1      47.677  25.562  36.149  1.00  0.00    -0.200 F 
ENDBRANCH  46  60
BRANCH  47  71
ATOM     71  C   UNL A   1      36.812  31.510  29.372  1.00  0.00     0.064 A 
ATOM     72  C   UNL A   1      36.829  32.878  29.061  1.00  0.00     0.173 A 
ATOM     73  C   UNL A   1      35.690  30.766  28.980  1.00  0.00     0.173 A 
ATOM     74  F   UNL A   1      37.867  33.637  29.441  1.00  0.00    -0.203 F 
ATOM     75  C   UNL A   1      35.761  33.478  28.396  1.00  0.00     0.198 A 
ATOM     76  C   UNL A   1      34.636  31.361  28.290  1.00  0.00     0.198 A 
ATOM     77  F   UNL A   1      35.622  29.456  29.258  1.00  0.00    -0.203 F 
ATOM     78  F   UNL A   1      35.785  34.794  28.150  1.00  0.00    -0.200 F 
ATOM     79  C   UNL A   1      34.670  32.718  28.005  1.00  0.00     0.200 A 
ATOM     80  F   UNL A   1      33.588  30.621  27.904  1.00  0.00    -0.200 F 
ATOM     81  F   UNL A   1      33.646  33.294  27.360  1.00  0.00    -0.200 F 
ENDBRANCH  47  71
BRANCH  59  82
ATOM     82  C   UNL A   1      39.149  32.015  35.910  1.00  0.00     0.064 A 
ATOM     83  C   UNL A   1      38.281  31.485  36.876  1.00  0.00     0.173 A 
ATOM     84  C   UNL A   1      39.611  33.327  36.091  1.00  0.00     0.173 A 
ATOM     85  F   UNL A   1      37.800  30.239  36.741  1.00  0.00    -0.203 F 
ATOM     86  C   UNL A   1      37.872  32.249  37.967  1.00  0.00     0.198 A 
ATOM     87  C   UNL A   1      39.221  34.080  37.194  1.00  0.00     0.198 A 
ATOM     88  F   UNL A   1      40.447  33.878  35.196  1.00  0.00    -0.203 F 
ATOM     89  F   UNL A   1      37.006  31.739  38.854  1.00  0.00    -0.200 F 
ATOM     90  C   UNL A   1      38.347  33.543  38.127  1.00  0.00     0.200 A 
ATOM     91  F   UNL A   1      39.688  35.326  37.354  1.00  0.00    -0.200 F 
ATOM     92  F   UNL A   1      37.954  34.276  39.179  1.00  0.00    -0.200 F 
ENDBRANCH  59  82
ENDBRANCH  33  34
ENDBRANCH  26  28
ENDBRANCH  25  26
ENDBRANCH  24  25
ENDBRANCH   1  24
TORSDOF 15
ENDMDL
