MODEL 1
REMARK VINA RESULT:     -12.3      0.000      0.000
REMARK SMILES COc1ccc(NS(=O)(=O)c2ccc(Cl)c(C(=O)OCCOC(=O)c3ccc(-c4c5nc(c(-c6c(F)c(F)c(F)c(F)c6F)c6ccc([nH]6)c(-c6c(F)c(F)c(F)c(F)c6F)c6nc(c(-c7c(F)c(F)c(F)c(F)c7F)c7ccc4[nH]7)C=C6)C=C5)cc3)c2)cc1Cl
REMARK SMILES IDX 20 1 19 2 17 3 18 4 16 5 11 6 12 7 88 8 13 9 14 10 15 11
REMARK SMILES IDX 8 12 9 13 10 14 7 15 6 17 3 18 4 19 90 20 5 21 89 22 91 23
REMARK SMILES IDX 2 24 1 25 21 26 22 27 23 28 24 29 25 30 26 31 87 32 27 33
REMARK SMILES IDX 86 34 28 35 29 36 30 37 80 38 31 39 85 40 79 41 81 42 32 43
REMARK SMILES IDX 84 44 78 45 77 46 33 48 65 49 45 50 64 51 46 52 49 53 63 54
REMARK SMILES IDX 82 55 47 56 48 57 62 59 83 60 50 61 34 62 35 63 43 64 36 65
REMARK SMILES IDX 37 66 41 67 44 68 38 69 39 70 42 71 40 72 66 73 67 74 75 75
REMARK SMILES IDX 68 76 69 77 73 78 76 79 70 80 71 81 74 82 72 83 51 84 52 85
REMARK SMILES IDX 60 86 53 87 54 88 58 89 61 90 55 91 56 92 59 93 57 94
REMARK H PARENT 7 16 81 47 49 58
REMARK Flexibility Score: inf
ROOT
ATOM      1  C   UNL A   1      31.441  28.476  25.481  1.00  0.00     0.275 C 
ENDROOT
BRANCH   1   2
ATOM      2  O   UNL A   1      31.435  27.825  24.192  1.00  0.00    -0.458 OA
BRANCH   2   3
ATOM      3  C   UNL A   1      32.553  27.129  23.882  1.00  0.00     0.339 C 
ATOM      4  O   UNL A   1      33.694  27.558  23.814  1.00  0.00    -0.246 OA
BRANCH   3   5
ATOM      5  C   UNL A   1      32.263  25.689  23.754  1.00  0.00     0.080 A 
ATOM      6  C   UNL A   1      31.753  23.619  24.931  1.00  0.00     0.088 A 
ATOM      7  C   UNL A   1      31.844  22.909  23.737  1.00  0.00     0.024 A 
ATOM      8  C   UNL A   1      32.006  24.992  24.942  1.00  0.00     0.039 A 
ATOM      9  C   UNL A   1      32.101  23.603  22.545  1.00  0.00     0.023 A 
ATOM     10  C   UNL A   1      32.298  24.993  22.546  1.00  0.00     0.055 A 
ATOM     11  Cl  UNL A   1      32.625  25.760  21.036  1.00  0.00    -0.083 Cl
BRANCH   6  12
ATOM     12  S   UNL A   1      31.155  22.922  26.463  1.00  0.00     0.261 S 
ATOM     13  O   UNL A   1      30.281  21.827  26.103  1.00  0.00    -0.201 OA
ATOM     14  O   UNL A   1      30.680  24.038  27.252  1.00  0.00    -0.201 OA
BRANCH  12  15
ATOM     15  N   UNL A   1      32.466  22.298  27.280  1.00  0.00    -0.280 N 
ATOM     16  H   UNL A   1      32.353  22.148  28.247  1.00  0.00     0.180 HD
BRANCH  15  17
ATOM     17  C   UNL A   1      33.729  21.959  26.723  1.00  0.00     0.051 A 
ATOM     18  C   UNL A   1      36.062  21.761  25.198  1.00  0.00     0.137 A 
ATOM     19  C   UNL A   1      35.102  20.750  25.140  1.00  0.00     0.050 A 
ATOM     20  C   UNL A   1      35.905  22.819  26.095  1.00  0.00     0.085 A 
ATOM     21  C   UNL A   1      33.954  20.829  25.934  1.00  0.00     0.030 A 
ATOM     22  C   UNL A   1      34.743  22.911  26.864  1.00  0.00     0.051 A 
ATOM     23  Cl  UNL A   1      37.078  24.076  26.228  1.00  0.00    -0.080 Cl
BRANCH  18  24
ATOM     24  O   UNL A   1      37.038  21.779  24.238  1.00  0.00    -0.495 OA
ATOM     25  C   UNL A   1      36.666  22.585  23.126  1.00  0.00     0.278 C 
ENDBRANCH  18  24
ENDBRANCH  15  17
ENDBRANCH  12  15
ENDBRANCH   6  12
ENDBRANCH   3   5
ENDBRANCH   2   3
ENDBRANCH   1   2
BRANCH   1  26
ATOM     26  C   UNL A   1      31.594  29.987  25.327  1.00  0.00     0.275 C 
BRANCH  26  27
ATOM     27  O   UNL A   1      32.944  30.362  25.655  1.00  0.00    -0.458 OA
BRANCH  27  28
ATOM     28  C   UNL A   1      33.102  31.068  26.797  1.00  0.00     0.338 C 
ATOM     29  O   UNL A   1      32.290  31.802  27.335  1.00  0.00    -0.246 OA
BRANCH  28  30
ATOM     30  C   UNL A   1      34.442  30.810  27.354  1.00  0.00     0.060 A 
ATOM     31  C   UNL A   1      34.856  29.500  27.576  1.00  0.00     0.016 A 
ATOM     32  C   UNL A   1      35.241  31.871  27.774  1.00  0.00     0.016 A 
ATOM     33  C   UNL A   1      36.002  29.242  28.329  1.00  0.00     0.010 A 
ATOM     34  C   UNL A   1      36.454  31.609  28.423  1.00  0.00     0.010 A 
ATOM     35  C   UNL A   1      36.828  30.293  28.755  1.00  0.00    -0.014 A 
BRANCH  35  36
ATOM     36  C   UNL A   1      38.044  30.030  29.581  1.00  0.00     0.031 A 
ATOM     37  C   UNL A   1      39.164  29.183  29.029  1.00  0.00     0.074 A 
ATOM     38  C   UNL A   1      38.169  30.543  30.822  1.00  0.00     0.049 A 
ATOM     39  N   UNL A   1      40.186  28.646  29.651  1.00  0.00    -0.248 NA
ATOM     40  C   UNL A   1      39.117  28.881  27.590  1.00  0.00     0.031 C 
ATOM     41  C   UNL A   1      37.201  31.418  31.484  1.00  0.00     0.029 A 
ATOM     42  N   UNL A   1      39.174  30.403  31.751  1.00  0.00    -0.354 N 
ATOM     43  C   UNL A   1      40.852  27.883  28.699  1.00  0.00     0.074 A 
ATOM     44  C   UNL A   1      40.129  28.033  27.455  1.00  0.00     0.031 C 
ATOM     45  C   UNL A   1      37.679  31.778  32.684  1.00  0.00     0.029 A 
ATOM     46  C   UNL A   1      38.942  31.086  32.921  1.00  0.00     0.049 A 
ATOM     47  H   UNL A   1      39.984  29.866  31.593  1.00  0.00     0.167 HD
ATOM     48  C   UNL A   1      41.964  27.124  28.853  1.00  0.00     0.037 A 
ATOM     49  C   UNL A   1      39.641  31.123  34.072  1.00  0.00     0.037 A 
ATOM     50  C   UNL A   1      42.741  27.048  30.063  1.00  0.00     0.049 A 
ATOM     51  C   UNL A   1      40.883  30.290  34.212  1.00  0.00     0.074 A 
ATOM     52  C   UNL A   1      43.894  26.319  30.307  1.00  0.00     0.029 A 
ATOM     53  N   UNL A   1      42.462  27.753  31.224  1.00  0.00    -0.354 N 
ATOM     54  N   UNL A   1      41.452  29.501  33.335  1.00  0.00    -0.248 NA
ATOM     55  C   UNL A   1      41.565  30.331  35.513  1.00  0.00     0.031 C 
ATOM     56  C   UNL A   1      44.302  26.570  31.621  1.00  0.00     0.029 A 
ATOM     57  C   UNL A   1      43.422  27.478  32.185  1.00  0.00     0.049 A 
ATOM     58  H   UNL A   1      41.697  28.360  31.347  1.00  0.00     0.167 HD
ATOM     59  C   UNL A   1      42.555  28.955  33.974  1.00  0.00     0.074 A 
ATOM     60  C   UNL A   1      42.594  29.522  35.306  1.00  0.00     0.031 C 
ATOM     61  C   UNL A   1      43.450  28.053  33.502  1.00  0.00     0.037 A 
BRANCH  48  62
ATOM     62  C   UNL A   1      42.403  26.285  27.689  1.00  0.00     0.064 A 
ATOM     63  C   UNL A   1      43.397  26.710  26.798  1.00  0.00     0.173 A 
ATOM     64  C   UNL A   1      41.854  25.006  27.503  1.00  0.00     0.173 A 
ATOM     65  F   UNL A   1      43.946  27.927  26.928  1.00  0.00    -0.203 F 
ATOM     66  C   UNL A   1      43.814  25.892  25.750  1.00  0.00     0.198 A 
ATOM     67  C   UNL A   1      42.291  24.182  26.469  1.00  0.00     0.198 A 
ATOM     68  F   UNL A   1      40.905  24.550  28.334  1.00  0.00    -0.203 F 
ATOM     69  F   UNL A   1      44.743  26.330  24.889  1.00  0.00    -0.200 F 
ATOM     70  C   UNL A   1      43.266  24.627  25.592  1.00  0.00     0.200 A 
ATOM     71  F   UNL A   1      41.770  22.955  26.326  1.00  0.00    -0.200 F 
ATOM     72  F   UNL A   1      43.679  23.837  24.590  1.00  0.00    -0.200 F 
ENDBRANCH  48  62
BRANCH  49  73
ATOM     73  C   UNL A   1      39.154  31.954  35.204  1.00  0.00     0.064 A 
ATOM     74  C   UNL A   1      39.427  33.328  35.257  1.00  0.00     0.173 A 
ATOM     75  C   UNL A   1      38.407  31.395  36.251  1.00  0.00     0.173 A 
ATOM     76  F   UNL A   1      40.164  33.902  34.295  1.00  0.00    -0.203 F 
ATOM     77  C   UNL A   1      38.975  34.109  36.319  1.00  0.00     0.198 A 
ATOM     78  C   UNL A   1      37.931  32.182  37.296  1.00  0.00     0.198 A 
ATOM     79  F   UNL A   1      38.124  30.084  36.249  1.00  0.00    -0.203 F 
ATOM     80  F   UNL A   1      39.283  35.413  36.367  1.00  0.00    -0.200 F 
ATOM     81  C   UNL A   1      38.221  33.537  37.333  1.00  0.00     0.200 A 
ATOM     82  F   UNL A   1      37.194  31.628  38.268  1.00  0.00    -0.200 F 
ATOM     83  F   UNL A   1      37.780  34.291  38.349  1.00  0.00    -0.200 F 
ENDBRANCH  49  73
BRANCH  61  84
ATOM     84  C   UNL A   1      44.556  27.643  34.425  1.00  0.00     0.064 A 
ATOM     85  C   UNL A   1      44.426  26.531  35.271  1.00  0.00     0.173 A 
ATOM     86  C   UNL A   1      45.769  28.347  34.442  1.00  0.00     0.173 A 
ATOM     87  F   UNL A   1      43.278  25.837  35.300  1.00  0.00    -0.203 F 
ATOM     88  C   UNL A   1      45.464  26.152  36.117  1.00  0.00     0.198 A 
ATOM     89  C   UNL A   1      46.812  27.952  35.275  1.00  0.00     0.198 A 
ATOM     90  F   UNL A   1      45.942  29.415  33.649  1.00  0.00    -0.203 F 
ATOM     91  F   UNL A   1      45.305  25.111  36.945  1.00  0.00    -0.200 F 
ATOM     92  C   UNL A   1      46.657  26.860  36.115  1.00  0.00     0.200 A 
ATOM     93  F   UNL A   1      47.967  28.632  35.267  1.00  0.00    -0.200 F 
ATOM     94  F   UNL A   1      47.657  26.492  36.929  1.00  0.00    -0.200 F 
ENDBRANCH  61  84
ENDBRANCH  35  36
ENDBRANCH  28  30
ENDBRANCH  27  28
ENDBRANCH  26  27
ENDBRANCH   1  26
TORSDOF 15
ENDMDL
MODEL 2
REMARK VINA RESULT:     -12.1      0.375      1.965
REMARK SMILES COc1ccc(NS(=O)(=O)c2ccc(Cl)c(C(=O)OCCOC(=O)c3ccc(-c4c5nc(c(-c6c(F)c(F)c(F)c(F)c6F)c6ccc([nH]6)c(-c6c(F)c(F)c(F)c(F)c6F)c6nc(c(-c7c(F)c(F)c(F)c(F)c7F)c7ccc4[nH]7)C=C6)C=C5)cc3)c2)cc1Cl
REMARK SMILES IDX 20 1 19 2 17 3 18 4 16 5 11 6 12 7 88 8 13 9 14 10 15 11
REMARK SMILES IDX 8 12 9 13 10 14 7 15 6 17 3 18 4 19 90 20 5 21 89 22 91 23
REMARK SMILES IDX 2 24 1 25 21 26 22 27 23 28 24 29 25 30 26 31 87 32 27 33
REMARK SMILES IDX 86 34 28 35 29 36 30 37 80 38 31 39 85 40 79 41 81 42 32 43
REMARK SMILES IDX 84 44 78 45 77 46 33 48 65 49 45 50 64 51 46 52 49 53 63 54
REMARK SMILES IDX 82 55 47 56 48 57 62 59 83 60 50 61 34 62 35 63 43 64 36 65
REMARK SMILES IDX 37 66 41 67 44 68 38 69 39 70 42 71 40 72 66 73 67 74 75 75
REMARK SMILES IDX 68 76 69 77 73 78 76 79 70 80 71 81 74 82 72 83 51 84 52 85
REMARK SMILES IDX 60 86 53 87 54 88 58 89 61 90 55 91 56 92 59 93 57 94
REMARK H PARENT 7 16 81 47 49 58
REMARK Flexibility Score: inf
ROOT
ATOM      1  C   UNL A   1      31.443  28.605  24.967  1.00  0.00     0.275 C 
ENDROOT
BRANCH   1   2
ATOM      2  O   UNL A   1      32.536  27.714  25.274  1.00  0.00    -0.458 OA
BRANCH   2   3
ATOM      3  C   UNL A   1      33.123  27.117  24.211  1.00  0.00     0.339 C 
ATOM      4  O   UNL A   1      34.051  27.546  23.543  1.00  0.00    -0.246 OA
BRANCH   3   5
ATOM      5  C   UNL A   1      32.591  25.758  24.006  1.00  0.00     0.080 A 
ATOM      6  C   UNL A   1      31.865  23.690  25.071  1.00  0.00     0.088 A 
ATOM      7  C   UNL A   1      31.725  23.089  23.823  1.00  0.00     0.024 A 
ATOM      8  C   UNL A   1      32.339  25.001  25.158  1.00  0.00     0.039 A 
ATOM      9  C   UNL A   1      31.977  23.842  22.667  1.00  0.00     0.023 A 
ATOM     10  C   UNL A   1      32.397  25.180  22.752  1.00  0.00     0.055 A 
ATOM     11  Cl  UNL A   1      32.699  26.024  21.279  1.00  0.00    -0.083 Cl
BRANCH   6  12
ATOM     12  S   UNL A   1      31.311  22.954  26.600  1.00  0.00     0.261 S 
ATOM     13  O   UNL A   1      30.090  22.242  26.295  1.00  0.00    -0.201 OA
ATOM     14  O   UNL A   1      31.339  24.013  27.587  1.00  0.00    -0.201 OA
BRANCH  12  15
ATOM     15  N   UNL A   1      32.460  21.845  27.074  1.00  0.00    -0.280 N 
ATOM     16  H   UNL A   1      32.237  21.281  27.849  1.00  0.00     0.180 HD
BRANCH  15  17
ATOM     17  C   UNL A   1      33.729  21.630  26.471  1.00  0.00     0.051 A 
ATOM     18  C   UNL A   1      36.064  21.737  24.940  1.00  0.00     0.137 A 
ATOM     19  C   UNL A   1      35.124  20.732  24.710  1.00  0.00     0.050 A 
ATOM     20  C   UNL A   1      35.888  22.625  26.002  1.00  0.00     0.085 A 
ATOM     21  C   UNL A   1      33.976  20.654  25.503  1.00  0.00     0.030 A 
ATOM     22  C   UNL A   1      34.725  22.564  26.773  1.00  0.00     0.051 A 
ATOM     23  Cl  UNL A   1      37.036  23.864  26.348  1.00  0.00    -0.080 Cl
BRANCH  18  24
ATOM     24  O   UNL A   1      37.039  21.936  23.999  1.00  0.00    -0.495 OA
ATOM     25  C   UNL A   1      36.646  22.904  23.033  1.00  0.00     0.278 C 
ENDBRANCH  18  24
ENDBRANCH  15  17
ENDBRANCH  12  15
ENDBRANCH   6  12
ENDBRANCH   3   5
ENDBRANCH   2   3
ENDBRANCH   1   2
BRANCH   1  26
ATOM     26  C   UNL A   1      31.779  30.039  25.367  1.00  0.00     0.275 C 
BRANCH  26  27
ATOM     27  O   UNL A   1      32.427  30.033  26.651  1.00  0.00    -0.458 OA
BRANCH  27  28
ATOM     28  C   UNL A   1      32.974  31.206  27.044  1.00  0.00     0.338 C 
ATOM     29  O   UNL A   1      32.465  32.313  27.004  1.00  0.00    -0.246 OA
BRANCH  28  30
ATOM     30  C   UNL A   1      34.328  30.964  27.575  1.00  0.00     0.060 A 
ATOM     31  C   UNL A   1      34.772  29.658  27.764  1.00  0.00     0.016 A 
ATOM     32  C   UNL A   1      35.112  32.033  28.005  1.00  0.00     0.016 A 
ATOM     33  C   UNL A   1      35.933  29.408  28.494  1.00  0.00     0.010 A 
ATOM     34  C   UNL A   1      36.340  31.782  28.630  1.00  0.00     0.010 A 
ATOM     35  C   UNL A   1      36.745  30.467  28.929  1.00  0.00    -0.014 A 
BRANCH  35  36
ATOM     36  C   UNL A   1      37.979  30.212  29.731  1.00  0.00     0.031 A 
ATOM     37  C   UNL A   1      39.094  29.374  29.157  1.00  0.00     0.074 A 
ATOM     38  C   UNL A   1      38.123  30.724  30.971  1.00  0.00     0.049 A 
ATOM     39  N   UNL A   1      40.131  28.844  29.759  1.00  0.00    -0.248 NA
ATOM     40  C   UNL A   1      39.022  29.073  27.719  1.00  0.00     0.031 C 
ATOM     41  C   UNL A   1      37.162  31.591  31.652  1.00  0.00     0.029 A 
ATOM     42  N   UNL A   1      39.147  30.591  31.881  1.00  0.00    -0.354 N 
ATOM     43  C   UNL A   1      40.785  28.087  28.793  1.00  0.00     0.074 A 
ATOM     44  C   UNL A   1      40.037  28.233  27.563  1.00  0.00     0.031 C 
ATOM     45  C   UNL A   1      37.660  31.953  32.844  1.00  0.00     0.029 A 
ATOM     46  C   UNL A   1      38.932  31.270  33.055  1.00  0.00     0.049 A 
ATOM     47  H   UNL A   1      39.957  30.059  31.706  1.00  0.00     0.167 HD
ATOM     48  C   UNL A   1      41.905  27.336  28.924  1.00  0.00     0.037 A 
ATOM     49  C   UNL A   1      39.652  31.311  34.193  1.00  0.00     0.037 A 
ATOM     50  C   UNL A   1      42.706  27.264  30.119  1.00  0.00     0.049 A 
ATOM     51  C   UNL A   1      40.903  30.486  34.308  1.00  0.00     0.074 A 
ATOM     52  C   UNL A   1      43.868  26.543  30.340  1.00  0.00     0.029 A 
ATOM     53  N   UNL A   1      42.444  27.966  31.286  1.00  0.00    -0.354 N 
ATOM     54  N   UNL A   1      41.461  29.703  33.420  1.00  0.00    -0.248 NA
ATOM     55  C   UNL A   1      41.609  30.531  35.596  1.00  0.00     0.031 C 
ATOM     56  C   UNL A   1      44.299  26.795  31.647  1.00  0.00     0.029 A 
ATOM     57  C   UNL A   1      43.424  27.696  32.229  1.00  0.00     0.049 A 
ATOM     58  H   UNL A   1      41.677  28.566  31.425  1.00  0.00     0.167 HD
ATOM     59  C   UNL A   1      42.581  29.165  34.036  1.00  0.00     0.074 A 
ATOM     60  C   UNL A   1      42.640  29.730  35.368  1.00  0.00     0.031 C 
ATOM     61  C   UNL A   1      43.473  28.270  33.546  1.00  0.00     0.037 A 
BRANCH  48  62
ATOM     62  C   UNL A   1      42.328  26.502  27.752  1.00  0.00     0.064 A 
ATOM     63  C   UNL A   1      41.756  25.251  27.484  1.00  0.00     0.173 A 
ATOM     64  C   UNL A   1      43.284  26.996  26.850  1.00  0.00     0.173 A 
ATOM     65  F   UNL A   1      40.846  24.730  28.320  1.00  0.00    -0.203 F 
ATOM     66  C   UNL A   1      42.140  24.515  26.364  1.00  0.00     0.198 A 
ATOM     67  C   UNL A   1      43.647  26.269  25.719  1.00  0.00     0.198 A 
ATOM     68  F   UNL A   1      43.855  28.191  27.058  1.00  0.00    -0.203 F 
ATOM     69  F   UNL A   1      41.604  23.307  26.143  1.00  0.00    -0.200 F 
ATOM     70  C   UNL A   1      43.077  25.029  25.480  1.00  0.00     0.200 A 
ATOM     71  F   UNL A   1      44.543  26.772  24.859  1.00  0.00    -0.200 F 
ATOM     72  F   UNL A   1      43.434  24.324  24.396  1.00  0.00    -0.200 F 
ENDBRANCH  48  62
BRANCH  49  73
ATOM     73  C   UNL A   1      39.181  32.136  35.335  1.00  0.00     0.064 A 
ATOM     74  C   UNL A   1      38.416  31.570  36.364  1.00  0.00     0.173 A 
ATOM     75  C   UNL A   1      39.487  33.502  35.423  1.00  0.00     0.173 A 
ATOM     76  F   UNL A   1      38.072  30.275  36.308  1.00  0.00    -0.203 F 
ATOM     77  C   UNL A   1      37.970  32.341  37.436  1.00  0.00     0.198 A 
ATOM     78  C   UNL A   1      39.065  34.265  36.509  1.00  0.00     0.198 A 
ATOM     79  F   UNL A   1      40.211  34.092  34.461  1.00  0.00    -0.203 F 
ATOM     80  F   UNL A   1      37.207  31.786  38.386  1.00  0.00    -0.200 F 
ATOM     81  C   UNL A   1      38.302  33.686  37.511  1.00  0.00     0.200 A 
ATOM     82  F   UNL A   1      39.397  35.562  36.584  1.00  0.00    -0.200 F 
ATOM     83  F   UNL A   1      37.879  34.425  38.546  1.00  0.00    -0.200 F 
ENDBRANCH  49  73
BRANCH  61  84
ATOM     84  C   UNL A   1      44.599  27.866  34.447  1.00  0.00     0.064 A 
ATOM     85  C   UNL A   1      45.798  28.593  34.487  1.00  0.00     0.173 A 
ATOM     86  C   UNL A   1      44.468  26.762  35.301  1.00  0.00     0.173 A 
ATOM     87  F   UNL A   1      45.974  29.648  33.677  1.00  0.00    -0.203 F 
ATOM     88  C   UNL A   1      46.835  28.216  35.336  1.00  0.00     0.198 A 
ATOM     89  C   UNL A   1      45.499  26.399  36.163  1.00  0.00     0.198 A 
ATOM     90  F   UNL A   1      43.339  26.037  35.301  1.00  0.00    -0.203 F 
ATOM     91  F   UNL A   1      47.986  28.901  35.331  1.00  0.00    -0.200 F 
ATOM     92  C   UNL A   1      46.682  27.122  36.176  1.00  0.00     0.200 A 
ATOM     93  F   UNL A   1      45.349  25.347  36.980  1.00  0.00    -0.200 F 
ATOM     94  F   UNL A   1      47.681  26.761  36.994  1.00  0.00    -0.200 F 
ENDBRANCH  61  84
ENDBRANCH  35  36
ENDBRANCH  28  30
ENDBRANCH  27  28
ENDBRANCH  26  27
ENDBRANCH   1  26
TORSDOF 15
ENDMDL
MODEL 3
REMARK VINA RESULT:     -12.1      4.241      9.670
REMARK SMILES COc1ccc(NS(=O)(=O)c2ccc(Cl)c(C(=O)OCCOC(=O)c3ccc(-c4c5nc(c(-c6c(F)c(F)c(F)c(F)c6F)c6ccc([nH]6)c(-c6c(F)c(F)c(F)c(F)c6F)c6nc(c(-c7c(F)c(F)c(F)c(F)c7F)c7ccc4[nH]7)C=C6)C=C5)cc3)c2)cc1Cl
REMARK SMILES IDX 20 1 19 2 17 3 18 4 16 5 11 6 12 7 88 8 13 9 14 10 15 11
REMARK SMILES IDX 8 12 9 13 10 14 7 15 6 17 3 18 4 19 90 20 5 21 89 22 91 23
REMARK SMILES IDX 2 24 1 25 21 26 22 27 23 28 24 29 25 30 26 31 87 32 27 33
REMARK SMILES IDX 86 34 28 35 29 36 30 37 80 38 31 39 85 40 79 41 81 42 32 43
REMARK SMILES IDX 84 44 78 45 77 46 33 48 65 49 45 50 64 51 46 52 49 53 63 54
REMARK SMILES IDX 82 55 47 56 48 57 62 59 83 60 50 61 34 62 35 63 43 64 36 65
REMARK SMILES IDX 37 66 41 67 44 68 38 69 39 70 42 71 40 72 66 73 67 74 75 75
REMARK SMILES IDX 68 76 69 77 73 78 76 79 70 80 71 81 74 82 72 83 51 84 52 85
REMARK SMILES IDX 60 86 53 87 54 88 58 89 61 90 55 91 56 92 59 93 57 94
REMARK H PARENT 7 16 81 47 49 58
REMARK Flexibility Score: inf
ROOT
ATOM      1  C   UNL A   1      36.494  22.388  23.901  1.00  0.00     0.275 C 
ENDROOT
BRANCH   1   2
ATOM      2  O   UNL A   1      35.240  22.674  24.556  1.00  0.00    -0.458 OA
BRANCH   2   3
ATOM      3  C   UNL A   1      34.222  23.035  23.741  1.00  0.00     0.339 C 
ATOM      4  O   UNL A   1      34.243  23.112  22.522  1.00  0.00    -0.246 OA
BRANCH   3   5
ATOM      5  C   UNL A   1      32.970  23.209  24.501  1.00  0.00     0.080 A 
ATOM      6  C   UNL A   1      31.487  24.787  25.618  1.00  0.00     0.088 A 
ATOM      7  C   UNL A   1      30.709  23.732  26.088  1.00  0.00     0.024 A 
ATOM      8  C   UNL A   1      32.635  24.519  24.868  1.00  0.00     0.039 A 
ATOM      9  C   UNL A   1      31.041  22.419  25.723  1.00  0.00     0.023 A 
ATOM     10  C   UNL A   1      32.162  22.153  24.920  1.00  0.00     0.055 A 
ATOM     11  Cl  UNL A   1      32.503  20.507  24.535  1.00  0.00    -0.083 Cl
BRANCH   6  12
ATOM     12  S   UNL A   1      31.028  26.506  25.759  1.00  0.00     0.261 S 
ATOM     13  O   UNL A   1      30.919  26.787  27.174  1.00  0.00    -0.201 OA
ATOM     14  O   UNL A   1      29.907  26.696  24.864  1.00  0.00    -0.201 OA
BRANCH  12  15
ATOM     15  N   UNL A   1      32.278  27.416  25.140  1.00  0.00    -0.280 N 
ATOM     16  H   UNL A   1      32.701  27.083  24.315  1.00  0.00     0.180 HD
BRANCH  15  17
ATOM     17  C   UNL A   1      32.795  28.626  25.679  1.00  0.00     0.051 A 
ATOM     18  C   UNL A   1      33.698  30.706  27.312  1.00  0.00     0.137 A 
ATOM     19  C   UNL A   1      32.497  30.837  26.614  1.00  0.00     0.050 A 
ATOM     20  C   UNL A   1      34.499  29.580  27.113  1.00  0.00     0.085 A 
ATOM     21  C   UNL A   1      32.066  29.814  25.766  1.00  0.00     0.030 A 
ATOM     22  C   UNL A   1      34.050  28.545  26.289  1.00  0.00     0.051 A 
ATOM     23  Cl  UNL A   1      36.007  29.384  27.926  1.00  0.00    -0.080 Cl
BRANCH  18  24
ATOM     24  O   UNL A   1      33.965  31.602  28.311  1.00  0.00    -0.495 OA
ATOM     25  C   UNL A   1      33.471  32.900  27.999  1.00  0.00     0.278 C 
ENDBRANCH  18  24
ENDBRANCH  15  17
ENDBRANCH  12  15
ENDBRANCH   6  12
ENDBRANCH   3   5
ENDBRANCH   2   3
ENDBRANCH   1   2
BRANCH   1  26
ATOM     26  C   UNL A   1      37.203  21.214  24.571  1.00  0.00     0.275 C 
BRANCH  26  27
ATOM     27  O   UNL A   1      37.659  21.617  25.874  1.00  0.00    -0.458 OA
BRANCH  27  28
ATOM     28  C   UNL A   1      38.974  21.428  26.126  1.00  0.00     0.338 C 
ATOM     29  O   UNL A   1      39.629  20.417  25.937  1.00  0.00    -0.246 OA
BRANCH  28  30
ATOM     30  C   UNL A   1      39.555  22.670  26.668  1.00  0.00     0.060 A 
ATOM     31  C   UNL A   1      39.108  23.902  26.198  1.00  0.00     0.016 A 
ATOM     32  C   UNL A   1      40.632  22.613  27.549  1.00  0.00     0.016 A 
ATOM     33  C   UNL A   1      39.810  25.068  26.503  1.00  0.00     0.010 A 
ATOM     34  C   UNL A   1      41.260  23.798  27.951  1.00  0.00     0.010 A 
ATOM     35  C   UNL A   1      40.891  25.038  27.396  1.00  0.00    -0.014 A 
BRANCH  35  36
ATOM     36  C   UNL A   1      41.664  26.276  27.712  1.00  0.00     0.031 A 
ATOM     37  C   UNL A   1      41.053  27.348  28.580  1.00  0.00     0.074 A 
ATOM     38  C   UNL A   1      42.913  26.460  27.236  1.00  0.00     0.049 A 
ATOM     39  N   UNL A   1      41.449  28.581  28.783  1.00  0.00    -0.248 NA
ATOM     40  C   UNL A   1      39.820  26.993  29.299  1.00  0.00     0.031 C 
ATOM     41  C   UNL A   1      43.664  25.503  26.424  1.00  0.00     0.029 A 
ATOM     42  N   UNL A   1      43.777  27.521  27.377  1.00  0.00    -0.354 N 
ATOM     43  C   UNL A   1      40.476  29.166  29.584  1.00  0.00     0.074 A 
ATOM     44  C   UNL A   1      39.475  28.154  29.841  1.00  0.00     0.031 C 
ATOM     45  C   UNL A   1      44.889  25.994  26.181  1.00  0.00     0.029 A 
ATOM     46  C   UNL A   1      44.981  27.340  26.739  1.00  0.00     0.049 A 
ATOM     47  H   UNL A   1      43.555  28.333  27.887  1.00  0.00     0.167 HD
ATOM     48  C   UNL A   1      40.422  30.435  30.058  1.00  0.00     0.037 A 
ATOM     49  C   UNL A   1      46.027  28.172  26.581  1.00  0.00     0.037 A 
ATOM     50  C   UNL A   1      41.461  31.417  29.885  1.00  0.00     0.049 A 
ATOM     51  C   UNL A   1      45.954  29.568  27.133  1.00  0.00     0.074 A 
ATOM     52  C   UNL A   1      41.503  32.723  30.345  1.00  0.00     0.029 A 
ATOM     53  N   UNL A   1      42.659  31.188  29.225  1.00  0.00    -0.354 N 
ATOM     54  N   UNL A   1      44.990  30.139  27.810  1.00  0.00    -0.248 NA
ATOM     55  C   UNL A   1      47.106  30.443  26.876  1.00  0.00     0.031 C 
ATOM     56  C   UNL A   1      42.718  33.289  29.948  1.00  0.00     0.029 A 
ATOM     57  C   UNL A   1      43.446  32.328  29.268  1.00  0.00     0.049 A 
ATOM     58  H   UNL A   1      42.913  30.342  28.792  1.00  0.00     0.167 HD
ATOM     59  C   UNL A   1      45.416  31.435  28.060  1.00  0.00     0.074 A 
ATOM     60  C   UNL A   1      46.739  31.561  27.486  1.00  0.00     0.031 C 
ATOM     61  C   UNL A   1      44.762  32.436  28.698  1.00  0.00     0.037 A 
BRANCH  48  62
ATOM     62  C   UNL A   1      39.183  30.854  30.793  1.00  0.00     0.064 A 
ATOM     63  C   UNL A   1      38.103  31.465  30.141  1.00  0.00     0.173 A 
ATOM     64  C   UNL A   1      39.058  30.584  32.165  1.00  0.00     0.173 A 
ATOM     65  F   UNL A   1      38.177  31.753  28.833  1.00  0.00    -0.203 F 
ATOM     66  C   UNL A   1      36.948  31.807  30.841  1.00  0.00     0.198 A 
ATOM     67  C   UNL A   1      37.892  30.905  32.856  1.00  0.00     0.198 A 
ATOM     68  F   UNL A   1      40.060  29.994  32.832  1.00  0.00    -0.203 F 
ATOM     69  F   UNL A   1      35.938  32.420  30.207  1.00  0.00    -0.200 F 
ATOM     70  C   UNL A   1      36.841  31.519  32.195  1.00  0.00     0.200 A 
ATOM     71  F   UNL A   1      37.786  30.615  34.160  1.00  0.00    -0.200 F 
ATOM     72  F   UNL A   1      35.723  31.838  32.863  1.00  0.00    -0.200 F 
ENDBRANCH  48  62
BRANCH  49  73
ATOM     73  C   UNL A   1      47.225  27.718  25.827  1.00  0.00     0.064 A 
ATOM     74  C   UNL A   1      48.359  27.241  26.499  1.00  0.00     0.173 A 
ATOM     75  C   UNL A   1      47.260  27.749  24.426  1.00  0.00     0.173 A 
ATOM     76  F   UNL A   1      48.385  27.221  27.840  1.00  0.00    -0.203 F 
ATOM     77  C   UNL A   1      49.485  26.817  25.796  1.00  0.00     0.198 A 
ATOM     78  C   UNL A   1      48.374  27.298  23.723  1.00  0.00     0.198 A 
ATOM     79  F   UNL A   1      46.202  28.203  23.737  1.00  0.00    -0.203 F 
ATOM     80  F   UNL A   1      50.571  26.402  26.461  1.00  0.00    -0.200 F 
ATOM     81  C   UNL A   1      49.488  26.838  24.409  1.00  0.00     0.200 A 
ATOM     82  F   UNL A   1      48.370  27.310  22.383  1.00  0.00    -0.200 F 
ATOM     83  F   UNL A   1      50.569  26.423  23.733  1.00  0.00    -0.200 F 
ENDBRANCH  49  73
BRANCH  61  84
ATOM     84  C   UNL A   1      45.478  33.746  28.826  1.00  0.00     0.064 A 
ATOM     85  C   UNL A   1      46.340  34.003  29.902  1.00  0.00     0.173 A 
ATOM     86  C   UNL A   1      45.325  34.740  27.850  1.00  0.00     0.173 A 
ATOM     87  F   UNL A   1      46.505  33.087  30.868  1.00  0.00    -0.203 F 
ATOM     88  C   UNL A   1      47.009  35.219  30.006  1.00  0.00     0.198 A 
ATOM     89  C   UNL A   1      46.011  35.947  27.947  1.00  0.00     0.198 A 
ATOM     90  F   UNL A   1      44.513  34.538  26.801  1.00  0.00    -0.203 F 
ATOM     91  F   UNL A   1      47.798  35.460  31.061  1.00  0.00    -0.200 F 
ATOM     92  C   UNL A   1      46.847  36.188  29.026  1.00  0.00     0.200 A 
ATOM     93  F   UNL A   1      45.860  36.880  26.996  1.00  0.00    -0.200 F 
ATOM     94  F   UNL A   1      47.494  37.358  29.127  1.00  0.00    -0.200 F 
ENDBRANCH  61  84
ENDBRANCH  35  36
ENDBRANCH  28  30
ENDBRANCH  27  28
ENDBRANCH  26  27
ENDBRANCH   1  26
TORSDOF 15
ENDMDL
