MODEL 1
REMARK VINA RESULT:     -14.8      0.000      0.000
REMARK SMILES O=C(OCCOC(=O)c1ccc(-c2c3nc(c(-c4c(F)c(F)c(F)c(F)c4F)c4ccc([nH]4)c(-c4c(F)c(F)c(F)c(F)c4F)c4nc(c(-c5c(F)c(F)c(F)c(F)c5F)c5ccc2[nH]5)C=C4)C=C3)cc1)C1=Cc2c(Cl)cc(Cl)cc2O[C@@H]1C(F)(F)F
REMARK SMILES IDX 5 1 4 2 3 3 2 4 1 5 72 6 73 7 83 8 74 9 82 10 75 11 81 12
REMARK SMILES IDX 76 13 77 14 80 15 78 16 79 17 84 18 85 19 86 20 87 21 6 22
REMARK SMILES IDX 7 23 8 24 9 25 10 26 71 27 11 28 70 29 12 30 13 31 14 32
REMARK SMILES IDX 64 33 15 34 69 35 63 36 65 37 16 38 68 39 62 40 61 41 17 43
REMARK SMILES IDX 49 44 29 45 48 46 30 47 33 48 47 49 66 50 31 51 32 52 46 54
REMARK SMILES IDX 67 55 34 56 18 57 19 58 27 59 20 60 21 61 25 62 28 63 22 64
REMARK SMILES IDX 23 65 26 66 24 67 50 68 51 69 59 70 52 71 53 72 57 73 60 74
REMARK SMILES IDX 54 75 55 76 58 77 56 78 35 79 36 80 44 81 37 82 38 83 42 84
REMARK SMILES IDX 45 85 39 86 40 87 43 88 41 89
REMARK H PARENT 65 42 33 53
REMARK Flexibility Score: inf
ROOT
ATOM      1  C   UNL A   1      31.405  31.944  26.782  1.00  0.00     0.275 C 
ENDROOT
BRANCH   1   2
ATOM      2  C   UNL A   1      31.778  29.847  27.148  1.00  0.00     0.275 C 
BRANCH   2   3
ATOM      3  O   UNL A   1      32.578  28.877  26.227  1.00  0.00    -0.459 OA
BRANCH   3   4
ATOM      4  C   UNL A   1      31.994  27.680  26.085  1.00  0.00     0.338 C 
ATOM      5  O   UNL A   1      31.486  26.964  26.910  1.00  0.00    -0.246 OA
BRANCH   4   6
ATOM      6  C   UNL A   1      32.583  27.406  24.798  1.00  0.00     0.087 C 
ATOM      7  C   UNL A   1      33.639  26.389  24.867  1.00  0.00     0.029 C 
ATOM      8  C   UNL A   1      30.910  27.219  23.860  1.00  0.00     0.316 C 
ATOM      9  C   UNL A   1      33.447  24.705  24.228  1.00  0.00     0.036 A 
ATOM     10  O   UNL A   1      30.654  25.418  23.220  1.00  0.00    -0.475 OA
ATOM     11  C   UNL A   1      34.383  23.747  24.531  1.00  0.00     0.053 A 
ATOM     12  C   UNL A   1      31.961  24.172  23.496  1.00  0.00     0.130 A 
ATOM     13  Cl  UNL A   1      35.881  24.098  25.284  1.00  0.00    -0.083 Cl
ATOM     14  C   UNL A   1      34.014  22.423  24.246  1.00  0.00     0.042 A 
ATOM     15  C   UNL A   1      31.682  22.858  23.240  1.00  0.00     0.067 A 
ATOM     16  C   UNL A   1      32.745  22.012  23.651  1.00  0.00     0.046 A 
ATOM     17  Cl  UNL A   1      32.530  20.296  23.489  1.00  0.00    -0.084 Cl
BRANCH   8  18
ATOM     18  C   UNL A   1      30.948  28.641  23.169  1.00  0.00     0.430 C 
ATOM     19  F   UNL A   1      32.107  28.852  22.532  1.00  0.00    -0.167 F 
ATOM     20  F   UNL A   1      30.019  28.667  22.163  1.00  0.00    -0.167 F 
ATOM     21  F   UNL A   1      30.593  29.707  23.904  1.00  0.00    -0.167 F 
ENDBRANCH   8  18
ENDBRANCH   4   6
ENDBRANCH   3   4
ENDBRANCH   2   3
ENDBRANCH   1   2
BRANCH   1  22
ATOM     22  O   UNL A   1      32.516  33.236  27.111  1.00  0.00    -0.458 OA
BRANCH  22  23
ATOM     23  C   UNL A   1      33.306  33.801  28.085  1.00  0.00     0.338 C 
ATOM     24  O   UNL A   1      33.003  34.550  28.996  1.00  0.00    -0.246 OA
BRANCH  23  25
ATOM     25  C   UNL A   1      34.575  33.000  28.094  1.00  0.00     0.060 A 
ATOM     26  C   UNL A   1      35.785  33.660  28.378  1.00  0.00     0.016 A 
ATOM     27  C   UNL A   1      34.503  31.613  28.224  1.00  0.00     0.016 A 
ATOM     28  C   UNL A   1      36.825  32.966  29.033  1.00  0.00     0.010 A 
ATOM     29  C   UNL A   1      35.546  30.927  28.858  1.00  0.00     0.010 A 
ATOM     30  C   UNL A   1      36.676  31.608  29.347  1.00  0.00    -0.014 A 
BRANCH  30  31
ATOM     31  C   UNL A   1      37.768  30.820  29.988  1.00  0.00     0.031 A 
ATOM     32  C   UNL A   1      38.042  31.140  31.427  1.00  0.00     0.074 A 
ATOM     33  C   UNL A   1      38.559  29.940  29.334  1.00  0.00     0.049 A 
ATOM     34  N   UNL A   1      39.001  30.728  32.212  1.00  0.00    -0.248 NA
ATOM     35  C   UNL A   1      37.110  32.094  32.052  1.00  0.00     0.031 C 
ATOM     36  C   UNL A   1      38.422  29.531  27.938  1.00  0.00     0.029 A 
ATOM     37  N   UNL A   1      39.669  29.242  29.768  1.00  0.00    -0.354 N 
ATOM     38  C   UNL A   1      38.786  31.377  33.418  1.00  0.00     0.074 A 
ATOM     39  C   UNL A   1      37.649  32.250  33.245  1.00  0.00     0.031 C 
ATOM     40  C   UNL A   1      39.414  28.670  27.626  1.00  0.00     0.029 A 
ATOM     41  C   UNL A   1      40.275  28.478  28.793  1.00  0.00     0.049 A 
ATOM     42  H   UNL A   1      40.000  29.287  30.694  1.00  0.00     0.167 HD
ATOM     43  C   UNL A   1      39.463  31.246  34.580  1.00  0.00     0.037 A 
ATOM     44  C   UNL A   1      41.397  27.723  28.843  1.00  0.00     0.037 A 
ATOM     45  C   UNL A   1      40.608  30.404  34.755  1.00  0.00     0.049 A 
ATOM     46  C   UNL A   1      42.177  27.645  30.143  1.00  0.00     0.074 A 
ATOM     47  C   UNL A   1      41.360  30.202  35.897  1.00  0.00     0.029 A 
ATOM     48  N   UNL A   1      41.175  29.633  33.752  1.00  0.00    -0.354 N 
ATOM     49  N   UNL A   1      41.921  28.202  31.303  1.00  0.00    -0.248 NA
ATOM     50  C   UNL A   1      43.405  26.828  30.141  1.00  0.00     0.031 C 
ATOM     51  C   UNL A   1      42.413  29.342  35.572  1.00  0.00     0.029 A 
ATOM     52  C   UNL A   1      42.281  28.965  34.245  1.00  0.00     0.049 A 
ATOM     53  H   UNL A   1      40.840  29.571  32.829  1.00  0.00     0.167 HD
ATOM     54  C   UNL A   1      42.919  27.767  32.170  1.00  0.00     0.074 A 
ATOM     55  C   UNL A   1      43.783  26.892  31.409  1.00  0.00     0.031 C 
ATOM     56  C   UNL A   1      43.106  28.066  33.480  1.00  0.00     0.037 A 
BRANCH  43  57
ATOM     57  C   UNL A   1      38.967  32.063  35.731  1.00  0.00     0.064 A 
ATOM     58  C   UNL A   1      39.341  33.407  35.886  1.00  0.00     0.173 A 
ATOM     59  C   UNL A   1      38.154  31.485  36.716  1.00  0.00     0.173 A 
ATOM     60  F   UNL A   1      40.147  33.991  34.985  1.00  0.00    -0.203 F 
ATOM     61  C   UNL A   1      38.952  34.131  37.007  1.00  0.00     0.198 A 
ATOM     62  C   UNL A   1      37.738  32.224  37.819  1.00  0.00     0.198 A 
ATOM     63  F   UNL A   1      37.781  30.200  36.619  1.00  0.00    -0.203 F 
ATOM     64  F   UNL A   1      39.386  35.389  37.173  1.00  0.00    -0.200 F 
ATOM     65  C   UNL A   1      38.148  33.541  37.970  1.00  0.00     0.200 A 
ATOM     66  F   UNL A   1      36.960  31.655  38.749  1.00  0.00    -0.200 F 
ATOM     67  F   UNL A   1      37.781  34.238  39.054  1.00  0.00    -0.200 F 
ENDBRANCH  43  57
BRANCH  44  68
ATOM     68  C   UNL A   1      41.891  26.962  27.653  1.00  0.00     0.064 A 
ATOM     69  C   UNL A   1      41.513  25.625  27.442  1.00  0.00     0.173 A 
ATOM     70  C   UNL A   1      42.839  27.505  26.772  1.00  0.00     0.173 A 
ATOM     71  F   UNL A   1      40.643  25.037  28.277  1.00  0.00    -0.203 F 
ATOM     72  C   UNL A   1      42.090  24.853  26.431  1.00  0.00     0.198 A 
ATOM     73  C   UNL A   1      43.393  26.742  25.741  1.00  0.00     0.198 A 
ATOM     74  F   UNL A   1      43.256  28.769  26.930  1.00  0.00    -0.203 F 
ATOM     75  F   UNL A   1      41.771  23.557  26.314  1.00  0.00    -0.200 F 
ATOM     76  C   UNL A   1      43.030  25.413  25.581  1.00  0.00     0.200 A 
ATOM     77  F   UNL A   1      44.304  27.285  24.922  1.00  0.00    -0.200 F 
ATOM     78  F   UNL A   1      43.603  24.667  24.626  1.00  0.00    -0.200 F 
ENDBRANCH  44  68
BRANCH  56  79
ATOM     79  C   UNL A   1      44.243  27.402  34.202  1.00  0.00     0.064 A 
ATOM     80  C   UNL A   1      44.108  26.141  34.799  1.00  0.00     0.173 A 
ATOM     81  C   UNL A   1      45.513  28.001  34.213  1.00  0.00     0.173 A 
ATOM     82  F   UNL A   1      42.915  25.529  34.824  1.00  0.00    -0.203 F 
ATOM     83  C   UNL A   1      45.199  25.510  35.395  1.00  0.00     0.198 A 
ATOM     84  C   UNL A   1      46.608  27.353  34.778  1.00  0.00     0.198 A 
ATOM     85  F   UNL A   1      45.700  29.202  33.645  1.00  0.00    -0.203 F 
ATOM     86  F   UNL A   1      45.039  24.321  35.990  1.00  0.00    -0.200 F 
ATOM     87  C   UNL A   1      46.449  26.111  35.372  1.00  0.00     0.200 A 
ATOM     88  F   UNL A   1      47.819  27.926  34.736  1.00  0.00    -0.200 F 
ATOM     89  F   UNL A   1      47.501  25.492  35.925  1.00  0.00    -0.200 F 
ENDBRANCH  56  79
ENDBRANCH  30  31
ENDBRANCH  23  25
ENDBRANCH  22  23
ENDBRANCH   1  22
TORSDOF 12
ENDMDL
MODEL 2
REMARK VINA RESULT:     -14.5      4.908     10.391
REMARK SMILES O=C(OCCOC(=O)c1ccc(-c2c3nc(c(-c4c(F)c(F)c(F)c(F)c4F)c4ccc([nH]4)c(-c4c(F)c(F)c(F)c(F)c4F)c4nc(c(-c5c(F)c(F)c(F)c(F)c5F)c5ccc2[nH]5)C=C4)C=C3)cc1)C1=Cc2c(Cl)cc(Cl)cc2O[C@@H]1C(F)(F)F
REMARK SMILES IDX 5 1 4 2 3 3 2 4 1 5 72 6 73 7 83 8 74 9 82 10 75 11 81 12
REMARK SMILES IDX 76 13 77 14 80 15 78 16 79 17 84 18 85 19 86 20 87 21 6 22
REMARK SMILES IDX 7 23 8 24 9 25 10 26 71 27 11 28 70 29 12 30 13 31 14 32
REMARK SMILES IDX 64 33 15 34 69 35 63 36 65 37 16 38 68 39 62 40 61 41 17 43
REMARK SMILES IDX 49 44 29 45 48 46 30 47 33 48 47 49 66 50 31 51 32 52 46 54
REMARK SMILES IDX 67 55 34 56 18 57 19 58 27 59 20 60 21 61 25 62 28 63 22 64
REMARK SMILES IDX 23 65 26 66 24 67 50 68 51 69 59 70 52 71 53 72 57 73 60 74
REMARK SMILES IDX 54 75 55 76 58 77 56 78 35 79 36 80 44 81 37 82 38 83 42 84
REMARK SMILES IDX 45 85 39 86 40 87 43 88 41 89
REMARK H PARENT 65 42 33 53
REMARK Flexibility Score: inf
ROOT
ATOM      1  C   UNL A   1      38.296  19.648  25.032  1.00  0.00     0.275 C 
ENDROOT
BRANCH   1   2
ATOM      2  C   UNL A   1      37.374  21.443  24.259  1.00  0.00     0.275 C 
BRANCH   2   3
ATOM      3  O   UNL A   1      36.290  22.305  24.974  1.00  0.00    -0.459 OA
BRANCH   3   4
ATOM      4  C   UNL A   1      35.365  22.792  24.138  1.00  0.00     0.338 C 
ATOM      5  O   UNL A   1      35.496  23.371  23.089  1.00  0.00    -0.246 OA
BRANCH   4   6
ATOM      6  C   UNL A   1      34.301  22.788  25.112  1.00  0.00     0.087 C 
ATOM      7  C   UNL A   1      33.987  24.132  25.610  1.00  0.00     0.029 C 
ATOM      8  C   UNL A   1      33.113  21.666  24.090  1.00  0.00     0.316 C 
ATOM      9  C   UNL A   1      32.478  25.031  25.169  1.00  0.00     0.036 A 
ATOM     10  O   UNL A   1      31.524  22.619  23.557  1.00  0.00    -0.475 OA
ATOM     11  C   UNL A   1      32.359  26.363  25.481  1.00  0.00     0.053 A 
ATOM     12  C   UNL A   1      31.293  24.351  24.091  1.00  0.00     0.130 A 
ATOM     13  Cl  UNL A   1      33.458  27.195  26.498  1.00  0.00    -0.083 Cl
ATOM     14  C   UNL A   1      31.301  27.043  24.857  1.00  0.00     0.042 A 
ATOM     15  C   UNL A   1      30.282  25.082  23.532  1.00  0.00     0.067 A 
ATOM     16  C   UNL A   1      30.338  26.441  23.938  1.00  0.00     0.046 A 
ATOM     17  Cl  UNL A   1      29.185  27.545  23.253  1.00  0.00    -0.084 Cl
BRANCH   8  18
ATOM     18  C   UNL A   1      33.385  20.344  24.914  1.00  0.00     0.430 C 
ATOM     19  F   UNL A   1      33.273  20.550  26.233  1.00  0.00    -0.167 F 
ATOM     20  F   UNL A   1      32.387  19.445  24.645  1.00  0.00    -0.167 F 
ATOM     21  F   UNL A   1      34.486  19.634  24.621  1.00  0.00    -0.167 F 
ENDBRANCH   8  18
ENDBRANCH   4   6
ENDBRANCH   3   4
ENDBRANCH   2   3
ENDBRANCH   1   2
BRANCH   1  22
ATOM     22  O   UNL A   1      39.641  19.600  26.127  1.00  0.00    -0.458 OA
BRANCH  22  23
ATOM     23  C   UNL A   1      40.924  20.054  26.332  1.00  0.00     0.338 C 
ATOM     24  O   UNL A   1      41.971  19.677  25.839  1.00  0.00    -0.246 OA
BRANCH  23  25
ATOM     25  C   UNL A   1      40.780  21.402  26.976  1.00  0.00     0.060 A 
ATOM     26  C   UNL A   1      41.678  21.758  27.999  1.00  0.00     0.016 A 
ATOM     27  C   UNL A   1      40.064  22.399  26.314  1.00  0.00     0.016 A 
ATOM     28  C   UNL A   1      42.043  23.110  28.171  1.00  0.00     0.010 A 
ATOM     29  C   UNL A   1      40.418  23.740  26.502  1.00  0.00     0.010 A 
ATOM     30  C   UNL A   1      41.469  24.103  27.365  1.00  0.00    -0.014 A 
BRANCH  30  31
ATOM     31  C   UNL A   1      41.782  25.550  27.548  1.00  0.00     0.031 A 
ATOM     32  C   UNL A   1      43.120  25.994  27.040  1.00  0.00     0.074 A 
ATOM     33  C   UNL A   1      40.992  26.422  28.213  1.00  0.00     0.049 A 
ATOM     34  N   UNL A   1      43.729  27.142  27.169  1.00  0.00    -0.248 NA
ATOM     35  C   UNL A   1      43.892  24.973  26.311  1.00  0.00     0.031 C 
ATOM     36  C   UNL A   1      39.671  26.139  28.768  1.00  0.00     0.029 A 
ATOM     37  N   UNL A   1      41.211  27.742  28.558  1.00  0.00    -0.354 N 
ATOM     38  C   UNL A   1      44.953  26.976  26.541  1.00  0.00     0.074 A 
ATOM     39  C   UNL A   1      45.026  25.607  26.086  1.00  0.00     0.031 C 
ATOM     40  C   UNL A   1      39.205  27.240  29.395  1.00  0.00     0.029 A 
ATOM     41  C   UNL A   1      40.201  28.308  29.306  1.00  0.00     0.049 A 
ATOM     42  H   UNL A   1      42.020  28.237  28.291  1.00  0.00     0.167 HD
ATOM     43  C   UNL A   1      45.931  27.887  26.339  1.00  0.00     0.037 A 
ATOM     44  C   UNL A   1      40.105  29.539  29.860  1.00  0.00     0.037 A 
ATOM     45  C   UNL A   1      45.881  29.239  26.808  1.00  0.00     0.049 A 
ATOM     46  C   UNL A   1      41.247  30.523  29.675  1.00  0.00     0.074 A 
ATOM     47  C   UNL A   1      46.821  30.240  26.650  1.00  0.00     0.029 A 
ATOM     48  N   UNL A   1      44.835  29.776  27.542  1.00  0.00    -0.354 N 
ATOM     49  N   UNL A   1      42.369  30.381  29.011  1.00  0.00    -0.248 NA
ATOM     50  C   UNL A   1      41.105  31.843  30.316  1.00  0.00     0.031 C 
ATOM     51  C   UNL A   1      46.364  31.372  27.330  1.00  0.00     0.029 A 
ATOM     52  C   UNL A   1      45.114  31.092  27.861  1.00  0.00     0.049 A 
ATOM     53  H   UNL A   1      44.016  29.293  27.797  1.00  0.00     0.167 HD
ATOM     54  C   UNL A   1      43.036  31.598  29.114  1.00  0.00     0.074 A 
ATOM     55  C   UNL A   1      42.192  32.474  29.897  1.00  0.00     0.031 C 
ATOM     56  C   UNL A   1      44.241  31.960  28.608  1.00  0.00     0.037 A 
BRANCH  43  57
ATOM     57  C   UNL A   1      47.135  27.412  25.589  1.00  0.00     0.064 A 
ATOM     58  C   UNL A   1      48.212  26.803  26.251  1.00  0.00     0.173 A 
ATOM     59  C   UNL A   1      47.238  27.614  24.206  1.00  0.00     0.173 A 
ATOM     60  F   UNL A   1      48.172  26.621  27.580  1.00  0.00    -0.203 F 
ATOM     61  C   UNL A   1      49.366  26.450  25.561  1.00  0.00     0.198 A 
ATOM     62  C   UNL A   1      48.380  27.228  23.513  1.00  0.00     0.198 A 
ATOM     63  F   UNL A   1      46.239  28.204  23.531  1.00  0.00    -0.203 F 
ATOM     64  F   UNL A   1      50.413  25.942  26.227  1.00  0.00    -0.200 F 
ATOM     65  C   UNL A   1      49.448  26.658  24.192  1.00  0.00     0.200 A 
ATOM     66  F   UNL A   1      48.459  27.427  22.190  1.00  0.00    -0.200 F 
ATOM     67  F   UNL A   1      50.564  26.325  23.530  1.00  0.00    -0.200 F 
ENDBRANCH  43  57
BRANCH  44  68
ATOM     68  C   UNL A   1      38.905  29.958  30.650  1.00  0.00     0.064 A 
ATOM     69  C   UNL A   1      37.829  30.619  30.033  1.00  0.00     0.173 A 
ATOM     70  C   UNL A   1      38.857  29.823  32.046  1.00  0.00     0.173 A 
ATOM     71  F   UNL A   1      37.839  30.817  28.707  1.00  0.00    -0.203 F 
ATOM     72  C   UNL A   1      36.779  31.159  30.779  1.00  0.00     0.198 A 
ATOM     73  C   UNL A   1      37.791  30.336  32.788  1.00  0.00     0.198 A 
ATOM     74  F   UNL A   1      39.861  29.220  32.697  1.00  0.00    -0.203 F 
ATOM     75  F   UNL A   1      35.813  31.858  30.167  1.00  0.00    -0.200 F 
ATOM     76  C   UNL A   1      36.761  31.018  32.157  1.00  0.00     0.200 A 
ATOM     77  F   UNL A   1      37.777  30.200  34.122  1.00  0.00    -0.200 F 
ATOM     78  F   UNL A   1      35.767  31.557  32.877  1.00  0.00    -0.200 F 
ENDBRANCH  44  68
BRANCH  56  79
ATOM     79  C   UNL A   1      44.702  33.374  28.820  1.00  0.00     0.064 A 
ATOM     80  C   UNL A   1      44.358  34.408  27.938  1.00  0.00     0.173 A 
ATOM     81  C   UNL A   1      45.422  33.711  29.978  1.00  0.00     0.173 A 
ATOM     82  F   UNL A   1      43.678  34.138  26.814  1.00  0.00    -0.203 F 
ATOM     83  C   UNL A   1      44.731  35.724  28.198  1.00  0.00     0.198 A 
ATOM     84  C   UNL A   1      45.763  35.033  30.252  1.00  0.00     0.198 A 
ATOM     85  F   UNL A   1      45.767  32.762  30.861  1.00  0.00    -0.203 F 
ATOM     86  F   UNL A   1      44.421  36.691  27.324  1.00  0.00    -0.200 F 
ATOM     87  C   UNL A   1      45.421  36.037  29.360  1.00  0.00     0.200 A 
ATOM     88  F   UNL A   1      46.412  35.334  31.385  1.00  0.00    -0.200 F 
ATOM     89  F   UNL A   1      45.759  37.308  29.620  1.00  0.00    -0.200 F 
ENDBRANCH  56  79
ENDBRANCH  30  31
ENDBRANCH  23  25
ENDBRANCH  22  23
ENDBRANCH   1  22
TORSDOF 12
ENDMDL
MODEL 3
REMARK VINA RESULT:     -14.5      1.243      7.565
REMARK SMILES O=C(OCCOC(=O)c1ccc(-c2c3nc(c(-c4c(F)c(F)c(F)c(F)c4F)c4ccc([nH]4)c(-c4c(F)c(F)c(F)c(F)c4F)c4nc(c(-c5c(F)c(F)c(F)c(F)c5F)c5ccc2[nH]5)C=C4)C=C3)cc1)C1=Cc2c(Cl)cc(Cl)cc2O[C@@H]1C(F)(F)F
REMARK SMILES IDX 5 1 4 2 3 3 2 4 1 5 72 6 73 7 83 8 74 9 82 10 75 11 81 12
REMARK SMILES IDX 76 13 77 14 80 15 78 16 79 17 84 18 85 19 86 20 87 21 6 22
REMARK SMILES IDX 7 23 8 24 9 25 10 26 71 27 11 28 70 29 12 30 13 31 14 32
REMARK SMILES IDX 64 33 15 34 69 35 63 36 65 37 16 38 68 39 62 40 61 41 17 43
REMARK SMILES IDX 49 44 29 45 48 46 30 47 33 48 47 49 66 50 31 51 32 52 46 54
REMARK SMILES IDX 67 55 34 56 18 57 19 58 27 59 20 60 21 61 25 62 28 63 22 64
REMARK SMILES IDX 23 65 26 66 24 67 50 68 51 69 59 70 52 71 53 72 57 73 60 74
REMARK SMILES IDX 54 75 55 76 58 77 56 78 35 79 36 80 44 81 37 82 38 83 42 84
REMARK SMILES IDX 45 85 39 86 40 87 43 88 41 89
REMARK H PARENT 65 42 33 53
REMARK Flexibility Score: inf
ROOT
ATOM      1  C   UNL A   1      31.369  31.963  26.736  1.00  0.00     0.275 C 
ENDROOT
BRANCH   1   2
ATOM      2  C   UNL A   1      32.025  29.969  27.250  1.00  0.00     0.275 C 
BRANCH   2   3
ATOM      3  O   UNL A   1      32.736  28.958  26.301  1.00  0.00    -0.459 OA
BRANCH   3   4
ATOM      4  C   UNL A   1      32.061  27.811  26.148  1.00  0.00     0.338 C 
ATOM      5  O   UNL A   1      31.521  27.115  26.969  1.00  0.00    -0.246 OA
BRANCH   4   6
ATOM      6  C   UNL A   1      32.599  27.523  24.841  1.00  0.00     0.087 C 
ATOM      7  C   UNL A   1      33.655  26.506  24.877  1.00  0.00     0.029 C 
ATOM      8  C   UNL A   1      30.889  27.331  23.972  1.00  0.00     0.316 C 
ATOM      9  C   UNL A   1      33.435  24.816  24.262  1.00  0.00     0.036 A 
ATOM     10  O   UNL A   1      30.605  25.524  23.360  1.00  0.00    -0.475 OA
ATOM     11  C   UNL A   1      34.381  23.859  24.537  1.00  0.00     0.053 A 
ATOM     12  C   UNL A   1      31.921  24.279  23.595  1.00  0.00     0.130 A 
ATOM     13  Cl  UNL A   1      35.909  24.214  25.226  1.00  0.00    -0.083 Cl
ATOM     14  C   UNL A   1      34.000  22.533  24.279  1.00  0.00     0.042 A 
ATOM     15  C   UNL A   1      31.630  22.963  23.363  1.00  0.00     0.067 A 
ATOM     16  C   UNL A   1      32.707  22.119  23.738  1.00  0.00     0.046 A 
ATOM     17  Cl  UNL A   1      32.483  20.402  23.601  1.00  0.00    -0.084 Cl
BRANCH   8  18
ATOM     18  C   UNL A   1      30.902  28.747  23.267  1.00  0.00     0.430 C 
ATOM     19  F   UNL A   1      32.006  28.924  22.529  1.00  0.00    -0.167 F 
ATOM     20  F   UNL A   1      29.890  28.788  22.346  1.00  0.00    -0.167 F 
ATOM     21  F   UNL A   1      30.639  29.827  24.020  1.00  0.00    -0.167 F 
ENDBRANCH   8  18
ENDBRANCH   4   6
ENDBRANCH   3   4
ENDBRANCH   2   3
ENDBRANCH   1   2
BRANCH   1  22
ATOM     22  O   UNL A   1      32.261  33.422  27.030  1.00  0.00    -0.458 OA
BRANCH  22  23
ATOM     23  C   UNL A   1      32.912  34.150  27.999  1.00  0.00     0.338 C 
ATOM     24  O   UNL A   1      32.481  35.000  28.756  1.00  0.00    -0.246 OA
BRANCH  23  25
ATOM     25  C   UNL A   1      34.195  33.418  28.264  1.00  0.00     0.060 A 
ATOM     26  C   UNL A   1      35.408  34.123  28.149  1.00  0.00     0.016 A 
ATOM     27  C   UNL A   1      34.161  32.225  28.985  1.00  0.00     0.016 A 
ATOM     28  C   UNL A   1      36.504  33.769  28.965  1.00  0.00     0.010 A 
ATOM     29  C   UNL A   1      35.259  31.869  29.779  1.00  0.00     0.010 A 
ATOM     30  C   UNL A   1      36.405  32.682  29.845  1.00  0.00    -0.014 A 
BRANCH  30  31
ATOM     31  C   UNL A   1      37.554  32.238  30.685  1.00  0.00     0.031 A 
ATOM     32  C   UNL A   1      38.390  31.134  30.111  1.00  0.00     0.074 A 
ATOM     33  C   UNL A   1      37.809  32.694  31.931  1.00  0.00     0.049 A 
ATOM     34  N   UNL A   1      39.363  30.450  30.650  1.00  0.00    -0.248 NA
ATOM     35  C   UNL A   1      38.044  30.726  28.739  1.00  0.00     0.031 C 
ATOM     36  C   UNL A   1      37.084  33.756  32.626  1.00  0.00     0.029 A 
ATOM     37  N   UNL A   1      38.752  32.290  32.856  1.00  0.00    -0.354 N 
ATOM     38  C   UNL A   1      39.739  29.531  29.683  1.00  0.00     0.074 A 
ATOM     39  C   UNL A   1      38.856  29.703  28.553  1.00  0.00     0.031 C 
ATOM     40  C   UNL A   1      37.596  33.909  33.866  1.00  0.00     0.029 A 
ATOM     41  C   UNL A   1      38.674  32.942  34.068  1.00  0.00     0.049 A 
ATOM     42  H   UNL A   1      39.423  31.595  32.666  1.00  0.00     0.167 HD
ATOM     43  C   UNL A   1      40.746  28.630  29.718  1.00  0.00     0.037 A 
ATOM     44  C   UNL A   1      39.387  32.766  35.205  1.00  0.00     0.037 A 
ATOM     45  C   UNL A   1      41.611  28.432  30.842  1.00  0.00     0.049 A 
ATOM     46  C   UNL A   1      40.469  31.702  35.241  1.00  0.00     0.074 A 
ATOM     47  C   UNL A   1      42.663  27.546  30.972  1.00  0.00     0.029 A 
ATOM     48  N   UNL A   1      41.512  29.126  32.038  1.00  0.00    -0.354 N 
ATOM     49  N   UNL A   1      40.870  30.889  34.293  1.00  0.00    -0.248 NA
ATOM     50  C   UNL A   1      41.202  31.533  36.510  1.00  0.00     0.031 C 
ATOM     51  C   UNL A   1      43.174  27.671  32.268  1.00  0.00     0.029 A 
ATOM     52  C   UNL A   1      42.476  28.674  32.921  1.00  0.00     0.049 A 
ATOM     53  H   UNL A   1      40.855  29.833  32.230  1.00  0.00     0.167 HD
ATOM     54  C   UNL A   1      41.922  30.155  34.831  1.00  0.00     0.074 A 
ATOM     55  C   UNL A   1      42.108  30.621  36.187  1.00  0.00     0.031 C 
ATOM     56  C   UNL A   1      42.670  29.180  34.256  1.00  0.00     0.037 A 
BRANCH  43  57
ATOM     57  C   UNL A   1      40.928  27.791  28.493  1.00  0.00     0.064 A 
ATOM     58  C   UNL A   1      41.773  28.201  27.449  1.00  0.00     0.173 A 
ATOM     59  C   UNL A   1      40.216  26.595  28.336  1.00  0.00     0.173 A 
ATOM     60  F   UNL A   1      42.447  29.357  27.540  1.00  0.00    -0.203 F 
ATOM     61  C   UNL A   1      41.864  27.462  26.274  1.00  0.00     0.198 A 
ATOM     62  C   UNL A   1      40.337  25.841  27.174  1.00  0.00     0.198 A 
ATOM     63  F   UNL A   1      39.387  26.169  29.302  1.00  0.00    -0.203 F 
ATOM     64  F   UNL A   1      42.615  27.913  25.259  1.00  0.00    -0.200 F 
ATOM     65  C   UNL A   1      41.150  26.281  26.140  1.00  0.00     0.200 A 
ATOM     66  F   UNL A   1      39.649  24.698  27.044  1.00  0.00    -0.200 F 
ATOM     67  F   UNL A   1      41.234  25.574  25.004  1.00  0.00    -0.200 F 
ENDBRANCH  43  57
BRANCH  44  68
ATOM     68  C   UNL A   1      39.138  33.590  36.429  1.00  0.00     0.064 A 
ATOM     69  C   UNL A   1      39.760  34.840  36.598  1.00  0.00     0.173 A 
ATOM     70  C   UNL A   1      38.379  33.104  37.505  1.00  0.00     0.173 A 
ATOM     71  F   UNL A   1      40.533  35.337  35.622  1.00  0.00    -0.203 F 
ATOM     72  C   UNL A   1      39.667  35.546  37.799  1.00  0.00     0.198 A 
ATOM     73  C   UNL A   1      38.261  33.825  38.695  1.00  0.00     0.198 A 
ATOM     74  F   UNL A   1      37.776  31.911  37.415  1.00  0.00    -0.203 F 
ATOM     75  F   UNL A   1      40.344  36.691  37.956  1.00  0.00    -0.200 F 
ATOM     76  C   UNL A   1      38.918  35.037  38.848  1.00  0.00     0.200 A 
ATOM     77  F   UNL A   1      37.537  33.330  39.709  1.00  0.00    -0.200 F 
ATOM     78  F   UNL A   1      38.848  35.702  40.010  1.00  0.00    -0.200 F 
ENDBRANCH  44  68
BRANCH  56  79
ATOM     79  C   UNL A   1      43.797  28.590  35.053  1.00  0.00     0.064 A 
ATOM     80  C   UNL A   1      45.081  29.154  35.054  1.00  0.00     0.173 A 
ATOM     81  C   UNL A   1      43.561  27.495  35.900  1.00  0.00     0.173 A 
ATOM     82  F   UNL A   1      45.362  30.195  34.256  1.00  0.00    -0.203 F 
ATOM     83  C   UNL A   1      46.090  28.635  35.862  1.00  0.00     0.198 A 
ATOM     84  C   UNL A   1      44.561  27.001  36.732  1.00  0.00     0.198 A 
ATOM     85  F   UNL A   1      42.347  26.925  35.946  1.00  0.00    -0.203 F 
ATOM     86  F   UNL A   1      47.318  29.168  35.822  1.00  0.00    -0.200 F 
ATOM     87  C   UNL A   1      45.826  27.569  36.709  1.00  0.00     0.200 A 
ATOM     88  F   UNL A   1      44.297  25.984  37.564  1.00  0.00    -0.200 F 
ATOM     89  F   UNL A   1      46.791  27.086  37.503  1.00  0.00    -0.200 F 
ENDBRANCH  56  79
ENDBRANCH  30  31
ENDBRANCH  23  25
ENDBRANCH  22  23
ENDBRANCH   1  22
TORSDOF 12
ENDMDL
