MODEL 1
REMARK VINA RESULT:     -12.9      0.000      0.000
REMARK SMILES CC(C)Cc1ccc(S(=O)(=O)Nc2cnc(N3CCCC3)c(C(=O)OCCOC(=O)c3ccc(-c4c5nc(c(-c6c(F)c(F)c(F)c(F)c6F)c6ccc([nH]6)c(-c6c(F)c(F)c(F)c(F)c6F)c6nc(c(-c7c(F)c(F)c(F)c(F)c7F)c7ccc4[nH]7)C=C6)C=C5)cc3)c2)cc1
REMARK SMILES IDX 25 1 23 2 24 3 22 4 13 5 14 6 94 7 15 8 16 9 12 10 9 12
REMARK SMILES IDX 10 13 11 14 8 15 5 16 6 17 96 18 7 19 95 20 4 21 2 22 1 23
REMARK SMILES IDX 3 24 17 25 18 26 21 27 19 28 20 29 26 30 27 31 28 32 29 33
REMARK SMILES IDX 30 34 31 35 32 36 93 37 33 38 92 39 34 40 35 41 36 42 86 43
REMARK SMILES IDX 37 44 91 45 85 46 87 47 38 48 90 49 84 50 83 51 39 53 71 54
REMARK SMILES IDX 51 55 70 56 52 57 55 58 69 59 88 60 53 61 54 62 68 64 89 65
REMARK SMILES IDX 56 66 40 67 41 68 49 69 42 70 43 71 47 72 50 73 44 74 45 75
REMARK SMILES IDX 48 76 46 77 72 78 73 79 81 80 74 81 75 82 79 83 82 84 76 85
REMARK SMILES IDX 77 86 80 87 78 88 57 89 58 90 66 91 59 92 60 93 64 94 67 95
REMARK SMILES IDX 61 96 62 97 65 98 63 99
REMARK H PARENT 12 11 87 52 55 63
REMARK Flexibility Score: inf
ROOT
ATOM      1  O   UNL A   1      36.063  23.473  24.400  1.00  0.00    -0.458 OA
ENDROOT
BRANCH   1   2
ATOM      2  C   UNL A   1      34.779  23.612  23.985  1.00  0.00     0.342 C 
ATOM      3  O   UNL A   1      34.404  24.267  23.024  1.00  0.00    -0.246 OA
BRANCH   2   4
ATOM      4  C   UNL A   1      33.809  23.078  24.947  1.00  0.00     0.104 A 
ATOM      5  C   UNL A   1      32.020  24.070  26.199  1.00  0.00     0.068 A 
ATOM      6  C   UNL A   1      31.415  22.822  26.151  1.00  0.00     0.140 A 
ATOM      7  C   UNL A   1      33.308  24.146  25.722  1.00  0.00     0.048 A 
ATOM      8  N   UNL A   1      31.926  21.736  25.509  1.00  0.00    -0.236 NA
ATOM      9  C   UNL A   1      33.088  21.861  24.819  1.00  0.00     0.143 A 
BRANCH   5  10
ATOM     10  N   UNL A   1      31.244  25.209  26.550  1.00  0.00    -0.278 N 
ATOM     11  H   UNL A   1      30.319  25.042  26.844  1.00  0.00     0.180 HD
BRANCH  10  12
ATOM     12  S   UNL A   1      31.749  26.810  26.512  1.00  0.00     0.261 S 
ATOM     13  O   UNL A   1      33.186  26.811  26.331  1.00  0.00    -0.201 OA
ATOM     14  O   UNL A   1      31.144  27.416  27.681  1.00  0.00    -0.201 OA
BRANCH  12  15
ATOM     15  C   UNL A   1      31.059  27.659  25.098  1.00  0.00     0.087 A 
ATOM     16  C   UNL A   1      29.617  28.958  23.041  1.00  0.00    -0.048 A 
ATOM     17  C   UNL A   1      29.332  27.631  23.377  1.00  0.00     0.005 A 
ATOM     18  C   UNL A   1      30.671  29.603  23.711  1.00  0.00     0.005 A 
ATOM     19  C   UNL A   1      30.039  26.990  24.402  1.00  0.00     0.022 A 
ATOM     20  C   UNL A   1      31.404  28.955  24.721  1.00  0.00     0.022 A 
BRANCH  16  21
ATOM     21  C   UNL A   1      28.781  29.692  22.006  1.00  0.00     0.038 C 
BRANCH  21  22
ATOM     22  C   UNL A   1      28.597  31.203  22.282  1.00  0.00    -0.013 C 
ATOM     23  C   UNL A   1      28.124  31.939  21.039  1.00  0.00     0.008 C 
ATOM     24  C   UNL A   1      27.597  31.456  23.409  1.00  0.00     0.008 C 
ENDBRANCH  21  22
ENDBRANCH  16  21
ENDBRANCH  12  15
ENDBRANCH  10  12
ENDBRANCH   5  10
BRANCH   9  25
ATOM     25  N   UNL A   1      33.275  20.852  23.877  1.00  0.00    -0.356 N 
ATOM     26  C   UNL A   1      32.138  20.490  22.354  1.00  0.00     0.118 C 
ATOM     27  C   UNL A   1      34.004  19.322  24.597  1.00  0.00     0.118 C 
ATOM     28  C   UNL A   1      32.067  18.259  22.238  1.00  0.00     0.023 C 
ATOM     29  C   UNL A   1      33.320  17.715  23.729  1.00  0.00     0.023 C 
ENDBRANCH   9  25
ENDBRANCH   2   4
ENDBRANCH   1   2
BRANCH   1  30
ATOM     30  C   UNL A   1      36.797  22.392  23.778  1.00  0.00     0.275 C 
BRANCH  30  31
ATOM     31  C   UNL A   1      36.958  21.219  24.732  1.00  0.00     0.275 C 
BRANCH  31  32
ATOM     32  O   UNL A   1      37.710  21.701  25.857  1.00  0.00    -0.458 OA
BRANCH  32  33
ATOM     33  C   UNL A   1      38.906  21.102  25.956  1.00  0.00     0.338 C 
ATOM     34  O   UNL A   1      39.197  19.943  25.715  1.00  0.00    -0.246 OA
BRANCH  33  35
ATOM     35  C   UNL A   1      39.934  22.058  26.333  1.00  0.00     0.060 A 
ATOM     36  C   UNL A   1      41.072  21.760  27.614  1.00  0.00     0.016 A 
ATOM     37  C   UNL A   1      39.642  23.642  25.941  1.00  0.00     0.016 A 
ATOM     38  C   UNL A   1      41.891  23.362  28.531  1.00  0.00     0.010 A 
ATOM     39  C   UNL A   1      40.366  24.973  26.665  1.00  0.00     0.010 A 
ATOM     40  C   UNL A   1      41.475  24.945  27.932  1.00  0.00    -0.014 A 
BRANCH  40  41
ATOM     41  C   UNL A   1      42.174  26.229  28.259  1.00  0.00     0.031 A 
ATOM     42  C   UNL A   1      41.432  27.327  28.978  1.00  0.00     0.074 A 
ATOM     43  C   UNL A   1      43.377  26.512  27.711  1.00  0.00     0.049 A 
ATOM     44  N   UNL A   1      41.744  28.594  29.106  1.00  0.00    -0.248 NA
ATOM     45  C   UNL A   1      40.139  26.968  29.579  1.00  0.00     0.031 C 
ATOM     46  C   UNL A   1      44.145  25.612  26.868  1.00  0.00     0.029 A 
ATOM     47  N   UNL A   1      44.159  27.646  27.728  1.00  0.00    -0.354 N 
ATOM     48  C   UNL A   1      40.673  29.186  29.765  1.00  0.00     0.074 A 
ATOM     49  C   UNL A   1      39.684  28.149  29.974  1.00  0.00     0.031 C 
ATOM     50  C   UNL A   1      45.299  26.169  26.499  1.00  0.00     0.029 A 
ATOM     51  C   UNL A   1      45.327  27.527  27.003  1.00  0.00     0.049 A 
ATOM     52  H   UNL A   1      43.908  28.466  28.213  1.00  0.00     0.167 HD
ATOM     53  C   UNL A   1      40.533  30.475  30.164  1.00  0.00     0.037 A 
ATOM     54  C   UNL A   1      46.305  28.406  26.721  1.00  0.00     0.037 A 
ATOM     55  C   UNL A   1      41.535  31.492  29.964  1.00  0.00     0.049 A 
ATOM     56  C   UNL A   1      46.150  29.809  27.213  1.00  0.00     0.074 A 
ATOM     57  C   UNL A   1      41.520  32.815  30.370  1.00  0.00     0.029 A 
ATOM     58  N   UNL A   1      42.738  31.295  29.296  1.00  0.00    -0.354 N 
ATOM     59  N   UNL A   1      45.149  30.337  27.870  1.00  0.00    -0.248 NA
ATOM     60  C   UNL A   1      47.240  30.742  26.910  1.00  0.00     0.031 C 
ATOM     61  C   UNL A   1      42.693  33.426  29.916  1.00  0.00     0.029 A 
ATOM     62  C   UNL A   1      43.467  32.474  29.273  1.00  0.00     0.049 A 
ATOM     63  H   UNL A   1      43.030  30.442  28.899  1.00  0.00     0.167 HD
ATOM     64  C   UNL A   1      45.489  31.662  28.073  1.00  0.00     0.074 A 
ATOM     65  C   UNL A   1      46.801  31.852  27.486  1.00  0.00     0.031 C 
ATOM     66  C   UNL A   1      44.773  32.635  28.685  1.00  0.00     0.037 A 
BRANCH  53  67
ATOM     67  C   UNL A   1      39.248  30.856  30.851  1.00  0.00     0.064 A 
ATOM     68  C   UNL A   1      39.080  30.714  32.238  1.00  0.00     0.173 A 
ATOM     69  C   UNL A   1      38.173  31.385  30.118  1.00  0.00     0.173 A 
ATOM     70  F   UNL A   1      40.071  30.209  32.988  1.00  0.00    -0.203 F 
ATOM     71  C   UNL A   1      37.874  31.038  32.855  1.00  0.00     0.198 A 
ATOM     72  C   UNL A   1      36.979  31.740  30.744  1.00  0.00     0.198 A 
ATOM     73  F   UNL A   1      38.277  31.557  28.792  1.00  0.00    -0.203 F 
ATOM     74  F   UNL A   1      37.719  30.830  34.170  1.00  0.00    -0.200 F 
ATOM     75  C   UNL A   1      36.827  31.555  32.109  1.00  0.00     0.200 A 
ATOM     76  F   UNL A   1      35.973  32.255  30.024  1.00  0.00    -0.200 F 
ATOM     77  F   UNL A   1      35.666  31.864  32.704  1.00  0.00    -0.200 F 
ENDBRANCH  53  67
BRANCH  54  78
ATOM     78  C   UNL A   1      47.509  27.971  25.959  1.00  0.00     0.064 A 
ATOM     79  C   UNL A   1      48.688  27.622  26.633  1.00  0.00     0.173 A 
ATOM     80  C   UNL A   1      47.499  27.836  24.561  1.00  0.00     0.173 A 
ATOM     81  F   UNL A   1      48.756  27.745  27.967  1.00  0.00    -0.203 F 
ATOM     82  C   UNL A   1      49.809  27.163  25.942  1.00  0.00     0.198 A 
ATOM     83  C   UNL A   1      48.609  27.345  23.874  1.00  0.00     0.198 A 
ATOM     84  F   UNL A   1      46.393  28.138  23.865  1.00  0.00    -0.203 F 
ATOM     85  F   UNL A   1      50.931  26.867  26.611  1.00  0.00    -0.200 F 
ATOM     86  C   UNL A   1      49.765  27.014  24.565  1.00  0.00     0.200 A 
ATOM     87  F   UNL A   1      48.553  27.176  22.546  1.00  0.00    -0.200 F 
ATOM     88  F   UNL A   1      50.835  26.553  23.903  1.00  0.00    -0.200 F 
ENDBRANCH  54  78
BRANCH  66  89
ATOM     89  C   UNL A   1      45.418  33.982  28.780  1.00  0.00     0.064 A 
ATOM     90  C   UNL A   1      46.225  34.335  29.870  1.00  0.00     0.173 A 
ATOM     91  C   UNL A   1      45.247  34.916  27.748  1.00  0.00     0.173 A 
ATOM     92  F   UNL A   1      46.394  33.481  30.891  1.00  0.00    -0.203 F 
ATOM     93  C   UNL A   1      46.830  35.587  29.930  1.00  0.00     0.198 A 
ATOM     94  C   UNL A   1      45.876  36.155  27.798  1.00  0.00     0.198 A 
ATOM     95  F   UNL A   1      44.480  34.621  26.688  1.00  0.00    -0.203 F 
ATOM     96  F   UNL A   1      47.564  35.923  30.999  1.00  0.00    -0.200 F 
ATOM     97  C   UNL A   1      46.663  36.491  28.891  1.00  0.00     0.200 A 
ATOM     98  F   UNL A   1      45.720  37.025  26.791  1.00  0.00    -0.200 F 
ATOM     99  F   UNL A   1      47.255  37.692  28.946  1.00  0.00    -0.200 F 
ENDBRANCH  66  89
ENDBRANCH  40  41
ENDBRANCH  33  35
ENDBRANCH  32  33
ENDBRANCH  31  32
ENDBRANCH  30  31
ENDBRANCH   1  30
TORSDOF 17
ENDMDL
MODEL 2
REMARK VINA RESULT:     -11.9      3.528      7.874
REMARK SMILES CC(C)Cc1ccc(S(=O)(=O)Nc2cnc(N3CCCC3)c(C(=O)OCCOC(=O)c3ccc(-c4c5nc(c(-c6c(F)c(F)c(F)c(F)c6F)c6ccc([nH]6)c(-c6c(F)c(F)c(F)c(F)c6F)c6nc(c(-c7c(F)c(F)c(F)c(F)c7F)c7ccc4[nH]7)C=C6)C=C5)cc3)c2)cc1
REMARK SMILES IDX 25 1 23 2 24 3 22 4 13 5 14 6 94 7 15 8 16 9 12 10 9 12
REMARK SMILES IDX 10 13 11 14 8 15 5 16 6 17 96 18 7 19 95 20 4 21 2 22 1 23
REMARK SMILES IDX 3 24 17 25 18 26 21 27 19 28 20 29 26 30 27 31 28 32 29 33
REMARK SMILES IDX 30 34 31 35 32 36 93 37 33 38 92 39 34 40 35 41 36 42 86 43
REMARK SMILES IDX 37 44 91 45 85 46 87 47 38 48 90 49 84 50 83 51 39 53 71 54
REMARK SMILES IDX 51 55 70 56 52 57 55 58 69 59 88 60 53 61 54 62 68 64 89 65
REMARK SMILES IDX 56 66 40 67 41 68 49 69 42 70 43 71 47 72 50 73 44 74 45 75
REMARK SMILES IDX 48 76 46 77 72 78 73 79 81 80 74 81 75 82 79 83 82 84 76 85
REMARK SMILES IDX 77 86 80 87 78 88 57 89 58 90 66 91 59 92 60 93 64 94 67 95
REMARK SMILES IDX 61 96 62 97 65 98 63 99
REMARK H PARENT 12 11 87 52 55 63
REMARK Flexibility Score: inf
ROOT
ATOM      1  O   UNL A   1      36.614  23.044  23.883  1.00  0.00    -0.458 OA
ENDROOT
BRANCH   1   2
ATOM      2  C   UNL A   1      35.314  23.259  23.563  1.00  0.00     0.342 C 
ATOM      3  O   UNL A   1      34.829  23.174  22.445  1.00  0.00    -0.246 OA
BRANCH   2   4
ATOM      4  C   UNL A   1      34.546  23.845  24.666  1.00  0.00     0.104 A 
ATOM      5  C   UNL A   1      33.690  26.047  25.085  1.00  0.00     0.068 A 
ATOM      6  C   UNL A   1      32.689  25.421  25.814  1.00  0.00     0.140 A 
ATOM      7  C   UNL A   1      34.716  25.246  24.640  1.00  0.00     0.048 A 
ATOM      8  N   UNL A   1      32.560  24.074  25.957  1.00  0.00    -0.236 NA
ATOM      9  C   UNL A   1      33.430  23.253  25.316  1.00  0.00     0.143 A 
BRANCH   5  10
ATOM     10  N   UNL A   1      33.518  27.400  24.682  1.00  0.00    -0.278 N 
ATOM     11  H   UNL A   1      33.715  28.092  25.355  1.00  0.00     0.180 HD
BRANCH  10  12
ATOM     12  S   UNL A   1      33.013  27.935  23.172  1.00  0.00     0.261 S 
ATOM     13  O   UNL A   1      32.860  26.771  22.325  1.00  0.00    -0.201 OA
ATOM     14  O   UNL A   1      33.942  28.992  22.826  1.00  0.00    -0.201 OA
BRANCH  12  15
ATOM     15  C   UNL A   1      31.402  28.702  23.278  1.00  0.00     0.087 A 
ATOM     16  C   UNL A   1      29.046  30.260  23.409  1.00  0.00    -0.048 A 
ATOM     17  C   UNL A   1      30.059  30.427  24.358  1.00  0.00     0.005 A 
ATOM     18  C   UNL A   1      29.208  29.264  22.431  1.00  0.00     0.005 A 
ATOM     19  C   UNL A   1      31.231  29.663  24.288  1.00  0.00     0.022 A 
ATOM     20  C   UNL A   1      30.369  28.473  22.373  1.00  0.00     0.022 A 
BRANCH  16  21
ATOM     21  C   UNL A   1      27.822  31.161  23.415  1.00  0.00     0.038 C 
BRANCH  21  22
ATOM     22  C   UNL A   1      27.945  32.419  22.523  1.00  0.00    -0.013 C 
ATOM     23  C   UNL A   1      29.006  33.370  23.050  1.00  0.00     0.008 C 
ATOM     24  C   UNL A   1      28.288  32.058  21.078  1.00  0.00     0.008 C 
ENDBRANCH  21  22
ENDBRANCH  16  21
ENDBRANCH  12  15
ENDBRANCH  10  12
ENDBRANCH   5  10
BRANCH   9  25
ATOM     25  N   UNL A   1      32.954  21.952  25.178  1.00  0.00    -0.356 N 
ATOM     26  C   UNL A   1      33.813  20.349  25.842  1.00  0.00     0.118 C 
ATOM     27  C   UNL A   1      32.066  21.673  23.590  1.00  0.00     0.118 C 
ATOM     28  C   UNL A   1      33.480  18.838  24.228  1.00  0.00     0.023 C 
ATOM     29  C   UNL A   1      32.347  19.868  22.908  1.00  0.00     0.023 C 
ENDBRANCH   9  25
ENDBRANCH   2   4
ENDBRANCH   1   2
BRANCH   1  30
ATOM     30  C   UNL A   1      36.928  21.695  24.306  1.00  0.00     0.275 C 
BRANCH  30  31
ATOM     31  C   UNL A   1      37.718  21.699  25.606  1.00  0.00     0.275 C 
BRANCH  31  32
ATOM     32  O   UNL A   1      38.025  23.071  25.899  1.00  0.00    -0.458 OA
BRANCH  32  33
ATOM     33  C   UNL A   1      39.234  23.205  26.466  1.00  0.00     0.338 C 
ATOM     34  O   UNL A   1      40.079  22.349  26.666  1.00  0.00    -0.246 OA
BRANCH  33  35
ATOM     35  C   UNL A   1      39.506  24.598  26.779  1.00  0.00     0.060 A 
ATOM     36  C   UNL A   1      40.513  25.607  25.781  1.00  0.00     0.016 A 
ATOM     37  C   UNL A   1      39.342  25.039  28.368  1.00  0.00     0.016 A 
ATOM     38  C   UNL A   1      41.418  27.185  26.656  1.00  0.00     0.010 A 
ATOM     39  C   UNL A   1      40.050  26.384  29.082  1.00  0.00     0.010 A 
ATOM     40  C   UNL A   1      41.075  27.492  28.337  1.00  0.00    -0.014 A 
BRANCH  40  41
ATOM     41  C   UNL A   1      41.394  28.746  29.093  1.00  0.00     0.031 A 
ATOM     42  C   UNL A   1      42.736  28.899  29.762  1.00  0.00     0.074 A 
ATOM     43  C   UNL A   1      40.419  29.635  29.387  1.00  0.00     0.049 A 
ATOM     44  N   UNL A   1      43.112  29.753  30.683  1.00  0.00    -0.248 NA
ATOM     45  C   UNL A   1      43.774  27.925  29.394  1.00  0.00     0.031 C 
ATOM     46  C   UNL A   1      39.039  29.541  28.942  1.00  0.00     0.029 A 
ATOM     47  N   UNL A   1      40.405  30.771  30.166  1.00  0.00    -0.354 N 
ATOM     48  C   UNL A   1      44.410  29.396  31.028  1.00  0.00     0.074 A 
ATOM     49  C   UNL A   1      44.743  28.221  30.249  1.00  0.00     0.031 C 
ATOM     50  C   UNL A   1      38.323  30.579  29.377  1.00  0.00     0.029 A 
ATOM     51  C   UNL A   1      39.172  31.387  30.228  1.00  0.00     0.049 A 
ATOM     52  H   UNL A   1      41.201  31.111  30.636  1.00  0.00     0.167 HD
ATOM     53  C   UNL A   1      45.248  29.997  31.910  1.00  0.00     0.037 A 
ATOM     54  C   UNL A   1      38.734  32.456  30.918  1.00  0.00     0.037 A 
ATOM     55  C   UNL A   1      44.906  31.177  32.665  1.00  0.00     0.049 A 
ATOM     56  C   UNL A   1      39.690  33.131  31.847  1.00  0.00     0.074 A 
ATOM     57  C   UNL A   1      45.693  31.897  33.547  1.00  0.00     0.029 A 
ATOM     58  N   UNL A   1      43.670  31.811  32.625  1.00  0.00    -0.354 N 
ATOM     59  N   UNL A   1      40.926  32.801  32.128  1.00  0.00    -0.248 NA
ATOM     60  C   UNL A   1      39.193  34.306  32.572  1.00  0.00     0.031 C 
ATOM     61  C   UNL A   1      44.922  32.942  34.069  1.00  0.00     0.029 A 
ATOM     62  C   UNL A   1      43.671  32.906  33.474  1.00  0.00     0.049 A 
ATOM     63  H   UNL A   1      42.907  31.523  32.075  1.00  0.00     0.167 HD
ATOM     64  C   UNL A   1      41.363  33.733  33.051  1.00  0.00     0.074 A 
ATOM     65  C   UNL A   1      40.265  34.655  33.268  1.00  0.00     0.031 C 
ATOM     66  C   UNL A   1      42.566  33.811  33.669  1.00  0.00     0.037 A 
BRANCH  53  67
ATOM     67  C   UNL A   1      46.609  29.385  32.107  1.00  0.00     0.064 A 
ATOM     68  C   UNL A   1      46.847  28.412  33.092  1.00  0.00     0.173 A 
ATOM     69  C   UNL A   1      47.689  29.762  31.293  1.00  0.00     0.173 A 
ATOM     70  F   UNL A   1      45.854  28.017  33.902  1.00  0.00    -0.203 F 
ATOM     71  C   UNL A   1      48.119  27.879  33.286  1.00  0.00     0.198 A 
ATOM     72  C   UNL A   1      48.953  29.201  31.467  1.00  0.00     0.198 A 
ATOM     73  F   UNL A   1      47.522  30.677  30.326  1.00  0.00    -0.203 F 
ATOM     74  F   UNL A   1      48.333  27.001  34.276  1.00  0.00    -0.200 F 
ATOM     75  C   UNL A   1      49.170  28.270  32.471  1.00  0.00     0.200 A 
ATOM     76  F   UNL A   1      49.965  29.569  30.668  1.00  0.00    -0.200 F 
ATOM     77  F   UNL A   1      50.394  27.758  32.660  1.00  0.00    -0.200 F 
ENDBRANCH  53  67
BRANCH  54  78
ATOM     78  C   UNL A   1      37.341  32.950  30.731  1.00  0.00     0.064 A 
ATOM     79  C   UNL A   1      37.000  33.701  29.597  1.00  0.00     0.173 A 
ATOM     80  C   UNL A   1      36.311  32.641  31.635  1.00  0.00     0.173 A 
ATOM     81  F   UNL A   1      37.947  34.036  28.709  1.00  0.00    -0.203 F 
ATOM     82  C   UNL A   1      35.692  34.130  29.378  1.00  0.00     0.198 A 
ATOM     83  C   UNL A   1      34.997  33.041  31.398  1.00  0.00     0.198 A 
ATOM     84  F   UNL A   1      36.575  31.911  32.729  1.00  0.00    -0.203 F 
ATOM     85  F   UNL A   1      35.403  34.873  28.301  1.00  0.00    -0.200 F 
ATOM     86  C   UNL A   1      34.688  33.790  30.273  1.00  0.00     0.200 A 
ATOM     87  F   UNL A   1      34.026  32.686  32.251  1.00  0.00    -0.200 F 
ATOM     88  F   UNL A   1      33.427  34.183  30.051  1.00  0.00    -0.200 F 
ENDBRANCH  54  78
BRANCH  66  89
ATOM     89  C   UNL A   1      42.762  34.958  34.610  1.00  0.00     0.064 A 
ATOM     90  C   UNL A   1      42.515  34.833  35.983  1.00  0.00     0.173 A 
ATOM     91  C   UNL A   1      43.233  36.189  34.128  1.00  0.00     0.173 A 
ATOM     92  F   UNL A   1      42.039  33.681  36.482  1.00  0.00    -0.203 F 
ATOM     93  C   UNL A   1      42.721  35.906  36.844  1.00  0.00     0.198 A 
ATOM     94  C   UNL A   1      43.464  37.251  34.995  1.00  0.00     0.198 A 
ATOM     95  F   UNL A   1      43.478  36.354  32.820  1.00  0.00    -0.203 F 
ATOM     96  F   UNL A   1      42.440  35.781  38.148  1.00  0.00    -0.200 F 
ATOM     97  C   UNL A   1      43.204  37.110  36.351  1.00  0.00     0.200 A 
ATOM     98  F   UNL A   1      43.937  38.410  34.520  1.00  0.00    -0.200 F 
ATOM     99  F   UNL A   1      43.411  38.140  37.183  1.00  0.00    -0.200 F 
ENDBRANCH  66  89
ENDBRANCH  40  41
ENDBRANCH  33  35
ENDBRANCH  32  33
ENDBRANCH  31  32
ENDBRANCH  30  31
ENDBRANCH   1  30
TORSDOF 17
ENDMDL
MODEL 3
REMARK VINA RESULT:     -11.3      4.027      8.068
REMARK SMILES CC(C)Cc1ccc(S(=O)(=O)Nc2cnc(N3CCCC3)c(C(=O)OCCOC(=O)c3ccc(-c4c5nc(c(-c6c(F)c(F)c(F)c(F)c6F)c6ccc([nH]6)c(-c6c(F)c(F)c(F)c(F)c6F)c6nc(c(-c7c(F)c(F)c(F)c(F)c7F)c7ccc4[nH]7)C=C6)C=C5)cc3)c2)cc1
REMARK SMILES IDX 25 1 23 2 24 3 22 4 13 5 14 6 94 7 15 8 16 9 12 10 9 12
REMARK SMILES IDX 10 13 11 14 8 15 5 16 6 17 96 18 7 19 95 20 4 21 2 22 1 23
REMARK SMILES IDX 3 24 17 25 18 26 21 27 19 28 20 29 26 30 27 31 28 32 29 33
REMARK SMILES IDX 30 34 31 35 32 36 93 37 33 38 92 39 34 40 35 41 36 42 86 43
REMARK SMILES IDX 37 44 91 45 85 46 87 47 38 48 90 49 84 50 83 51 39 53 71 54
REMARK SMILES IDX 51 55 70 56 52 57 55 58 69 59 88 60 53 61 54 62 68 64 89 65
REMARK SMILES IDX 56 66 40 67 41 68 49 69 42 70 43 71 47 72 50 73 44 74 45 75
REMARK SMILES IDX 48 76 46 77 72 78 73 79 81 80 74 81 75 82 79 83 82 84 76 85
REMARK SMILES IDX 77 86 80 87 78 88 57 89 58 90 66 91 59 92 60 93 64 94 67 95
REMARK SMILES IDX 61 96 62 97 65 98 63 99
REMARK H PARENT 12 11 87 52 55 63
REMARK Flexibility Score: inf
ROOT
ATOM      1  O   UNL A   1      36.038  23.095  24.313  1.00  0.00    -0.458 OA
ENDROOT
BRANCH   1   2
ATOM      2  C   UNL A   1      34.871  22.978  23.632  1.00  0.00     0.342 C 
ATOM      3  O   UNL A   1      34.728  23.120  22.427  1.00  0.00    -0.246 OA
BRANCH   2   4
ATOM      4  C   UNL A   1      33.704  22.885  24.515  1.00  0.00     0.104 A 
ATOM      5  C   UNL A   1      31.808  24.307  24.887  1.00  0.00     0.068 A 
ATOM      6  C   UNL A   1      31.120  23.149  25.222  1.00  0.00     0.140 A 
ATOM      7  C   UNL A   1      33.162  24.178  24.683  1.00  0.00     0.048 A 
ATOM      8  N   UNL A   1      31.646  21.895  25.183  1.00  0.00    -0.236 NA
ATOM      9  C   UNL A   1      32.918  21.724  24.744  1.00  0.00     0.143 A 
BRANCH   5  10
ATOM     10  N   UNL A   1      31.078  25.492  24.592  1.00  0.00    -0.278 N 
ATOM     11  H   UNL A   1      30.182  25.573  24.992  1.00  0.00     0.180 HD
BRANCH  10  12
ATOM     12  S   UNL A   1      31.595  26.767  23.629  1.00  0.00     0.261 S 
ATOM     13  O   UNL A   1      31.721  26.270  22.275  1.00  0.00    -0.201 OA
ATOM     14  O   UNL A   1      32.737  27.319  24.329  1.00  0.00    -0.201 OA
BRANCH  12  15
ATOM     15  C   UNL A   1      30.365  28.064  23.582  1.00  0.00     0.087 A 
ATOM     16  C   UNL A   1      28.674  30.309  23.275  1.00  0.00    -0.048 A 
ATOM     17  C   UNL A   1      29.941  30.450  23.849  1.00  0.00     0.005 A 
ATOM     18  C   UNL A   1      28.247  29.020  22.912  1.00  0.00     0.005 A 
ATOM     19  C   UNL A   1      30.783  29.340  23.991  1.00  0.00     0.022 A 
ATOM     20  C   UNL A   1      29.076  27.898  23.080  1.00  0.00     0.022 A 
BRANCH  16  21
ATOM     21  C   UNL A   1      27.801  31.526  23.017  1.00  0.00     0.038 C 
BRANCH  21  22
ATOM     22  C   UNL A   1      28.486  32.650  22.207  1.00  0.00    -0.013 C 
ATOM     23  C   UNL A   1      27.653  33.050  21.000  1.00  0.00     0.008 C 
ATOM     24  C   UNL A   1      28.737  33.894  23.060  1.00  0.00     0.008 C 
ENDBRANCH  21  22
ENDBRANCH  16  21
ENDBRANCH  12  15
ENDBRANCH  10  12
ENDBRANCH   5  10
BRANCH   9  25
ATOM     25  N   UNL A   1      33.187  20.418  24.341  1.00  0.00    -0.356 N 
ATOM     26  C   UNL A   1      32.501  19.552  22.752  1.00  0.00     0.118 C 
ATOM     27  C   UNL A   1      33.381  19.254  25.754  1.00  0.00     0.118 C 
ATOM     28  C   UNL A   1      32.063  17.461  23.411  1.00  0.00     0.023 C 
ATOM     29  C   UNL A   1      32.702  17.477  25.329  1.00  0.00     0.023 C 
ENDBRANCH   9  25
ENDBRANCH   2   4
ENDBRANCH   1   2
BRANCH   1  30
ATOM     30  C   UNL A   1      37.019  22.068  24.033  1.00  0.00     0.275 C 
BRANCH  30  31
ATOM     31  C   UNL A   1      37.856  21.760  25.265  1.00  0.00     0.275 C 
BRANCH  31  32
ATOM     32  O   UNL A   1      38.036  23.001  25.963  1.00  0.00    -0.458 OA
BRANCH  32  33
ATOM     33  C   UNL A   1      39.292  23.147  26.414  1.00  0.00     0.338 C 
ATOM     34  O   UNL A   1      40.189  22.322  26.442  1.00  0.00    -0.246 OA
BRANCH  33  35
ATOM     35  C   UNL A   1      39.536  24.518  26.829  1.00  0.00     0.060 A 
ATOM     36  C   UNL A   1      40.650  25.567  26.001  1.00  0.00     0.016 A 
ATOM     37  C   UNL A   1      39.204  24.877  28.412  1.00  0.00     0.016 A 
ATOM     38  C   UNL A   1      41.464  27.087  27.053  1.00  0.00     0.010 A 
ATOM     39  C   UNL A   1      39.837  26.174  29.270  1.00  0.00     0.010 A 
ATOM     40  C   UNL A   1      40.942  27.308  28.701  1.00  0.00    -0.014 A 
BRANCH  40  41
ATOM     41  C   UNL A   1      41.184  28.516  29.553  1.00  0.00     0.031 A 
ATOM     42  C   UNL A   1      42.425  28.598  30.406  1.00  0.00     0.074 A 
ATOM     43  C   UNL A   1      40.200  29.421  29.755  1.00  0.00     0.049 A 
ATOM     44  N   UNL A   1      42.691  29.398  31.410  1.00  0.00    -0.248 NA
ATOM     45  C   UNL A   1      43.480  27.610  30.135  1.00  0.00     0.031 C 
ATOM     46  C   UNL A   1      38.893  29.389  29.122  1.00  0.00     0.029 A 
ATOM     47  N   UNL A   1      40.106  30.520  30.579  1.00  0.00    -0.354 N 
ATOM     48  C   UNL A   1      43.920  28.986  31.911  1.00  0.00     0.074 A 
ATOM     49  C   UNL A   1      44.329  27.839  31.128  1.00  0.00     0.031 C 
ATOM     50  C   UNL A   1      38.149  30.428  29.505  1.00  0.00     0.029 A 
ATOM     51  C   UNL A   1      38.892  31.170  30.502  1.00  0.00     0.049 A 
ATOM     52  H   UNL A   1      40.838  30.814  31.169  1.00  0.00     0.167 HD
ATOM     53  C   UNL A   1      44.643  29.522  32.927  1.00  0.00     0.037 A 
ATOM     54  C   UNL A   1      38.389  32.220  31.177  1.00  0.00     0.037 A 
ATOM     55  C   UNL A   1      44.229  30.676  33.686  1.00  0.00     0.049 A 
ATOM     56  C   UNL A   1      39.224  32.823  32.260  1.00  0.00     0.074 A 
ATOM     57  C   UNL A   1      44.904  31.332  34.700  1.00  0.00     0.029 A 
ATOM     58  N   UNL A   1      43.026  31.348  33.508  1.00  0.00    -0.354 N 
ATOM     59  N   UNL A   1      40.401  32.444  32.690  1.00  0.00    -0.248 NA
ATOM     60  C   UNL A   1      38.660  33.979  32.966  1.00  0.00     0.031 C 
ATOM     61  C   UNL A   1      44.094  32.375  35.163  1.00  0.00     0.029 A 
ATOM     62  C   UNL A   1      42.936  32.404  34.402  1.00  0.00     0.049 A 
ATOM     63  H   UNL A   1      42.339  31.109  32.845  1.00  0.00     0.167 HD
ATOM     64  C   UNL A   1      40.729  33.319  33.709  1.00  0.00     0.074 A 
ATOM     65  C   UNL A   1      39.634  34.263  33.819  1.00  0.00     0.031 C 
ATOM     66  C   UNL A   1      41.837  33.333  34.487  1.00  0.00     0.037 A 
BRANCH  53  67
ATOM     67  C   UNL A   1      45.948  28.860  33.278  1.00  0.00     0.064 A 
ATOM     68  C   UNL A   1      47.169  29.300  32.741  1.00  0.00     0.173 A 
ATOM     69  C   UNL A   1      45.987  27.779  34.174  1.00  0.00     0.173 A 
ATOM     70  F   UNL A   1      47.194  30.325  31.876  1.00  0.00    -0.203 F 
ATOM     71  C   UNL A   1      48.366  28.656  33.047  1.00  0.00     0.198 A 
ATOM     72  C   UNL A   1      47.190  27.158  34.505  1.00  0.00     0.198 A 
ATOM     73  F   UNL A   1      44.855  27.320  34.730  1.00  0.00    -0.203 F 
ATOM     74  F   UNL A   1      49.507  29.056  32.470  1.00  0.00    -0.200 F 
ATOM     75  C   UNL A   1      48.376  27.590  33.932  1.00  0.00     0.200 A 
ATOM     76  F   UNL A   1      47.200  26.137  35.373  1.00  0.00    -0.200 F 
ATOM     77  F   UNL A   1      49.528  26.970  34.224  1.00  0.00    -0.200 F 
ENDBRANCH  53  67
BRANCH  54  78
ATOM     78  C   UNL A   1      37.047  32.764  30.826  1.00  0.00     0.064 A 
ATOM     79  C   UNL A   1      35.946  32.534  31.664  1.00  0.00     0.173 A 
ATOM     80  C   UNL A   1      36.840  33.568  29.693  1.00  0.00     0.173 A 
ATOM     81  F   UNL A   1      36.084  31.763  32.752  1.00  0.00    -0.203 F 
ATOM     82  C   UNL A   1      34.693  33.076  31.380  1.00  0.00     0.198 A 
ATOM     83  C   UNL A   1      35.596  34.138  29.429  1.00  0.00     0.198 A 
ATOM     84  F   UNL A   1      37.861  33.836  28.866  1.00  0.00    -0.203 F 
ATOM     85  F   UNL A   1      33.654  32.813  32.183  1.00  0.00    -0.200 F 
ATOM     86  C   UNL A   1      34.521  33.888  30.269  1.00  0.00     0.200 A 
ATOM     87  F   UNL A   1      35.441  34.944  28.370  1.00  0.00    -0.200 F 
ATOM     88  F   UNL A   1      33.323  34.427  30.009  1.00  0.00    -0.200 F 
ENDBRANCH  54  78
BRANCH  66  89
ATOM     89  C   UNL A   1      41.929  34.430  35.501  1.00  0.00     0.064 A 
ATOM     90  C   UNL A   1      42.557  35.648  35.210  1.00  0.00     0.173 A 
ATOM     91  C   UNL A   1      41.352  34.265  36.769  1.00  0.00     0.173 A 
ATOM     92  F   UNL A   1      43.145  35.838  34.019  1.00  0.00    -0.203 F 
ATOM     93  C   UNL A   1      42.617  36.662  36.161  1.00  0.00     0.198 A 
ATOM     94  C   UNL A   1      41.388  35.291  37.706  1.00  0.00     0.198 A 
ATOM     95  F   UNL A   1      40.744  33.114  37.091  1.00  0.00    -0.203 F 
ATOM     96  F   UNL A   1      43.259  37.804  35.880  1.00  0.00    -0.200 F 
ATOM     97  C   UNL A   1      42.025  36.487  37.403  1.00  0.00     0.200 A 
ATOM     98  F   UNL A   1      40.810  35.124  38.903  1.00  0.00    -0.200 F 
ATOM     99  F   UNL A   1      42.075  37.468  38.314  1.00  0.00    -0.200 F 
ENDBRANCH  66  89
ENDBRANCH  40  41
ENDBRANCH  33  35
ENDBRANCH  32  33
ENDBRANCH  31  32
ENDBRANCH  30  31
ENDBRANCH   1  30
TORSDOF 17
ENDMDL
