MODEL 1
REMARK VINA RESULT:     -13.0      0.000      0.000
REMARK SMILES O=C(OCCOC(=O)c1cc(Cl)ncc1-c1cccc(C(F)(F)F)c1)c1ccc(-c2c3nc(c(-c4c(F)c(F)c(F)c(F)c4F)c4ccc([nH]4)c(-c4c(F)c(F)c(F)c(F)c4F)c4nc(c(-c5c(F)c(F)c(F)c(F)c5F)c5ccc2[nH]5)C=C4)C=C3)cc1
REMARK SMILES IDX 4 1 3 2 2 3 1 4 26 5 27 6 88 7 28 8 87 9 29 10 30 11 31 12
REMARK SMILES IDX 81 13 32 14 86 15 80 16 82 17 33 18 85 19 79 20 78 21 34 23
REMARK SMILES IDX 66 24 46 25 65 26 47 27 50 28 64 29 83 30 48 31 49 32 63 34
REMARK SMILES IDX 84 35 51 36 35 37 36 38 44 39 37 40 38 41 42 42 45 43 39 44
REMARK SMILES IDX 40 45 43 46 41 47 67 48 68 49 76 50 69 51 70 52 74 53 77 54
REMARK SMILES IDX 71 55 72 56 75 57 73 58 52 59 53 60 61 61 54 62 55 63 59 64
REMARK SMILES IDX 62 65 56 66 57 67 60 68 58 69 5 70 6 71 7 72 8 73 9 74 10 75
REMARK SMILES IDX 15 76 11 77 14 78 12 79 13 80 16 81 17 82 25 83 18 84 20 85
REMARK SMILES IDX 19 86 21 87 22 88 23 89 24 90
REMARK H PARENT 82 22 50 33
REMARK Flexibility Score: inf
ROOT
ATOM      1  C   UNL A   1      32.007  30.787  26.866  1.00  0.00     0.275 C 
ENDROOT
BRANCH   1   2
ATOM      2  O   UNL A   1      33.406  31.070  26.765  1.00  0.00    -0.458 OA
BRANCH   2   3
ATOM      3  C   UNL A   1      33.834  32.021  27.633  1.00  0.00     0.338 C 
ATOM      4  O   UNL A   1      33.454  33.180  27.689  1.00  0.00    -0.246 OA
BRANCH   3   5
ATOM      5  C   UNL A   1      35.059  31.520  28.296  1.00  0.00     0.060 A 
ATOM      6  C   UNL A   1      35.183  30.183  28.687  1.00  0.00     0.016 A 
ATOM      7  C   UNL A   1      36.163  32.377  28.376  1.00  0.00     0.016 A 
ATOM      8  C   UNL A   1      36.401  29.712  29.153  1.00  0.00     0.010 A 
ATOM      9  C   UNL A   1      37.407  31.885  28.748  1.00  0.00     0.010 A 
ATOM     10  C   UNL A   1      37.512  30.561  29.185  1.00  0.00    -0.014 A 
BRANCH  10  11
ATOM     11  C   UNL A   1      38.734  30.097  29.862  1.00  0.00     0.031 A 
ATOM     12  C   UNL A   1      38.998  30.592  31.251  1.00  0.00     0.074 A 
ATOM     13  C   UNL A   1      39.526  29.189  29.267  1.00  0.00     0.049 A 
ATOM     14  N   UNL A   1      39.921  30.224  32.097  1.00  0.00    -0.248 NA
ATOM     15  C   UNL A   1      38.096  31.639  31.765  1.00  0.00     0.031 C 
ATOM     16  C   UNL A   1      39.333  28.658  27.919  1.00  0.00     0.029 A 
ATOM     17  N   UNL A   1      40.647  28.552  29.720  1.00  0.00    -0.354 N 
ATOM     18  C   UNL A   1      39.683  30.964  33.245  1.00  0.00     0.074 A 
ATOM     19  C   UNL A   1      38.601  31.875  32.963  1.00  0.00     0.031 C 
ATOM     20  C   UNL A   1      40.322  27.792  27.642  1.00  0.00     0.029 A 
ATOM     21  C   UNL A   1      41.204  27.703  28.798  1.00  0.00     0.049 A 
ATOM     22  H   UNL A   1      41.019  28.689  30.622  1.00  0.00     0.167 HD
ATOM     23  C   UNL A   1      40.280  30.845  34.453  1.00  0.00     0.037 A 
ATOM     24  C   UNL A   1      42.304  26.935  28.893  1.00  0.00     0.037 A 
ATOM     25  C   UNL A   1      41.349  29.926  34.710  1.00  0.00     0.049 A 
ATOM     26  C   UNL A   1      42.999  26.867  30.224  1.00  0.00     0.074 A 
ATOM     27  C   UNL A   1      42.025  29.687  35.889  1.00  0.00     0.029 A 
ATOM     28  N   UNL A   1      41.901  29.089  33.747  1.00  0.00    -0.354 N 
ATOM     29  N   UNL A   1      42.718  27.508  31.334  1.00  0.00    -0.248 NA
ATOM     30  C   UNL A   1      44.129  25.938  30.335  1.00  0.00     0.031 C 
ATOM     31  C   UNL A   1      43.008  28.724  35.633  1.00  0.00     0.029 A 
ATOM     32  C   UNL A   1      42.919  28.337  34.303  1.00  0.00     0.049 A 
ATOM     33  H   UNL A   1      41.609  29.037  32.808  1.00  0.00     0.167 HD
ATOM     34  C   UNL A   1      43.602  27.031  32.287  1.00  0.00     0.074 A 
ATOM     35  C   UNL A   1      44.436  26.049  31.620  1.00  0.00     0.031 C 
ATOM     36  C   UNL A   1      43.709  27.359  33.599  1.00  0.00     0.037 A 
BRANCH  23  37
ATOM     37  C   UNL A   1      39.758  31.718  35.552  1.00  0.00     0.064 A 
ATOM     38  C   UNL A   1      38.701  31.296  36.378  1.00  0.00     0.173 A 
ATOM     39  C   UNL A   1      40.273  33.005  35.753  1.00  0.00     0.173 A 
ATOM     40  F   UNL A   1      38.151  30.085  36.204  1.00  0.00    -0.203 F 
ATOM     41  C   UNL A   1      38.158  32.145  37.338  1.00  0.00     0.198 A 
ATOM     42  C   UNL A   1      39.744  33.842  36.733  1.00  0.00     0.198 A 
ATOM     43  F   UNL A   1      41.274  33.460  34.985  1.00  0.00    -0.203 F 
ATOM     44  F   UNL A   1      37.106  31.745  38.067  1.00  0.00    -0.200 F 
ATOM     45  C   UNL A   1      38.681  33.416  37.516  1.00  0.00     0.200 A 
ATOM     46  F   UNL A   1      40.250  35.071  36.906  1.00  0.00    -0.200 F 
ATOM     47  F   UNL A   1      38.149  34.238  38.432  1.00  0.00    -0.200 F 
ENDBRANCH  23  37
BRANCH  24  48
ATOM     48  C   UNL A   1      42.765  26.153  27.720  1.00  0.00     0.064 A 
ATOM     49  C   UNL A   1      42.232  24.893  27.422  1.00  0.00     0.173 A 
ATOM     50  C   UNL A   1      43.739  26.672  26.851  1.00  0.00     0.173 A 
ATOM     51  F   UNL A   1      41.307  24.350  28.227  1.00  0.00    -0.203 F 
ATOM     52  C   UNL A   1      42.666  24.171  26.310  1.00  0.00     0.198 A 
ATOM     53  C   UNL A   1      44.158  25.959  25.729  1.00  0.00     0.198 A 
ATOM     54  F   UNL A   1      44.276  27.876  27.089  1.00  0.00    -0.203 F 
ATOM     55  F   UNL A   1      42.162  22.955  26.065  1.00  0.00    -0.200 F 
ATOM     56  C   UNL A   1      43.625  24.707  25.463  1.00  0.00     0.200 A 
ATOM     57  F   UNL A   1      45.077  26.483  24.907  1.00  0.00    -0.200 F 
ATOM     58  F   UNL A   1      44.038  24.014  24.393  1.00  0.00    -0.200 F 
ENDBRANCH  24  48
BRANCH  36  59
ATOM     59  C   UNL A   1      44.729  26.612  34.399  1.00  0.00     0.064 A 
ATOM     60  C   UNL A   1      46.027  27.109  34.574  1.00  0.00     0.173 A 
ATOM     61  C   UNL A   1      44.380  25.415  35.040  1.00  0.00     0.173 A 
ATOM     62  F   UNL A   1      46.405  28.243  33.964  1.00  0.00    -0.203 F 
ATOM     63  C   UNL A   1      46.950  26.420  35.353  1.00  0.00     0.198 A 
ATOM     64  C   UNL A   1      45.297  24.743  35.838  1.00  0.00     0.198 A 
ATOM     65  F   UNL A   1      43.145  24.910  34.903  1.00  0.00    -0.203 F 
ATOM     66  F   UNL A   1      48.198  26.891  35.481  1.00  0.00    -0.200 F 
ATOM     67  C   UNL A   1      46.582  25.243  35.990  1.00  0.00     0.200 A 
ATOM     68  F   UNL A   1      44.939  23.612  36.461  1.00  0.00    -0.200 F 
ATOM     69  F   UNL A   1      47.471  24.587  36.748  1.00  0.00    -0.200 F 
ENDBRANCH  36  59
ENDBRANCH  10  11
ENDBRANCH   3   5
ENDBRANCH   2   3
ENDBRANCH   1   2
BRANCH   1  70
ATOM     70  C   UNL A   1      31.795  29.280  27.073  1.00  0.00     0.275 C 
BRANCH  70  71
ATOM     71  O   UNL A   1      31.677  28.546  25.832  1.00  0.00    -0.458 OA
BRANCH  71  72
ATOM     72  C   UNL A   1      31.401  27.224  25.903  1.00  0.00     0.339 C 
ATOM     73  O   UNL A   1      30.977  26.615  26.871  1.00  0.00    -0.246 OA
BRANCH  72  74
ATOM     74  C   UNL A   1      31.787  26.585  24.624  1.00  0.00     0.072 A 
ATOM     75  C   UNL A   1      32.971  25.837  24.602  1.00  0.00     0.057 A 
ATOM     76  C   UNL A   1      30.947  26.616  23.498  1.00  0.00     0.015 A 
ATOM     77  C   UNL A   1      33.272  25.144  23.448  1.00  0.00     0.129 A 
ATOM     78  C   UNL A   1      31.401  25.917  22.377  1.00  0.00     0.122 A 
ATOM     79  Cl  UNL A   1      34.596  24.057  23.385  1.00  0.00    -0.062 Cl
ATOM     80  N   UNL A   1      32.535  25.184  22.326  1.00  0.00    -0.244 NA
BRANCH  76  81
ATOM     81  C   UNL A   1      29.660  27.313  23.429  1.00  0.00    -0.015 A 
ATOM     82  C   UNL A   1      28.483  26.703  23.876  1.00  0.00     0.009 A 
ATOM     83  C   UNL A   1      29.559  28.583  22.848  1.00  0.00     0.021 A 
ATOM     84  C   UNL A   1      27.250  27.346  23.743  1.00  0.00     0.001 A 
ATOM     85  C   UNL A   1      28.330  29.234  22.677  1.00  0.00     0.056 A 
ATOM     86  C   UNL A   1      27.172  28.604  23.143  1.00  0.00     0.013 A 
BRANCH  85  87
ATOM     87  C   UNL A   1      28.267  30.584  22.005  1.00  0.00     0.416 C 
ATOM     88  F   UNL A   1      27.391  31.428  22.624  1.00  0.00    -0.166 F 
ATOM     89  F   UNL A   1      29.463  31.231  21.998  1.00  0.00    -0.166 F 
ATOM     90  F   UNL A   1      27.851  30.526  20.707  1.00  0.00    -0.166 F 
ENDBRANCH  85  87
ENDBRANCH  76  81
ENDBRANCH  72  74
ENDBRANCH  71  72
ENDBRANCH  70  71
ENDBRANCH   1  70
TORSDOF 13
ENDMDL
MODEL 2
REMARK VINA RESULT:     -12.9      0.103      1.212
REMARK SMILES O=C(OCCOC(=O)c1cc(Cl)ncc1-c1cccc(C(F)(F)F)c1)c1ccc(-c2c3nc(c(-c4c(F)c(F)c(F)c(F)c4F)c4ccc([nH]4)c(-c4c(F)c(F)c(F)c(F)c4F)c4nc(c(-c5c(F)c(F)c(F)c(F)c5F)c5ccc2[nH]5)C=C4)C=C3)cc1
REMARK SMILES IDX 4 1 3 2 2 3 1 4 26 5 27 6 88 7 28 8 87 9 29 10 30 11 31 12
REMARK SMILES IDX 81 13 32 14 86 15 80 16 82 17 33 18 85 19 79 20 78 21 34 23
REMARK SMILES IDX 66 24 46 25 65 26 47 27 50 28 64 29 83 30 48 31 49 32 63 34
REMARK SMILES IDX 84 35 51 36 35 37 36 38 44 39 37 40 38 41 42 42 45 43 39 44
REMARK SMILES IDX 40 45 43 46 41 47 67 48 68 49 76 50 69 51 70 52 74 53 77 54
REMARK SMILES IDX 71 55 72 56 75 57 73 58 52 59 53 60 61 61 54 62 55 63 59 64
REMARK SMILES IDX 62 65 56 66 57 67 60 68 58 69 5 70 6 71 7 72 8 73 9 74 10 75
REMARK SMILES IDX 15 76 11 77 14 78 12 79 13 80 16 81 17 82 25 83 18 84 20 85
REMARK SMILES IDX 19 86 21 87 22 88 23 89 24 90
REMARK H PARENT 82 22 50 33
REMARK Flexibility Score: inf
ROOT
ATOM      1  C   UNL A   1      31.980  30.727  26.874  1.00  0.00     0.275 C 
ENDROOT
BRANCH   1   2
ATOM      2  O   UNL A   1      33.362  31.071  26.741  1.00  0.00    -0.458 OA
BRANCH   2   3
ATOM      3  C   UNL A   1      33.779  32.010  27.626  1.00  0.00     0.338 C 
ATOM      4  O   UNL A   1      33.386  33.163  27.703  1.00  0.00    -0.246 OA
BRANCH   3   5
ATOM      5  C   UNL A   1      35.010  31.512  28.281  1.00  0.00     0.060 A 
ATOM      6  C   UNL A   1      35.152  30.168  28.641  1.00  0.00     0.016 A 
ATOM      7  C   UNL A   1      36.102  32.381  28.383  1.00  0.00     0.016 A 
ATOM      8  C   UNL A   1      36.375  29.703  29.099  1.00  0.00     0.010 A 
ATOM      9  C   UNL A   1      37.351  31.898  28.747  1.00  0.00     0.010 A 
ATOM     10  C   UNL A   1      37.475  30.566  29.153  1.00  0.00    -0.014 A 
BRANCH  10  11
ATOM     11  C   UNL A   1      38.701  30.103  29.823  1.00  0.00     0.031 A 
ATOM     12  C   UNL A   1      38.971  30.596  31.212  1.00  0.00     0.074 A 
ATOM     13  C   UNL A   1      39.492  29.200  29.221  1.00  0.00     0.049 A 
ATOM     14  N   UNL A   1      39.899  30.228  32.051  1.00  0.00    -0.248 NA
ATOM     15  C   UNL A   1      38.068  31.638  31.733  1.00  0.00     0.031 C 
ATOM     16  C   UNL A   1      39.294  28.673  27.872  1.00  0.00     0.029 A 
ATOM     17  N   UNL A   1      40.618  28.565  29.666  1.00  0.00    -0.354 N 
ATOM     18  C   UNL A   1      39.666  30.964  33.203  1.00  0.00     0.074 A 
ATOM     19  C   UNL A   1      38.579  31.872  32.929  1.00  0.00     0.031 C 
ATOM     20  C   UNL A   1      40.284  27.810  27.587  1.00  0.00     0.029 A 
ATOM     21  C   UNL A   1      41.173  27.720  28.738  1.00  0.00     0.049 A 
ATOM     22  H   UNL A   1      40.994  28.700  30.566  1.00  0.00     0.167 HD
ATOM     23  C   UNL A   1      40.269  30.842  34.407  1.00  0.00     0.037 A 
ATOM     24  C   UNL A   1      42.275  26.955  28.825  1.00  0.00     0.037 A 
ATOM     25  C   UNL A   1      41.343  29.926  34.656  1.00  0.00     0.049 A 
ATOM     26  C   UNL A   1      42.977  26.885  30.152  1.00  0.00     0.074 A 
ATOM     27  C   UNL A   1      42.026  29.685  35.831  1.00  0.00     0.029 A 
ATOM     28  N   UNL A   1      41.891  29.093  33.687  1.00  0.00    -0.354 N 
ATOM     29  N   UNL A   1      42.700  27.522  31.265  1.00  0.00    -0.248 NA
ATOM     30  C   UNL A   1      44.111  25.959  30.254  1.00  0.00     0.031 C 
ATOM     31  C   UNL A   1      43.010  28.726  35.566  1.00  0.00     0.029 A 
ATOM     32  C   UNL A   1      42.915  28.343  34.235  1.00  0.00     0.049 A 
ATOM     33  H   UNL A   1      41.595  29.044  32.750  1.00  0.00     0.167 HD
ATOM     34  C   UNL A   1      43.591  27.044  32.212  1.00  0.00     0.074 A 
ATOM     35  C   UNL A   1      44.424  26.067  31.538  1.00  0.00     0.031 C 
ATOM     36  C   UNL A   1      43.704  27.369  33.525  1.00  0.00     0.037 A 
BRANCH  23  37
ATOM     37  C   UNL A   1      39.750  31.711  35.511  1.00  0.00     0.064 A 
ATOM     38  C   UNL A   1      38.694  31.287  36.336  1.00  0.00     0.173 A 
ATOM     39  C   UNL A   1      40.269  32.995  35.719  1.00  0.00     0.173 A 
ATOM     40  F   UNL A   1      38.140  30.078  36.156  1.00  0.00    -0.203 F 
ATOM     41  C   UNL A   1      38.153  32.133  37.301  1.00  0.00     0.198 A 
ATOM     42  C   UNL A   1      39.744  33.828  36.704  1.00  0.00     0.198 A 
ATOM     43  F   UNL A   1      41.271  33.451  34.953  1.00  0.00    -0.203 F 
ATOM     44  F   UNL A   1      37.101  31.731  38.029  1.00  0.00    -0.200 F 
ATOM     45  C   UNL A   1      38.680  33.401  37.486  1.00  0.00     0.200 A 
ATOM     46  F   UNL A   1      40.253  35.054  36.884  1.00  0.00    -0.200 F 
ATOM     47  F   UNL A   1      38.151  34.218  38.407  1.00  0.00    -0.200 F 
ENDBRANCH  23  37
BRANCH  24  48
ATOM     48  C   UNL A   1      42.732  26.178  27.647  1.00  0.00     0.064 A 
ATOM     49  C   UNL A   1      43.721  26.667  26.784  1.00  0.00     0.173 A 
ATOM     50  C   UNL A   1      42.199  24.907  27.376  1.00  0.00     0.173 A 
ATOM     51  F   UNL A   1      44.253  27.879  26.994  1.00  0.00    -0.203 F 
ATOM     52  C   UNL A   1      44.150  25.923  25.685  1.00  0.00     0.198 A 
ATOM     53  C   UNL A   1      42.642  24.156  26.289  1.00  0.00     0.198 A 
ATOM     54  F   UNL A   1      41.254  24.393  28.174  1.00  0.00    -0.203 F 
ATOM     55  F   UNL A   1      45.076  26.426  24.858  1.00  0.00    -0.200 F 
ATOM     56  C   UNL A   1      43.613  24.667  25.441  1.00  0.00     0.200 A 
ATOM     57  F   UNL A   1      42.129  22.939  26.062  1.00  0.00    -0.200 F 
ATOM     58  F   UNL A   1      44.030  23.952  24.387  1.00  0.00    -0.200 F 
ENDBRANCH  24  48
BRANCH  36  59
ATOM     59  C   UNL A   1      44.730  26.623  34.316  1.00  0.00     0.064 A 
ATOM     60  C   UNL A   1      46.027  27.125  34.489  1.00  0.00     0.173 A 
ATOM     61  C   UNL A   1      44.389  25.421  34.953  1.00  0.00     0.173 A 
ATOM     62  F   UNL A   1      46.397  28.263  33.884  1.00  0.00    -0.203 F 
ATOM     63  C   UNL A   1      46.956  26.436  35.261  1.00  0.00     0.198 A 
ATOM     64  C   UNL A   1      45.312  24.749  35.744  1.00  0.00     0.198 A 
ATOM     65  F   UNL A   1      43.156  24.911  34.818  1.00  0.00    -0.203 F 
ATOM     66  F   UNL A   1      48.202  26.912  35.387  1.00  0.00    -0.200 F 
ATOM     67  C   UNL A   1      46.596  25.255  35.894  1.00  0.00     0.200 A 
ATOM     68  F   UNL A   1      44.962  23.613  36.363  1.00  0.00    -0.200 F 
ATOM     69  F   UNL A   1      47.491  24.598  36.645  1.00  0.00    -0.200 F 
ENDBRANCH  36  59
ENDBRANCH  10  11
ENDBRANCH   3   5
ENDBRANCH   2   3
ENDBRANCH   1   2
BRANCH   1  70
ATOM     70  C   UNL A   1      31.842  29.222  27.147  1.00  0.00     0.275 C 
BRANCH  70  71
ATOM     71  O   UNL A   1      32.109  28.406  25.982  1.00  0.00    -0.458 OA
BRANCH  71  72
ATOM     72  C   UNL A   1      31.468  27.219  25.882  1.00  0.00     0.339 C 
ATOM     73  O   UNL A   1      30.764  26.693  26.727  1.00  0.00    -0.246 OA
BRANCH  72  74
ATOM     74  C   UNL A   1      31.831  26.588  24.592  1.00  0.00     0.072 A 
ATOM     75  C   UNL A   1      33.014  25.839  24.544  1.00  0.00     0.057 A 
ATOM     76  C   UNL A   1      30.970  26.626  23.482  1.00  0.00     0.015 A 
ATOM     77  C   UNL A   1      33.293  25.153  23.380  1.00  0.00     0.129 A 
ATOM     78  C   UNL A   1      31.403  25.934  22.348  1.00  0.00     0.122 A 
ATOM     79  Cl  UNL A   1      34.614  24.065  23.287  1.00  0.00    -0.062 Cl
ATOM     80  N   UNL A   1      32.536  25.200  22.273  1.00  0.00    -0.244 NA
BRANCH  76  81
ATOM     81  C   UNL A   1      29.683  27.325  23.440  1.00  0.00    -0.015 A 
ATOM     82  C   UNL A   1      28.509  26.702  23.877  1.00  0.00     0.009 A 
ATOM     83  C   UNL A   1      29.578  28.610  22.896  1.00  0.00     0.021 A 
ATOM     84  C   UNL A   1      27.275  27.348  23.769  1.00  0.00     0.001 A 
ATOM     85  C   UNL A   1      28.348  29.266  22.751  1.00  0.00     0.056 A 
ATOM     86  C   UNL A   1      27.193  28.622  23.205  1.00  0.00     0.013 A 
BRANCH  85  87
ATOM     87  C   UNL A   1      28.281  30.635  22.117  1.00  0.00     0.416 C 
ATOM     88  F   UNL A   1      29.522  31.158  21.890  1.00  0.00    -0.166 F 
ATOM     89  F   UNL A   1      27.654  30.632  20.911  1.00  0.00    -0.166 F 
ATOM     90  F   UNL A   1      27.638  31.559  22.886  1.00  0.00    -0.166 F 
ENDBRANCH  85  87
ENDBRANCH  76  81
ENDBRANCH  72  74
ENDBRANCH  71  72
ENDBRANCH  70  71
ENDBRANCH   1  70
TORSDOF 13
ENDMDL
MODEL 3
REMARK VINA RESULT:     -12.7      5.312     10.599
REMARK SMILES O=C(OCCOC(=O)c1cc(Cl)ncc1-c1cccc(C(F)(F)F)c1)c1ccc(-c2c3nc(c(-c4c(F)c(F)c(F)c(F)c4F)c4ccc([nH]4)c(-c4c(F)c(F)c(F)c(F)c4F)c4nc(c(-c5c(F)c(F)c(F)c(F)c5F)c5ccc2[nH]5)C=C4)C=C3)cc1
REMARK SMILES IDX 4 1 3 2 2 3 1 4 26 5 27 6 88 7 28 8 87 9 29 10 30 11 31 12
REMARK SMILES IDX 81 13 32 14 86 15 80 16 82 17 33 18 85 19 79 20 78 21 34 23
REMARK SMILES IDX 66 24 46 25 65 26 47 27 50 28 64 29 83 30 48 31 49 32 63 34
REMARK SMILES IDX 84 35 51 36 35 37 36 38 44 39 37 40 38 41 42 42 45 43 39 44
REMARK SMILES IDX 40 45 43 46 41 47 67 48 68 49 76 50 69 51 70 52 74 53 77 54
REMARK SMILES IDX 71 55 72 56 75 57 73 58 52 59 53 60 61 61 54 62 55 63 59 64
REMARK SMILES IDX 62 65 56 66 57 67 60 68 58 69 5 70 6 71 7 72 8 73 9 74 10 75
REMARK SMILES IDX 15 76 11 77 14 78 12 79 13 80 16 81 17 82 25 83 18 84 20 85
REMARK SMILES IDX 19 86 21 87 22 88 23 89 24 90
REMARK H PARENT 82 22 50 33
REMARK Flexibility Score: inf
ROOT
ATOM      1  C   UNL A   1      37.908  20.908  24.988  1.00  0.00     0.275 C 
ENDROOT
BRANCH   1   2
ATOM      2  O   UNL A   1      38.312  21.557  26.198  1.00  0.00    -0.458 OA
BRANCH   2   3
ATOM      3  C   UNL A   1      39.627  21.398  26.490  1.00  0.00     0.338 C 
ATOM      4  O   UNL A   1      40.205  20.342  26.689  1.00  0.00    -0.246 OA
BRANCH   3   5
ATOM      5  C   UNL A   1      40.185  22.724  26.839  1.00  0.00     0.060 A 
ATOM      6  C   UNL A   1      39.649  23.903  26.310  1.00  0.00     0.016 A 
ATOM      7  C   UNL A   1      41.159  22.787  27.842  1.00  0.00     0.016 A 
ATOM      8  C   UNL A   1      40.086  25.131  26.784  1.00  0.00     0.010 A 
ATOM      9  C   UNL A   1      41.526  24.010  28.386  1.00  0.00     0.010 A 
ATOM     10  C   UNL A   1      41.025  25.186  27.821  1.00  0.00    -0.014 A 
BRANCH  10  11
ATOM     11  C   UNL A   1      41.614  26.489  28.168  1.00  0.00     0.031 A 
ATOM     12  C   UNL A   1      43.015  26.769  27.716  1.00  0.00     0.074 A 
ATOM     13  C   UNL A   1      40.870  27.415  28.795  1.00  0.00     0.049 A 
ATOM     14  N   UNL A   1      43.694  27.881  27.778  1.00  0.00    -0.248 NA
ATOM     15  C   UNL A   1      43.750  25.648  27.102  1.00  0.00     0.031 C 
ATOM     16  C   UNL A   1      39.499  27.217  29.264  1.00  0.00     0.029 A 
ATOM     17  N   UNL A   1      41.159  28.705  29.142  1.00  0.00    -0.354 N 
ATOM     18  C   UNL A   1      44.914  27.600  27.178  1.00  0.00     0.074 A 
ATOM     19  C   UNL A   1      44.927  26.194  26.852  1.00  0.00     0.031 C 
ATOM     20  C   UNL A   1      39.074  28.341  29.864  1.00  0.00     0.029 A 
ATOM     21  C   UNL A   1      40.138  29.334  29.808  1.00  0.00     0.049 A 
ATOM     22  H   UNL A   1      42.018  29.140  28.934  1.00  0.00     0.167 HD
ATOM     23  C   UNL A   1      45.910  28.460  26.871  1.00  0.00     0.037 A 
ATOM     24  C   UNL A   1      40.079  30.583  30.304  1.00  0.00     0.037 A 
ATOM     25  C   UNL A   1      45.869  29.855  27.200  1.00  0.00     0.049 A 
ATOM     26  C   UNL A   1      41.227  31.508  30.014  1.00  0.00     0.074 A 
ATOM     27  C   UNL A   1      46.797  30.840  26.927  1.00  0.00     0.029 A 
ATOM     28  N   UNL A   1      44.823  30.458  27.889  1.00  0.00    -0.354 N 
ATOM     29  N   UNL A   1      42.344  31.259  29.373  1.00  0.00    -0.248 NA
ATOM     30  C   UNL A   1      41.091  32.896  30.470  1.00  0.00     0.031 C 
ATOM     31  C   UNL A   1      46.325  32.037  27.477  1.00  0.00     0.029 A 
ATOM     32  C   UNL A   1      45.087  31.804  28.061  1.00  0.00     0.049 A 
ATOM     33  H   UNL A   1      44.014  29.997  28.206  1.00  0.00     0.167 HD
ATOM     34  C   UNL A   1      43.025  32.464  29.306  1.00  0.00     0.074 A 
ATOM     35  C   UNL A   1      42.196  33.444  29.981  1.00  0.00     0.031 C 
ATOM     36  C   UNL A   1      44.220  32.743  28.726  1.00  0.00     0.037 A 
BRANCH  23  37
ATOM     37  C   UNL A   1      47.086  27.895  26.136  1.00  0.00     0.064 A 
ATOM     38  C   UNL A   1      48.244  27.485  26.820  1.00  0.00     0.173 A 
ATOM     39  C   UNL A   1      47.087  27.810  24.738  1.00  0.00     0.173 A 
ATOM     40  F   UNL A   1      48.305  27.577  28.158  1.00  0.00    -0.203 F 
ATOM     41  C   UNL A   1      49.369  27.047  26.128  1.00  0.00     0.198 A 
ATOM     42  C   UNL A   1      48.205  27.344  24.050  1.00  0.00     0.198 A 
ATOM     43  F   UNL A   1      46.011  28.197  24.037  1.00  0.00    -0.203 F 
ATOM     44  F   UNL A   1      50.484  26.726  26.799  1.00  0.00    -0.200 F 
ATOM     45  C   UNL A   1      49.348  26.974  24.744  1.00  0.00     0.200 A 
ATOM     46  F   UNL A   1      48.185  27.275  22.713  1.00  0.00    -0.200 F 
ATOM     47  F   UNL A   1      50.436  26.563  24.078  1.00  0.00    -0.200 F 
ENDBRANCH  23  37
BRANCH  24  48
ATOM     48  C   UNL A   1      38.885  31.020  31.068  1.00  0.00     0.064 A 
ATOM     49  C   UNL A   1      37.773  31.586  30.432  1.00  0.00     0.173 A 
ATOM     50  C   UNL A   1      38.824  30.851  32.461  1.00  0.00     0.173 A 
ATOM     51  F   UNL A   1      37.787  31.777  29.106  1.00  0.00    -0.203 F 
ATOM     52  C   UNL A   1      36.652  31.984  31.160  1.00  0.00     0.198 A 
ATOM     53  C   UNL A   1      37.696  31.231  33.186  1.00  0.00     0.198 A 
ATOM     54  F   UNL A   1      39.860  30.309  33.116  1.00  0.00    -0.203 F 
ATOM     55  F   UNL A   1      35.614  32.551  30.532  1.00  0.00    -0.200 F 
ATOM     56  C   UNL A   1      36.613  31.802  32.535  1.00  0.00     0.200 A 
ATOM     57  F   UNL A   1      37.657  31.044  34.512  1.00  0.00    -0.200 F 
ATOM     58  F   UNL A   1      35.533  32.181  33.232  1.00  0.00    -0.200 F 
ENDBRANCH  24  48
BRANCH  36  59
ATOM     59  C   UNL A   1      44.666  34.170  28.759  1.00  0.00     0.064 A 
ATOM     60  C   UNL A   1      44.277  35.080  27.768  1.00  0.00     0.173 A 
ATOM     61  C   UNL A   1      45.445  34.638  29.827  1.00  0.00     0.173 A 
ATOM     62  F   UNL A   1      43.546  34.668  26.721  1.00  0.00    -0.203 F 
ATOM     63  C   UNL A   1      44.669  36.412  27.836  1.00  0.00     0.198 A 
ATOM     64  C   UNL A   1      45.814  35.975  29.904  1.00  0.00     0.198 A 
ATOM     65  F   UNL A   1      45.832  33.800  30.800  1.00  0.00    -0.203 F 
ATOM     66  F   UNL A   1      44.319  37.261  26.860  1.00  0.00    -0.200 F 
ATOM     67  C   UNL A   1      45.430  36.860  28.907  1.00  0.00     0.200 A 
ATOM     68  F   UNL A   1      46.539  36.410  30.944  1.00  0.00    -0.200 F 
ATOM     69  F   UNL A   1      45.798  38.147  28.974  1.00  0.00    -0.200 F 
ENDBRANCH  36  59
ENDBRANCH  10  11
ENDBRANCH   3   5
ENDBRANCH   2   3
ENDBRANCH   1   2
BRANCH   1  70
ATOM     70  C   UNL A   1      37.056  21.866  24.143  1.00  0.00     0.275 C 
BRANCH  70  71
ATOM     71  O   UNL A   1      35.698  21.994  24.624  1.00  0.00    -0.458 OA
BRANCH  71  72
ATOM     72  C   UNL A   1      34.819  22.681  23.858  1.00  0.00     0.339 C 
ATOM     73  O   UNL A   1      35.019  23.142  22.747  1.00  0.00    -0.246 OA
BRANCH  72  74
ATOM     74  C   UNL A   1      33.569  22.880  24.627  1.00  0.00     0.072 A 
ATOM     75  C   UNL A   1      33.381  24.118  25.255  1.00  0.00     0.057 A 
ATOM     76  C   UNL A   1      32.544  21.918  24.635  1.00  0.00     0.015 A 
ATOM     77  C   UNL A   1      32.168  24.348  25.872  1.00  0.00     0.129 A 
ATOM     78  C   UNL A   1      31.391  22.259  25.345  1.00  0.00     0.122 A 
ATOM     79  Cl  UNL A   1      31.773  25.891  26.504  1.00  0.00    -0.062 Cl
ATOM     80  N   UNL A   1      31.179  23.445  25.957  1.00  0.00    -0.244 NA
BRANCH  76  81
ATOM     81  C   UNL A   1      32.607  20.618  23.962  1.00  0.00    -0.015 A 
ATOM     82  C   UNL A   1      32.153  20.462  22.648  1.00  0.00     0.009 A 
ATOM     83  C   UNL A   1      33.058  19.478  24.638  1.00  0.00     0.021 A 
ATOM     84  C   UNL A   1      32.151  19.206  22.038  1.00  0.00     0.001 A 
ATOM     85  C   UNL A   1      33.037  18.203  24.056  1.00  0.00     0.056 A 
ATOM     86  C   UNL A   1      32.587  18.080  22.739  1.00  0.00     0.013 A 
BRANCH  85  87
ATOM     87  C   UNL A   1      33.493  16.997  24.842  1.00  0.00     0.416 C 
ATOM     88  F   UNL A   1      32.985  16.986  26.109  1.00  0.00    -0.166 F 
ATOM     89  F   UNL A   1      33.109  15.820  24.279  1.00  0.00    -0.166 F 
ATOM     90  F   UNL A   1      34.846  16.929  24.998  1.00  0.00    -0.166 F 
ENDBRANCH  85  87
ENDBRANCH  76  81
ENDBRANCH  72  74
ENDBRANCH  71  72
ENDBRANCH  70  71
ENDBRANCH   1  70
TORSDOF 13
ENDMDL
