MODEL 1
REMARK VINA RESULT:     -13.3      0.000      0.000
REMARK SMILES Nc1c(C(=O)OCC2c3ccccc3-c3ccccc32)ccc(F)c1C(=O)OCCOC(=O)c1ccc(-c2c3nc(c(-c4c(F)c(F)c(F)c(F)c4F)c4ccc([nH]4)c(-c4c(F)c(F)c(F)c(F)c4F)c4nc(c(-c5c(F)c(F)c(F)c(F)c5F)c5ccc2[nH]5)C=C4)C=C3)cc1
REMARK SMILES IDX 29 1 28 2 26 3 27 4 25 5 2 6 3 7 21 8 23 9 22 10 24 11 1 12
REMARK SMILES IDX 4 15 5 16 6 17 7 18 8 19 9 20 20 21 10 22 14 23 15 24 19 25
REMARK SMILES IDX 11 26 13 27 16 28 18 29 12 30 17 31 30 32 31 33 32 34 33 35
REMARK SMILES IDX 34 36 35 37 96 38 36 39 95 40 37 41 38 42 39 43 89 44 40 45
REMARK SMILES IDX 94 46 88 47 90 48 41 49 93 50 87 51 86 52 42 54 74 55 54 56
REMARK SMILES IDX 73 57 55 58 58 59 72 60 91 61 56 62 57 63 71 65 92 66 59 67
REMARK SMILES IDX 43 68 44 69 52 70 45 71 46 72 50 73 53 74 47 75 48 76 51 77
REMARK SMILES IDX 49 78 75 79 76 80 84 81 77 82 78 83 82 84 85 85 79 86 80 87
REMARK SMILES IDX 83 88 81 89 60 90 61 91 69 92 62 93 63 94 67 95 70 96 64 97
REMARK SMILES IDX 65 98 68 99 66 100
REMARK H PARENT 1 13 1 14 90 53 58 64
REMARK Flexibility Score: inf
ROOT
ATOM      1  C   UNL A   1      31.703  29.564  24.509  1.00  0.00     0.275 C 
ENDROOT
BRANCH   1   2
ATOM      2  O   UNL A   1      30.424  29.031  24.106  1.00  0.00    -0.458 OA
BRANCH   2   3
ATOM      3  C   UNL A   1      30.321  28.520  22.850  1.00  0.00     0.343 C 
ATOM      4  O   UNL A   1      30.078  29.153  21.838  1.00  0.00    -0.246 OA
BRANCH   3   5
ATOM      5  C   UNL A   1      30.643  27.071  22.874  1.00  0.00     0.119 A 
ATOM      6  C   UNL A   1      31.829  26.552  22.307  1.00  0.00     0.064 A 
ATOM      7  C   UNL A   1      32.033  25.153  22.390  1.00  0.00     0.084 A 
ATOM      8  C   UNL A   1      31.056  24.301  22.937  1.00  0.00     0.021 A 
ATOM      9  C   UNL A   1      29.730  26.211  23.505  1.00  0.00     0.139 A 
ATOM     10  C   UNL A   1      29.910  24.834  23.506  1.00  0.00     0.041 A 
ATOM     11  F   UNL A   1      28.647  26.683  24.135  1.00  0.00    -0.206 F 
BRANCH   6  12
ATOM     12  N   UNL A   1      32.817  27.403  21.806  1.00  0.00    -0.397 N 
ATOM     13  H   UNL A   1      32.671  28.376  21.800  1.00  0.00     0.156 HD
ATOM     14  H   UNL A   1      33.658  27.029  21.457  1.00  0.00     0.156 HD
ENDBRANCH   6  12
BRANCH   7  15
ATOM     15  C   UNL A   1      33.295  24.491  21.983  1.00  0.00     0.340 C 
ATOM     16  O   UNL A   1      33.348  23.581  21.173  1.00  0.00    -0.246 OA
BRANCH  15  17
ATOM     17  O   UNL A   1      34.303  24.941  22.774  1.00  0.00    -0.461 OA
BRANCH  17  18
ATOM     18  C   UNL A   1      35.193  23.940  23.278  1.00  0.00     0.246 C 
BRANCH  18  19
ATOM     19  C   UNL A   1      35.034  23.763  24.801  1.00  0.00     0.088 C 
ATOM     20  C   UNL A   1      34.051  24.737  25.445  1.00  0.00    -0.029 A 
ATOM     21  C   UNL A   1      34.346  22.428  25.059  1.00  0.00    -0.029 A 
ATOM     22  C   UNL A   1      34.213  26.093  25.689  1.00  0.00     0.005 A 
ATOM     23  C   UNL A   1      32.876  24.061  25.831  1.00  0.00    -0.014 A 
ATOM     24  C   UNL A   1      33.059  22.643  25.601  1.00  0.00    -0.014 A 
ATOM     25  C   UNL A   1      34.812  21.154  24.770  1.00  0.00     0.005 A 
ATOM     26  C   UNL A   1      33.142  26.799  26.238  1.00  0.00     0.000 A 
ATOM     27  C   UNL A   1      31.810  24.762  26.370  1.00  0.00     0.009 A 
ATOM     28  C   UNL A   1      32.218  21.572  25.847  1.00  0.00     0.009 A 
ATOM     29  C   UNL A   1      33.962  20.078  25.019  1.00  0.00     0.000 A 
ATOM     30  C   UNL A   1      31.943  26.143  26.557  1.00  0.00     0.001 A 
ATOM     31  C   UNL A   1      32.676  20.285  25.547  1.00  0.00     0.001 A 
ENDBRANCH  18  19
ENDBRANCH  17  18
ENDBRANCH  15  17
ENDBRANCH   7  15
ENDBRANCH   3   5
ENDBRANCH   2   3
ENDBRANCH   1   2
BRANCH   1  32
ATOM     32  C   UNL A   1      31.531  30.455  25.738  1.00  0.00     0.275 C 
BRANCH  32  33
ATOM     33  O   UNL A   1      32.664  30.296  26.610  1.00  0.00    -0.458 OA
BRANCH  33  34
ATOM     34  C   UNL A   1      33.182  31.442  27.105  1.00  0.00     0.338 C 
ATOM     35  O   UNL A   1      32.634  32.524  27.226  1.00  0.00    -0.246 OA
BRANCH  34  36
ATOM     36  C   UNL A   1      34.527  31.171  27.628  1.00  0.00     0.060 A 
ATOM     37  C   UNL A   1      34.826  29.858  27.975  1.00  0.00     0.016 A 
ATOM     38  C   UNL A   1      35.426  32.193  27.910  1.00  0.00     0.016 A 
ATOM     39  C   UNL A   1      35.980  29.565  28.693  1.00  0.00     0.010 A 
ATOM     40  C   UNL A   1      36.635  31.882  28.546  1.00  0.00     0.010 A 
ATOM     41  C   UNL A   1      36.911  30.569  28.980  1.00  0.00    -0.014 A 
BRANCH  41  42
ATOM     42  C   UNL A   1      38.137  30.255  29.770  1.00  0.00     0.031 A 
ATOM     43  C   UNL A   1      39.212  29.379  29.179  1.00  0.00     0.074 A 
ATOM     44  C   UNL A   1      38.313  30.770  31.004  1.00  0.00     0.049 A 
ATOM     45  N   UNL A   1      40.252  28.832  29.758  1.00  0.00    -0.248 NA
ATOM     46  C   UNL A   1      39.096  29.068  27.746  1.00  0.00     0.031 C 
ATOM     47  C   UNL A   1      37.393  31.682  31.683  1.00  0.00     0.029 A 
ATOM     48  N   UNL A   1      39.335  30.602  31.909  1.00  0.00    -0.354 N 
ATOM     49  C   UNL A   1      40.875  28.068  28.780  1.00  0.00     0.074 A 
ATOM     50  C   UNL A   1      40.097  28.217  27.568  1.00  0.00     0.031 C 
ATOM     51  C   UNL A   1      37.903  32.020  32.877  1.00  0.00     0.029 A 
ATOM     52  C   UNL A   1      39.137  31.274  33.091  1.00  0.00     0.049 A 
ATOM     53  H   UNL A   1      40.132  30.053  31.728  1.00  0.00     0.167 HD
ATOM     54  C   UNL A   1      41.994  27.311  28.884  1.00  0.00     0.037 A 
ATOM     55  C   UNL A   1      39.839  31.255  34.242  1.00  0.00     0.037 A 
ATOM     56  C   UNL A   1      42.800  27.212  30.074  1.00  0.00     0.049 A 
ATOM     57  C   UNL A   1      41.055  30.376  34.346  1.00  0.00     0.074 A 
ATOM     58  C   UNL A   1      43.955  26.475  30.277  1.00  0.00     0.029 A 
ATOM     59  N   UNL A   1      42.546  27.887  31.258  1.00  0.00    -0.354 N 
ATOM     60  N   UNL A   1      41.596  29.603  33.437  1.00  0.00    -0.248 NA
ATOM     61  C   UNL A   1      41.745  30.352  35.643  1.00  0.00     0.031 C 
ATOM     62  C   UNL A   1      44.378  26.677  31.595  1.00  0.00     0.029 A 
ATOM     63  C   UNL A   1      43.516  27.576  32.198  1.00  0.00     0.049 A 
ATOM     64  H   UNL A   1      41.788  28.498  31.409  1.00  0.00     0.167 HD
ATOM     65  C   UNL A   1      42.696  29.013  34.044  1.00  0.00     0.074 A 
ATOM     66  C   UNL A   1      42.759  29.536  35.393  1.00  0.00     0.031 C 
ATOM     67  C   UNL A   1      43.570  28.112  33.534  1.00  0.00     0.037 A 
BRANCH  54  68
ATOM     68  C   UNL A   1      42.404  26.498  27.689  1.00  0.00     0.064 A 
ATOM     69  C   UNL A   1      43.372  26.945  26.780  1.00  0.00     0.173 A 
ATOM     70  C   UNL A   1      41.852  25.223  27.484  1.00  0.00     0.173 A 
ATOM     71  F   UNL A   1      43.922  28.161  26.923  1.00  0.00    -0.203 F 
ATOM     72  C   UNL A   1      43.756  26.157  25.697  1.00  0.00     0.198 A 
ATOM     73  C   UNL A   1      42.260  24.425  26.417  1.00  0.00     0.198 A 
ATOM     74  F   UNL A   1      40.926  24.742  28.328  1.00  0.00    -0.203 F 
ATOM     75  F   UNL A   1      44.654  26.623  24.817  1.00  0.00    -0.200 F 
ATOM     76  C   UNL A   1      43.207  24.896  25.522  1.00  0.00     0.200 A 
ATOM     77  F   UNL A   1      41.738  23.201  26.260  1.00  0.00    -0.200 F 
ATOM     78  F   UNL A   1      43.588  24.134  24.487  1.00  0.00    -0.200 F 
ENDBRANCH  54  68
BRANCH  55  79
ATOM     79  C   UNL A   1      39.374  32.052  35.409  1.00  0.00     0.064 A 
ATOM     80  C   UNL A   1      38.526  31.497  36.377  1.00  0.00     0.173 A 
ATOM     81  C   UNL A   1      39.761  33.391  35.575  1.00  0.00     0.173 A 
ATOM     82  F   UNL A   1      38.103  30.230  36.248  1.00  0.00    -0.203 F 
ATOM     83  C   UNL A   1      38.072  32.253  37.456  1.00  0.00     0.198 A 
ATOM     84  C   UNL A   1      39.335  34.136  36.673  1.00  0.00     0.198 A 
ATOM     85  F   UNL A   1      40.567  33.975  34.676  1.00  0.00    -0.203 F 
ATOM     86  F   UNL A   1      37.220  31.712  38.338  1.00  0.00    -0.200 F 
ATOM     87  C   UNL A   1      38.484  33.568  37.608  1.00  0.00     0.200 A 
ATOM     88  F   UNL A   1      39.749  35.401  36.823  1.00  0.00    -0.200 F 
ATOM     89  F   UNL A   1      38.052  34.293  38.650  1.00  0.00    -0.200 F 
ENDBRANCH  55  79
BRANCH  67  90
ATOM     90  C   UNL A   1      44.691  27.665  34.425  1.00  0.00     0.064 A 
ATOM     91  C   UNL A   1      45.903  28.367  34.493  1.00  0.00     0.173 A 
ATOM     92  C   UNL A   1      44.539  26.534  35.243  1.00  0.00     0.173 A 
ATOM     93  F   UNL A   1      46.102  29.444  33.718  1.00  0.00    -0.203 F 
ATOM     94  C   UNL A   1      46.932  27.938  35.327  1.00  0.00     0.198 A 
ATOM     95  C   UNL A   1      45.559  26.125  36.096  1.00  0.00     0.198 A 
ATOM     96  F   UNL A   1      43.396  25.831  35.220  1.00  0.00    -0.203 F 
ATOM     97  F   UNL A   1      48.100  28.595  35.337  1.00  0.00    -0.200 F 
ATOM     98  C   UNL A   1      46.757  26.822  36.131  1.00  0.00     0.200 A 
ATOM     99  F   UNL A   1      45.384  25.054  36.883  1.00  0.00    -0.200 F 
ATOM    100  F   UNL A   1      47.748  26.414  36.936  1.00  0.00    -0.200 F 
ENDBRANCH  67  90
ENDBRANCH  41  42
ENDBRANCH  34  36
ENDBRANCH  33  34
ENDBRANCH  32  33
ENDBRANCH   1  32
TORSDOF 16
ENDMDL
MODEL 2
REMARK VINA RESULT:     -13.2      4.108      9.362
REMARK SMILES Nc1c(C(=O)OCC2c3ccccc3-c3ccccc32)ccc(F)c1C(=O)OCCOC(=O)c1ccc(-c2c3nc(c(-c4c(F)c(F)c(F)c(F)c4F)c4ccc([nH]4)c(-c4c(F)c(F)c(F)c(F)c4F)c4nc(c(-c5c(F)c(F)c(F)c(F)c5F)c5ccc2[nH]5)C=C4)C=C3)cc1
REMARK SMILES IDX 29 1 28 2 26 3 27 4 25 5 2 6 3 7 21 8 23 9 22 10 24 11 1 12
REMARK SMILES IDX 4 15 5 16 6 17 7 18 8 19 9 20 20 21 10 22 14 23 15 24 19 25
REMARK SMILES IDX 11 26 13 27 16 28 18 29 12 30 17 31 30 32 31 33 32 34 33 35
REMARK SMILES IDX 34 36 35 37 96 38 36 39 95 40 37 41 38 42 39 43 89 44 40 45
REMARK SMILES IDX 94 46 88 47 90 48 41 49 93 50 87 51 86 52 42 54 74 55 54 56
REMARK SMILES IDX 73 57 55 58 58 59 72 60 91 61 56 62 57 63 71 65 92 66 59 67
REMARK SMILES IDX 43 68 44 69 52 70 45 71 46 72 50 73 53 74 47 75 48 76 51 77
REMARK SMILES IDX 49 78 75 79 76 80 84 81 77 82 78 83 82 84 85 85 79 86 80 87
REMARK SMILES IDX 83 88 81 89 60 90 61 91 69 92 62 93 63 94 67 95 70 96 64 97
REMARK SMILES IDX 65 98 68 99 66 100
REMARK H PARENT 1 13 1 14 90 53 58 64
REMARK Flexibility Score: inf
ROOT
ATOM      1  C   UNL A   1      35.045  21.020  24.725  1.00  0.00     0.275 C 
ENDROOT
BRANCH   1   2
ATOM      2  O   UNL A   1      34.052  20.681  25.714  1.00  0.00    -0.458 OA
BRANCH   2   3
ATOM      3  C   UNL A   1      32.804  20.370  25.273  1.00  0.00     0.343 C 
ATOM      4  O   UNL A   1      32.317  19.254  25.233  1.00  0.00    -0.246 OA
BRANCH   3   5
ATOM      5  C   UNL A   1      32.072  21.616  24.928  1.00  0.00     0.119 A 
ATOM      6  C   UNL A   1      31.612  22.518  25.913  1.00  0.00     0.064 A 
ATOM      7  C   UNL A   1      30.928  23.675  25.469  1.00  0.00     0.084 A 
ATOM      8  C   UNL A   1      30.641  23.878  24.107  1.00  0.00     0.021 A 
ATOM      9  C   UNL A   1      31.861  21.892  23.568  1.00  0.00     0.139 A 
ATOM     10  C   UNL A   1      31.119  22.991  23.157  1.00  0.00     0.041 A 
ATOM     11  F   UNL A   1      32.369  21.108  22.609  1.00  0.00    -0.206 F 
BRANCH   6  12
ATOM     12  N   UNL A   1      31.938  22.337  27.261  1.00  0.00    -0.397 N 
ATOM     13  H   UNL A   1      32.754  21.846  27.507  1.00  0.00     0.156 HD
ATOM     14  H   UNL A   1      31.350  22.700  27.962  1.00  0.00     0.156 HD
ENDBRANCH   6  12
BRANCH   7  15
ATOM     15  C   UNL A   1      30.530  24.781  26.373  1.00  0.00     0.340 C 
ATOM     16  O   UNL A   1      29.381  25.171  26.495  1.00  0.00    -0.246 OA
BRANCH  15  17
ATOM     17  O   UNL A   1      31.649  25.364  26.874  1.00  0.00    -0.461 OA
BRANCH  17  18
ATOM     18  C   UNL A   1      31.656  26.795  26.880  1.00  0.00     0.246 C 
BRANCH  18  19
ATOM     19  C   UNL A   1      32.702  27.356  25.897  1.00  0.00     0.088 C 
ATOM     20  C   UNL A   1      33.519  26.287  25.176  1.00  0.00    -0.029 A 
ATOM     21  C   UNL A   1      31.965  28.006  24.732  1.00  0.00    -0.029 A 
ATOM     22  C   UNL A   1      34.529  25.482  25.684  1.00  0.00     0.005 A 
ATOM     23  C   UNL A   1      33.140  26.214  23.820  1.00  0.00    -0.014 A 
ATOM     24  C   UNL A   1      32.192  27.273  23.546  1.00  0.00    -0.014 A 
ATOM     25  C   UNL A   1      31.125  29.109  24.759  1.00  0.00     0.005 A 
ATOM     26  C   UNL A   1      35.096  24.523  24.845  1.00  0.00     0.000 A 
ATOM     27  C   UNL A   1      33.698  25.258  22.988  1.00  0.00     0.009 A 
ATOM     28  C   UNL A   1      31.559  27.637  22.370  1.00  0.00     0.009 A 
ATOM     29  C   UNL A   1      30.489  29.473  23.573  1.00  0.00     0.000 A 
ATOM     30  C   UNL A   1      34.670  24.399  23.513  1.00  0.00     0.001 A 
ATOM     31  C   UNL A   1      30.700  28.741  22.391  1.00  0.00     0.001 A 
ENDBRANCH  18  19
ENDBRANCH  17  18
ENDBRANCH  15  17
ENDBRANCH   7  15
ENDBRANCH   3   5
ENDBRANCH   2   3
ENDBRANCH   1   2
BRANCH   1  32
ATOM     32  C   UNL A   1      36.412  20.491  25.158  1.00  0.00     0.275 C 
BRANCH  32  33
ATOM     33  O   UNL A   1      37.267  21.595  25.507  1.00  0.00    -0.458 OA
BRANCH  33  34
ATOM     34  C   UNL A   1      38.531  21.264  25.851  1.00  0.00     0.338 C 
ATOM     35  O   UNL A   1      39.132  20.233  25.604  1.00  0.00    -0.246 OA
BRANCH  34  36
ATOM     36  C   UNL A   1      39.170  22.422  26.487  1.00  0.00     0.060 A 
ATOM     37  C   UNL A   1      38.694  23.683  26.148  1.00  0.00     0.016 A 
ATOM     38  C   UNL A   1      40.303  22.291  27.283  1.00  0.00     0.016 A 
ATOM     39  C   UNL A   1      39.395  24.825  26.518  1.00  0.00     0.010 A 
ATOM     40  C   UNL A   1      40.953  23.446  27.739  1.00  0.00     0.010 A 
ATOM     41  C   UNL A   1      40.530  24.727  27.331  1.00  0.00    -0.014 A 
BRANCH  41  42
ATOM     42  C   UNL A   1      41.293  25.953  27.707  1.00  0.00     0.031 A 
ATOM     43  C   UNL A   1      40.641  27.020  28.547  1.00  0.00     0.074 A 
ATOM     44  C   UNL A   1      42.578  26.108  27.328  1.00  0.00     0.049 A 
ATOM     45  N   UNL A   1      41.054  28.233  28.821  1.00  0.00    -0.248 NA
ATOM     46  C   UNL A   1      39.343  26.682  29.153  1.00  0.00     0.031 C 
ATOM     47  C   UNL A   1      43.364  25.135  26.568  1.00  0.00     0.029 A 
ATOM     48  N   UNL A   1      43.456  27.147  27.537  1.00  0.00    -0.354 N 
ATOM     49  C   UNL A   1      40.045  28.818  29.575  1.00  0.00     0.074 A 
ATOM     50  C   UNL A   1      38.996  27.831  29.715  1.00  0.00     0.031 C 
ATOM     51  C   UNL A   1      44.610  25.604  26.403  1.00  0.00     0.029 A 
ATOM     52  C   UNL A   1      44.687  26.950  26.958  1.00  0.00     0.049 A 
ATOM     53  H   UNL A   1      43.225  27.954  28.051  1.00  0.00     0.167 HD
ATOM     54  C   UNL A   1      39.999  30.066  30.101  1.00  0.00     0.037 A 
ATOM     55  C   UNL A   1      45.745  27.776  26.839  1.00  0.00     0.037 A 
ATOM     56  C   UNL A   1      41.070  31.026  30.011  1.00  0.00     0.049 A 
ATOM     57  C   UNL A   1      45.655  29.169  27.397  1.00  0.00     0.074 A 
ATOM     58  C   UNL A   1      41.121  32.314  30.516  1.00  0.00     0.029 A 
ATOM     59  N   UNL A   1      42.288  30.794  29.390  1.00  0.00    -0.354 N 
ATOM     60  N   UNL A   1      44.670  29.738  28.047  1.00  0.00    -0.248 NA
ATOM     61  C   UNL A   1      46.817  30.043  27.186  1.00  0.00     0.031 C 
ATOM     62  C   UNL A   1      42.355  32.874  30.169  1.00  0.00     0.029 A 
ATOM     63  C   UNL A   1      43.092  31.918  29.491  1.00  0.00     0.049 A 
ATOM     64  H   UNL A   1      42.544  29.954  28.944  1.00  0.00     0.167 HD
ATOM     65  C   UNL A   1      45.096  31.026  28.335  1.00  0.00     0.074 A 
ATOM     66  C   UNL A   1      46.440  31.149  27.810  1.00  0.00     0.031 C 
ATOM     67  C   UNL A   1      44.431  32.022  28.970  1.00  0.00     0.037 A 
BRANCH  54  68
ATOM     68  C   UNL A   1      38.736  30.487  30.798  1.00  0.00     0.064 A 
ATOM     69  C   UNL A   1      38.605  30.443  32.193  1.00  0.00     0.173 A 
ATOM     70  C   UNL A   1      37.658  30.994  30.054  1.00  0.00     0.173 A 
ATOM     71  F   UNL A   1      39.600  29.956  32.949  1.00  0.00    -0.203 F 
ATOM     72  C   UNL A   1      37.433  30.868  32.816  1.00  0.00     0.198 A 
ATOM     73  C   UNL A   1      36.500  31.446  30.682  1.00  0.00     0.198 A 
ATOM     74  F   UNL A   1      37.734  31.065  28.716  1.00  0.00    -0.203 F 
ATOM     75  F   UNL A   1      37.314  30.778  34.148  1.00  0.00    -0.200 F 
ATOM     76  C   UNL A   1      36.387  31.377  32.061  1.00  0.00     0.200 A 
ATOM     77  F   UNL A   1      35.498  31.952  29.951  1.00  0.00    -0.200 F 
ATOM     78  F   UNL A   1      35.266  31.798  32.663  1.00  0.00    -0.200 F 
ENDBRANCH  54  68
BRANCH  55  79
ATOM     79  C   UNL A   1      46.962  27.325  26.111  1.00  0.00     0.064 A 
ATOM     80  C   UNL A   1      48.008  26.673  26.777  1.00  0.00     0.173 A 
ATOM     81  C   UNL A   1      47.108  27.549  24.733  1.00  0.00     0.173 A 
ATOM     82  F   UNL A   1      47.930  26.462  28.100  1.00  0.00    -0.203 F 
ATOM     83  C   UNL A   1      49.158  26.274  26.097  1.00  0.00     0.198 A 
ATOM     84  C   UNL A   1      48.242  27.118  24.047  1.00  0.00     0.198 A 
ATOM     85  F   UNL A   1      46.141  28.174  24.046  1.00  0.00    -0.203 F 
ATOM     86  F   UNL A   1      50.164  25.698  26.770  1.00  0.00    -0.200 F 
ATOM     87  C   UNL A   1      49.270  26.489  24.732  1.00  0.00     0.200 A 
ATOM     88  F   UNL A   1      48.338  27.314  22.725  1.00  0.00    -0.200 F 
ATOM     89  F   UNL A   1      50.373  26.099  24.078  1.00  0.00    -0.200 F 
ENDBRANCH  55  79
BRANCH  67  90
ATOM     90  C   UNL A   1      45.162  33.318  29.165  1.00  0.00     0.064 A 
ATOM     91  C   UNL A   1      45.062  34.366  28.238  1.00  0.00     0.173 A 
ATOM     92  C   UNL A   1      45.949  33.523  30.308  1.00  0.00     0.173 A 
ATOM     93  F   UNL A   1      44.335  34.211  27.121  1.00  0.00    -0.203 F 
ATOM     94  C   UNL A   1      45.746  35.562  28.436  1.00  0.00     0.198 A 
ATOM     95  C   UNL A   1      46.609  34.730  30.516  1.00  0.00     0.198 A 
ATOM     96  F   UNL A   1      46.073  32.554  31.228  1.00  0.00    -0.203 F 
ATOM     97  F   UNL A   1      45.677  36.531  27.512  1.00  0.00    -0.200 F 
ATOM     98  C   UNL A   1      46.513  35.746  29.576  1.00  0.00     0.200 A 
ATOM     99  F   UNL A   1      47.339  34.912  31.625  1.00  0.00    -0.200 F 
ATOM    100  F   UNL A   1      47.168  36.900  29.766  1.00  0.00    -0.200 F 
ENDBRANCH  67  90
ENDBRANCH  41  42
ENDBRANCH  34  36
ENDBRANCH  33  34
ENDBRANCH  32  33
ENDBRANCH   1  32
TORSDOF 16
ENDMDL
MODEL 3
REMARK VINA RESULT:     -13.2      4.128      9.406
REMARK SMILES Nc1c(C(=O)OCC2c3ccccc3-c3ccccc32)ccc(F)c1C(=O)OCCOC(=O)c1ccc(-c2c3nc(c(-c4c(F)c(F)c(F)c(F)c4F)c4ccc([nH]4)c(-c4c(F)c(F)c(F)c(F)c4F)c4nc(c(-c5c(F)c(F)c(F)c(F)c5F)c5ccc2[nH]5)C=C4)C=C3)cc1
REMARK SMILES IDX 29 1 28 2 26 3 27 4 25 5 2 6 3 7 21 8 23 9 22 10 24 11 1 12
REMARK SMILES IDX 4 15 5 16 6 17 7 18 8 19 9 20 20 21 10 22 14 23 15 24 19 25
REMARK SMILES IDX 11 26 13 27 16 28 18 29 12 30 17 31 30 32 31 33 32 34 33 35
REMARK SMILES IDX 34 36 35 37 96 38 36 39 95 40 37 41 38 42 39 43 89 44 40 45
REMARK SMILES IDX 94 46 88 47 90 48 41 49 93 50 87 51 86 52 42 54 74 55 54 56
REMARK SMILES IDX 73 57 55 58 58 59 72 60 91 61 56 62 57 63 71 65 92 66 59 67
REMARK SMILES IDX 43 68 44 69 52 70 45 71 46 72 50 73 53 74 47 75 48 76 51 77
REMARK SMILES IDX 49 78 75 79 76 80 84 81 77 82 78 83 82 84 85 85 79 86 80 87
REMARK SMILES IDX 83 88 81 89 60 90 61 91 69 92 62 93 63 94 67 95 70 96 64 97
REMARK SMILES IDX 65 98 68 99 66 100
REMARK H PARENT 1 13 1 14 90 53 58 64
REMARK Flexibility Score: inf
ROOT
ATOM      1  C   UNL A   1      35.443  20.585  25.179  1.00  0.00     0.275 C 
ENDROOT
BRANCH   1   2
ATOM      2  O   UNL A   1      34.476  21.654  25.245  1.00  0.00    -0.458 OA
BRANCH   2   3
ATOM      3  C   UNL A   1      34.070  22.061  26.477  1.00  0.00     0.343 C 
ATOM      4  O   UNL A   1      34.268  21.473  27.525  1.00  0.00    -0.246 OA
BRANCH   3   5
ATOM      5  C   UNL A   1      33.421  23.392  26.374  1.00  0.00     0.119 A 
ATOM      6  C   UNL A   1      34.078  24.511  25.816  1.00  0.00     0.064 A 
ATOM      7  C   UNL A   1      33.361  25.731  25.766  1.00  0.00     0.084 A 
ATOM      8  C   UNL A   1      32.077  25.849  26.328  1.00  0.00     0.021 A 
ATOM      9  C   UNL A   1      32.101  23.511  26.836  1.00  0.00     0.139 A 
ATOM     10  C   UNL A   1      31.443  24.733  26.852  1.00  0.00     0.041 A 
ATOM     11  F   UNL A   1      31.418  22.448  27.281  1.00  0.00    -0.206 F 
BRANCH   6  12
ATOM     12  N   UNL A   1      35.335  24.381  25.218  1.00  0.00    -0.397 N 
ATOM     13  H   UNL A   1      35.569  23.552  24.742  1.00  0.00     0.156 HD
ATOM     14  H   UNL A   1      35.985  25.118  25.273  1.00  0.00     0.156 HD
ENDBRANCH   6  12
BRANCH   7  15
ATOM     15  C   UNL A   1      33.862  26.940  25.069  1.00  0.00     0.340 C 
ATOM     16  O   UNL A   1      33.946  28.036  25.598  1.00  0.00    -0.246 OA
BRANCH  15  17
ATOM     17  O   UNL A   1      34.027  26.652  23.753  1.00  0.00    -0.461 OA
BRANCH  17  18
ATOM     18  C   UNL A   1      33.341  27.512  22.837  1.00  0.00     0.246 C 
BRANCH  18  19
ATOM     19  C   UNL A   1      32.285  26.738  22.024  1.00  0.00     0.088 C 
ATOM     20  C   UNL A   1      32.232  25.244  22.330  1.00  0.00    -0.029 A 
ATOM     21  C   UNL A   1      30.903  27.187  22.482  1.00  0.00    -0.029 A 
ATOM     22  C   UNL A   1      33.135  24.254  21.969  1.00  0.00     0.005 A 
ATOM     23  C   UNL A   1      31.059  24.934  23.048  1.00  0.00    -0.014 A 
ATOM     24  C   UNL A   1      30.240  26.124  23.136  1.00  0.00    -0.014 A 
ATOM     25  C   UNL A   1      30.333  28.447  22.376  1.00  0.00     0.005 A 
ATOM     26  C   UNL A   1      32.908  22.953  22.419  1.00  0.00     0.000 A 
ATOM     27  C   UNL A   1      30.836  23.644  23.501  1.00  0.00     0.009 A 
ATOM     28  C   UNL A   1      28.994  26.325  23.704  1.00  0.00     0.009 A 
ATOM     29  C   UNL A   1      29.079  28.645  22.950  1.00  0.00     0.000 A 
ATOM     30  C   UNL A   1      31.777  22.655  23.196  1.00  0.00     0.001 A 
ATOM     31  C   UNL A   1      28.418  27.596  23.613  1.00  0.00     0.001 A 
ENDBRANCH  18  19
ENDBRANCH  17  18
ENDBRANCH  15  17
ENDBRANCH   7  15
ENDBRANCH   3   5
ENDBRANCH   2   3
ENDBRANCH   1   2
BRANCH   1  32
ATOM     32  C   UNL A   1      36.791  21.131  24.710  1.00  0.00     0.275 C 
BRANCH  32  33
ATOM     33  O   UNL A   1      37.390  21.905  25.765  1.00  0.00    -0.458 OA
BRANCH  33  34
ATOM     34  C   UNL A   1      38.684  21.618  26.032  1.00  0.00     0.338 C 
ATOM     35  O   UNL A   1      39.304  20.607  25.751  1.00  0.00    -0.246 OA
BRANCH  34  36
ATOM     36  C   UNL A   1      39.321  22.800  26.625  1.00  0.00     0.060 A 
ATOM     37  C   UNL A   1      38.911  24.047  26.166  1.00  0.00     0.016 A 
ATOM     38  C   UNL A   1      40.395  22.694  27.502  1.00  0.00     0.016 A 
ATOM     39  C   UNL A   1      39.626  25.191  26.500  1.00  0.00     0.010 A 
ATOM     40  C   UNL A   1      41.055  23.860  27.916  1.00  0.00     0.010 A 
ATOM     41  C   UNL A   1      40.702  25.120  27.391  1.00  0.00    -0.014 A 
BRANCH  41  42
ATOM     42  C   UNL A   1      41.482  26.346  27.730  1.00  0.00     0.031 A 
ATOM     43  C   UNL A   1      40.859  27.428  28.572  1.00  0.00     0.074 A 
ATOM     44  C   UNL A   1      42.757  26.489  27.313  1.00  0.00     0.049 A 
ATOM     45  N   UNL A   1      41.285  28.642  28.818  1.00  0.00    -0.248 NA
ATOM     46  C   UNL A   1      39.577  27.106  29.218  1.00  0.00     0.031 C 
ATOM     47  C   UNL A   1      43.516  25.502  26.545  1.00  0.00     0.029 A 
ATOM     48  N   UNL A   1      43.645  27.526  27.483  1.00  0.00    -0.354 N 
ATOM     49  C   UNL A   1      40.300  29.244  29.591  1.00  0.00     0.074 A 
ATOM     50  C   UNL A   1      39.250  28.264  29.774  1.00  0.00     0.031 C 
ATOM     51  C   UNL A   1      44.760  25.961  26.339  1.00  0.00     0.029 A 
ATOM     52  C   UNL A   1      44.859  27.314  26.874  1.00  0.00     0.049 A 
ATOM     53  H   UNL A   1      43.433  28.341  27.992  1.00  0.00     0.167 HD
ATOM     54  C   UNL A   1      40.275  30.499  30.101  1.00  0.00     0.037 A 
ATOM     55  C   UNL A   1      45.917  28.133  26.714  1.00  0.00     0.037 A 
ATOM     56  C   UNL A   1      41.348  31.452  29.968  1.00  0.00     0.049 A 
ATOM     57  C   UNL A   1      45.850  29.534  27.255  1.00  0.00     0.074 A 
ATOM     58  C   UNL A   1      41.419  32.746  30.453  1.00  0.00     0.029 A 
ATOM     59  N   UNL A   1      42.547  31.204  29.317  1.00  0.00    -0.354 N 
ATOM     60  N   UNL A   1      44.886  30.117  27.924  1.00  0.00    -0.248 NA
ATOM     61  C   UNL A   1      47.010  30.399  27.000  1.00  0.00     0.031 C 
ATOM     62  C   UNL A   1      42.646  33.294  30.065  1.00  0.00     0.029 A 
ATOM     63  C   UNL A   1      43.360  32.325  29.380  1.00  0.00     0.049 A 
ATOM     64  H   UNL A   1      42.786  30.357  28.875  1.00  0.00     0.167 HD
ATOM     65  C   UNL A   1      45.326  31.407  28.182  1.00  0.00     0.074 A 
ATOM     66  C   UNL A   1      46.655  31.516  27.618  1.00  0.00     0.031 C 
ATOM     67  C   UNL A   1      44.684  32.415  28.821  1.00  0.00     0.037 A 
BRANCH  54  68
ATOM     68  C   UNL A   1      39.034  30.936  30.826  1.00  0.00     0.064 A 
ATOM     69  C   UNL A   1      37.940  31.502  30.157  1.00  0.00     0.173 A 
ATOM     70  C   UNL A   1      38.921  30.733  32.211  1.00  0.00     0.173 A 
ATOM     71  F   UNL A   1      38.001  31.728  28.835  1.00  0.00    -0.203 F 
ATOM     72  C   UNL A   1      36.789  31.870  30.849  1.00  0.00     0.198 A 
ATOM     73  C   UNL A   1      37.757  31.075  32.896  1.00  0.00     0.198 A 
ATOM     74  F   UNL A   1      39.936  30.188  32.900  1.00  0.00    -0.203 F 
ATOM     75  F   UNL A   1      35.771  32.447  30.195  1.00  0.00    -0.200 F 
ATOM     76  C   UNL A   1      36.695  31.648  32.215  1.00  0.00     0.200 A 
ATOM     77  F   UNL A   1      37.664  30.844  34.212  1.00  0.00    -0.200 F 
ATOM     78  F   UNL A   1      35.581  31.990  32.877  1.00  0.00    -0.200 F 
ENDBRANCH  54  68
BRANCH  55  79
ATOM     79  C   UNL A   1      47.111  27.665  25.959  1.00  0.00     0.064 A 
ATOM     80  C   UNL A   1      47.157  27.730  24.560  1.00  0.00     0.173 A 
ATOM     81  C   UNL A   1      48.228  27.133  26.622  1.00  0.00     0.173 A 
ATOM     82  F   UNL A   1      46.103  28.202  23.877  1.00  0.00    -0.203 F 
ATOM     83  C   UNL A   1      48.267  27.269  23.853  1.00  0.00     0.198 A 
ATOM     84  C   UNL A   1      49.351  26.705  25.917  1.00  0.00     0.198 A 
ATOM     85  F   UNL A   1      48.236  27.042  27.959  1.00  0.00    -0.203 F 
ATOM     86  F   UNL A   1      48.262  27.295  22.513  1.00  0.00    -0.200 F 
ATOM     87  C   UNL A   1      49.365  26.765  24.532  1.00  0.00     0.200 A 
ATOM     88  F   UNL A   1      50.416  26.234  26.579  1.00  0.00    -0.200 F 
ATOM     89  F   UNL A   1      50.434  26.328  23.852  1.00  0.00    -0.200 F 
ENDBRANCH  55  79
BRANCH  67  90
ATOM     90  C   UNL A   1      45.426  33.709  28.977  1.00  0.00     0.064 A 
ATOM     91  C   UNL A   1      45.318  34.739  28.031  1.00  0.00     0.173 A 
ATOM     92  C   UNL A   1      46.234  33.932  30.104  1.00  0.00     0.173 A 
ATOM     93  F   UNL A   1      44.572  34.567  26.930  1.00  0.00    -0.203 F 
ATOM     94  C   UNL A   1      46.014  35.934  28.194  1.00  0.00     0.198 A 
ATOM     95  C   UNL A   1      46.904  35.139  30.277  1.00  0.00     0.198 A 
ATOM     96  F   UNL A   1      46.365  32.981  31.041  1.00  0.00    -0.203 F 
ATOM     97  F   UNL A   1      45.936  36.885  27.252  1.00  0.00    -0.200 F 
ATOM     98  C   UNL A   1      46.800  36.136  29.318  1.00  0.00     0.200 A 
ATOM     99  F   UNL A   1      47.654  35.338  31.370  1.00  0.00    -0.200 F 
ATOM    100  F   UNL A   1      47.465  37.289  29.474  1.00  0.00    -0.200 F 
ENDBRANCH  67  90
ENDBRANCH  41  42
ENDBRANCH  34  36
ENDBRANCH  33  34
ENDBRANCH  32  33
ENDBRANCH   1  32
TORSDOF 16
ENDMDL
