MODEL 1
REMARK VINA RESULT:     -12.6      0.000      0.000
REMARK SMILES Cc1ccc(S(=O)(=O)Nc2ccc(Cl)c(C(=O)OCCOC(=O)c3ccc(-c4c5nc(c(-c6c(F)c(F)c(F)c(F)c6F)c6ccc([nH]6)c(-c6c(F)c(F)c(F)c(F)c6F)c6nc(c(-c7c(F)c(F)c(F)c(F)c7F)c7ccc4[nH]7)C=C6)C=C5)cc3)c2)cc1Cl
REMARK SMILES IDX 19 1 18 2 16 3 17 4 15 5 10 6 11 7 87 8 12 9 13 10 14 11
REMARK SMILES IDX 9 12 6 14 7 15 8 16 5 17 1 18 2 19 3 20 89 21 4 22 88 23
REMARK SMILES IDX 90 24 20 25 21 26 22 27 23 28 24 29 25 30 86 31 26 32 85 33
REMARK SMILES IDX 27 34 28 35 29 36 79 37 30 38 84 39 78 40 80 41 31 42 83 43
REMARK SMILES IDX 77 44 76 45 32 47 64 48 44 49 63 50 45 51 48 52 62 53 81 54
REMARK SMILES IDX 46 55 47 56 61 58 82 59 49 60 33 61 34 62 42 63 35 64 36 65
REMARK SMILES IDX 40 66 43 67 37 68 38 69 41 70 39 71 65 72 66 73 74 74 67 75
REMARK SMILES IDX 68 76 72 77 75 78 69 79 70 80 73 81 71 82 50 83 51 84 59 85
REMARK SMILES IDX 52 86 53 87 57 88 60 89 54 90 55 91 58 92 56 93
REMARK H PARENT 9 13 80 46 48 57
REMARK Flexibility Score: inf
ROOT
ATOM      1  C   UNL A   1      33.456  28.425  24.321  1.00  0.00     0.275 C 
ENDROOT
BRANCH   1   2
ATOM      2  O   UNL A   1      33.335  28.460  22.887  1.00  0.00    -0.458 OA
BRANCH   2   3
ATOM      3  C   UNL A   1      32.947  27.309  22.276  1.00  0.00     0.339 C 
ATOM      4  O   UNL A   1      33.611  26.678  21.479  1.00  0.00    -0.246 OA
BRANCH   3   5
ATOM      5  C   UNL A   1      31.583  26.924  22.748  1.00  0.00     0.080 A 
ATOM      6  C   UNL A   1      30.220  25.343  23.979  1.00  0.00     0.050 A 
ATOM      7  C   UNL A   1      29.103  26.164  23.856  1.00  0.00     0.028 A 
ATOM      8  C   UNL A   1      31.413  25.661  23.333  1.00  0.00     0.044 A 
ATOM      9  C   UNL A   1      29.238  27.397  23.219  1.00  0.00     0.023 A 
ATOM     10  C   UNL A   1      30.494  27.818  22.758  1.00  0.00     0.055 A 
ATOM     11  Cl  UNL A   1      30.608  29.495  22.346  1.00  0.00    -0.083 Cl
BRANCH   6  12
ATOM     12  N   UNL A   1      30.271  24.302  24.958  1.00  0.00    -0.280 N 
ATOM     13  H   UNL A   1      29.702  23.503  24.889  1.00  0.00     0.180 HD
BRANCH  12  14
ATOM     14  S   UNL A   1      31.378  24.511  26.271  1.00  0.00     0.261 S 
ATOM     15  O   UNL A   1      30.915  23.611  27.306  1.00  0.00    -0.201 OA
ATOM     16  O   UNL A   1      31.459  25.936  26.512  1.00  0.00    -0.201 OA
BRANCH  14  17
ATOM     17  C   UNL A   1      33.007  23.973  25.770  1.00  0.00     0.089 A 
ATOM     18  C   UNL A   1      36.854  22.769  24.217  1.00  0.00     0.046 C 
ATOM     19  C   UNL A   1      35.526  23.145  24.815  1.00  0.00    -0.032 A 
ATOM     20  C   UNL A   1      35.295  24.483  25.156  1.00  0.00     0.006 A 
ATOM     21  C   UNL A   1      34.522  22.206  25.102  1.00  0.00     0.045 A 
ATOM     22  C   UNL A   1      34.064  24.882  25.688  1.00  0.00     0.022 A 
ATOM     23  C   UNL A   1      33.257  22.618  25.541  1.00  0.00     0.043 A 
ATOM     24  Cl  UNL A   1      34.807  20.510  24.947  1.00  0.00    -0.084 Cl
ENDBRANCH  14  17
ENDBRANCH  12  14
ENDBRANCH   6  12
ENDBRANCH   3   5
ENDBRANCH   2   3
ENDBRANCH   1   2
BRANCH   1  25
ATOM     25  C   UNL A   1      32.925  29.718  24.947  1.00  0.00     0.275 C 
BRANCH  25  26
ATOM     26  O   UNL A   1      33.000  29.678  26.386  1.00  0.00    -0.458 OA
BRANCH  26  27
ATOM     27  C   UNL A   1      33.375  30.839  26.972  1.00  0.00     0.338 C 
ATOM     28  O   UNL A   1      32.698  31.842  27.131  1.00  0.00    -0.246 OA
BRANCH  27  29
ATOM     29  C   UNL A   1      34.686  30.676  27.622  1.00  0.00     0.060 A 
ATOM     30  C   UNL A   1      34.999  29.389  28.046  1.00  0.00     0.016 A 
ATOM     31  C   UNL A   1      35.538  31.731  27.929  1.00  0.00     0.016 A 
ATOM     32  C   UNL A   1      36.163  29.125  28.751  1.00  0.00     0.010 A 
ATOM     33  C   UNL A   1      36.721  31.471  28.647  1.00  0.00     0.010 A 
ATOM     34  C   UNL A   1      37.040  30.164  29.063  1.00  0.00    -0.014 A 
BRANCH  34  35
ATOM     35  C   UNL A   1      38.225  29.851  29.905  1.00  0.00     0.031 A 
ATOM     36  C   UNL A   1      39.316  28.977  29.357  1.00  0.00     0.074 A 
ATOM     37  C   UNL A   1      38.377  30.436  31.110  1.00  0.00     0.049 A 
ATOM     38  N   UNL A   1      40.403  28.539  29.942  1.00  0.00    -0.248 NA
ATOM     39  C   UNL A   1      39.171  28.548  27.958  1.00  0.00     0.031 C 
ATOM     40  C   UNL A   1      37.443  31.388  31.712  1.00  0.00     0.029 A 
ATOM     41  N   UNL A   1      39.385  30.326  32.038  1.00  0.00    -0.354 N 
ATOM     42  C   UNL A   1      41.051  27.756  28.997  1.00  0.00     0.074 A 
ATOM     43  C   UNL A   1      40.235  27.773  27.802  1.00  0.00     0.031 C 
ATOM     44  C   UNL A   1      37.922  31.778  32.904  1.00  0.00     0.029 A 
ATOM     45  C   UNL A   1      39.162  31.057  33.181  1.00  0.00     0.049 A 
ATOM     46  H   UNL A   1      40.190  29.777  31.898  1.00  0.00     0.167 HD
ATOM     47  C   UNL A   1      42.221  27.085  29.119  1.00  0.00     0.037 A 
ATOM     48  C   UNL A   1      39.855  31.108  34.335  1.00  0.00     0.037 A 
ATOM     49  C   UNL A   1      43.043  27.092  30.303  1.00  0.00     0.049 A 
ATOM     50  C   UNL A   1      41.105  30.279  34.474  1.00  0.00     0.074 A 
ATOM     51  C   UNL A   1      44.243  26.440  30.524  1.00  0.00     0.029 A 
ATOM     52  N   UNL A   1      42.749  27.788  31.466  1.00  0.00    -0.354 N 
ATOM     53  N   UNL A   1      41.695  29.510  33.591  1.00  0.00    -0.248 NA
ATOM     54  C   UNL A   1      41.784  30.321  35.777  1.00  0.00     0.031 C 
ATOM     55  C   UNL A   1      44.645  26.693  31.839  1.00  0.00     0.029 A 
ATOM     56  C   UNL A   1      43.730  27.558  32.418  1.00  0.00     0.049 A 
ATOM     57  H   UNL A   1      41.958  28.362  31.597  1.00  0.00     0.167 HD
ATOM     58  C   UNL A   1      42.821  28.997  34.221  1.00  0.00     0.074 A 
ATOM     59  C   UNL A   1      42.847  29.563  35.552  1.00  0.00     0.031 C 
ATOM     60  C   UNL A   1      43.748  28.131  33.740  1.00  0.00     0.037 A 
BRANCH  47  61
ATOM     61  C   UNL A   1      42.661  26.238  27.960  1.00  0.00     0.064 A 
ATOM     62  C   UNL A   1      43.570  26.700  26.997  1.00  0.00     0.173 A 
ATOM     63  C   UNL A   1      42.184  24.924  27.831  1.00  0.00     0.173 A 
ATOM     64  F   UNL A   1      44.044  27.954  27.065  1.00  0.00    -0.203 F 
ATOM     65  C   UNL A   1      43.968  25.888  25.939  1.00  0.00     0.198 A 
ATOM     66  C   UNL A   1      42.607  24.103  26.790  1.00  0.00     0.198 A 
ATOM     67  F   UNL A   1      41.313  24.430  28.725  1.00  0.00    -0.203 F 
ATOM     68  F   UNL A   1      44.801  26.366  25.005  1.00  0.00    -0.200 F 
ATOM     69  C   UNL A   1      43.493  24.588  25.841  1.00  0.00     0.200 A 
ATOM     70  F   UNL A   1      42.157  22.844  26.705  1.00  0.00    -0.200 F 
ATOM     71  F   UNL A   1      43.883  23.804  24.826  1.00  0.00    -0.200 F 
ENDBRANCH  47  61
BRANCH  48  72
ATOM     72  C   UNL A   1      39.357  31.927  35.475  1.00  0.00     0.064 A 
ATOM     73  C   UNL A   1      38.475  31.394  36.425  1.00  0.00     0.173 A 
ATOM     74  C   UNL A   1      39.721  33.276  35.610  1.00  0.00     0.173 A 
ATOM     75  F   UNL A   1      38.069  30.120  36.323  1.00  0.00    -0.203 F 
ATOM     76  C   UNL A   1      37.957  32.185  37.450  1.00  0.00     0.198 A 
ATOM     77  C   UNL A   1      39.233  34.054  36.657  1.00  0.00     0.198 A 
ATOM     78  F   UNL A   1      40.555  33.839  34.724  1.00  0.00    -0.203 F 
ATOM     79  F   UNL A   1      37.065  31.668  38.307  1.00  0.00    -0.200 F 
ATOM     80  C   UNL A   1      38.342  33.512  37.569  1.00  0.00     0.200 A 
ATOM     81  F   UNL A   1      39.618  35.332  36.774  1.00  0.00    -0.200 F 
ATOM     82  F   UNL A   1      37.843  34.272  38.554  1.00  0.00    -0.200 F 
ENDBRANCH  48  72
BRANCH  60  83
ATOM     83  C   UNL A   1      44.891  27.775  34.649  1.00  0.00     0.064 A 
ATOM     84  C   UNL A   1      44.870  26.624  35.450  1.00  0.00     0.173 A 
ATOM     85  C   UNL A   1      46.034  28.589  34.704  1.00  0.00     0.173 A 
ATOM     86  F   UNL A   1      43.796  25.818  35.446  1.00  0.00    -0.203 F 
ATOM     87  C   UNL A   1      45.930  26.323  36.302  1.00  0.00     0.198 A 
ATOM     88  C   UNL A   1      47.108  28.265  35.528  1.00  0.00     0.198 A 
ATOM     89  F   UNL A   1      46.112  29.698  33.953  1.00  0.00    -0.203 F 
ATOM     90  F   UNL A   1      45.858  25.252  37.105  1.00  0.00    -0.200 F 
ATOM     91  C   UNL A   1      47.050  27.139  36.335  1.00  0.00     0.200 A 
ATOM     92  F   UNL A   1      48.197  29.047  35.546  1.00  0.00    -0.200 F 
ATOM     93  F   UNL A   1      48.071  26.847  37.152  1.00  0.00    -0.200 F 
ENDBRANCH  60  83
ENDBRANCH  34  35
ENDBRANCH  27  29
ENDBRANCH  26  27
ENDBRANCH  25  26
ENDBRANCH   1  25
TORSDOF 14
ENDMDL
MODEL 2
REMARK VINA RESULT:     -12.6      4.294      7.011
REMARK SMILES Cc1ccc(S(=O)(=O)Nc2ccc(Cl)c(C(=O)OCCOC(=O)c3ccc(-c4c5nc(c(-c6c(F)c(F)c(F)c(F)c6F)c6ccc([nH]6)c(-c6c(F)c(F)c(F)c(F)c6F)c6nc(c(-c7c(F)c(F)c(F)c(F)c7F)c7ccc4[nH]7)C=C6)C=C5)cc3)c2)cc1Cl
REMARK SMILES IDX 19 1 18 2 16 3 17 4 15 5 10 6 11 7 87 8 12 9 13 10 14 11
REMARK SMILES IDX 9 12 6 14 7 15 8 16 5 17 1 18 2 19 3 20 89 21 4 22 88 23
REMARK SMILES IDX 90 24 20 25 21 26 22 27 23 28 24 29 25 30 86 31 26 32 85 33
REMARK SMILES IDX 27 34 28 35 29 36 79 37 30 38 84 39 78 40 80 41 31 42 83 43
REMARK SMILES IDX 77 44 76 45 32 47 64 48 44 49 63 50 45 51 48 52 62 53 81 54
REMARK SMILES IDX 46 55 47 56 61 58 82 59 49 60 33 61 34 62 42 63 35 64 36 65
REMARK SMILES IDX 40 66 43 67 37 68 38 69 41 70 39 71 65 72 66 73 74 74 67 75
REMARK SMILES IDX 68 76 72 77 75 78 69 79 70 80 73 81 71 82 50 83 51 84 59 85
REMARK SMILES IDX 52 86 53 87 57 88 60 89 54 90 55 91 58 92 56 93
REMARK H PARENT 9 13 80 46 48 57
REMARK Flexibility Score: inf
ROOT
ATOM      1  C   UNL A   1      36.034  20.283  25.025  1.00  0.00     0.275 C 
ENDROOT
BRANCH   1   2
ATOM      2  O   UNL A   1      35.580  21.289  25.949  1.00  0.00    -0.458 OA
BRANCH   2   3
ATOM      3  C   UNL A   1      34.243  21.342  26.190  1.00  0.00     0.339 C 
ATOM      4  O   UNL A   1      33.714  21.149  27.265  1.00  0.00    -0.246 OA
BRANCH   3   5
ATOM      5  C   UNL A   1      33.518  21.694  24.931  1.00  0.00     0.080 A 
ATOM      6  C   UNL A   1      33.244  23.263  23.106  1.00  0.00     0.050 A 
ATOM      7  C   UNL A   1      32.366  22.400  22.456  1.00  0.00     0.028 A 
ATOM      8  C   UNL A   1      33.721  22.967  24.380  1.00  0.00     0.044 A 
ATOM      9  C   UNL A   1      32.101  21.154  23.022  1.00  0.00     0.023 A 
ATOM     10  C   UNL A   1      32.753  20.763  24.202  1.00  0.00     0.055 A 
ATOM     11  Cl  UNL A   1      32.642  19.080  24.586  1.00  0.00    -0.083 Cl
BRANCH   6  12
ATOM     12  N   UNL A   1      33.884  24.334  22.407  1.00  0.00    -0.280 N 
ATOM     13  H   UNL A   1      34.781  24.230  22.017  1.00  0.00     0.180 HD
BRANCH  12  14
ATOM     14  S   UNL A   1      33.011  25.822  22.276  1.00  0.00     0.261 S 
ATOM     15  O   UNL A   1      31.758  25.474  21.639  1.00  0.00    -0.201 OA
ATOM     16  O   UNL A   1      33.914  26.771  21.662  1.00  0.00    -0.201 OA
BRANCH  14  17
ATOM     17  C   UNL A   1      32.636  26.440  23.911  1.00  0.00     0.089 A 
ATOM     18  C   UNL A   1      31.549  28.208  27.700  1.00  0.00     0.046 C 
ATOM     19  C   UNL A   1      31.982  27.558  26.414  1.00  0.00    -0.032 A 
ATOM     20  C   UNL A   1      31.092  26.695  25.762  1.00  0.00     0.006 A 
ATOM     21  C   UNL A   1      33.262  27.731  25.863  1.00  0.00     0.045 A 
ATOM     22  C   UNL A   1      31.444  26.092  24.549  1.00  0.00     0.022 A 
ATOM     23  C   UNL A   1      33.577  27.207  24.601  1.00  0.00     0.043 A 
ATOM     24  Cl  UNL A   1      34.503  28.573  26.717  1.00  0.00    -0.084 Cl
ENDBRANCH  14  17
ENDBRANCH  12  14
ENDBRANCH   6  12
ENDBRANCH   3   5
ENDBRANCH   2   3
ENDBRANCH   1   2
BRANCH   1  25
ATOM     25  C   UNL A   1      37.555  20.342  24.855  1.00  0.00     0.275 C 
BRANCH  25  26
ATOM     26  O   UNL A   1      38.123  21.458  25.569  1.00  0.00    -0.458 OA
BRANCH  26  27
ATOM     27  C   UNL A   1      39.292  21.198  26.200  1.00  0.00     0.338 C 
ATOM     28  O   UNL A   1      39.932  20.159  26.175  1.00  0.00    -0.246 OA
BRANCH  27  29
ATOM     29  C   UNL A   1      39.844  22.437  26.771  1.00  0.00     0.060 A 
ATOM     30  C   UNL A   1      39.376  23.624  26.218  1.00  0.00     0.016 A 
ATOM     31  C   UNL A   1      40.863  22.470  27.718  1.00  0.00     0.016 A 
ATOM     32  C   UNL A   1      39.888  24.852  26.609  1.00  0.00     0.010 A 
ATOM     33  C   UNL A   1      41.388  23.713  28.118  1.00  0.00     0.010 A 
ATOM     34  C   UNL A   1      40.902  24.914  27.563  1.00  0.00    -0.014 A 
BRANCH  34  35
ATOM     35  C   UNL A   1      41.487  26.243  27.878  1.00  0.00     0.031 A 
ATOM     36  C   UNL A   1      42.879  26.570  27.418  1.00  0.00     0.074 A 
ATOM     37  C   UNL A   1      40.739  27.193  28.473  1.00  0.00     0.049 A 
ATOM     38  N   UNL A   1      43.595  27.645  27.633  1.00  0.00    -0.248 NA
ATOM     39  C   UNL A   1      43.552  25.554  26.595  1.00  0.00     0.031 C 
ATOM     40  C   UNL A   1      39.340  27.040  28.874  1.00  0.00     0.029 A 
ATOM     41  N   UNL A   1      41.049  28.484  28.832  1.00  0.00    -0.354 N 
ATOM     42  C   UNL A   1      44.812  27.421  27.004  1.00  0.00     0.074 A 
ATOM     43  C   UNL A   1      44.742  26.106  26.404  1.00  0.00     0.031 C 
ATOM     44  C   UNL A   1      38.911  28.191  29.417  1.00  0.00     0.029 A 
ATOM     45  C   UNL A   1      40.020  29.140  29.464  1.00  0.00     0.049 A 
ATOM     46  H   UNL A   1      41.923  28.899  28.652  1.00  0.00     0.167 HD
ATOM     47  C   UNL A   1      45.888  28.241  26.936  1.00  0.00     0.037 A 
ATOM     48  C   UNL A   1      39.987  30.353  30.051  1.00  0.00     0.037 A 
ATOM     49  C   UNL A   1      45.943  29.560  27.513  1.00  0.00     0.049 A 
ATOM     50  C   UNL A   1      41.228  31.205  30.038  1.00  0.00     0.074 A 
ATOM     51  C   UNL A   1      46.990  30.464  27.500  1.00  0.00     0.029 A 
ATOM     52  N   UNL A   1      44.905  30.164  28.208  1.00  0.00    -0.354 N 
ATOM     53  N   UNL A   1      42.389  30.974  29.474  1.00  0.00    -0.248 NA
ATOM     54  C   UNL A   1      41.156  32.489  30.750  1.00  0.00     0.031 C 
ATOM     55  C   UNL A   1      46.608  31.590  28.236  1.00  0.00     0.029 A 
ATOM     56  C   UNL A   1      45.297  31.417  28.652  1.00  0.00     0.049 A 
ATOM     57  H   UNL A   1      44.019  29.762  28.362  1.00  0.00     0.167 HD
ATOM     58  C   UNL A   1      43.175  32.087  29.743  1.00  0.00     0.074 A 
ATOM     59  C   UNL A   1      42.350  33.006  30.498  1.00  0.00     0.031 C 
ATOM     60  C   UNL A   1      44.465  32.326  29.400  1.00  0.00     0.037 A 
BRANCH  47  61
ATOM     61  C   UNL A   1      47.120  27.715  26.256  1.00  0.00     0.064 A 
ATOM     62  C   UNL A   1      48.163  27.103  26.967  1.00  0.00     0.173 A 
ATOM     63  C   UNL A   1      47.239  27.800  24.860  1.00  0.00     0.173 A 
ATOM     64  F   UNL A   1      48.106  27.011  28.305  1.00  0.00    -0.203 F 
ATOM     65  C   UNL A   1      49.288  26.615  26.307  1.00  0.00     0.198 A 
ATOM     66  C   UNL A   1      48.351  27.284  24.201  1.00  0.00     0.198 A 
ATOM     67  F   UNL A   1      46.270  28.375  24.132  1.00  0.00    -0.203 F 
ATOM     68  F   UNL A   1      50.294  26.076  27.010  1.00  0.00    -0.200 F 
ATOM     69  C   UNL A   1      49.378  26.699  24.925  1.00  0.00     0.200 A 
ATOM     70  F   UNL A   1      48.429  27.353  22.865  1.00  0.00    -0.200 F 
ATOM     71  F   UNL A   1      50.458  26.221  24.291  1.00  0.00    -0.200 F 
ENDBRANCH  47  61
BRANCH  48  72
ATOM     72  C   UNL A   1      38.757  30.814  30.753  1.00  0.00     0.064 A 
ATOM     73  C   UNL A   1      37.743  31.500  30.071  1.00  0.00     0.173 A 
ATOM     74  C   UNL A   1      38.593  30.614  32.133  1.00  0.00     0.173 A 
ATOM     75  F   UNL A   1      37.865  31.746  28.758  1.00  0.00    -0.203 F 
ATOM     76  C   UNL A   1      36.625  31.991  30.746  1.00  0.00     0.198 A 
ATOM     77  C   UNL A   1      37.458  31.071  32.799  1.00  0.00     0.198 A 
ATOM     78  F   UNL A   1      39.536  29.971  32.836  1.00  0.00    -0.203 F 
ATOM     79  F   UNL A   1      35.702  32.700  30.082  1.00  0.00    -0.200 F 
ATOM     80  C   UNL A   1      36.481  31.770  32.107  1.00  0.00     0.200 A 
ATOM     81  F   UNL A   1      37.317  30.844  34.111  1.00  0.00    -0.200 F 
ATOM     82  F   UNL A   1      35.407  32.242  32.756  1.00  0.00    -0.200 F 
ENDBRANCH  48  72
BRANCH  60  83
ATOM     83  C   UNL A   1      45.050  33.650  29.803  1.00  0.00     0.064 A 
ATOM     84  C   UNL A   1      45.763  33.810  31.001  1.00  0.00     0.173 A 
ATOM     85  C   UNL A   1      44.911  34.771  28.971  1.00  0.00     0.173 A 
ATOM     86  F   UNL A   1      45.913  32.774  31.841  1.00  0.00    -0.203 F 
ATOM     87  C   UNL A   1      46.279  35.051  31.368  1.00  0.00     0.198 A 
ATOM     88  C   UNL A   1      45.461  36.000  29.322  1.00  0.00     0.198 A 
ATOM     89  F   UNL A   1      44.246  34.673  27.809  1.00  0.00    -0.203 F 
ATOM     90  F   UNL A   1      46.900  35.194  32.547  1.00  0.00    -0.200 F 
ATOM     91  C   UNL A   1      46.134  36.142  30.526  1.00  0.00     0.200 A 
ATOM     92  F   UNL A   1      45.333  37.050  28.499  1.00  0.00    -0.200 F 
ATOM     93  F   UNL A   1      46.634  37.335  30.879  1.00  0.00    -0.200 F 
ENDBRANCH  60  83
ENDBRANCH  34  35
ENDBRANCH  27  29
ENDBRANCH  26  27
ENDBRANCH  25  26
ENDBRANCH   1  25
TORSDOF 14
ENDMDL
MODEL 3
REMARK VINA RESULT:     -12.5      4.540      9.765
REMARK SMILES Cc1ccc(S(=O)(=O)Nc2ccc(Cl)c(C(=O)OCCOC(=O)c3ccc(-c4c5nc(c(-c6c(F)c(F)c(F)c(F)c6F)c6ccc([nH]6)c(-c6c(F)c(F)c(F)c(F)c6F)c6nc(c(-c7c(F)c(F)c(F)c(F)c7F)c7ccc4[nH]7)C=C6)C=C5)cc3)c2)cc1Cl
REMARK SMILES IDX 19 1 18 2 16 3 17 4 15 5 10 6 11 7 87 8 12 9 13 10 14 11
REMARK SMILES IDX 9 12 6 14 7 15 8 16 5 17 1 18 2 19 3 20 89 21 4 22 88 23
REMARK SMILES IDX 90 24 20 25 21 26 22 27 23 28 24 29 25 30 86 31 26 32 85 33
REMARK SMILES IDX 27 34 28 35 29 36 79 37 30 38 84 39 78 40 80 41 31 42 83 43
REMARK SMILES IDX 77 44 76 45 32 47 64 48 44 49 63 50 45 51 48 52 62 53 81 54
REMARK SMILES IDX 46 55 47 56 61 58 82 59 49 60 33 61 34 62 42 63 35 64 36 65
REMARK SMILES IDX 40 66 43 67 37 68 38 69 41 70 39 71 65 72 66 73 74 74 67 75
REMARK SMILES IDX 68 76 72 77 75 78 69 79 70 80 73 81 71 82 50 83 51 84 59 85
REMARK SMILES IDX 52 86 53 87 57 88 60 89 54 90 55 91 58 92 56 93
REMARK H PARENT 9 13 80 46 48 57
REMARK Flexibility Score: inf
ROOT
ATOM      1  C   UNL A   1      36.168  20.339  24.972  1.00  0.00     0.275 C 
ENDROOT
BRANCH   1   2
ATOM      2  O   UNL A   1      35.658  21.352  25.859  1.00  0.00    -0.458 OA
BRANCH   2   3
ATOM      3  C   UNL A   1      34.318  21.346  26.090  1.00  0.00     0.339 C 
ATOM      4  O   UNL A   1      33.789  21.080  27.149  1.00  0.00    -0.246 OA
BRANCH   3   5
ATOM      5  C   UNL A   1      33.591  21.736  24.844  1.00  0.00     0.080 A 
ATOM      6  C   UNL A   1      33.328  23.349  23.056  1.00  0.00     0.050 A 
ATOM      7  C   UNL A   1      32.433  22.514  22.393  1.00  0.00     0.028 A 
ATOM      8  C   UNL A   1      33.809  23.018  24.320  1.00  0.00     0.044 A 
ATOM      9  C   UNL A   1      32.153  21.259  22.934  1.00  0.00     0.023 A 
ATOM     10  C   UNL A   1      32.806  20.833  24.100  1.00  0.00     0.055 A 
ATOM     11  Cl  UNL A   1      32.673  19.143  24.448  1.00  0.00    -0.083 Cl
BRANCH   6  12
ATOM     12  N   UNL A   1      33.979  24.426  22.376  1.00  0.00    -0.280 N 
ATOM     13  H   UNL A   1      34.885  24.327  22.007  1.00  0.00     0.180 HD
BRANCH  12  14
ATOM     14  S   UNL A   1      33.103  25.910  22.233  1.00  0.00     0.261 S 
ATOM     15  O   UNL A   1      31.880  25.566  21.538  1.00  0.00    -0.201 OA
ATOM     16  O   UNL A   1      34.025  26.874  21.671  1.00  0.00    -0.201 OA
BRANCH  14  17
ATOM     17  C   UNL A   1      32.657  26.500  23.860  1.00  0.00     0.089 A 
ATOM     18  C   UNL A   1      31.403  28.203  27.627  1.00  0.00     0.046 C 
ATOM     19  C   UNL A   1      31.893  27.575  26.350  1.00  0.00    -0.032 A 
ATOM     20  C   UNL A   1      31.035  26.721  25.647  1.00  0.00     0.006 A 
ATOM     21  C   UNL A   1      33.194  27.762  25.857  1.00  0.00     0.045 A 
ATOM     22  C   UNL A   1      31.440  26.138  24.441  1.00  0.00     0.022 A 
ATOM     23  C   UNL A   1      33.565  27.260  24.602  1.00  0.00     0.043 A 
ATOM     24  Cl  UNL A   1      34.395  28.594  26.777  1.00  0.00    -0.084 Cl
ENDBRANCH  14  17
ENDBRANCH  12  14
ENDBRANCH   6  12
ENDBRANCH   3   5
ENDBRANCH   2   3
ENDBRANCH   1   2
BRANCH   1  25
ATOM     25  C   UNL A   1      37.699  20.305  25.003  1.00  0.00     0.275 C 
BRANCH  25  26
ATOM     26  O   UNL A   1      38.235  21.359  25.829  1.00  0.00    -0.458 OA
BRANCH  26  27
ATOM     27  C   UNL A   1      39.475  21.126  26.321  1.00  0.00     0.338 C 
ATOM     28  O   UNL A   1      40.123  20.096  26.236  1.00  0.00    -0.246 OA
BRANCH  27  29
ATOM     29  C   UNL A   1      40.070  22.382  26.802  1.00  0.00     0.060 A 
ATOM     30  C   UNL A   1      39.705  23.533  26.112  1.00  0.00     0.016 A 
ATOM     31  C   UNL A   1      41.040  22.452  27.798  1.00  0.00     0.016 A 
ATOM     32  C   UNL A   1      40.269  24.764  26.412  1.00  0.00     0.010 A 
ATOM     33  C   UNL A   1      41.618  23.697  28.106  1.00  0.00     0.010 A 
ATOM     34  C   UNL A   1      41.235  24.863  27.413  1.00  0.00    -0.014 A 
BRANCH  34  35
ATOM     35  C   UNL A   1      41.883  26.182  27.633  1.00  0.00     0.031 A 
ATOM     36  C   UNL A   1      41.182  27.227  28.454  1.00  0.00     0.074 A 
ATOM     37  C   UNL A   1      43.138  26.405  27.197  1.00  0.00     0.049 A 
ATOM     38  N   UNL A   1      41.545  28.456  28.720  1.00  0.00    -0.248 NA
ATOM     39  C   UNL A   1      39.906  26.830  29.067  1.00  0.00     0.031 C 
ATOM     40  C   UNL A   1      43.969  25.437  26.481  1.00  0.00     0.029 A 
ATOM     41  N   UNL A   1      43.941  27.516  27.306  1.00  0.00    -0.354 N 
ATOM     42  C   UNL A   1      40.529  28.990  29.500  1.00  0.00     0.074 A 
ATOM     43  C   UNL A   1      39.531  27.954  29.661  1.00  0.00     0.031 C 
ATOM     44  C   UNL A   1      45.164  25.992  26.219  1.00  0.00     0.029 A 
ATOM     45  C   UNL A   1      45.161  27.375  26.689  1.00  0.00     0.049 A 
ATOM     46  H   UNL A   1      43.668  28.334  27.780  1.00  0.00     0.167 HD
ATOM     47  C   UNL A   1      40.440  30.233  30.032  1.00  0.00     0.037 A 
ATOM     48  C   UNL A   1      46.148  28.271  26.489  1.00  0.00     0.037 A 
ATOM     49  C   UNL A   1      41.449  31.252  29.891  1.00  0.00     0.049 A 
ATOM     50  C   UNL A   1      45.981  29.672  27.015  1.00  0.00     0.074 A 
ATOM     51  C   UNL A   1      41.447  32.542  30.390  1.00  0.00     0.029 A 
ATOM     52  N   UNL A   1      42.641  31.095  29.199  1.00  0.00    -0.354 N 
ATOM     53  N   UNL A   1      45.001  30.184  27.720  1.00  0.00    -0.248 NA
ATOM     54  C   UNL A   1      47.057  30.625  26.710  1.00  0.00     0.031 C 
ATOM     55  C   UNL A   1      42.609  33.185  29.952  1.00  0.00     0.029 A 
ATOM     56  C   UNL A   1      43.369  32.274  29.235  1.00  0.00     0.049 A 
ATOM     57  H   UNL A   1      42.928  30.267  28.749  1.00  0.00     0.167 HD
ATOM     58  C   UNL A   1      45.352  31.506  27.961  1.00  0.00     0.074 A 
ATOM     59  C   UNL A   1      46.648  31.710  27.350  1.00  0.00     0.031 C 
ATOM     60  C   UNL A   1      44.661  32.465  28.626  1.00  0.00     0.037 A 
BRANCH  47  61
ATOM     61  C   UNL A   1      39.182  30.582  30.774  1.00  0.00     0.064 A 
ATOM     62  C   UNL A   1      39.064  30.424  32.163  1.00  0.00     0.173 A 
ATOM     63  C   UNL A   1      38.085  31.117  30.081  1.00  0.00     0.173 A 
ATOM     64  F   UNL A   1      40.077  29.902  32.871  1.00  0.00    -0.203 F 
ATOM     65  C   UNL A   1      37.888  30.767  32.825  1.00  0.00     0.198 A 
ATOM     66  C   UNL A   1      36.923  31.488  30.750  1.00  0.00     0.198 A 
ATOM     67  F   UNL A   1      38.144  31.290  28.751  1.00  0.00    -0.203 F 
ATOM     68  F   UNL A   1      37.780  30.564  34.146  1.00  0.00    -0.200 F 
ATOM     69  C   UNL A   1      36.822  31.306  32.120  1.00  0.00     0.200 A 
ATOM     70  F   UNL A   1      35.899  32.021  30.068  1.00  0.00    -0.200 F 
ATOM     71  F   UNL A   1      35.694  31.644  32.761  1.00  0.00    -0.200 F 
ENDBRANCH  47  61
BRANCH  48  72
ATOM     72  C   UNL A   1      47.358  27.893  25.708  1.00  0.00     0.064 A 
ATOM     73  C   UNL A   1      47.344  27.869  24.307  1.00  0.00     0.173 A 
ATOM     74  C   UNL A   1      48.543  27.504  26.353  1.00  0.00     0.173 A 
ATOM     75  F   UNL A   1      46.227  28.200  23.642  1.00  0.00    -0.203 F 
ATOM     76  C   UNL A   1      48.458  27.448  23.582  1.00  0.00     0.198 A 
ATOM     77  C   UNL A   1      49.668  27.119  25.627  1.00  0.00     0.198 A 
ATOM     78  F   UNL A   1      48.609  27.499  27.692  1.00  0.00    -0.203 F 
ATOM     79  F   UNL A   1      48.396  27.373  22.245  1.00  0.00    -0.200 F 
ATOM     80  C   UNL A   1      49.621  27.080  24.242  1.00  0.00     0.200 A 
ATOM     81  F   UNL A   1      50.792  26.777  26.269  1.00  0.00    -0.200 F 
ATOM     82  F   UNL A   1      50.692  26.674  23.545  1.00  0.00    -0.200 F 
ENDBRANCH  48  72
BRANCH  60  83
ATOM     83  C   UNL A   1      45.313  33.812  28.761  1.00  0.00     0.064 A 
ATOM     84  C   UNL A   1      46.173  34.116  29.827  1.00  0.00     0.173 A 
ATOM     85  C   UNL A   1      45.088  34.809  27.799  1.00  0.00     0.173 A 
ATOM     86  F   UNL A   1      46.412  33.204  30.783  1.00  0.00    -0.203 F 
ATOM     87  C   UNL A   1      46.751  35.377  29.947  1.00  0.00     0.198 A 
ATOM     88  C   UNL A   1      45.697  36.057  27.901  1.00  0.00     0.198 A 
ATOM     89  F   UNL A   1      44.281  34.572  26.753  1.00  0.00    -0.203 F 
ATOM     90  F   UNL A   1      47.517  35.664  31.008  1.00  0.00    -0.200 F 
ATOM     91  C   UNL A   1      46.518  36.344  28.980  1.00  0.00     0.200 A 
ATOM     92  F   UNL A   1      45.483  36.984  26.957  1.00  0.00    -0.200 F 
ATOM     93  F   UNL A   1      47.077  37.557  29.094  1.00  0.00    -0.200 F 
ENDBRANCH  60  83
ENDBRANCH  34  35
ENDBRANCH  27  29
ENDBRANCH  26  27
ENDBRANCH  25  26
ENDBRANCH   1  25
TORSDOF 14
ENDMDL
