MODEL 1
REMARK VINA RESULT:     -11.3      0.000      0.000
REMARK SMILES CC[N@@H+]([C@@H]1CSCC(C)(C)C1)[C@@H]1COC[C@@H]1C(=O)OCCOC(=O)c1ccc(-c2c3nc(c(-c4c(F)c(F)c(F)c(F)c4F)c4ccc([nH]4)c(-c4c(F)c(F)c(F)c(F)c4F)c4nc(c(-c5c(F)c(F)c(F)c(F)c5F)c5ccc2[nH]5)C=C4)C=C3)cc1
REMARK SMILES IDX 20 1 19 2 17 3 18 4 16 5 12 6 13 7 14 8 15 9 3 10 2 12 1 13
REMARK SMILES IDX 4 14 5 15 11 16 6 17 8 18 7 19 9 20 10 21 21 22 22 23 23 24
REMARK SMILES IDX 24 25 25 26 26 27 87 28 27 29 86 30 28 31 29 32 30 33 80 34
REMARK SMILES IDX 31 35 85 36 79 37 81 38 32 39 84 40 78 41 77 42 33 44 65 45
REMARK SMILES IDX 45 46 64 47 46 48 49 49 63 50 82 51 47 52 48 53 62 55 83 56
REMARK SMILES IDX 50 57 34 58 35 59 43 60 36 61 37 62 41 63 44 64 38 65 39 66
REMARK SMILES IDX 42 67 40 68 66 69 67 70 75 71 68 72 69 73 73 74 76 75 70 76
REMARK SMILES IDX 71 77 74 78 72 79 51 80 52 81 60 82 53 83 54 84 58 85 61 86
REMARK SMILES IDX 55 87 56 88 59 89 57 90
REMARK H PARENT 3 11 81 43 49 54
REMARK Flexibility Score: inf
ROOT
ATOM      1  C   UNL A   1      36.350  22.273  24.025  1.00  0.00     0.274 C 
ENDROOT
BRANCH   1   2
ATOM      2  O   UNL A   1      35.448  22.813  25.020  1.00  0.00    -0.462 OA
BRANCH   2   3
ATOM      3  C   UNL A   1      34.432  21.998  25.421  1.00  0.00     0.317 C 
ATOM      4  O   UNL A   1      34.429  21.427  26.508  1.00  0.00    -0.252 OA
BRANCH   3   5
ATOM      5  C   UNL A   1      33.414  21.731  24.315  1.00  0.00     0.185 C 
ATOM      6  C   UNL A   1      32.255  22.736  24.075  1.00  0.00     0.227 C 
ATOM      7  C   UNL A   1      31.288  22.276  25.170  1.00  0.00     0.226 C 
ATOM      8  O   UNL A   1      31.470  20.865  25.377  1.00  0.00    -0.374 OA
ATOM      9  C   UNL A   1      32.640  20.461  24.663  1.00  0.00     0.182 C 
BRANCH   6  10
ATOM     10  N   UNL A   1      32.601  24.158  23.889  1.00  0.00    -0.327 N 
ATOM     11  H   UNL A   1      33.592  24.015  24.084  1.00  0.00     0.348 HD
BRANCH  10  12
ATOM     12  C   UNL A   1      32.320  24.673  22.521  1.00  0.00     0.259 C 
ATOM     13  C   UNL A   1      33.282  25.651  21.861  1.00  0.00     0.071 C 
ENDBRANCH  10  12
BRANCH  10  14
ATOM     14  C   UNL A   1      32.256  25.239  24.896  1.00  0.00     0.194 C 
ATOM     15  C   UNL A   1      30.856  25.857  24.606  1.00  0.00     0.134 C 
ATOM     16  C   UNL A   1      33.302  26.139  25.619  1.00  0.00     0.073 C 
ATOM     17  S   UNL A   1      30.670  27.655  24.416  1.00  0.00    -0.155 SA
ATOM     18  C   UNL A   1      33.219  27.692  25.566  1.00  0.00    -0.021 C 
ATOM     19  C   UNL A   1      31.778  28.202  25.724  1.00  0.00     0.076 C 
ATOM     20  C   UNL A   1      33.877  28.284  24.307  1.00  0.00     0.012 C 
ATOM     21  C   UNL A   1      34.024  28.252  26.769  1.00  0.00     0.012 C 
ENDBRANCH  10  14
ENDBRANCH   6  10
ENDBRANCH   3   5
ENDBRANCH   2   3
ENDBRANCH   1   2
BRANCH   1  22
ATOM     22  C   UNL A   1      37.362  21.264  24.592  1.00  0.00     0.275 C 
BRANCH  22  23
ATOM     23  O   UNL A   1      37.703  21.507  25.973  1.00  0.00    -0.458 OA
BRANCH  23  24
ATOM     24  C   UNL A   1      39.029  21.446  26.203  1.00  0.00     0.338 C 
ATOM     25  O   UNL A   1      39.775  20.535  25.891  1.00  0.00    -0.246 OA
BRANCH  24  26
ATOM     26  C   UNL A   1      39.588  22.665  26.784  1.00  0.00     0.060 A 
ATOM     27  C   UNL A   1      39.133  23.868  26.243  1.00  0.00     0.016 A 
ATOM     28  C   UNL A   1      40.699  22.634  27.624  1.00  0.00     0.016 A 
ATOM     29  C   UNL A   1      39.825  25.042  26.480  1.00  0.00     0.010 A 
ATOM     30  C   UNL A   1      41.355  23.834  27.925  1.00  0.00     0.010 A 
ATOM     31  C   UNL A   1      40.929  25.040  27.340  1.00  0.00    -0.014 A 
BRANCH  31  32
ATOM     32  C   UNL A   1      41.581  26.333  27.645  1.00  0.00     0.031 A 
ATOM     33  C   UNL A   1      40.885  27.380  28.458  1.00  0.00     0.074 A 
ATOM     34  C   UNL A   1      42.847  26.517  27.229  1.00  0.00     0.049 A 
ATOM     35  N   UNL A   1      41.300  28.578  28.785  1.00  0.00    -0.248 NA
ATOM     36  C   UNL A   1      39.552  27.043  28.979  1.00  0.00     0.031 C 
ATOM     37  C   UNL A   1      43.633  25.537  26.474  1.00  0.00     0.029 A 
ATOM     38  N   UNL A   1      43.702  27.573  27.394  1.00  0.00    -0.354 N 
ATOM     39  C   UNL A   1      40.275  29.147  29.526  1.00  0.00     0.074 A 
ATOM     40  C   UNL A   1      39.215  28.163  29.607  1.00  0.00     0.031 C 
ATOM     41  C   UNL A   1      44.863  26.025  26.270  1.00  0.00     0.029 A 
ATOM     42  C   UNL A   1      44.930  27.374  26.816  1.00  0.00     0.049 A 
ATOM     43  H   UNL A   1      43.459  28.394  27.881  1.00  0.00     0.167 HD
ATOM     44  C   UNL A   1      40.227  30.382  30.077  1.00  0.00     0.037 A 
ATOM     45  C   UNL A   1      45.983  28.202  26.708  1.00  0.00     0.037 A 
ATOM     46  C   UNL A   1      41.295  31.347  30.001  1.00  0.00     0.049 A 
ATOM     47  C   UNL A   1      45.887  29.579  27.292  1.00  0.00     0.074 A 
ATOM     48  C   UNL A   1      41.342  32.629  30.520  1.00  0.00     0.029 A 
ATOM     49  N   UNL A   1      42.507  31.130  29.361  1.00  0.00    -0.354 N 
ATOM     50  N   UNL A   1      44.897  30.122  27.958  1.00  0.00    -0.248 NA
ATOM     51  C   UNL A   1      47.042  30.462  27.096  1.00  0.00     0.031 C 
ATOM     52  C   UNL A   1      42.571  33.200  30.169  1.00  0.00     0.029 A 
ATOM     53  C   UNL A   1      43.302  32.262  29.458  1.00  0.00     0.049 A 
ATOM     54  H   UNL A   1      42.765  30.296  28.907  1.00  0.00     0.167 HD
ATOM     55  C   UNL A   1      45.304  31.412  28.256  1.00  0.00     0.074 A 
ATOM     56  C   UNL A   1      46.643  31.561  27.723  1.00  0.00     0.031 C 
ATOM     57  C   UNL A   1      44.626  32.389  28.905  1.00  0.00     0.037 A 
BRANCH  44  58
ATOM     58  C   UNL A   1      38.966  30.783  30.779  1.00  0.00     0.064 A 
ATOM     59  C   UNL A   1      38.804  30.611  32.161  1.00  0.00     0.173 A 
ATOM     60  C   UNL A   1      37.925  31.395  30.064  1.00  0.00     0.173 A 
ATOM     61  F   UNL A   1      39.766  30.018  32.885  1.00  0.00    -0.203 F 
ATOM     62  C   UNL A   1      37.640  31.029  32.801  1.00  0.00     0.198 A 
ATOM     63  C   UNL A   1      36.770  31.827  30.710  1.00  0.00     0.198 A 
ATOM     64  F   UNL A   1      38.035  31.583  28.740  1.00  0.00    -0.203 F 
ATOM     65  F   UNL A   1      37.493  30.834  34.118  1.00  0.00    -0.200 F 
ATOM     66  C   UNL A   1      36.627  31.642  32.076  1.00  0.00     0.200 A 
ATOM     67  F   UNL A   1      35.797  32.426  30.009  1.00  0.00    -0.200 F 
ATOM     68  F   UNL A   1      35.511  32.052  32.696  1.00  0.00    -0.200 F 
ENDBRANCH  44  58
BRANCH  45  69
ATOM     69  C   UNL A   1      47.191  27.750  25.976  1.00  0.00     0.064 A 
ATOM     70  C   UNL A   1      48.311  27.263  26.661  1.00  0.00     0.173 A 
ATOM     71  C   UNL A   1      47.230  27.757  24.573  1.00  0.00     0.173 A 
ATOM     72  F   UNL A   1      48.327  27.256  28.001  1.00  0.00    -0.203 F 
ATOM     73  C   UNL A   1      49.427  26.799  25.968  1.00  0.00     0.198 A 
ATOM     74  C   UNL A   1      48.336  27.269  23.882  1.00  0.00     0.198 A 
ATOM     75  F   UNL A   1      46.180  28.212  23.875  1.00  0.00    -0.203 F 
ATOM     76  F   UNL A   1      50.498  26.361  26.644  1.00  0.00    -0.200 F 
ATOM     77  C   UNL A   1      49.436  26.794  24.580  1.00  0.00     0.200 A 
ATOM     78  F   UNL A   1      48.333  27.253  22.543  1.00  0.00    -0.200 F 
ATOM     79  F   UNL A   1      50.504  26.335  23.915  1.00  0.00    -0.200 F 
ENDBRANCH  45  69
BRANCH  57  80
ATOM     80  C   UNL A   1      45.327  33.701  29.062  1.00  0.00     0.064 A 
ATOM     81  C   UNL A   1      46.151  33.955  30.168  1.00  0.00     0.173 A 
ATOM     82  C   UNL A   1      45.188  34.706  28.094  1.00  0.00     0.173 A 
ATOM     83  F   UNL A   1      46.297  33.029  31.128  1.00  0.00    -0.203 F 
ATOM     84  C   UNL A   1      46.798  35.179  30.308  1.00  0.00     0.198 A 
ATOM     85  C   UNL A   1      45.852  35.921  28.228  1.00  0.00     0.198 A 
ATOM     86  F   UNL A   1      44.410  34.506  27.020  1.00  0.00    -0.203 F 
ATOM     87  F   UNL A   1      47.550  35.418  31.392  1.00  0.00    -0.200 F 
ATOM     88  C   UNL A   1      46.651  36.159  29.338  1.00  0.00     0.200 A 
ATOM     89  F   UNL A   1      45.713  36.866  27.289  1.00  0.00    -0.200 F 
ATOM     90  F   UNL A   1      47.272  37.338  29.475  1.00  0.00    -0.200 F 
ENDBRANCH  57  80
ENDBRANCH  31  32
ENDBRANCH  24  26
ENDBRANCH  23  24
ENDBRANCH  22  23
ENDBRANCH   1  22
TORSDOF 14
ENDMDL
MODEL 2
REMARK VINA RESULT:     -11.3      0.227      1.626
REMARK SMILES CC[N@@H+]([C@@H]1CSCC(C)(C)C1)[C@@H]1COC[C@@H]1C(=O)OCCOC(=O)c1ccc(-c2c3nc(c(-c4c(F)c(F)c(F)c(F)c4F)c4ccc([nH]4)c(-c4c(F)c(F)c(F)c(F)c4F)c4nc(c(-c5c(F)c(F)c(F)c(F)c5F)c5ccc2[nH]5)C=C4)C=C3)cc1
REMARK SMILES IDX 20 1 19 2 17 3 18 4 16 5 12 6 13 7 14 8 15 9 3 10 2 12 1 13
REMARK SMILES IDX 4 14 5 15 11 16 6 17 8 18 7 19 9 20 10 21 21 22 22 23 23 24
REMARK SMILES IDX 24 25 25 26 26 27 87 28 27 29 86 30 28 31 29 32 30 33 80 34
REMARK SMILES IDX 31 35 85 36 79 37 81 38 32 39 84 40 78 41 77 42 33 44 65 45
REMARK SMILES IDX 45 46 64 47 46 48 49 49 63 50 82 51 47 52 48 53 62 55 83 56
REMARK SMILES IDX 50 57 34 58 35 59 43 60 36 61 37 62 41 63 44 64 38 65 39 66
REMARK SMILES IDX 42 67 40 68 66 69 67 70 75 71 68 72 69 73 73 74 76 75 70 76
REMARK SMILES IDX 71 77 74 78 72 79 51 80 52 81 60 82 53 83 54 84 58 85 61 86
REMARK SMILES IDX 55 87 56 88 59 89 57 90
REMARK H PARENT 3 11 81 43 49 54
REMARK Flexibility Score: inf
ROOT
ATOM      1  C   UNL A   1      36.367  22.339  24.101  1.00  0.00     0.274 C 
ENDROOT
BRANCH   1   2
ATOM      2  O   UNL A   1      35.498  22.856  25.136  1.00  0.00    -0.462 OA
BRANCH   2   3
ATOM      3  C   UNL A   1      34.468  22.050  25.520  1.00  0.00     0.317 C 
ATOM      4  O   UNL A   1      34.419  21.516  26.625  1.00  0.00    -0.252 OA
BRANCH   3   5
ATOM      5  C   UNL A   1      33.501  21.739  24.380  1.00  0.00     0.185 C 
ATOM      6  C   UNL A   1      32.321  22.704  24.085  1.00  0.00     0.227 C 
ATOM      7  C   UNL A   1      31.329  22.224  25.148  1.00  0.00     0.226 C 
ATOM      8  O   UNL A   1      31.547  20.822  25.378  1.00  0.00    -0.374 OA
ATOM      9  C   UNL A   1      32.755  20.449  24.713  1.00  0.00     0.182 C 
BRANCH   6  10
ATOM     10  N   UNL A   1      32.629  24.135  23.896  1.00  0.00    -0.327 N 
ATOM     11  H   UNL A   1      33.622  24.020  24.098  1.00  0.00     0.348 HD
BRANCH  10  12
ATOM     12  C   UNL A   1      32.342  24.637  22.524  1.00  0.00     0.259 C 
ATOM     13  C   UNL A   1      33.278  25.645  21.870  1.00  0.00     0.071 C 
ENDBRANCH  10  12
BRANCH  10  14
ATOM     14  C   UNL A   1      32.247  25.209  24.898  1.00  0.00     0.194 C 
ATOM     15  C   UNL A   1      30.851  25.816  24.572  1.00  0.00     0.134 C 
ATOM     16  C   UNL A   1      33.265  26.116  25.651  1.00  0.00     0.073 C 
ATOM     17  S   UNL A   1      30.654  27.613  24.383  1.00  0.00    -0.155 SA
ATOM     18  C   UNL A   1      33.171  27.668  25.602  1.00  0.00    -0.021 C 
ATOM     19  C   UNL A   1      31.721  28.165  25.722  1.00  0.00     0.076 C 
ATOM     20  C   UNL A   1      33.857  28.269  24.363  1.00  0.00     0.012 C 
ATOM     21  C   UNL A   1      33.938  28.230  26.828  1.00  0.00     0.012 C 
ENDBRANCH  10  14
ENDBRANCH   6  10
ENDBRANCH   3   5
ENDBRANCH   2   3
ENDBRANCH   1   2
BRANCH   1  22
ATOM     22  C   UNL A   1      37.404  21.328  24.615  1.00  0.00     0.275 C 
BRANCH  22  23
ATOM     23  O   UNL A   1      37.737  21.504  26.008  1.00  0.00    -0.458 OA
BRANCH  23  24
ATOM     24  C   UNL A   1      39.063  21.439  26.241  1.00  0.00     0.338 C 
ATOM     25  O   UNL A   1      39.802  20.515  25.954  1.00  0.00    -0.246 OA
BRANCH  24  26
ATOM     26  C   UNL A   1      39.629  22.668  26.792  1.00  0.00     0.060 A 
ATOM     27  C   UNL A   1      39.170  23.861  26.233  1.00  0.00     0.016 A 
ATOM     28  C   UNL A   1      40.751  22.653  27.619  1.00  0.00     0.016 A 
ATOM     29  C   UNL A   1      39.865  25.039  26.439  1.00  0.00     0.010 A 
ATOM     30  C   UNL A   1      41.411  23.858  27.889  1.00  0.00     0.010 A 
ATOM     31  C   UNL A   1      40.979  25.053  27.285  1.00  0.00    -0.014 A 
BRANCH  31  32
ATOM     32  C   UNL A   1      41.636  26.350  27.558  1.00  0.00     0.031 A 
ATOM     33  C   UNL A   1      40.964  27.401  28.387  1.00  0.00     0.074 A 
ATOM     34  C   UNL A   1      42.885  26.536  27.096  1.00  0.00     0.049 A 
ATOM     35  N   UNL A   1      41.385  28.603  28.689  1.00  0.00    -0.248 NA
ATOM     36  C   UNL A   1      39.651  27.063  28.957  1.00  0.00     0.031 C 
ATOM     37  C   UNL A   1      43.648  25.553  26.322  1.00  0.00     0.029 A 
ATOM     38  N   UNL A   1      43.741  27.597  27.223  1.00  0.00    -0.354 N 
ATOM     39  C   UNL A   1      40.383  29.174  29.462  1.00  0.00     0.074 A 
ATOM     40  C   UNL A   1      39.332  28.186  29.588  1.00  0.00     0.031 C 
ATOM     41  C   UNL A   1      44.869  26.045  26.071  1.00  0.00     0.029 A 
ATOM     42  C   UNL A   1      44.949  27.399  26.604  1.00  0.00     0.049 A 
ATOM     43  H   UNL A   1      43.512  28.421  27.712  1.00  0.00     0.167 HD
ATOM     44  C   UNL A   1      40.350  30.413  30.005  1.00  0.00     0.037 A 
ATOM     45  C   UNL A   1      45.994  28.230  26.453  1.00  0.00     0.037 A 
ATOM     46  C   UNL A   1      41.410  31.381  29.884  1.00  0.00     0.049 A 
ATOM     47  C   UNL A   1      45.912  29.611  27.030  1.00  0.00     0.074 A 
ATOM     48  C   UNL A   1      41.470  32.667  30.391  1.00  0.00     0.029 A 
ATOM     49  N   UNL A   1      42.600  31.164  29.204  1.00  0.00    -0.354 N 
ATOM     50  N   UNL A   1      44.944  30.155  27.726  1.00  0.00    -0.248 NA
ATOM     51  C   UNL A   1      47.056  30.497  26.787  1.00  0.00     0.031 C 
ATOM     52  C   UNL A   1      42.683  33.241  29.993  1.00  0.00     0.029 A 
ATOM     53  C   UNL A   1      43.393  32.300  29.264  1.00  0.00     0.049 A 
ATOM     54  H   UNL A   1      42.846  30.328  28.747  1.00  0.00     0.167 HD
ATOM     55  C   UNL A   1      45.356  31.449  27.999  1.00  0.00     0.074 A 
ATOM     56  C   UNL A   1      46.675  31.600  27.419  1.00  0.00     0.031 C 
ATOM     57  C   UNL A   1      44.696  32.428  28.664  1.00  0.00     0.037 A 
BRANCH  44  58
ATOM     58  C   UNL A   1      39.112  30.814  30.747  1.00  0.00     0.064 A 
ATOM     59  C   UNL A   1      38.003  31.363  30.090  1.00  0.00     0.173 A 
ATOM     60  C   UNL A   1      39.019  30.596  32.130  1.00  0.00     0.173 A 
ATOM     61  F   UNL A   1      38.050  31.603  28.770  1.00  0.00    -0.203 F 
ATOM     62  C   UNL A   1      36.846  31.690  30.793  1.00  0.00     0.198 A 
ATOM     63  C   UNL A   1      37.854  30.907  32.827  1.00  0.00     0.198 A 
ATOM     64  F   UNL A   1      40.053  30.070  32.803  1.00  0.00    -0.203 F 
ATOM     65  F   UNL A   1      35.804  32.236  30.151  1.00  0.00    -0.200 F 
ATOM     66  C   UNL A   1      36.770  31.456  32.158  1.00  0.00     0.200 A 
ATOM     67  F   UNL A   1      37.780  30.674  34.144  1.00  0.00    -0.200 F 
ATOM     68  F   UNL A   1      35.652  31.762  32.832  1.00  0.00    -0.200 F 
ENDBRANCH  44  58
BRANCH  45  69
ATOM     69  C   UNL A   1      47.178  27.777  25.683  1.00  0.00     0.064 A 
ATOM     70  C   UNL A   1      47.187  27.814  24.283  1.00  0.00     0.173 A 
ATOM     71  C   UNL A   1      48.340  27.339  26.337  1.00  0.00     0.173 A 
ATOM     72  F   UNL A   1      46.093  28.206  23.615  1.00  0.00    -0.203 F 
ATOM     73  C   UNL A   1      48.317  27.428  23.566  1.00  0.00     0.198 A 
ATOM     74  C   UNL A   1      49.476  26.978  25.620  1.00  0.00     0.198 A 
ATOM     75  F   UNL A   1      48.377  27.289  27.677  1.00  0.00    -0.203 F 
ATOM     76  F   UNL A   1      48.295  27.446  22.226  1.00  0.00    -0.200 F 
ATOM     77  C   UNL A   1      49.463  27.019  24.233  1.00  0.00     0.200 A 
ATOM     78  F   UNL A   1      50.584  26.598  26.269  1.00  0.00    -0.200 F 
ATOM     79  F   UNL A   1      50.553  26.661  23.542  1.00  0.00    -0.200 F 
ENDBRANCH  45  69
BRANCH  57  80
ATOM     80  C   UNL A   1      45.396  33.745  28.787  1.00  0.00     0.064 A 
ATOM     81  C   UNL A   1      46.232  34.022  29.878  1.00  0.00     0.173 A 
ATOM     82  C   UNL A   1      45.245  34.729  27.800  1.00  0.00     0.173 A 
ATOM     83  F   UNL A   1      46.390  33.117  30.855  1.00  0.00    -0.203 F 
ATOM     84  C   UNL A   1      46.878  35.250  29.986  1.00  0.00     0.198 A 
ATOM     85  C   UNL A   1      45.908  35.948  27.902  1.00  0.00     0.198 A 
ATOM     86  F   UNL A   1      44.456  34.506  26.738  1.00  0.00    -0.203 F 
ATOM     87  F   UNL A   1      47.641  35.512  31.056  1.00  0.00    -0.200 F 
ATOM     88  C   UNL A   1      46.719  36.210  28.997  1.00  0.00     0.200 A 
ATOM     89  F   UNL A   1      45.758  36.873  26.944  1.00  0.00    -0.200 F 
ATOM     90  F   UNL A   1      47.340  37.392  29.104  1.00  0.00    -0.200 F 
ENDBRANCH  57  80
ENDBRANCH  31  32
ENDBRANCH  24  26
ENDBRANCH  23  24
ENDBRANCH  22  23
ENDBRANCH   1  22
TORSDOF 14
ENDMDL
MODEL 3
REMARK VINA RESULT:     -11.2      4.571      9.691
REMARK SMILES CC[N@@H+]([C@@H]1CSCC(C)(C)C1)[C@@H]1COC[C@@H]1C(=O)OCCOC(=O)c1ccc(-c2c3nc(c(-c4c(F)c(F)c(F)c(F)c4F)c4ccc([nH]4)c(-c4c(F)c(F)c(F)c(F)c4F)c4nc(c(-c5c(F)c(F)c(F)c(F)c5F)c5ccc2[nH]5)C=C4)C=C3)cc1
REMARK SMILES IDX 20 1 19 2 17 3 18 4 16 5 12 6 13 7 14 8 15 9 3 10 2 12 1 13
REMARK SMILES IDX 4 14 5 15 11 16 6 17 8 18 7 19 9 20 10 21 21 22 22 23 23 24
REMARK SMILES IDX 24 25 25 26 26 27 87 28 27 29 86 30 28 31 29 32 30 33 80 34
REMARK SMILES IDX 31 35 85 36 79 37 81 38 32 39 84 40 78 41 77 42 33 44 65 45
REMARK SMILES IDX 45 46 64 47 46 48 49 49 63 50 82 51 47 52 48 53 62 55 83 56
REMARK SMILES IDX 50 57 34 58 35 59 43 60 36 61 37 62 41 63 44 64 38 65 39 66
REMARK SMILES IDX 42 67 40 68 66 69 67 70 75 71 68 72 69 73 73 74 76 75 70 76
REMARK SMILES IDX 71 77 74 78 72 79 51 80 52 81 60 82 53 83 54 84 58 85 61 86
REMARK SMILES IDX 55 87 56 88 59 89 57 90
REMARK H PARENT 3 11 81 43 49 54
REMARK Flexibility Score: inf
ROOT
ATOM      1  C   UNL A   1      31.228  29.586  25.010  1.00  0.00     0.274 C 
ENDROOT
BRANCH   1   2
ATOM      2  O   UNL A   1      32.249  29.111  24.101  1.00  0.00    -0.462 OA
BRANCH   2   3
ATOM      3  C   UNL A   1      32.476  27.767  24.095  1.00  0.00     0.317 C 
ATOM      4  O   UNL A   1      33.600  27.283  24.203  1.00  0.00    -0.252 OA
BRANCH   3   5
ATOM      5  C   UNL A   1      31.229  26.956  23.756  1.00  0.00     0.185 C 
ATOM      6  C   UNL A   1      31.337  25.419  23.567  1.00  0.00     0.227 C 
ATOM      7  C   UNL A   1      31.841  25.375  22.121  1.00  0.00     0.226 C 
ATOM      8  O   UNL A   1      31.319  26.516  21.420  1.00  0.00    -0.374 OA
ATOM      9  C   UNL A   1      30.725  27.390  22.381  1.00  0.00     0.182 C 
BRANCH   6  10
ATOM     10  N   UNL A   1      31.977  24.634  24.639  1.00  0.00    -0.327 N 
ATOM     11  H   UNL A   1      32.670  25.353  24.847  1.00  0.00     0.348 HD
BRANCH  10  12
ATOM     12  C   UNL A   1      31.072  24.316  25.777  1.00  0.00     0.259 C 
ATOM     13  C   UNL A   1      29.907  25.240  26.106  1.00  0.00     0.071 C 
ENDBRANCH  10  12
BRANCH  10  14
ATOM     14  C   UNL A   1      32.868  23.434  24.375  1.00  0.00     0.194 C 
ATOM     15  C   UNL A   1      32.552  22.268  25.358  1.00  0.00     0.134 C 
ATOM     16  C   UNL A   1      34.314  23.516  23.802  1.00  0.00     0.073 C 
ATOM     17  S   UNL A   1      33.877  21.521  26.351  1.00  0.00    -0.155 SA
ATOM     18  C   UNL A   1      35.524  22.874  24.539  1.00  0.00    -0.021 C 
ATOM     19  C   UNL A   1      35.185  21.489  25.114  1.00  0.00     0.076 C 
ATOM     20  C   UNL A   1      36.117  23.789  25.624  1.00  0.00     0.012 C 
ATOM     21  C   UNL A   1      36.655  22.659  23.499  1.00  0.00     0.012 C 
ENDBRANCH  10  14
ENDBRANCH   6  10
ENDBRANCH   3   5
ENDBRANCH   2   3
ENDBRANCH   1   2
BRANCH   1  22
ATOM     22  C   UNL A   1      31.773  30.474  26.140  1.00  0.00     0.275 C 
BRANCH  22  23
ATOM     23  O   UNL A   1      33.211  30.435  26.259  1.00  0.00    -0.458 OA
BRANCH  23  24
ATOM     24  C   UNL A   1      33.688  31.341  27.135  1.00  0.00     0.338 C 
ATOM     25  O   UNL A   1      33.093  32.315  27.562  1.00  0.00    -0.246 OA
BRANCH  24  26
ATOM     26  C   UNL A   1      35.007  31.012  27.671  1.00  0.00     0.060 A 
ATOM     27  C   UNL A   1      35.201  29.685  28.054  1.00  0.00     0.016 A 
ATOM     28  C   UNL A   1      35.918  32.001  28.037  1.00  0.00     0.016 A 
ATOM     29  C   UNL A   1      36.268  29.343  28.864  1.00  0.00     0.010 A 
ATOM     30  C   UNL A   1      37.039  31.643  28.794  1.00  0.00     0.010 A 
ATOM     31  C   UNL A   1      37.209  30.315  29.224  1.00  0.00    -0.014 A 
BRANCH  31  32
ATOM     32  C   UNL A   1      38.389  29.889  30.009  1.00  0.00     0.031 A 
ATOM     33  C   UNL A   1      39.417  28.969  29.428  1.00  0.00     0.074 A 
ATOM     34  C   UNL A   1      38.550  30.407  31.240  1.00  0.00     0.049 A 
ATOM     35  N   UNL A   1      40.488  28.472  29.992  1.00  0.00    -0.248 NA
ATOM     36  C   UNL A   1      39.226  28.552  28.030  1.00  0.00     0.031 C 
ATOM     37  C   UNL A   1      37.632  31.354  31.879  1.00  0.00     0.029 A 
ATOM     38  N   UNL A   1      39.544  30.232  32.165  1.00  0.00    -0.354 N 
ATOM     39  C   UNL A   1      41.086  27.667  29.032  1.00  0.00     0.074 A 
ATOM     40  C   UNL A   1      40.261  27.743  27.844  1.00  0.00     0.031 C 
ATOM     41  C   UNL A   1      38.121  31.700  33.076  1.00  0.00     0.029 A 
ATOM     42  C   UNL A   1      39.347  30.949  33.318  1.00  0.00     0.049 A 
ATOM     43  H   UNL A   1      40.324  29.649  32.016  1.00  0.00     0.167 HD
ATOM     44  C   UNL A   1      42.215  26.929  29.144  1.00  0.00     0.037 A 
ATOM     45  C   UNL A   1      40.058  30.972  34.458  1.00  0.00     0.037 A 
ATOM     46  C   UNL A   1      43.034  26.873  30.328  1.00  0.00     0.049 A 
ATOM     47  C   UNL A   1      41.281  30.113  34.568  1.00  0.00     0.074 A 
ATOM     48  C   UNL A   1      44.194  26.150  30.545  1.00  0.00     0.029 A 
ATOM     49  N   UNL A   1      42.775  27.574  31.498  1.00  0.00    -0.354 N 
ATOM     50  N   UNL A   1      41.816  29.325  33.668  1.00  0.00    -0.248 NA
ATOM     51  C   UNL A   1      41.987  30.132  35.854  1.00  0.00     0.031 C 
ATOM     52  C   UNL A   1      44.621  26.388  31.857  1.00  0.00     0.029 A 
ATOM     53  C   UNL A   1      43.745  27.286  32.446  1.00  0.00     0.049 A 
ATOM     54  H   UNL A   1      42.017  28.185  31.634  1.00  0.00     0.167 HD
ATOM     55  C   UNL A   1      42.918  28.748  34.277  1.00  0.00     0.074 A 
ATOM     56  C   UNL A   1      42.991  29.298  35.616  1.00  0.00     0.031 C 
ATOM     57  C   UNL A   1      43.786  27.836  33.776  1.00  0.00     0.037 A 
BRANCH  44  58
ATOM     58  C   UNL A   1      42.614  26.086  27.972  1.00  0.00     0.064 A 
ATOM     59  C   UNL A   1      42.080  24.807  27.766  1.00  0.00     0.173 A 
ATOM     60  C   UNL A   1      43.507  26.591  27.014  1.00  0.00     0.173 A 
ATOM     61  F   UNL A   1      41.233  24.277  28.662  1.00  0.00    -0.203 F 
ATOM     62  C   UNL A   1      42.433  24.057  26.646  1.00  0.00     0.198 A 
ATOM     63  C   UNL A   1      43.844  25.845  25.887  1.00  0.00     0.198 A 
ATOM     64  F   UNL A   1      44.043  27.811  27.166  1.00  0.00    -0.203 F 
ATOM     65  F   UNL A   1      41.930  22.826  26.479  1.00  0.00    -0.200 F 
ATOM     66  C   UNL A   1      43.309  24.579  25.705  1.00  0.00     0.200 A 
ATOM     67  F   UNL A   1      44.684  26.354  24.976  1.00  0.00    -0.200 F 
ATOM     68  F   UNL A   1      43.640  23.860  24.624  1.00  0.00    -0.200 F 
ENDBRANCH  44  58
BRANCH  45  69
ATOM     69  C   UNL A   1      39.590  31.809  35.589  1.00  0.00     0.064 A 
ATOM     70  C   UNL A   1      40.059  33.117  35.763  1.00  0.00     0.173 A 
ATOM     71  C   UNL A   1      38.629  31.329  36.493  1.00  0.00     0.173 A 
ATOM     72  F   UNL A   1      40.991  33.610  34.936  1.00  0.00    -0.203 F 
ATOM     73  C   UNL A   1      39.584  33.914  36.803  1.00  0.00     0.198 A 
ATOM     74  C   UNL A   1      38.138  32.135  37.515  1.00  0.00     0.198 A 
ATOM     75  F   UNL A   1      38.150  30.083  36.364  1.00  0.00    -0.203 F 
ATOM     76  F   UNL A   1      40.066  35.154  36.966  1.00  0.00    -0.200 F 
ATOM     77  C   UNL A   1      38.618  33.427  37.672  1.00  0.00     0.200 A 
ATOM     78  F   UNL A   1      37.195  31.666  38.343  1.00  0.00    -0.200 F 
ATOM     79  F   UNL A   1      38.153  34.199  38.662  1.00  0.00    -0.200 F 
ENDBRANCH  45  69
BRANCH  57  80
ATOM     80  C   UNL A   1      44.880  27.379  34.689  1.00  0.00     0.064 A 
ATOM     81  C   UNL A   1      46.101  28.064  34.756  1.00  0.00     0.173 A 
ATOM     82  C   UNL A   1      44.700  26.260  35.515  1.00  0.00     0.173 A 
ATOM     83  F   UNL A   1      46.323  29.128  33.969  1.00  0.00    -0.203 F 
ATOM     84  C   UNL A   1      47.115  27.632  35.605  1.00  0.00     0.198 A 
ATOM     85  C   UNL A   1      45.710  25.843  36.377  1.00  0.00     0.198 A 
ATOM     86  F   UNL A   1      43.548  25.576  35.484  1.00  0.00    -0.203 F 
ATOM     87  F   UNL A   1      48.290  28.276  35.626  1.00  0.00    -0.200 F 
ATOM     88  C   UNL A   1      46.917  26.525  36.417  1.00  0.00     0.200 A 
ATOM     89  F   UNL A   1      45.517  24.776  37.165  1.00  0.00    -0.200 F 
ATOM     90  F   UNL A   1      47.895  26.109  37.233  1.00  0.00    -0.200 F 
ENDBRANCH  57  80
ENDBRANCH  31  32
ENDBRANCH  24  26
ENDBRANCH  23  24
ENDBRANCH  22  23
ENDBRANCH   1  22
TORSDOF 14
ENDMDL
