MODEL 1
REMARK VINA RESULT:     -12.8      0.000      0.000
REMARK SMILES C[C@@]1(CN2C(=O)c3ccc(C(=O)OCCOC(=O)c4ccc(-c5c6nc(c(-c7c(F)c(F)c(F)c(F)c7F)c7ccc([nH]7)c(-c7c(F)c(F)c(F)c(F)c7F)c7nc(c(-c8c(F)c(F)c(F)c(F)c8F)c8ccc5[nH]8)C=C7)C=C6)cc4)cc3C2=O)CCCO1
REMARK SMILES IDX 14 1 13 2 11 3 12 4 10 5 4 6 5 7 84 8 6 9 7 10 83 11 85 12
REMARK SMILES IDX 8 13 82 14 9 15 3 16 2 17 1 18 86 19 89 20 87 21 88 22 15 23
REMARK SMILES IDX 16 24 17 25 18 26 19 27 20 28 81 29 21 30 80 31 22 32 23 33
REMARK SMILES IDX 24 34 74 35 25 36 79 37 73 38 75 39 26 40 78 41 72 42 71 43
REMARK SMILES IDX 27 45 59 46 39 47 58 48 40 49 43 50 57 51 76 52 41 53 42 54
REMARK SMILES IDX 56 56 77 57 44 58 28 59 29 60 37 61 30 62 31 63 35 64 38 65
REMARK SMILES IDX 32 66 33 67 36 68 34 69 60 70 61 71 69 72 62 73 63 74 67 75
REMARK SMILES IDX 70 76 64 77 65 78 68 79 66 80 45 81 46 82 54 83 47 84 48 85
REMARK SMILES IDX 52 86 55 87 49 88 50 89 53 90 51 91
REMARK H PARENT 75 44 43 55
REMARK Flexibility Score: inf
ROOT
ATOM      1  C   UNL A   1      42.913  21.017  26.038  1.00  0.00     0.275 C 
ENDROOT
BRANCH   1   2
ATOM      2  O   UNL A   1      41.557  21.336  25.657  1.00  0.00    -0.458 OA
BRANCH   2   3
ATOM      3  C   UNL A   1      40.620  21.213  26.628  1.00  0.00     0.338 C 
ATOM      4  O   UNL A   1      40.777  20.709  27.729  1.00  0.00    -0.246 OA
BRANCH   3   5
ATOM      5  C   UNL A   1      39.361  21.907  26.248  1.00  0.00     0.060 A 
ATOM      6  N   UNL A   1      35.018  22.215  24.775  1.00  0.00    -0.271 N 
ATOM      7  C   UNL A   1      35.556  23.387  25.241  1.00  0.00     0.261 C 
ATOM      8  C   UNL A   1      35.900  21.176  24.884  1.00  0.00     0.261 C 
ATOM      9  O   UNL A   1      35.046  24.484  25.338  1.00  0.00    -0.269 OA
ATOM     10  C   UNL A   1      36.933  23.086  25.637  1.00  0.00     0.053 A 
ATOM     11  C   UNL A   1      37.145  21.748  25.385  1.00  0.00     0.054 A 
ATOM     12  O   UNL A   1      35.738  19.984  24.698  1.00  0.00    -0.269 OA
ATOM     13  C   UNL A   1      37.924  23.889  26.173  1.00  0.00     0.015 A 
ATOM     14  C   UNL A   1      38.358  21.142  25.633  1.00  0.00     0.030 A 
ATOM     15  C   UNL A   1      39.148  23.282  26.502  1.00  0.00     0.016 A 
BRANCH   6  16
ATOM     16  C   UNL A   1      33.665  22.077  24.257  1.00  0.00     0.164 C 
BRANCH  16  17
ATOM     17  C   UNL A   1      32.658  21.509  25.295  1.00  0.00     0.084 C 
ATOM     18  C   UNL A   1      32.278  20.058  24.997  1.00  0.00     0.044 C 
ATOM     19  C   UNL A   1      31.406  22.389  25.384  1.00  0.00     0.039 C 
ATOM     20  O   UNL A   1      33.256  21.551  26.610  1.00  0.00    -0.373 OA
ATOM     21  C   UNL A   1      31.772  23.396  26.446  1.00  0.00     0.031 C 
ATOM     22  C   UNL A   1      32.628  22.580  27.387  1.00  0.00     0.161 C 
ENDBRANCH  16  17
ENDBRANCH   6  16
ENDBRANCH   3   5
ENDBRANCH   2   3
ENDBRANCH   1   2
BRANCH   1  23
ATOM     23  C   UNL A   1      43.930  21.904  25.313  1.00  0.00     0.275 C 
BRANCH  23  24
ATOM     24  O   UNL A   1      43.296  23.091  24.796  1.00  0.00    -0.458 OA
BRANCH  24  25
ATOM     25  C   UNL A   1      43.940  24.246  25.072  1.00  0.00     0.338 C 
ATOM     26  O   UNL A   1      44.995  24.641  24.605  1.00  0.00    -0.246 OA
BRANCH  25  27
ATOM     27  C   UNL A   1      43.117  25.097  25.940  1.00  0.00     0.060 A 
ATOM     28  C   UNL A   1      43.498  26.428  26.047  1.00  0.00     0.016 A 
ATOM     29  C   UNL A   1      42.167  24.574  26.811  1.00  0.00     0.016 A 
ATOM     30  C   UNL A   1      43.048  27.211  27.103  1.00  0.00     0.010 A 
ATOM     31  C   UNL A   1      41.619  25.401  27.804  1.00  0.00     0.010 A 
ATOM     32  C   UNL A   1      42.098  26.713  28.003  1.00  0.00    -0.014 A 
BRANCH  32  33
ATOM     33  C   UNL A   1      41.681  27.546  29.173  1.00  0.00     0.031 A 
ATOM     34  C   UNL A   1      42.464  27.505  30.463  1.00  0.00     0.074 A 
ATOM     35  C   UNL A   1      40.631  28.386  29.076  1.00  0.00     0.049 A 
ATOM     36  N   UNL A   1      42.202  28.072  31.617  1.00  0.00    -0.248 NA
ATOM     37  C   UNL A   1      43.694  26.701  30.464  1.00  0.00     0.031 C 
ATOM     38  C   UNL A   1      39.797  28.563  27.887  1.00  0.00     0.029 A 
ATOM     39  N   UNL A   1      40.092  29.261  29.990  1.00  0.00    -0.354 N 
ATOM     40  C   UNL A   1      43.195  27.642  32.489  1.00  0.00     0.074 A 
ATOM     41  C   UNL A   1      44.052  26.750  31.738  1.00  0.00     0.031 C 
ATOM     42  C   UNL A   1      38.887  29.518  28.124  1.00  0.00     0.029 A 
ATOM     43  C   UNL A   1      39.007  29.954  29.511  1.00  0.00     0.049 A 
ATOM     44  H   UNL A   1      40.448  29.378  30.900  1.00  0.00     0.167 HD
ATOM     45  C   UNL A   1      43.380  27.964  33.794  1.00  0.00     0.037 A 
ATOM     46  C   UNL A   1      38.170  30.815  30.120  1.00  0.00     0.037 A 
ATOM     47  C   UNL A   1      42.560  28.898  34.526  1.00  0.00     0.049 A 
ATOM     48  C   UNL A   1      38.390  31.156  31.566  1.00  0.00     0.074 A 
ATOM     49  C   UNL A   1      42.691  29.319  35.838  1.00  0.00     0.029 A 
ATOM     50  N   UNL A   1      41.457  29.563  34.005  1.00  0.00    -0.354 N 
ATOM     51  N   UNL A   1      39.313  30.723  32.388  1.00  0.00    -0.248 NA
ATOM     52  C   UNL A   1      37.444  32.104  32.171  1.00  0.00     0.031 C 
ATOM     53  C   UNL A   1      41.635  30.191  36.129  1.00  0.00     0.029 A 
ATOM     54  C   UNL A   1      40.886  30.371  34.979  1.00  0.00     0.049 A 
ATOM     55  H   UNL A   1      41.130  29.475  33.082  1.00  0.00     0.167 HD
ATOM     56  C   UNL A   1      39.071  31.353  33.601  1.00  0.00     0.074 A 
ATOM     57  C   UNL A   1      37.927  32.217  33.399  1.00  0.00     0.031 C 
ATOM     58  C   UNL A   1      39.738  31.222  34.776  1.00  0.00     0.037 A 
BRANCH  45  59
ATOM     59  C   UNL A   1      44.485  27.254  34.532  1.00  0.00     0.064 A 
ATOM     60  C   UNL A   1      45.786  27.771  34.620  1.00  0.00     0.173 A 
ATOM     61  C   UNL A   1      44.231  26.022  35.157  1.00  0.00     0.173 A 
ATOM     62  F   UNL A   1      46.089  28.940  34.036  1.00  0.00    -0.203 F 
ATOM     63  C   UNL A   1      46.801  27.059  35.256  1.00  0.00     0.198 A 
ATOM     64  C   UNL A   1      45.238  25.331  35.827  1.00  0.00     0.198 A 
ATOM     65  F   UNL A   1      43.003  25.483  35.118  1.00  0.00    -0.203 F 
ATOM     66  F   UNL A   1      48.053  27.538  35.259  1.00  0.00    -0.200 F 
ATOM     67  C   UNL A   1      46.526  25.843  35.862  1.00  0.00     0.200 A 
ATOM     68  F   UNL A   1      44.965  24.165  36.428  1.00  0.00    -0.200 F 
ATOM     69  F   UNL A   1      47.504  25.157  36.469  1.00  0.00    -0.200 F 
ENDBRANCH  45  59
BRANCH  46  70
ATOM     70  C   UNL A   1      37.024  31.378  29.358  1.00  0.00     0.064 A 
ATOM     71  C   UNL A   1      35.911  30.595  29.028  1.00  0.00     0.173 A 
ATOM     72  C   UNL A   1      37.009  32.729  28.975  1.00  0.00     0.173 A 
ATOM     73  F   UNL A   1      35.889  29.292  29.345  1.00  0.00    -0.203 F 
ATOM     74  C   UNL A   1      34.827  31.141  28.341  1.00  0.00     0.198 A 
ATOM     75  C   UNL A   1      35.911  33.282  28.322  1.00  0.00     0.198 A 
ATOM     76  F   UNL A   1      38.051  33.522  29.266  1.00  0.00    -0.203 F 
ATOM     77  F   UNL A   1      33.791  30.362  28.004  1.00  0.00    -0.200 F 
ATOM     78  C   UNL A   1      34.822  32.486  28.001  1.00  0.00     0.200 A 
ATOM     79  F   UNL A   1      35.904  34.585  28.013  1.00  0.00    -0.200 F 
ATOM     80  F   UNL A   1      33.771  33.014  27.359  1.00  0.00    -0.200 F 
ENDBRANCH  46  70
BRANCH  58  81
ATOM     81  C   UNL A   1      39.264  32.066  35.926  1.00  0.00     0.064 A 
ATOM     82  C   UNL A   1      38.308  31.601  36.843  1.00  0.00     0.173 A 
ATOM     83  C   UNL A   1      39.772  33.361  36.112  1.00  0.00     0.173 A 
ATOM     84  F   UNL A   1      37.778  30.377  36.705  1.00  0.00    -0.203 F 
ATOM     85  C   UNL A   1      37.848  32.418  37.873  1.00  0.00     0.198 A 
ATOM     86  C   UNL A   1      39.336  34.160  37.165  1.00  0.00     0.198 A 
ATOM     87  F   UNL A   1      40.694  33.854  35.270  1.00  0.00    -0.203 F 
ATOM     88  F   UNL A   1      36.883  31.978  38.694  1.00  0.00    -0.200 F 
ATOM     89  C   UNL A   1      38.365  33.694  38.037  1.00  0.00     0.200 A 
ATOM     90  F   UNL A   1      39.850  35.388  37.329  1.00  0.00    -0.200 F 
ATOM     91  F   UNL A   1      37.918  34.479  39.026  1.00  0.00    -0.200 F 
ENDBRANCH  58  81
ENDBRANCH  32  33
ENDBRANCH  25  27
ENDBRANCH  24  25
ENDBRANCH  23  24
ENDBRANCH   1  23
TORSDOF 13
ENDMDL
MODEL 2
REMARK VINA RESULT:     -12.6      3.264      8.442
REMARK SMILES C[C@@]1(CN2C(=O)c3ccc(C(=O)OCCOC(=O)c4ccc(-c5c6nc(c(-c7c(F)c(F)c(F)c(F)c7F)c7ccc([nH]7)c(-c7c(F)c(F)c(F)c(F)c7F)c7nc(c(-c8c(F)c(F)c(F)c(F)c8F)c8ccc5[nH]8)C=C7)C=C6)cc4)cc3C2=O)CCCO1
REMARK SMILES IDX 14 1 13 2 11 3 12 4 10 5 4 6 5 7 84 8 6 9 7 10 83 11 85 12
REMARK SMILES IDX 8 13 82 14 9 15 3 16 2 17 1 18 86 19 89 20 87 21 88 22 15 23
REMARK SMILES IDX 16 24 17 25 18 26 19 27 20 28 81 29 21 30 80 31 22 32 23 33
REMARK SMILES IDX 24 34 74 35 25 36 79 37 73 38 75 39 26 40 78 41 72 42 71 43
REMARK SMILES IDX 27 45 59 46 39 47 58 48 40 49 43 50 57 51 76 52 41 53 42 54
REMARK SMILES IDX 56 56 77 57 44 58 28 59 29 60 37 61 30 62 31 63 35 64 38 65
REMARK SMILES IDX 32 66 33 67 36 68 34 69 60 70 61 71 69 72 62 73 63 74 67 75
REMARK SMILES IDX 70 76 64 77 65 78 68 79 66 80 45 81 46 82 54 83 47 84 48 85
REMARK SMILES IDX 52 86 55 87 49 88 50 89 53 90 51 91
REMARK H PARENT 75 44 43 55
REMARK Flexibility Score: inf
ROOT
ATOM      1  C   UNL A   1      31.319  29.695  24.728  1.00  0.00     0.275 C 
ENDROOT
BRANCH   1   2
ATOM      2  O   UNL A   1      30.179  29.950  23.879  1.00  0.00    -0.458 OA
BRANCH   2   3
ATOM      3  C   UNL A   1      30.076  29.177  22.770  1.00  0.00     0.338 C 
ATOM      4  O   UNL A   1      29.936  29.568  21.623  1.00  0.00    -0.246 OA
BRANCH   3   5
ATOM      5  C   UNL A   1      30.297  27.743  23.096  1.00  0.00     0.060 A 
ATOM      6  N   UNL A   1      32.596  23.764  23.177  1.00  0.00    -0.271 N 
ATOM      7  C   UNL A   1      31.455  23.789  23.935  1.00  0.00     0.261 C 
ATOM      8  C   UNL A   1      32.828  24.968  22.573  1.00  0.00     0.261 C 
ATOM      9  O   UNL A   1      30.977  22.921  24.637  1.00  0.00    -0.269 OA
ATOM     10  C   UNL A   1      30.865  25.118  23.760  1.00  0.00     0.053 A 
ATOM     11  C   UNL A   1      31.688  25.817  22.905  1.00  0.00     0.054 A 
ATOM     12  O   UNL A   1      33.792  25.360  21.941  1.00  0.00    -0.269 OA
ATOM     13  C   UNL A   1      29.721  25.686  24.293  1.00  0.00     0.015 A 
ATOM     14  C   UNL A   1      31.408  27.109  22.516  1.00  0.00     0.030 A 
ATOM     15  C   UNL A   1      29.448  27.026  23.970  1.00  0.00     0.016 A 
BRANCH   6  16
ATOM     16  C   UNL A   1      33.478  22.612  23.049  1.00  0.00     0.164 C 
BRANCH  16  17
ATOM     17  C   UNL A   1      34.677  22.637  24.037  1.00  0.00     0.084 C 
ATOM     18  C   UNL A   1      35.985  23.023  23.348  1.00  0.00     0.044 C 
ATOM     19  C   UNL A   1      34.821  21.292  24.759  1.00  0.00     0.039 C 
ATOM     20  O   UNL A   1      34.418  23.608  25.076  1.00  0.00    -0.373 OA
ATOM     21  C   UNL A   1      33.949  21.463  25.977  1.00  0.00     0.031 C 
ATOM     22  C   UNL A   1      34.132  22.928  26.305  1.00  0.00     0.161 C 
ENDBRANCH  16  17
ENDBRANCH   6  16
ENDBRANCH   3   5
ENDBRANCH   2   3
ENDBRANCH   1   2
BRANCH   1  23
ATOM     23  C   UNL A   1      31.425  30.721  25.859  1.00  0.00     0.275 C 
BRANCH  23  24
ATOM     24  O   UNL A   1      32.583  30.463  26.678  1.00  0.00    -0.458 OA
BRANCH  24  25
ATOM     25  C   UNL A   1      33.177  31.565  27.186  1.00  0.00     0.338 C 
ATOM     26  O   UNL A   1      32.664  32.643  27.432  1.00  0.00    -0.246 OA
BRANCH  25  27
ATOM     27  C   UNL A   1      34.564  31.267  27.571  1.00  0.00     0.060 A 
ATOM     28  C   UNL A   1      34.866  29.936  27.820  1.00  0.00     0.016 A 
ATOM     29  C   UNL A   1      35.469  32.264  27.921  1.00  0.00     0.016 A 
ATOM     30  C   UNL A   1      36.002  29.591  28.543  1.00  0.00     0.010 A 
ATOM     31  C   UNL A   1      36.675  31.906  28.543  1.00  0.00     0.010 A 
ATOM     32  C   UNL A   1      36.930  30.570  28.919  1.00  0.00    -0.014 A 
BRANCH  32  33
ATOM     33  C   UNL A   1      38.107  30.188  29.757  1.00  0.00     0.031 A 
ATOM     34  C   UNL A   1      39.183  29.284  29.206  1.00  0.00     0.074 A 
ATOM     35  C   UNL A   1      38.254  30.688  31.001  1.00  0.00     0.049 A 
ATOM     36  N   UNL A   1      40.222  28.758  29.810  1.00  0.00    -0.248 NA
ATOM     37  C   UNL A   1      39.062  28.899  27.793  1.00  0.00     0.031 C 
ATOM     38  C   UNL A   1      37.319  31.600  31.661  1.00  0.00     0.029 A 
ATOM     39  N   UNL A   1      39.252  30.512  31.930  1.00  0.00    -0.354 N 
ATOM     40  C   UNL A   1      40.836  27.937  28.871  1.00  0.00     0.074 A 
ATOM     41  C   UNL A   1      40.041  28.017  27.664  1.00  0.00     0.031 C 
ATOM     42  C   UNL A   1      37.806  31.941  32.861  1.00  0.00     0.029 A 
ATOM     43  C   UNL A   1      39.040  31.198  33.100  1.00  0.00     0.049 A 
ATOM     44  H   UNL A   1      40.042  29.946  31.772  1.00  0.00     0.167 HD
ATOM     45  C   UNL A   1      41.961  27.189  28.999  1.00  0.00     0.037 A 
ATOM     46  C   UNL A   1      39.729  31.207  34.256  1.00  0.00     0.037 A 
ATOM     47  C   UNL A   1      42.785  27.156  30.183  1.00  0.00     0.049 A 
ATOM     48  C   UNL A   1      40.970  30.370  34.380  1.00  0.00     0.074 A 
ATOM     49  C   UNL A   1      43.964  26.461  30.395  1.00  0.00     0.029 A 
ATOM     50  N   UNL A   1      42.520  27.853  31.354  1.00  0.00    -0.354 N 
ATOM     51  N   UNL A   1      41.525  29.578  33.498  1.00  0.00    -0.248 NA
ATOM     52  C   UNL A   1      41.678  30.427  35.666  1.00  0.00     0.031 C 
ATOM     53  C   UNL A   1      44.380  26.691  31.713  1.00  0.00     0.029 A 
ATOM     54  C   UNL A   1      43.501  27.585  32.300  1.00  0.00     0.049 A 
ATOM     55  H   UNL A   1      41.751  28.452  31.492  1.00  0.00     0.167 HD
ATOM     56  C   UNL A   1      42.652  29.050  34.112  1.00  0.00     0.074 A 
ATOM     57  C   UNL A   1      42.714  29.635  35.436  1.00  0.00     0.031 C 
ATOM     58  C   UNL A   1      43.552  28.161  33.622  1.00  0.00     0.037 A 
BRANCH  45  59
ATOM     59  C   UNL A   1      42.336  26.300  27.843  1.00  0.00     0.064 A 
ATOM     60  C   UNL A   1      43.284  26.675  26.880  1.00  0.00     0.173 A 
ATOM     61  C   UNL A   1      41.721  25.045  27.696  1.00  0.00     0.173 A 
ATOM     62  F   UNL A   1      43.899  27.864  26.964  1.00  0.00    -0.203 F 
ATOM     63  C   UNL A   1      43.563  25.856  25.787  1.00  0.00     0.198 A 
ATOM     64  C   UNL A   1      42.031  24.211  26.624  1.00  0.00     0.198 A 
ATOM     65  F   UNL A   1      40.815  24.626  28.592  1.00  0.00    -0.203 F 
ATOM     66  F   UNL A   1      44.415  26.271  24.840  1.00  0.00    -0.200 F 
ATOM     67  C   UNL A   1      42.939  24.624  25.663  1.00  0.00     0.200 A 
ATOM     68  F   UNL A   1      41.440  23.013  26.517  1.00  0.00    -0.200 F 
ATOM     69  F   UNL A   1      43.204  23.839  24.608  1.00  0.00    -0.200 F 
ENDBRANCH  45  59
BRANCH  46  70
ATOM     70  C   UNL A   1      39.224  32.015  35.399  1.00  0.00     0.064 A 
ATOM     71  C   UNL A   1      38.428  31.446  36.400  1.00  0.00     0.173 A 
ATOM     72  C   UNL A   1      39.562  33.372  35.525  1.00  0.00     0.173 A 
ATOM     73  F   UNL A   1      38.053  30.161  36.311  1.00  0.00    -0.203 F 
ATOM     74  C   UNL A   1      37.987  32.204  37.484  1.00  0.00     0.198 A 
ATOM     75  C   UNL A   1      39.151  34.118  36.626  1.00  0.00     0.198 A 
ATOM     76  F   UNL A   1      40.321  33.965  34.593  1.00  0.00    -0.203 F 
ATOM     77  F   UNL A   1      37.195  31.646  38.410  1.00  0.00    -0.200 F 
ATOM     78  C   UNL A   1      38.359  33.535  37.603  1.00  0.00     0.200 A 
ATOM     79  F   UNL A   1      39.530  35.398  36.744  1.00  0.00    -0.200 F 
ATOM     80  F   UNL A   1      37.952  34.257  38.656  1.00  0.00    -0.200 F 
ENDBRANCH  46  70
BRANCH  58  81
ATOM     81  C   UNL A   1      44.705  27.794  34.515  1.00  0.00     0.064 A 
ATOM     82  C   UNL A   1      45.902  28.527  34.520  1.00  0.00     0.173 A 
ATOM     83  C   UNL A   1      44.610  26.690  35.376  1.00  0.00     0.173 A 
ATOM     84  F   UNL A   1      46.052  29.583  33.708  1.00  0.00    -0.203 F 
ATOM     85  C   UNL A   1      46.975  28.139  35.321  1.00  0.00     0.198 A 
ATOM     86  C   UNL A   1      45.672  26.329  36.201  1.00  0.00     0.198 A 
ATOM     87  F   UNL A   1      43.486  25.957  35.417  1.00  0.00    -0.203 F 
ATOM     88  F   UNL A   1      48.132  28.812  35.257  1.00  0.00    -0.200 F 
ATOM     89  C   UNL A   1      46.858  27.045  36.164  1.00  0.00     0.200 A 
ATOM     90  F   UNL A   1      45.550  25.279  37.026  1.00  0.00    -0.200 F 
ATOM     91  F   UNL A   1      47.891  26.673  36.929  1.00  0.00    -0.200 F 
ENDBRANCH  58  81
ENDBRANCH  32  33
ENDBRANCH  25  27
ENDBRANCH  24  25
ENDBRANCH  23  24
ENDBRANCH   1  23
TORSDOF 13
ENDMDL
MODEL 3
REMARK VINA RESULT:     -12.5      4.299      9.401
REMARK SMILES C[C@@]1(CN2C(=O)c3ccc(C(=O)OCCOC(=O)c4ccc(-c5c6nc(c(-c7c(F)c(F)c(F)c(F)c7F)c7ccc([nH]7)c(-c7c(F)c(F)c(F)c(F)c7F)c7nc(c(-c8c(F)c(F)c(F)c(F)c8F)c8ccc5[nH]8)C=C7)C=C6)cc4)cc3C2=O)CCCO1
REMARK SMILES IDX 14 1 13 2 11 3 12 4 10 5 4 6 5 7 84 8 6 9 7 10 83 11 85 12
REMARK SMILES IDX 8 13 82 14 9 15 3 16 2 17 1 18 86 19 89 20 87 21 88 22 15 23
REMARK SMILES IDX 16 24 17 25 18 26 19 27 20 28 81 29 21 30 80 31 22 32 23 33
REMARK SMILES IDX 24 34 74 35 25 36 79 37 73 38 75 39 26 40 78 41 72 42 71 43
REMARK SMILES IDX 27 45 59 46 39 47 58 48 40 49 43 50 57 51 76 52 41 53 42 54
REMARK SMILES IDX 56 56 77 57 44 58 28 59 29 60 37 61 30 62 31 63 35 64 38 65
REMARK SMILES IDX 32 66 33 67 36 68 34 69 60 70 61 71 69 72 62 73 63 74 67 75
REMARK SMILES IDX 70 76 64 77 65 78 68 79 66 80 45 81 46 82 54 83 47 84 48 85
REMARK SMILES IDX 52 86 55 87 49 88 50 89 53 90 51 91
REMARK H PARENT 75 44 43 55
REMARK Flexibility Score: inf
ROOT
ATOM      1  C   UNL A   1      34.221  35.042  28.624  1.00  0.00     0.275 C 
ENDROOT
BRANCH   1   2
ATOM      2  O   UNL A   1      34.374  33.675  29.065  1.00  0.00    -0.458 OA
BRANCH   2   3
ATOM      3  C   UNL A   1      35.439  33.003  28.564  1.00  0.00     0.338 C 
ATOM      4  O   UNL A   1      36.609  33.346  28.627  1.00  0.00    -0.246 OA
BRANCH   3   5
ATOM      5  C   UNL A   1      35.030  31.679  28.025  1.00  0.00     0.060 A 
ATOM      6  N   UNL A   1      32.362  28.725  25.727  1.00  0.00    -0.271 N 
ATOM      7  C   UNL A   1      33.561  28.214  26.150  1.00  0.00     0.261 C 
ATOM      8  C   UNL A   1      32.230  30.045  26.059  1.00  0.00     0.261 C 
ATOM      9  O   UNL A   1      34.025  27.103  25.989  1.00  0.00    -0.269 OA
ATOM     10  C   UNL A   1      34.244  29.290  26.870  1.00  0.00     0.053 A 
ATOM     11  C   UNL A   1      33.414  30.390  26.839  1.00  0.00     0.054 A 
ATOM     12  O   UNL A   1      31.377  30.855  25.744  1.00  0.00    -0.269 OA
ATOM     13  C   UNL A   1      35.477  29.329  27.497  1.00  0.00     0.015 A 
ATOM     14  C   UNL A   1      33.755  31.579  27.446  1.00  0.00     0.030 A 
ATOM     15  C   UNL A   1      35.881  30.550  28.064  1.00  0.00     0.016 A 
BRANCH   6  16
ATOM     16  C   UNL A   1      31.358  27.973  24.987  1.00  0.00     0.164 C 
BRANCH  16  17
ATOM     17  C   UNL A   1      31.410  28.214  23.453  1.00  0.00     0.084 C 
ATOM     18  C   UNL A   1      30.219  29.034  22.956  1.00  0.00     0.044 C 
ATOM     19  C   UNL A   1      31.509  26.887  22.692  1.00  0.00     0.039 C 
ATOM     20  O   UNL A   1      32.617  28.939  23.125  1.00  0.00    -0.373 OA
ATOM     21  C   UNL A   1      32.996  26.656  22.600  1.00  0.00     0.031 C 
ATOM     22  C   UNL A   1      33.536  28.061  22.461  1.00  0.00     0.161 C 
ENDBRANCH  16  17
ENDBRANCH   6  16
ENDBRANCH   3   5
ENDBRANCH   2   3
ENDBRANCH   1   2
BRANCH   1  23
ATOM     23  C   UNL A   1      33.036  35.730  29.309  1.00  0.00     0.275 C 
BRANCH  23  24
ATOM     24  O   UNL A   1      32.585  34.962  30.443  1.00  0.00    -0.458 OA
BRANCH  24  25
ATOM     25  C   UNL A   1      32.687  35.593  31.633  1.00  0.00     0.338 C 
ATOM     26  O   UNL A   1      31.955  36.457  32.085  1.00  0.00    -0.246 OA
BRANCH  25  27
ATOM     27  C   UNL A   1      33.757  34.992  32.441  1.00  0.00     0.060 A 
ATOM     28  C   UNL A   1      34.995  35.618  32.395  1.00  0.00     0.016 A 
ATOM     29  C   UNL A   1      33.635  33.734  33.020  1.00  0.00     0.016 A 
ATOM     30  C   UNL A   1      36.144  34.946  32.794  1.00  0.00     0.010 A 
ATOM     31  C   UNL A   1      34.778  33.103  33.535  1.00  0.00     0.010 A 
ATOM     32  C   UNL A   1      36.058  33.673  33.373  1.00  0.00    -0.014 A 
BRANCH  32  33
ATOM     33  C   UNL A   1      37.310  32.938  33.727  1.00  0.00     0.031 A 
ATOM     34  C   UNL A   1      37.987  33.168  35.057  1.00  0.00     0.074 A 
ATOM     35  C   UNL A   1      37.826  32.017  32.888  1.00  0.00     0.049 A 
ATOM     36  N   UNL A   1      39.131  32.706  35.503  1.00  0.00    -0.248 NA
ATOM     37  C   UNL A   1      37.297  34.056  36.003  1.00  0.00     0.031 C 
ATOM     38  C   UNL A   1      37.269  31.658  31.583  1.00  0.00     0.029 A 
ATOM     39  N   UNL A   1      38.928  31.205  33.010  1.00  0.00    -0.354 N 
ATOM     40  C   UNL A   1      39.323  33.295  36.748  1.00  0.00     0.074 A 
ATOM     41  C   UNL A   1      38.188  34.165  36.976  1.00  0.00     0.031 C 
ATOM     42  C   UNL A   1      37.998  30.670  31.048  1.00  0.00     0.029 A 
ATOM     43  C   UNL A   1      39.132  30.389  31.924  1.00  0.00     0.049 A 
ATOM     44  H   UNL A   1      39.516  31.209  33.799  1.00  0.00     0.167 HD
ATOM     45  C   UNL A   1      40.346  33.125  37.622  1.00  0.00     0.037 A 
ATOM     46  C   UNL A   1      40.133  29.537  31.635  1.00  0.00     0.037 A 
ATOM     47  C   UNL A   1      41.446  32.214  37.420  1.00  0.00     0.049 A 
ATOM     48  C   UNL A   1      41.258  29.364  32.614  1.00  0.00     0.074 A 
ATOM     49  C   UNL A   1      42.509  31.941  38.263  1.00  0.00     0.029 A 
ATOM     50  N   UNL A   1      41.622  31.420  36.293  1.00  0.00    -0.354 N 
ATOM     51  N   UNL A   1      41.444  29.945  33.773  1.00  0.00    -0.248 NA
ATOM     52  C   UNL A   1      42.318  28.417  32.240  1.00  0.00     0.031 C 
ATOM     53  C   UNL A   1      43.357  31.029  37.624  1.00  0.00     0.029 A 
ATOM     54  C   UNL A   1      42.788  30.677  36.412  1.00  0.00     0.049 A 
ATOM     55  H   UNL A   1      41.008  31.388  35.525  1.00  0.00     0.167 HD
ATOM     56  C   UNL A   1      42.631  29.429  34.275  1.00  0.00     0.074 A 
ATOM     57  C   UNL A   1      43.108  28.467  33.302  1.00  0.00     0.031 C 
ATOM     58  C   UNL A   1      43.266  29.728  35.435  1.00  0.00     0.037 A 
BRANCH  45  59
ATOM     59  C   UNL A   1      40.351  33.985  38.858  1.00  0.00     0.064 A 
ATOM     60  C   UNL A   1      40.991  35.233  38.906  1.00  0.00     0.173 A 
ATOM     61  C   UNL A   1      39.703  33.541  40.023  1.00  0.00     0.173 A 
ATOM     62  F   UNL A   1      41.631  35.706  37.826  1.00  0.00    -0.203 F 
ATOM     63  C   UNL A   1      41.031  35.976  40.084  1.00  0.00     0.198 A 
ATOM     64  C   UNL A   1      39.710  34.305  41.188  1.00  0.00     0.198 A 
ATOM     65  F   UNL A   1      39.063  32.363  40.035  1.00  0.00    -0.203 F 
ATOM     66  F   UNL A   1      41.714  37.128  40.126  1.00  0.00    -0.200 F 
ATOM     67  C   UNL A   1      40.387  35.514  41.222  1.00  0.00     0.200 A 
ATOM     68  F   UNL A   1      39.072  33.864  42.280  1.00  0.00    -0.200 F 
ATOM     69  F   UNL A   1      40.430  36.228  42.357  1.00  0.00    -0.200 F 
ENDBRANCH  45  59
BRANCH  46  70
ATOM     70  C   UNL A   1      40.122  28.816  30.334  1.00  0.00     0.064 A 
ATOM     71  C   UNL A   1      39.486  27.576  30.192  1.00  0.00     0.173 A 
ATOM     72  C   UNL A   1      40.721  29.377  29.195  1.00  0.00     0.173 A 
ATOM     73  F   UNL A   1      38.924  26.984  31.256  1.00  0.00    -0.203 F 
ATOM     74  C   UNL A   1      39.453  26.923  28.960  1.00  0.00     0.198 A 
ATOM     75  C   UNL A   1      40.656  28.742  27.958  1.00  0.00     0.198 A 
ATOM     76  F   UNL A   1      41.343  30.562  29.278  1.00  0.00    -0.203 F 
ATOM     77  F   UNL A   1      38.871  25.721  28.858  1.00  0.00    -0.200 F 
ATOM     78  C   UNL A   1      40.025  27.512  27.842  1.00  0.00     0.200 A 
ATOM     79  F   UNL A   1      41.194  29.325  26.879  1.00  0.00    -0.200 F 
ATOM     80  F   UNL A   1      39.975  26.893  26.655  1.00  0.00    -0.200 F 
ENDBRANCH  46  70
BRANCH  58  81
ATOM     81  C   UNL A   1      44.533  28.976  35.733  1.00  0.00     0.064 A 
ATOM     82  C   UNL A   1      44.526  27.756  36.428  1.00  0.00     0.173 A 
ATOM     83  C   UNL A   1      45.774  29.485  35.320  1.00  0.00     0.173 A 
ATOM     84  F   UNL A   1      43.370  27.230  36.859  1.00  0.00    -0.203 F 
ATOM     85  C   UNL A   1      45.716  27.100  36.735  1.00  0.00     0.198 A 
ATOM     86  C   UNL A   1      46.958  28.808  35.597  1.00  0.00     0.198 A 
ATOM     87  F   UNL A   1      45.839  30.644  34.646  1.00  0.00    -0.203 F 
ATOM     88  F   UNL A   1      45.690  25.973  37.460  1.00  0.00    -0.200 F 
ATOM     89  C   UNL A   1      46.930  27.623  36.316  1.00  0.00     0.200 A 
ATOM     90  F   UNL A   1      48.128  29.309  35.177  1.00  0.00    -0.200 F 
ATOM     91  F   UNL A   1      48.073  26.993  36.615  1.00  0.00    -0.200 F 
ENDBRANCH  58  81
ENDBRANCH  32  33
ENDBRANCH  25  27
ENDBRANCH  24  25
ENDBRANCH  23  24
ENDBRANCH   1  23
TORSDOF 13
ENDMDL
