MODEL 1
REMARK VINA RESULT:     -10.1      0.000      0.000
REMARK SMILES O=C(CSc1nc2cc(Br)cnc2n1CCC1CC1)OCCOC(=O)c1ccc(-c2c3nc(c(-c4c(F)c(F)c(F)c(F)c4F)c4ccc([nH]4)c(-c4c(F)c(F)c(F)c(F)c4F)c4nc(c(-c5c(F)c(F)c(F)c(F)c5F)c5ccc2[nH]5)C=C4)C=C3)cc1
REMARK SMILES IDX 20 1 2 2 1 3 3 4 4 5 5 6 6 7 14 8 7 9 13 10 8 11 12 12 9 13
REMARK SMILES IDX 11 14 10 15 15 16 16 17 17 18 18 19 19 20 21 21 22 22 23 23
REMARK SMILES IDX 24 24 25 25 26 26 27 27 88 28 28 29 87 30 29 31 30 32 31 33
REMARK SMILES IDX 81 34 32 35 86 36 80 37 82 38 33 39 85 40 79 41 78 42 34 44
REMARK SMILES IDX 66 45 46 46 65 47 47 48 50 49 64 50 83 51 48 52 49 53 63 55
REMARK SMILES IDX 84 56 51 57 35 58 36 59 44 60 37 61 38 62 42 63 45 64 39 65
REMARK SMILES IDX 40 66 43 67 41 68 67 69 68 70 76 71 69 72 70 73 74 74 77 75
REMARK SMILES IDX 71 76 72 77 75 78 73 79 52 80 53 81 61 82 54 83 55 84 59 85
REMARK SMILES IDX 62 86 56 87 57 88 60 89 58 90
REMARK H PARENT 82 43 50 54
REMARK Flexibility Score: inf
ROOT
ATOM      1  O   UNL A   1      34.917  33.886  30.498  1.00  0.00    -0.461 OA
ENDROOT
BRANCH   1   2
ATOM      2  C   UNL A   1      34.471  33.851  31.773  1.00  0.00     0.316 C 
ATOM      3  O   UNL A   1      33.498  34.537  32.091  1.00  0.00    -0.251 OA
BRANCH   2   4
ATOM      4  C   UNL A   1      35.218  33.089  32.828  1.00  0.00     0.200 C 
BRANCH   4   5
ATOM      5  S   UNL A   1      36.214  31.702  32.270  1.00  0.00    -0.076 SA
BRANCH   5   6
ATOM      6  C   UNL A   1      37.704  32.013  33.057  1.00  0.00     0.170 A 
ATOM      7  N   UNL A   1      38.163  31.165  33.943  1.00  0.00    -0.221 NA
ATOM      8  N   UNL A   1      38.515  33.112  32.878  1.00  0.00    -0.304 N 
ATOM      9  C   UNL A   1      39.265  31.767  34.460  1.00  0.00     0.110 A 
ATOM     10  C   UNL A   1      39.518  32.979  33.824  1.00  0.00     0.160 A 
ATOM     11  C   UNL A   1      40.092  31.358  35.508  1.00  0.00     0.049 A 
ATOM     12  N   UNL A   1      40.508  33.849  34.115  1.00  0.00    -0.235 NA
ATOM     13  C   UNL A   1      41.121  32.223  35.856  1.00  0.00     0.038 A 
ATOM     14  C   UNL A   1      41.280  33.417  35.153  1.00  0.00     0.129 A 
ATOM     15  Br  UNL A   1      42.277  31.773  37.278  1.00  0.00    -0.049 Br
BRANCH   8  16
ATOM     16  C   UNL A   1      38.296  34.319  32.094  1.00  0.00     0.127 C 
BRANCH  16  17
ATOM     17  C   UNL A   1      38.998  34.452  30.735  1.00  0.00     0.025 C 
BRANCH  17  18
ATOM     18  C   UNL A   1      40.507  34.526  30.717  1.00  0.00    -0.009 C 
ATOM     19  C   UNL A   1      41.425  33.437  30.216  1.00  0.00     0.004 C 
ATOM     20  C   UNL A   1      41.241  34.662  29.390  1.00  0.00     0.004 C 
ENDBRANCH  17  18
ENDBRANCH  16  17
ENDBRANCH   8  16
ENDBRANCH   5   6
ENDBRANCH   4   5
ENDBRANCH   2   4
ENDBRANCH   1   2
BRANCH   1  21
ATOM     21  C   UNL A   1      34.313  34.557  29.376  1.00  0.00     0.274 C 
BRANCH  21  22
ATOM     22  C   UNL A   1      34.010  33.610  28.232  1.00  0.00     0.275 C 
BRANCH  22  23
ATOM     23  O   UNL A   1      35.185  32.922  27.817  1.00  0.00    -0.458 OA
BRANCH  23  24
ATOM     24  C   UNL A   1      35.109  31.572  27.749  1.00  0.00     0.338 C 
ATOM     25  O   UNL A   1      34.255  30.908  27.206  1.00  0.00    -0.246 OA
BRANCH  24  26
ATOM     26  C   UNL A   1      36.228  31.037  28.541  1.00  0.00     0.060 A 
ATOM     27  C   UNL A   1      37.293  31.884  28.860  1.00  0.00     0.016 A 
ATOM     28  C   UNL A   1      36.297  29.652  28.747  1.00  0.00     0.016 A 
ATOM     29  C   UNL A   1      38.505  31.310  29.197  1.00  0.00     0.010 A 
ATOM     30  C   UNL A   1      37.501  29.084  29.059  1.00  0.00     0.010 A 
ATOM     31  C   UNL A   1      38.607  29.914  29.185  1.00  0.00    -0.014 A 
BRANCH  31  32
ATOM     32  C   UNL A   1      39.890  29.272  29.366  1.00  0.00     0.031 A 
ATOM     33  C   UNL A   1      40.198  28.993  30.785  1.00  0.00     0.074 A 
ATOM     34  C   UNL A   1      40.606  28.835  28.309  1.00  0.00     0.049 A 
ATOM     35  N   UNL A   1      41.122  29.536  31.502  1.00  0.00    -0.248 NA
ATOM     36  C   UNL A   1      39.263  28.151  31.552  1.00  0.00     0.031 C 
ATOM     37  C   UNL A   1      40.235  28.832  26.889  1.00  0.00     0.029 A 
ATOM     38  N   UNL A   1      41.815  28.210  28.300  1.00  0.00    -0.354 N 
ATOM     39  C   UNL A   1      41.022  28.944  32.755  1.00  0.00     0.074 A 
ATOM     40  C   UNL A   1      39.755  28.265  32.787  1.00  0.00     0.031 C 
ATOM     41  C   UNL A   1      41.092  28.045  26.197  1.00  0.00     0.029 A 
ATOM     42  C   UNL A   1      42.149  27.605  27.088  1.00  0.00     0.049 A 
ATOM     43  H   UNL A   1      42.406  28.186  29.087  1.00  0.00     0.167 HD
ATOM     44  C   UNL A   1      42.115  28.835  33.555  1.00  0.00     0.037 A 
ATOM     45  C   UNL A   1      43.200  26.766  26.886  1.00  0.00     0.037 A 
ATOM     46  C   UNL A   1      43.160  29.728  33.121  1.00  0.00     0.049 A 
ATOM     47  C   UNL A   1      44.160  27.010  27.995  1.00  0.00     0.074 A 
ATOM     48  C   UNL A   1      43.279  31.100  33.015  1.00  0.00     0.029 A 
ATOM     49  N   UNL A   1      44.149  29.201  32.327  1.00  0.00    -0.354 N 
ATOM     50  N   UNL A   1      44.815  28.129  28.144  1.00  0.00    -0.248 NA
ATOM     51  C   UNL A   1      44.003  26.207  29.198  1.00  0.00     0.031 C 
ATOM     52  C   UNL A   1      44.014  31.316  31.813  1.00  0.00     0.029 A 
ATOM     53  C   UNL A   1      44.375  30.073  31.293  1.00  0.00     0.049 A 
ATOM     54  H   UNL A   1      44.615  28.346  32.475  1.00  0.00     0.167 HD
ATOM     55  C   UNL A   1      44.770  28.381  29.507  1.00  0.00     0.074 A 
ATOM     56  C   UNL A   1      44.302  27.135  30.112  1.00  0.00     0.031 C 
ATOM     57  C   UNL A   1      44.820  29.660  29.983  1.00  0.00     0.037 A 
BRANCH  44  58
ATOM     58  C   UNL A   1      42.388  27.662  34.461  1.00  0.00     0.064 A 
ATOM     59  C   UNL A   1      42.932  26.487  33.908  1.00  0.00     0.173 A 
ATOM     60  C   UNL A   1      41.867  27.537  35.767  1.00  0.00     0.173 A 
ATOM     61  F   UNL A   1      43.429  26.485  32.662  1.00  0.00    -0.203 F 
ATOM     62  C   UNL A   1      42.894  25.267  34.588  1.00  0.00     0.198 A 
ATOM     63  C   UNL A   1      41.881  26.332  36.464  1.00  0.00     0.198 A 
ATOM     64  F   UNL A   1      41.221  28.537  36.379  1.00  0.00    -0.203 F 
ATOM     65  F   UNL A   1      43.310  24.152  33.975  1.00  0.00    -0.200 F 
ATOM     66  C   UNL A   1      42.366  25.190  35.864  1.00  0.00     0.200 A 
ATOM     67  F   UNL A   1      41.341  26.275  37.690  1.00  0.00    -0.200 F 
ATOM     68  F   UNL A   1      42.276  24.013  36.495  1.00  0.00    -0.200 F 
ENDBRANCH  44  58
BRANCH  45  69
ATOM     69  C   UNL A   1      43.254  25.521  26.073  1.00  0.00     0.064 A 
ATOM     70  C   UNL A   1      44.362  25.243  25.251  1.00  0.00     0.173 A 
ATOM     71  C   UNL A   1      42.384  24.443  26.326  1.00  0.00     0.173 A 
ATOM     72  F   UNL A   1      45.266  26.200  24.993  1.00  0.00    -0.203 F 
ATOM     73  C   UNL A   1      44.608  23.959  24.751  1.00  0.00     0.198 A 
ATOM     74  C   UNL A   1      42.628  23.162  25.824  1.00  0.00     0.198 A 
ATOM     75  F   UNL A   1      41.336  24.585  27.149  1.00  0.00    -0.203 F 
ATOM     76  F   UNL A   1      45.714  23.718  24.033  1.00  0.00    -0.200 F 
ATOM     77  C   UNL A   1      43.749  22.916  25.051  1.00  0.00     0.200 A 
ATOM     78  F   UNL A   1      41.810  22.152  26.154  1.00  0.00    -0.200 F 
ATOM     79  F   UNL A   1      44.020  21.670  24.636  1.00  0.00    -0.200 F 
ENDBRANCH  45  69
BRANCH  57  80
ATOM     80  C   UNL A   1      45.167  30.759  29.015  1.00  0.00     0.064 A 
ATOM     81  C   UNL A   1      44.222  31.476  28.259  1.00  0.00     0.173 A 
ATOM     82  C   UNL A   1      46.491  31.215  28.988  1.00  0.00     0.173 A 
ATOM     83  F   UNL A   1      42.922  31.160  28.301  1.00  0.00    -0.203 F 
ATOM     84  C   UNL A   1      44.595  32.583  27.496  1.00  0.00     0.198 A 
ATOM     85  C   UNL A   1      46.854  32.341  28.255  1.00  0.00     0.198 A 
ATOM     86  F   UNL A   1      47.425  30.600  29.730  1.00  0.00    -0.203 F 
ATOM     87  F   UNL A   1      43.674  33.253  26.786  1.00  0.00    -0.200 F 
ATOM     88  C   UNL A   1      45.909  33.021  27.504  1.00  0.00     0.200 A 
ATOM     89  F   UNL A   1      48.116  32.788  28.307  1.00  0.00    -0.200 F 
ATOM     90  F   UNL A   1      46.260  34.114  26.814  1.00  0.00    -0.200 F 
ENDBRANCH  57  80
ENDBRANCH  31  32
ENDBRANCH  24  26
ENDBRANCH  23  24
ENDBRANCH  22  23
ENDBRANCH  21  22
ENDBRANCH   1  21
TORSDOF 16
ENDMDL
MODEL 2
REMARK VINA RESULT:      -9.7      5.573     11.318
REMARK SMILES O=C(CSc1nc2cc(Br)cnc2n1CCC1CC1)OCCOC(=O)c1ccc(-c2c3nc(c(-c4c(F)c(F)c(F)c(F)c4F)c4ccc([nH]4)c(-c4c(F)c(F)c(F)c(F)c4F)c4nc(c(-c5c(F)c(F)c(F)c(F)c5F)c5ccc2[nH]5)C=C4)C=C3)cc1
REMARK SMILES IDX 20 1 2 2 1 3 3 4 4 5 5 6 6 7 14 8 7 9 13 10 8 11 12 12 9 13
REMARK SMILES IDX 11 14 10 15 15 16 16 17 17 18 18 19 19 20 21 21 22 22 23 23
REMARK SMILES IDX 24 24 25 25 26 26 27 27 88 28 28 29 87 30 29 31 30 32 31 33
REMARK SMILES IDX 81 34 32 35 86 36 80 37 82 38 33 39 85 40 79 41 78 42 34 44
REMARK SMILES IDX 66 45 46 46 65 47 47 48 50 49 64 50 83 51 48 52 49 53 63 55
REMARK SMILES IDX 84 56 51 57 35 58 36 59 44 60 37 61 38 62 42 63 45 64 39 65
REMARK SMILES IDX 40 66 43 67 41 68 67 69 68 70 76 71 69 72 70 73 74 74 77 75
REMARK SMILES IDX 71 76 72 77 75 78 73 79 52 80 53 81 61 82 54 83 55 84 59 85
REMARK SMILES IDX 62 86 56 87 57 88 60 89 58 90
REMARK H PARENT 82 43 50 54
REMARK Flexibility Score: inf
ROOT
ATOM      1  O   UNL A   1      40.846  20.639  26.872  1.00  0.00    -0.461 OA
ENDROOT
BRANCH   1   2
ATOM      2  C   UNL A   1      39.903  20.138  26.045  1.00  0.00     0.316 C 
ATOM      3  O   UNL A   1      40.057  19.013  25.563  1.00  0.00    -0.251 OA
BRANCH   2   4
ATOM      4  C   UNL A   1      38.737  20.977  25.611  1.00  0.00     0.200 C 
BRANCH   4   5
ATOM      5  S   UNL A   1      37.344  20.109  24.881  1.00  0.00    -0.076 SA
BRANCH   5   6
ATOM      6  C   UNL A   1      36.107  21.291  24.996  1.00  0.00     0.170 A 
ATOM      7  N   UNL A   1      36.413  22.563  24.942  1.00  0.00    -0.221 NA
ATOM      8  N   UNL A   1      34.760  21.057  25.165  1.00  0.00    -0.304 N 
ATOM      9  C   UNL A   1      35.247  23.210  25.195  1.00  0.00     0.110 A 
ATOM     10  C   UNL A   1      34.195  22.309  25.338  1.00  0.00     0.160 A 
ATOM     11  C   UNL A   1      35.005  24.575  25.355  1.00  0.00     0.049 A 
ATOM     12  N   UNL A   1      32.912  22.610  25.632  1.00  0.00    -0.235 NA
ATOM     13  C   UNL A   1      33.703  24.940  25.670  1.00  0.00     0.038 A 
ATOM     14  C   UNL A   1      32.726  23.951  25.795  1.00  0.00     0.129 A 
ATOM     15  Br  UNL A   1      33.280  26.759  25.934  1.00  0.00    -0.049 Br
BRANCH   8  16
ATOM     16  C   UNL A   1      34.049  19.808  25.396  1.00  0.00     0.127 C 
BRANCH  16  17
ATOM     17  C   UNL A   1      33.515  19.028  24.186  1.00  0.00     0.025 C 
BRANCH  17  18
ATOM     18  C   UNL A   1      34.197  17.732  23.817  1.00  0.00    -0.009 C 
ATOM     19  C   UNL A   1      34.712  16.709  24.802  1.00  0.00     0.004 C 
ATOM     20  C   UNL A   1      33.474  16.409  24.031  1.00  0.00     0.004 C 
ENDBRANCH  17  18
ENDBRANCH  16  17
ENDBRANCH   8  16
ENDBRANCH   5   6
ENDBRANCH   4   5
ENDBRANCH   2   4
ENDBRANCH   1   2
BRANCH   1  21
ATOM     21  C   UNL A   1      42.275  20.498  26.759  1.00  0.00     0.274 C 
BRANCH  21  22
ATOM     22  C   UNL A   1      42.886  21.530  25.833  1.00  0.00     0.275 C 
BRANCH  22  23
ATOM     23  O   UNL A   1      42.057  22.683  25.740  1.00  0.00    -0.458 OA
BRANCH  23  24
ATOM     24  C   UNL A   1      42.683  23.873  25.574  1.00  0.00     0.338 C 
ATOM     25  O   UNL A   1      43.645  24.108  24.880  1.00  0.00    -0.246 OA
BRANCH  24  26
ATOM     26  C   UNL A   1      42.025  24.835  26.473  1.00  0.00     0.060 A 
ATOM     27  C   UNL A   1      41.104  25.739  25.935  1.00  0.00     0.016 A 
ATOM     28  C   UNL A   1      42.512  24.967  27.781  1.00  0.00     0.016 A 
ATOM     29  C   UNL A   1      40.829  26.892  26.647  1.00  0.00     0.010 A 
ATOM     30  C   UNL A   1      42.257  26.116  28.475  1.00  0.00     0.010 A 
ATOM     31  C   UNL A   1      41.497  27.102  27.859  1.00  0.00    -0.014 A 
BRANCH  31  32
ATOM     32  C   UNL A   1      41.371  28.363  28.554  1.00  0.00     0.031 A 
ATOM     33  C   UNL A   1      42.453  29.315  28.220  1.00  0.00     0.074 A 
ATOM     34  C   UNL A   1      40.270  28.653  29.278  1.00  0.00     0.049 A 
ATOM     35  N   UNL A   1      43.383  29.741  29.004  1.00  0.00    -0.248 NA
ATOM     36  C   UNL A   1      42.637  29.699  26.809  1.00  0.00     0.031 C 
ATOM     37  C   UNL A   1      39.039  27.868  29.428  1.00  0.00     0.029 A 
ATOM     38  N   UNL A   1      39.987  29.783  29.981  1.00  0.00    -0.354 N 
ATOM     39  C   UNL A   1      44.145  30.618  28.241  1.00  0.00     0.074 A 
ATOM     40  C   UNL A   1      43.771  30.399  26.870  1.00  0.00     0.031 C 
ATOM     41  C   UNL A   1      38.075  28.636  29.987  1.00  0.00     0.029 A 
ATOM     42  C   UNL A   1      38.651  29.913  30.363  1.00  0.00     0.049 A 
ATOM     43  H   UNL A   1      40.671  30.456  30.203  1.00  0.00     0.167 HD
ATOM     44  C   UNL A   1      44.816  31.641  28.832  1.00  0.00     0.037 A 
ATOM     45  C   UNL A   1      38.087  31.028  30.898  1.00  0.00     0.037 A 
ATOM     46  C   UNL A   1      44.948  31.419  30.250  1.00  0.00     0.049 A 
ATOM     47  C   UNL A   1      39.199  31.849  31.446  1.00  0.00     0.074 A 
ATOM     48  C   UNL A   1      45.571  30.460  31.024  1.00  0.00     0.029 A 
ATOM     49  N   UNL A   1      44.035  32.035  31.071  1.00  0.00    -0.354 N 
ATOM     50  N   UNL A   1      39.931  31.480  32.461  1.00  0.00    -0.248 NA
ATOM     51  C   UNL A   1      39.807  32.824  30.552  1.00  0.00     0.031 C 
ATOM     52  C   UNL A   1      44.684  30.234  32.117  1.00  0.00     0.029 A 
ATOM     53  C   UNL A   1      43.611  31.118  31.998  1.00  0.00     0.049 A 
ATOM     54  H   UNL A   1      43.739  32.971  31.005  1.00  0.00     0.167 HD
ATOM     55  C   UNL A   1      41.225  31.828  32.104  1.00  0.00     0.074 A 
ATOM     56  C   UNL A   1      41.080  32.701  30.940  1.00  0.00     0.031 C 
ATOM     57  C   UNL A   1      42.295  31.134  32.592  1.00  0.00     0.037 A 
BRANCH  44  58
ATOM     58  C   UNL A   1      44.995  33.004  28.214  1.00  0.00     0.064 A 
ATOM     59  C   UNL A   1      46.296  33.450  27.914  1.00  0.00     0.173 A 
ATOM     60  C   UNL A   1      43.988  33.993  28.183  1.00  0.00     0.173 A 
ATOM     61  F   UNL A   1      47.333  32.600  27.943  1.00  0.00    -0.203 F 
ATOM     62  C   UNL A   1      46.574  34.798  27.670  1.00  0.00     0.198 A 
ATOM     63  C   UNL A   1      44.261  35.325  27.884  1.00  0.00     0.198 A 
ATOM     64  F   UNL A   1      42.726  33.743  28.550  1.00  0.00    -0.203 F 
ATOM     65  F   UNL A   1      47.843  35.196  27.513  1.00  0.00    -0.200 F 
ATOM     66  C   UNL A   1      45.557  35.735  27.657  1.00  0.00     0.200 A 
ATOM     67  F   UNL A   1      43.263  36.221  27.902  1.00  0.00    -0.200 F 
ATOM     68  F   UNL A   1      45.828  37.034  27.480  1.00  0.00    -0.200 F 
ENDBRANCH  44  58
BRANCH  45  69
ATOM     69  C   UNL A   1      36.750  31.620  30.619  1.00  0.00     0.064 A 
ATOM     70  C   UNL A   1      35.875  31.952  31.671  1.00  0.00     0.173 A 
ATOM     71  C   UNL A   1      36.437  32.162  29.358  1.00  0.00     0.173 A 
ATOM     72  F   UNL A   1      36.120  31.515  32.916  1.00  0.00    -0.203 F 
ATOM     73  C   UNL A   1      34.782  32.806  31.480  1.00  0.00     0.198 A 
ATOM     74  C   UNL A   1      35.345  33.012  29.169  1.00  0.00     0.198 A 
ATOM     75  F   UNL A   1      37.243  31.962  28.306  1.00  0.00    -0.203 F 
ATOM     76  F   UNL A   1      34.014  33.157  32.522  1.00  0.00    -0.200 F 
ATOM     77  C   UNL A   1      34.527  33.348  30.233  1.00  0.00     0.200 A 
ATOM     78  F   UNL A   1      35.132  33.561  27.964  1.00  0.00    -0.200 F 
ATOM     79  F   UNL A   1      33.526  34.224  30.062  1.00  0.00    -0.200 F 
ENDBRANCH  45  69
BRANCH  57  80
ATOM     80  C   UNL A   1      42.049  30.151  33.705  1.00  0.00     0.064 A 
ATOM     81  C   UNL A   1      41.714  28.799  33.507  1.00  0.00     0.173 A 
ATOM     82  C   UNL A   1      42.336  30.557  35.014  1.00  0.00     0.173 A 
ATOM     83  F   UNL A   1      41.513  28.311  32.277  1.00  0.00    -0.203 F 
ATOM     84  C   UNL A   1      41.649  27.905  34.576  1.00  0.00     0.198 A 
ATOM     85  C   UNL A   1      42.305  29.656  36.074  1.00  0.00     0.198 A 
ATOM     86  F   UNL A   1      42.710  31.823  35.255  1.00  0.00    -0.203 F 
ATOM     87  F   UNL A   1      41.331  26.619  34.362  1.00  0.00    -0.200 F 
ATOM     88  C   UNL A   1      41.956  28.332  35.858  1.00  0.00     0.200 A 
ATOM     89  F   UNL A   1      42.652  30.064  37.302  1.00  0.00    -0.200 F 
ATOM     90  F   UNL A   1      41.945  27.465  36.878  1.00  0.00    -0.200 F 
ENDBRANCH  57  80
ENDBRANCH  31  32
ENDBRANCH  24  26
ENDBRANCH  23  24
ENDBRANCH  22  23
ENDBRANCH  21  22
ENDBRANCH   1  21
TORSDOF 16
ENDMDL
MODEL 3
REMARK VINA RESULT:      -9.6      4.430      6.745
REMARK SMILES O=C(CSc1nc2cc(Br)cnc2n1CCC1CC1)OCCOC(=O)c1ccc(-c2c3nc(c(-c4c(F)c(F)c(F)c(F)c4F)c4ccc([nH]4)c(-c4c(F)c(F)c(F)c(F)c4F)c4nc(c(-c5c(F)c(F)c(F)c(F)c5F)c5ccc2[nH]5)C=C4)C=C3)cc1
REMARK SMILES IDX 20 1 2 2 1 3 3 4 4 5 5 6 6 7 14 8 7 9 13 10 8 11 12 12 9 13
REMARK SMILES IDX 11 14 10 15 15 16 16 17 17 18 18 19 19 20 21 21 22 22 23 23
REMARK SMILES IDX 24 24 25 25 26 26 27 27 88 28 28 29 87 30 29 31 30 32 31 33
REMARK SMILES IDX 81 34 32 35 86 36 80 37 82 38 33 39 85 40 79 41 78 42 34 44
REMARK SMILES IDX 66 45 46 46 65 47 47 48 50 49 64 50 83 51 48 52 49 53 63 55
REMARK SMILES IDX 84 56 51 57 35 58 36 59 44 60 37 61 38 62 42 63 45 64 39 65
REMARK SMILES IDX 40 66 43 67 41 68 67 69 68 70 76 71 69 72 70 73 74 74 77 75
REMARK SMILES IDX 71 76 72 77 75 78 73 79 52 80 53 81 61 82 54 83 55 84 59 85
REMARK SMILES IDX 62 86 56 87 57 88 60 89 58 90
REMARK H PARENT 82 43 50 54
REMARK Flexibility Score: inf
ROOT
ATOM      1  O   UNL A   1      32.919  28.290  25.686  1.00  0.00    -0.461 OA
ENDROOT
BRANCH   1   2
ATOM      2  C   UNL A   1      32.763  27.564  24.557  1.00  0.00     0.316 C 
ATOM      3  O   UNL A   1      32.924  28.108  23.462  1.00  0.00    -0.251 OA
BRANCH   2   4
ATOM      4  C   UNL A   1      32.280  26.144  24.617  1.00  0.00     0.200 C 
BRANCH   4   5
ATOM      5  S   UNL A   1      32.519  25.275  26.169  1.00  0.00    -0.076 SA
BRANCH   5   6
ATOM      6  C   UNL A   1      32.904  23.696  25.621  1.00  0.00     0.170 A 
ATOM      7  N   UNL A   1      31.976  22.773  25.590  1.00  0.00    -0.221 NA
ATOM      8  N   UNL A   1      34.138  23.249  25.206  1.00  0.00    -0.304 N 
ATOM      9  C   UNL A   1      32.632  21.635  25.246  1.00  0.00     0.110 A 
ATOM     10  C   UNL A   1      33.979  21.890  24.998  1.00  0.00     0.160 A 
ATOM     11  C   UNL A   1      32.156  20.326  25.157  1.00  0.00     0.049 A 
ATOM     12  N   UNL A   1      34.923  20.981  24.672  1.00  0.00    -0.235 NA
ATOM     13  C   UNL A   1      33.088  19.349  24.836  1.00  0.00     0.038 A 
ATOM     14  C   UNL A   1      34.416  19.716  24.612  1.00  0.00     0.129 A 
ATOM     15  Br  UNL A   1      32.548  17.545  24.718  1.00  0.00    -0.049 Br
BRANCH   8  16
ATOM     16  C   UNL A   1      35.430  23.921  25.217  1.00  0.00     0.127 C 
BRANCH  16  17
ATOM     17  C   UNL A   1      36.500  23.444  26.210  1.00  0.00     0.025 C 
BRANCH  17  18
ATOM     18  C   UNL A   1      37.924  23.901  25.997  1.00  0.00    -0.009 C 
ATOM     19  C   UNL A   1      38.854  24.382  27.085  1.00  0.00     0.004 C 
ATOM     20  C   UNL A   1      39.077  23.037  26.489  1.00  0.00     0.004 C 
ENDBRANCH  17  18
ENDBRANCH  16  17
ENDBRANCH   8  16
ENDBRANCH   5   6
ENDBRANCH   4   5
ENDBRANCH   2   4
ENDBRANCH   1   2
BRANCH   1  21
ATOM     21  C   UNL A   1      34.072  29.056  26.084  1.00  0.00     0.274 C 
BRANCH  21  22
ATOM     22  C   UNL A   1      33.699  30.290  26.879  1.00  0.00     0.275 C 
BRANCH  22  23
ATOM     23  O   UNL A   1      34.455  30.366  28.084  1.00  0.00    -0.458 OA
BRANCH  23  24
ATOM     24  C   UNL A   1      35.419  31.315  28.140  1.00  0.00     0.338 C 
ATOM     25  O   UNL A   1      35.403  32.412  27.631  1.00  0.00    -0.246 OA
BRANCH  24  26
ATOM     26  C   UNL A   1      36.553  30.734  28.875  1.00  0.00     0.060 A 
ATOM     27  C   UNL A   1      37.643  31.550  29.190  1.00  0.00     0.016 A 
ATOM     28  C   UNL A   1      36.605  29.341  29.028  1.00  0.00     0.016 A 
ATOM     29  C   UNL A   1      38.855  30.945  29.465  1.00  0.00     0.010 A 
ATOM     30  C   UNL A   1      37.808  28.742  29.280  1.00  0.00     0.010 A 
ATOM     31  C   UNL A   1      38.932  29.549  29.400  1.00  0.00    -0.014 A 
BRANCH  31  32
ATOM     32  C   UNL A   1      40.209  28.880  29.515  1.00  0.00     0.031 A 
ATOM     33  C   UNL A   1      40.663  28.746  30.916  1.00  0.00     0.074 A 
ATOM     34  C   UNL A   1      40.792  28.301  28.445  1.00  0.00     0.049 A 
ATOM     35  N   UNL A   1      41.675  29.327  31.464  1.00  0.00    -0.248 NA
ATOM     36  C   UNL A   1      39.795  28.031  31.869  1.00  0.00     0.031 C 
ATOM     37  C   UNL A   1      40.267  28.157  27.082  1.00  0.00     0.029 A 
ATOM     38  N   UNL A   1      41.974  27.631  28.379  1.00  0.00    -0.354 N 
ATOM     39  C   UNL A   1      41.697  28.881  32.780  1.00  0.00     0.074 A 
ATOM     40  C   UNL A   1      40.423  28.260  33.023  1.00  0.00     0.031 C 
ATOM     41  C   UNL A   1      41.021  27.266  26.396  1.00  0.00     0.029 A 
ATOM     42  C   UNL A   1      42.156  26.884  27.214  1.00  0.00     0.049 A 
ATOM     43  H   UNL A   1      42.648  27.670  29.096  1.00  0.00     0.167 HD
ATOM     44  C   UNL A   1      42.868  28.817  33.467  1.00  0.00     0.037 A 
ATOM     45  C   UNL A   1      43.155  25.987  26.998  1.00  0.00     0.037 A 
ATOM     46  C   UNL A   1      43.883  29.614  32.826  1.00  0.00     0.049 A 
ATOM     47  C   UNL A   1      44.238  26.313  27.965  1.00  0.00     0.074 A 
ATOM     48  C   UNL A   1      44.027  30.960  32.553  1.00  0.00     0.029 A 
ATOM     49  N   UNL A   1      44.764  28.964  31.996  1.00  0.00    -0.354 N 
ATOM     50  N   UNL A   1      44.935  27.414  27.916  1.00  0.00    -0.248 NA
ATOM     51  C   UNL A   1      44.191  25.653  29.261  1.00  0.00     0.031 C 
ATOM     52  C   UNL A   1      44.631  31.014  31.264  1.00  0.00     0.029 A 
ATOM     53  C   UNL A   1      44.899  29.708  30.853  1.00  0.00     0.049 A 
ATOM     54  H   UNL A   1      45.219  28.113  32.190  1.00  0.00     0.167 HD
ATOM     55  C   UNL A   1      45.048  27.816  29.238  1.00  0.00     0.074 A 
ATOM     56  C   UNL A   1      44.615  26.663  30.027  1.00  0.00     0.031 C 
ATOM     57  C   UNL A   1      45.186  29.136  29.558  1.00  0.00     0.037 A 
BRANCH  44  58
ATOM     58  C   UNL A   1      43.205  27.741  34.466  1.00  0.00     0.064 A 
ATOM     59  C   UNL A   1      43.330  26.412  34.019  1.00  0.00     0.173 A 
ATOM     60  C   UNL A   1      43.116  27.908  35.865  1.00  0.00     0.173 A 
ATOM     61  F   UNL A   1      43.394  26.136  32.707  1.00  0.00    -0.203 F 
ATOM     62  C   UNL A   1      43.298  25.331  34.903  1.00  0.00     0.198 A 
ATOM     63  C   UNL A   1      43.141  26.831  36.748  1.00  0.00     0.198 A 
ATOM     64  F   UNL A   1      42.885  29.098  36.431  1.00  0.00    -0.203 F 
ATOM     65  F   UNL A   1      43.294  24.080  34.424  1.00  0.00    -0.200 F 
ATOM     66  C   UNL A   1      43.201  25.541  36.267  1.00  0.00     0.200 A 
ATOM     67  F   UNL A   1      43.020  27.057  38.064  1.00  0.00    -0.200 F 
ATOM     68  F   UNL A   1      43.113  24.507  37.112  1.00  0.00    -0.200 F 
ENDBRANCH  44  58
BRANCH  45  69
ATOM     69  C   UNL A   1      43.084  24.659  26.331  1.00  0.00     0.064 A 
ATOM     70  C   UNL A   1      43.812  24.404  25.154  1.00  0.00     0.173 A 
ATOM     71  C   UNL A   1      42.567  23.531  26.996  1.00  0.00     0.173 A 
ATOM     72  F   UNL A   1      44.378  25.416  24.478  1.00  0.00    -0.203 F 
ATOM     73  C   UNL A   1      44.044  23.101  24.696  1.00  0.00     0.198 A 
ATOM     74  C   UNL A   1      42.796  22.231  26.537  1.00  0.00     0.198 A 
ATOM     75  F   UNL A   1      41.916  23.660  28.161  1.00  0.00    -0.203 F 
ATOM     76  F   UNL A   1      44.804  22.896  23.611  1.00  0.00    -0.200 F 
ATOM     77  C   UNL A   1      43.549  22.015  25.397  1.00  0.00     0.200 A 
ATOM     78  F   UNL A   1      42.344  21.187  27.246  1.00  0.00    -0.200 F 
ATOM     79  F   UNL A   1      43.831  20.765  25.003  1.00  0.00    -0.200 F 
ENDBRANCH  45  69
BRANCH  57  80
ATOM     80  C   UNL A   1      45.455  30.107  28.440  1.00  0.00     0.064 A 
ATOM     81  C   UNL A   1      44.452  30.772  27.710  1.00  0.00     0.173 A 
ATOM     82  C   UNL A   1      46.779  30.507  28.224  1.00  0.00     0.173 A 
ATOM     83  F   UNL A   1      43.157  30.512  27.923  1.00  0.00    -0.203 F 
ATOM     84  C   UNL A   1      44.769  31.773  26.791  1.00  0.00     0.198 A 
ATOM     85  C   UNL A   1      47.090  31.531  27.333  1.00  0.00     0.198 A 
ATOM     86  F   UNL A   1      47.772  29.943  28.929  1.00  0.00    -0.203 F 
ATOM     87  F   UNL A   1      43.795  32.395  26.109  1.00  0.00    -0.200 F 
ATOM     88  C   UNL A   1      46.087  32.159  26.612  1.00  0.00     0.200 A 
ATOM     89  F   UNL A   1      48.362  31.933  27.202  1.00  0.00    -0.200 F 
ATOM     90  F   UNL A   1      46.390  33.155  25.769  1.00  0.00    -0.200 F 
ENDBRANCH  57  80
ENDBRANCH  31  32
ENDBRANCH  24  26
ENDBRANCH  23  24
ENDBRANCH  22  23
ENDBRANCH  21  22
ENDBRANCH   1  21
TORSDOF 16
ENDMDL
