MODEL 1
REMARK VINA RESULT:     -12.2      0.000      0.000
REMARK SMILES COc1cc(Cl)c2c(c1)C=C(C(=O)OCCOC(=O)c1ccc(-c3c4nc(c(-c5c(F)c(F)c(F)c(F)c5F)c5ccc([nH]5)c(-c5c(F)c(F)c(F)c(F)c5F)c5nc(c(-c6c(F)c(F)c(F)c(F)c6F)c6ccc3[nH]6)C=C5)C=C4)cc1)[C@@H](C(F)(F)F)O2
REMARK SMILES IDX 16 1 15 2 14 3 12 4 13 5 11 6 3 7 4 8 9 9 5 10 8 11 6 12
REMARK SMILES IDX 7 13 10 14 88 15 83 16 2 17 1 18 84 19 85 20 86 21 87 22
REMARK SMILES IDX 17 23 18 24 19 25 20 26 21 27 82 28 22 29 81 30 23 31 24 32
REMARK SMILES IDX 25 33 75 34 26 35 80 36 74 37 76 38 27 39 79 40 73 41 72 42
REMARK SMILES IDX 28 44 60 45 40 46 59 47 41 48 44 49 58 50 77 51 42 52 43 53
REMARK SMILES IDX 57 55 78 56 45 57 29 58 30 59 38 60 31 61 32 62 36 63 39 64
REMARK SMILES IDX 33 65 34 66 37 67 35 68 61 69 62 70 70 71 63 72 64 73 68 74
REMARK SMILES IDX 71 75 65 76 66 77 69 78 67 79 46 80 47 81 55 82 48 83 49 84
REMARK SMILES IDX 53 85 56 86 50 87 51 88 54 89 52 90
REMARK H PARENT 76 43 44 54
REMARK Flexibility Score: inf
ROOT
ATOM      1  C   UNL A   1      31.831  30.219  25.355  1.00  0.00     0.275 C 
ENDROOT
BRANCH   1   2
ATOM      2  C   UNL A   1      31.568  28.769  24.950  1.00  0.00     0.275 C 
BRANCH   2   3
ATOM      3  O   UNL A   1      32.449  27.863  25.647  1.00  0.00    -0.459 OA
BRANCH   3   4
ATOM      4  C   UNL A   1      31.831  26.905  26.374  1.00  0.00     0.338 C 
ATOM      5  O   UNL A   1      30.948  27.072  27.201  1.00  0.00    -0.246 OA
BRANCH   4   6
ATOM      6  C   UNL A   1      32.346  25.573  26.018  1.00  0.00     0.087 C 
ATOM      7  C   UNL A   1      36.162  22.831  25.007  1.00  0.00     0.121 A 
ATOM      8  C   UNL A   1      35.333  21.835  24.498  1.00  0.00     0.070 A 
ATOM      9  C   UNL A   1      35.609  23.971  25.583  1.00  0.00     0.058 A 
ATOM     10  C   UNL A   1      33.944  22.000  24.546  1.00  0.00     0.087 A 
ATOM     11  C   UNL A   1      34.221  24.147  25.603  1.00  0.00     0.022 A 
ATOM     12  Cl  UNL A   1      32.951  20.741  23.902  1.00  0.00    -0.080 Cl
ATOM     13  C   UNL A   1      33.377  23.161  25.089  1.00  0.00     0.146 A 
ATOM     14  C   UNL A   1      33.665  25.380  26.120  1.00  0.00     0.027 C 
ATOM     15  O   UNL A   1      32.012  23.273  25.122  1.00  0.00    -0.474 OA
ATOM     16  C   UNL A   1      31.408  24.559  25.429  1.00  0.00     0.316 C 
BRANCH   7  17
ATOM     17  O   UNL A   1      37.526  22.735  25.036  1.00  0.00    -0.497 OA
ATOM     18  C   UNL A   1      38.119  23.538  26.055  1.00  0.00     0.278 C 
ENDBRANCH   7  17
BRANCH  16  19
ATOM     19  C   UNL A   1      30.711  25.100  24.170  1.00  0.00     0.430 C 
ATOM     20  F   UNL A   1      31.565  25.807  23.395  1.00  0.00    -0.167 F 
ATOM     21  F   UNL A   1      30.230  24.095  23.399  1.00  0.00    -0.167 F 
ATOM     22  F   UNL A   1      29.670  25.909  24.475  1.00  0.00    -0.167 F 
ENDBRANCH  16  19
ENDBRANCH   4   6
ENDBRANCH   3   4
ENDBRANCH   2   3
ENDBRANCH   1   2
BRANCH   1  23
ATOM     23  O   UNL A   1      32.208  30.298  26.742  1.00  0.00    -0.458 OA
BRANCH  23  24
ATOM     24  C   UNL A   1      32.856  31.427  27.105  1.00  0.00     0.338 C 
ATOM     25  O   UNL A   1      32.431  32.569  27.077  1.00  0.00    -0.246 OA
BRANCH  24  26
ATOM     26  C   UNL A   1      34.206  31.103  27.593  1.00  0.00     0.060 A 
ATOM     27  C   UNL A   1      34.550  29.776  27.839  1.00  0.00     0.016 A 
ATOM     28  C   UNL A   1      35.072  32.131  27.962  1.00  0.00     0.016 A 
ATOM     29  C   UNL A   1      35.695  29.480  28.572  1.00  0.00     0.010 A 
ATOM     30  C   UNL A   1      36.284  31.822  28.589  1.00  0.00     0.010 A 
ATOM     31  C   UNL A   1      36.588  30.497  28.945  1.00  0.00    -0.014 A 
BRANCH  31  32
ATOM     32  C   UNL A   1      37.822  30.167  29.710  1.00  0.00     0.031 A 
ATOM     33  C   UNL A   1      38.885  29.287  29.106  1.00  0.00     0.074 A 
ATOM     34  C   UNL A   1      37.998  30.675  30.947  1.00  0.00     0.049 A 
ATOM     35  N   UNL A   1      39.968  28.800  29.661  1.00  0.00    -0.248 NA
ATOM     36  C   UNL A   1      38.708  28.890  27.700  1.00  0.00     0.031 C 
ATOM     37  C   UNL A   1      37.057  31.561  31.636  1.00  0.00     0.029 A 
ATOM     38  N   UNL A   1      39.029  30.531  31.843  1.00  0.00    -0.354 N 
ATOM     39  C   UNL A   1      40.573  28.011  28.689  1.00  0.00     0.074 A 
ATOM     40  C   UNL A   1      39.736  28.071  27.512  1.00  0.00     0.031 C 
ATOM     41  C   UNL A   1      37.571  31.914  32.824  1.00  0.00     0.029 A 
ATOM     42  C   UNL A   1      38.836  31.215  33.019  1.00  0.00     0.049 A 
ATOM     43  H   UNL A   1      39.830  29.989  31.660  1.00  0.00     0.167 HD
ATOM     44  C   UNL A   1      41.727  27.308  28.775  1.00  0.00     0.037 A 
ATOM     45  C   UNL A   1      39.573  31.252  34.146  1.00  0.00     0.037 A 
ATOM     46  C   UNL A   1      42.589  27.300  29.927  1.00  0.00     0.049 A 
ATOM     47  C   UNL A   1      40.836  30.442  34.221  1.00  0.00     0.074 A 
ATOM     48  C   UNL A   1      43.799  26.648  30.091  1.00  0.00     0.029 A 
ATOM     49  N   UNL A   1      42.340  27.987  31.106  1.00  0.00    -0.354 N 
ATOM     50  N   UNL A   1      41.385  29.689  33.300  1.00  0.00    -0.248 NA
ATOM     51  C   UNL A   1      41.573  30.471  35.492  1.00  0.00     0.031 C 
ATOM     52  C   UNL A   1      44.263  26.907  31.383  1.00  0.00     0.029 A 
ATOM     53  C   UNL A   1      43.364  27.756  32.009  1.00  0.00     0.049 A 
ATOM     54  H   UNL A   1      41.553  28.553  31.275  1.00  0.00     0.167 HD
ATOM     55  C   UNL A   1      42.533  29.163  33.875  1.00  0.00     0.074 A 
ATOM     56  C   UNL A   1      42.614  29.697  35.218  1.00  0.00     0.031 C 
ATOM     57  C   UNL A   1      43.434  28.306  33.337  1.00  0.00     0.037 A 
BRANCH  44  58
ATOM     58  C   UNL A   1      42.142  26.473  27.598  1.00  0.00     0.064 A 
ATOM     59  C   UNL A   1      43.127  26.904  26.699  1.00  0.00     0.173 A 
ATOM     60  C   UNL A   1      41.624  25.179  27.436  1.00  0.00     0.173 A 
ATOM     61  F   UNL A   1      43.649  28.134  26.809  1.00  0.00    -0.203 F 
ATOM     62  C   UNL A   1      43.575  26.071  25.676  1.00  0.00     0.198 A 
ATOM     63  C   UNL A   1      42.091  24.340  26.428  1.00  0.00     0.198 A 
ATOM     64  F   UNL A   1      40.687  24.715  28.277  1.00  0.00    -0.203 F 
ATOM     65  F   UNL A   1      44.505  26.509  24.817  1.00  0.00    -0.200 F 
ATOM     66  C   UNL A   1      43.065  24.787  25.548  1.00  0.00     0.200 A 
ATOM     67  F   UNL A   1      41.609  23.095  26.316  1.00  0.00    -0.200 F 
ATOM     68  F   UNL A   1      43.516  23.978  24.579  1.00  0.00    -0.200 F 
ENDBRANCH  44  58
BRANCH  45  69
ATOM     69  C   UNL A   1      39.110  32.066  35.301  1.00  0.00     0.064 A 
ATOM     70  C   UNL A   1      38.360  31.492  36.335  1.00  0.00     0.173 A 
ATOM     71  C   UNL A   1      39.432  33.428  35.408  1.00  0.00     0.173 A 
ATOM     72  F   UNL A   1      38.007  30.199  36.268  1.00  0.00    -0.203 F 
ATOM     73  C   UNL A   1      37.945  32.248  37.429  1.00  0.00     0.198 A 
ATOM     74  C   UNL A   1      39.044  34.176  36.516  1.00  0.00     0.198 A 
ATOM     75  F   UNL A   1      40.150  34.027  34.445  1.00  0.00    -0.203 F 
ATOM     76  F   UNL A   1      37.199  31.683  38.388  1.00  0.00    -0.200 F 
ATOM     77  C   UNL A   1      38.296  33.587  37.524  1.00  0.00     0.200 A 
ATOM     78  F   UNL A   1      39.400  35.464  36.611  1.00  0.00    -0.200 F 
ATOM     79  F   UNL A   1      37.910  34.310  38.583  1.00  0.00    -0.200 F 
ENDBRANCH  45  69
BRANCH  57  80
ATOM     80  C   UNL A   1      44.598  27.897  34.187  1.00  0.00     0.064 A 
ATOM     81  C   UNL A   1      45.762  28.675  34.248  1.00  0.00     0.173 A 
ATOM     82  C   UNL A   1      44.508  26.773  35.021  1.00  0.00     0.173 A 
ATOM     83  F   UNL A   1      45.896  29.751  33.458  1.00  0.00    -0.203 F 
ATOM     84  C   UNL A   1      46.797  28.341  35.117  1.00  0.00     0.198 A 
ATOM     85  C   UNL A   1      45.535  26.457  35.905  1.00  0.00     0.198 A 
ATOM     86  F   UNL A   1      43.410  26.003  35.002  1.00  0.00    -0.203 F 
ATOM     87  F   UNL A   1      47.909  29.088  35.147  1.00  0.00    -0.200 F 
ATOM     88  C   UNL A   1      46.678  27.240  35.952  1.00  0.00     0.200 A 
ATOM     89  F   UNL A   1      45.412  25.401  36.722  1.00  0.00    -0.200 F 
ATOM     90  F   UNL A   1      47.666  26.935  36.805  1.00  0.00    -0.200 F 
ENDBRANCH  57  80
ENDBRANCH  31  32
ENDBRANCH  24  26
ENDBRANCH  23  24
ENDBRANCH   1  23
TORSDOF 13
ENDMDL
MODEL 2
REMARK VINA RESULT:     -12.1      0.366      1.641
REMARK SMILES COc1cc(Cl)c2c(c1)C=C(C(=O)OCCOC(=O)c1ccc(-c3c4nc(c(-c5c(F)c(F)c(F)c(F)c5F)c5ccc([nH]5)c(-c5c(F)c(F)c(F)c(F)c5F)c5nc(c(-c6c(F)c(F)c(F)c(F)c6F)c6ccc3[nH]6)C=C5)C=C4)cc1)[C@@H](C(F)(F)F)O2
REMARK SMILES IDX 16 1 15 2 14 3 12 4 13 5 11 6 3 7 4 8 9 9 5 10 8 11 6 12
REMARK SMILES IDX 7 13 10 14 88 15 83 16 2 17 1 18 84 19 85 20 86 21 87 22
REMARK SMILES IDX 17 23 18 24 19 25 20 26 21 27 82 28 22 29 81 30 23 31 24 32
REMARK SMILES IDX 25 33 75 34 26 35 80 36 74 37 76 38 27 39 79 40 73 41 72 42
REMARK SMILES IDX 28 44 60 45 40 46 59 47 41 48 44 49 58 50 77 51 42 52 43 53
REMARK SMILES IDX 57 55 78 56 45 57 29 58 30 59 38 60 31 61 32 62 36 63 39 64
REMARK SMILES IDX 33 65 34 66 37 67 35 68 61 69 62 70 70 71 63 72 64 73 68 74
REMARK SMILES IDX 71 75 65 76 66 77 69 78 67 79 46 80 47 81 55 82 48 83 49 84
REMARK SMILES IDX 53 85 56 86 50 87 51 88 54 89 52 90
REMARK H PARENT 76 43 44 54
REMARK Flexibility Score: inf
ROOT
ATOM      1  C   UNL A   1      31.786  30.327  25.563  1.00  0.00     0.275 C 
ENDROOT
BRANCH   1   2
ATOM      2  C   UNL A   1      31.405  28.931  25.068  1.00  0.00     0.275 C 
BRANCH   2   3
ATOM      3  O   UNL A   1      32.329  27.934  25.551  1.00  0.00    -0.459 OA
BRANCH   3   4
ATOM      4  C   UNL A   1      31.789  26.991  26.355  1.00  0.00     0.338 C 
ATOM      5  O   UNL A   1      30.961  27.168  27.234  1.00  0.00    -0.246 OA
BRANCH   4   6
ATOM      6  C   UNL A   1      32.317  25.659  26.017  1.00  0.00     0.087 C 
ATOM      7  C   UNL A   1      36.158  22.937  25.050  1.00  0.00     0.121 A 
ATOM      8  C   UNL A   1      35.339  21.929  24.550  1.00  0.00     0.070 A 
ATOM      9  C   UNL A   1      35.595  24.078  25.611  1.00  0.00     0.058 A 
ATOM     10  C   UNL A   1      33.949  22.082  24.591  1.00  0.00     0.087 A 
ATOM     11  C   UNL A   1      34.205  24.244  25.624  1.00  0.00     0.022 A 
ATOM     12  Cl  UNL A   1      32.968  20.809  23.958  1.00  0.00    -0.080 Cl
ATOM     13  C   UNL A   1      33.370  23.245  25.119  1.00  0.00     0.146 A 
ATOM     14  C   UNL A   1      33.637  25.479  26.125  1.00  0.00     0.027 C 
ATOM     15  O   UNL A   1      32.005  23.346  25.146  1.00  0.00    -0.474 OA
ATOM     16  C   UNL A   1      31.389  24.631  25.436  1.00  0.00     0.316 C 
BRANCH   7  17
ATOM     17  O   UNL A   1      37.523  22.852  25.084  1.00  0.00    -0.497 OA
ATOM     18  C   UNL A   1      38.103  23.637  26.125  1.00  0.00     0.278 C 
ENDBRANCH   7  17
BRANCH  16  19
ATOM     19  C   UNL A   1      30.692  25.152  24.168  1.00  0.00     0.430 C 
ATOM     20  F   UNL A   1      31.534  25.886  23.405  1.00  0.00    -0.167 F 
ATOM     21  F   UNL A   1      30.252  24.134  23.390  1.00  0.00    -0.167 F 
ATOM     22  F   UNL A   1      29.623  25.928  24.460  1.00  0.00    -0.167 F 
ENDBRANCH  16  19
ENDBRANCH   4   6
ENDBRANCH   3   4
ENDBRANCH   2   3
ENDBRANCH   1   2
BRANCH   1  23
ATOM     23  O   UNL A   1      32.430  30.250  26.848  1.00  0.00    -0.458 OA
BRANCH  23  24
ATOM     24  C   UNL A   1      33.107  31.357  27.225  1.00  0.00     0.338 C 
ATOM     25  O   UNL A   1      32.711  32.510  27.218  1.00  0.00    -0.246 OA
BRANCH  24  26
ATOM     26  C   UNL A   1      34.452  30.992  27.699  1.00  0.00     0.060 A 
ATOM     27  C   UNL A   1      34.742  29.662  27.993  1.00  0.00     0.016 A 
ATOM     28  C   UNL A   1      35.370  31.995  28.010  1.00  0.00     0.016 A 
ATOM     29  C   UNL A   1      35.888  29.345  28.716  1.00  0.00     0.010 A 
ATOM     30  C   UNL A   1      36.580  31.657  28.626  1.00  0.00     0.010 A 
ATOM     31  C   UNL A   1      36.832  30.334  29.029  1.00  0.00    -0.014 A 
BRANCH  31  32
ATOM     32  C   UNL A   1      38.067  29.980  29.784  1.00  0.00     0.031 A 
ATOM     33  C   UNL A   1      39.105  29.076  29.172  1.00  0.00     0.074 A 
ATOM     34  C   UNL A   1      38.264  30.488  31.018  1.00  0.00     0.049 A 
ATOM     35  N   UNL A   1      40.182  28.568  29.718  1.00  0.00    -0.248 NA
ATOM     36  C   UNL A   1      38.906  28.679  27.769  1.00  0.00     0.031 C 
ATOM     37  C   UNL A   1      37.349  31.395  31.714  1.00  0.00     0.029 A 
ATOM     38  N   UNL A   1      39.301  30.324  31.904  1.00  0.00    -0.354 N 
ATOM     39  C   UNL A   1      40.761  27.764  28.743  1.00  0.00     0.074 A 
ATOM     40  C   UNL A   1      39.914  27.839  27.574  1.00  0.00     0.031 C 
ATOM     41  C   UNL A   1      37.882  31.740  32.895  1.00  0.00     0.029 A 
ATOM     42  C   UNL A   1      39.133  31.014  33.080  1.00  0.00     0.049 A 
ATOM     43  H   UNL A   1      40.088  29.764  31.715  1.00  0.00     0.167 HD
ATOM     44  C   UNL A   1      41.900  27.036  28.819  1.00  0.00     0.037 A 
ATOM     45  C   UNL A   1      39.882  31.038  34.200  1.00  0.00     0.037 A 
ATOM     46  C   UNL A   1      42.773  27.013  29.964  1.00  0.00     0.049 A 
ATOM     47  C   UNL A   1      41.128  30.202  34.266  1.00  0.00     0.074 A 
ATOM     48  C   UNL A   1      43.971  26.336  30.118  1.00  0.00     0.029 A 
ATOM     49  N   UNL A   1      42.550  27.707  31.143  1.00  0.00    -0.354 N 
ATOM     50  N   UNL A   1      41.653  29.434  33.342  1.00  0.00    -0.248 NA
ATOM     51  C   UNL A   1      41.878  30.218  35.530  1.00  0.00     0.031 C 
ATOM     52  C   UNL A   1      44.452  26.588  31.405  1.00  0.00     0.029 A 
ATOM     53  C   UNL A   1      43.578  27.457  32.036  1.00  0.00     0.049 A 
ATOM     54  H   UNL A   1      41.776  28.290  31.318  1.00  0.00     0.167 HD
ATOM     55  C   UNL A   1      42.794  28.886  33.906  1.00  0.00     0.074 A 
ATOM     56  C   UNL A   1      42.900  29.422  35.248  1.00  0.00     0.031 C 
ATOM     57  C   UNL A   1      43.672  28.009  33.363  1.00  0.00     0.037 A 
BRANCH  44  58
ATOM     58  C   UNL A   1      42.286  26.190  27.641  1.00  0.00     0.064 A 
ATOM     59  C   UNL A   1      43.264  26.603  26.726  1.00  0.00     0.173 A 
ATOM     60  C   UNL A   1      41.748  24.902  27.493  1.00  0.00     0.173 A 
ATOM     61  F   UNL A   1      43.805  27.826  26.821  1.00  0.00    -0.203 F 
ATOM     62  C   UNL A   1      43.685  25.758  25.700  1.00  0.00     0.198 A 
ATOM     63  C   UNL A   1      42.188  24.052  26.482  1.00  0.00     0.198 A 
ATOM     64  F   UNL A   1      40.817  24.455  28.350  1.00  0.00    -0.203 F 
ATOM     65  F   UNL A   1      44.609  26.179  24.826  1.00  0.00    -0.200 F 
ATOM     66  C   UNL A   1      43.155  24.481  25.587  1.00  0.00     0.200 A 
ATOM     67  F   UNL A   1      41.687  22.813  26.384  1.00  0.00    -0.200 F 
ATOM     68  F   UNL A   1      43.581  23.661  24.615  1.00  0.00    -0.200 F 
ENDBRANCH  44  58
BRANCH  45  69
ATOM     69  C   UNL A   1      39.448  31.865  35.357  1.00  0.00     0.064 A 
ATOM     70  C   UNL A   1      39.864  33.196  35.490  1.00  0.00     0.173 A 
ATOM     71  C   UNL A   1      38.586  31.351  36.338  1.00  0.00     0.173 A 
ATOM     72  F   UNL A   1      40.707  33.727  34.591  1.00  0.00    -0.203 F 
ATOM     73  C   UNL A   1      39.440  33.979  36.562  1.00  0.00     0.198 A 
ATOM     74  C   UNL A   1      38.137  32.143  37.392  1.00  0.00     0.198 A 
ATOM     75  F   UNL A   1      38.156  30.082  36.257  1.00  0.00    -0.203 F 
ATOM     76  F   UNL A   1      39.880  35.239  36.684  1.00  0.00    -0.200 F 
ATOM     77  C   UNL A   1      38.569  33.456  37.506  1.00  0.00     0.200 A 
ATOM     78  F   UNL A   1      37.283  31.638  38.291  1.00  0.00    -0.200 F 
ATOM     79  F   UNL A   1      38.149  34.214  38.527  1.00  0.00    -0.200 F 
ENDBRANCH  45  69
BRANCH  57  80
ATOM     80  C   UNL A   1      44.834  27.577  34.202  1.00  0.00     0.064 A 
ATOM     81  C   UNL A   1      44.774  26.417  34.986  1.00  0.00     0.173 A 
ATOM     82  C   UNL A   1      46.051  28.272  34.143  1.00  0.00     0.173 A 
ATOM     83  F   UNL A   1      43.628  25.727  35.083  1.00  0.00    -0.203 F 
ATOM     84  C   UNL A   1      45.893  25.968  35.682  1.00  0.00     0.198 A 
ATOM     85  C   UNL A   1      47.173  27.808  34.821  1.00  0.00     0.198 A 
ATOM     86  F   UNL A   1      46.158  29.384  33.400  1.00  0.00    -0.203 F 
ATOM     87  F   UNL A   1      45.809  24.866  36.440  1.00  0.00    -0.200 F 
ATOM     88  C   UNL A   1      47.094  26.656  35.590  1.00  0.00     0.200 A 
ATOM     89  F   UNL A   1      48.336  28.466  34.719  1.00  0.00    -0.200 F 
ATOM     90  F   UNL A   1      48.176  26.209  36.242  1.00  0.00    -0.200 F 
ENDBRANCH  57  80
ENDBRANCH  31  32
ENDBRANCH  24  26
ENDBRANCH  23  24
ENDBRANCH   1  23
TORSDOF 13
ENDMDL
MODEL 3
REMARK VINA RESULT:     -12.0      5.484      9.124
REMARK SMILES COc1cc(Cl)c2c(c1)C=C(C(=O)OCCOC(=O)c1ccc(-c3c4nc(c(-c5c(F)c(F)c(F)c(F)c5F)c5ccc([nH]5)c(-c5c(F)c(F)c(F)c(F)c5F)c5nc(c(-c6c(F)c(F)c(F)c(F)c6F)c6ccc3[nH]6)C=C5)C=C4)cc1)[C@@H](C(F)(F)F)O2
REMARK SMILES IDX 16 1 15 2 14 3 12 4 13 5 11 6 3 7 4 8 9 9 5 10 8 11 6 12
REMARK SMILES IDX 7 13 10 14 88 15 83 16 2 17 1 18 84 19 85 20 86 21 87 22
REMARK SMILES IDX 17 23 18 24 19 25 20 26 21 27 82 28 22 29 81 30 23 31 24 32
REMARK SMILES IDX 25 33 75 34 26 35 80 36 74 37 76 38 27 39 79 40 73 41 72 42
REMARK SMILES IDX 28 44 60 45 40 46 59 47 41 48 44 49 58 50 77 51 42 52 43 53
REMARK SMILES IDX 57 55 78 56 45 57 29 58 30 59 38 60 31 61 32 62 36 63 39 64
REMARK SMILES IDX 33 65 34 66 37 67 35 68 61 69 62 70 70 71 63 72 64 73 68 74
REMARK SMILES IDX 71 75 65 76 66 77 69 78 67 79 46 80 47 81 55 82 48 83 49 84
REMARK SMILES IDX 53 85 56 86 50 87 51 88 54 89 52 90
REMARK H PARENT 76 43 44 54
REMARK Flexibility Score: inf
ROOT
ATOM      1  C   UNL A   1      40.832  19.935  26.377  1.00  0.00     0.275 C 
ENDROOT
BRANCH   1   2
ATOM      2  C   UNL A   1      42.270  19.861  26.889  1.00  0.00     0.275 C 
BRANCH   2   3
ATOM      3  O   UNL A   1      43.205  20.335  25.897  1.00  0.00    -0.459 OA
BRANCH   3   4
ATOM      4  C   UNL A   1      43.178  21.668  25.673  1.00  0.00     0.338 C 
ATOM      5  O   UNL A   1      42.348  22.282  25.021  1.00  0.00    -0.246 OA
BRANCH   4   6
ATOM      6  C   UNL A   1      44.298  22.331  26.361  1.00  0.00     0.087 C 
ATOM      7  C   UNL A   1      45.724  25.393  29.779  1.00  0.00     0.121 A 
ATOM      8  C   UNL A   1      46.998  25.450  29.221  1.00  0.00     0.070 A 
ATOM      9  C   UNL A   1      44.767  24.538  29.245  1.00  0.00     0.058 A 
ATOM     10  C   UNL A   1      47.300  24.661  28.105  1.00  0.00     0.087 A 
ATOM     11  C   UNL A   1      45.061  23.772  28.111  1.00  0.00     0.022 A 
ATOM     12  Cl  UNL A   1      48.892  24.762  27.442  1.00  0.00    -0.080 Cl
ATOM     13  C   UNL A   1      46.332  23.824  27.535  1.00  0.00     0.146 A 
ATOM     14  C   UNL A   1      44.025  22.958  27.510  1.00  0.00     0.027 C 
ATOM     15  O   UNL A   1      46.677  23.064  26.449  1.00  0.00    -0.474 OA
ATOM     16  C   UNL A   1      45.635  22.398  25.683  1.00  0.00     0.316 C 
BRANCH   7  17
ATOM     17  O   UNL A   1      45.356  26.100  30.891  1.00  0.00    -0.497 OA
ATOM     18  C   UNL A   1      44.030  26.619  30.807  1.00  0.00     0.278 C 
ENDBRANCH   7  17
BRANCH  16  19
ATOM     19  C   UNL A   1      45.533  23.056  24.297  1.00  0.00     0.430 C 
ATOM     20  F   UNL A   1      44.734  24.147  24.324  1.00  0.00    -0.167 F 
ATOM     21  F   UNL A   1      46.744  23.473  23.855  1.00  0.00    -0.167 F 
ATOM     22  F   UNL A   1      45.035  22.206  23.369  1.00  0.00    -0.167 F 
ENDBRANCH  16  19
ENDBRANCH   4   6
ENDBRANCH   3   4
ENDBRANCH   2   3
ENDBRANCH   1   2
BRANCH   1  23
ATOM     23  O   UNL A   1      40.058  20.854  27.171  1.00  0.00    -0.458 OA
BRANCH  23  24
ATOM     24  C   UNL A   1      39.383  21.796  26.477  1.00  0.00     0.338 C 
ATOM     25  O   UNL A   1      38.559  21.623  25.596  1.00  0.00    -0.246 OA
BRANCH  24  26
ATOM     26  C   UNL A   1      39.757  23.139  26.949  1.00  0.00     0.060 A 
ATOM     27  C   UNL A   1      39.365  24.259  26.220  1.00  0.00     0.016 A 
ATOM     28  C   UNL A   1      40.636  23.274  28.024  1.00  0.00     0.016 A 
ATOM     29  C   UNL A   1      39.952  25.495  26.477  1.00  0.00     0.010 A 
ATOM     30  C   UNL A   1      41.127  24.540  28.359  1.00  0.00     0.010 A 
ATOM     31  C   UNL A   1      40.829  25.657  27.560  1.00  0.00    -0.014 A 
BRANCH  31  32
ATOM     32  C   UNL A   1      41.434  26.990  27.841  1.00  0.00     0.031 A 
ATOM     33  C   UNL A   1      42.819  27.321  27.347  1.00  0.00     0.074 A 
ATOM     34  C   UNL A   1      40.729  27.913  28.527  1.00  0.00     0.049 A 
ATOM     35  N   UNL A   1      43.551  28.380  27.591  1.00  0.00    -0.248 NA
ATOM     36  C   UNL A   1      43.475  26.333  26.476  1.00  0.00     0.031 C 
ATOM     37  C   UNL A   1      39.369  27.727  29.037  1.00  0.00     0.029 A 
ATOM     38  N   UNL A   1      41.050  29.193  28.905  1.00  0.00    -0.354 N 
ATOM     39  C   UNL A   1      44.760  28.166  26.941  1.00  0.00     0.074 A 
ATOM     40  C   UNL A   1      44.674  26.872  26.301  1.00  0.00     0.031 C 
ATOM     41  C   UNL A   1      38.958  28.862  29.623  1.00  0.00     0.029 A 
ATOM     42  C   UNL A   1      40.052  29.826  29.606  1.00  0.00     0.049 A 
ATOM     43  H   UNL A   1      41.914  29.617  28.696  1.00  0.00     0.167 HD
ATOM     44  C   UNL A   1      45.840  28.981  26.882  1.00  0.00     0.037 A 
ATOM     45  C   UNL A   1      40.026  31.035  30.201  1.00  0.00     0.037 A 
ATOM     46  C   UNL A   1      45.899  30.293  27.469  1.00  0.00     0.049 A 
ATOM     47  C   UNL A   1      41.247  31.908  30.140  1.00  0.00     0.074 A 
ATOM     48  C   UNL A   1      46.937  31.208  27.427  1.00  0.00     0.029 A 
ATOM     49  N   UNL A   1      44.873  30.883  28.193  1.00  0.00    -0.354 N 
ATOM     50  N   UNL A   1      42.388  31.684  29.536  1.00  0.00    -0.248 NA
ATOM     51  C   UNL A   1      41.187  33.191  30.854  1.00  0.00     0.031 C 
ATOM     52  C   UNL A   1      46.556  32.336  28.158  1.00  0.00     0.029 A 
ATOM     53  C   UNL A   1      45.263  32.141  28.619  1.00  0.00     0.049 A 
ATOM     54  H   UNL A   1      43.999  30.469  28.375  1.00  0.00     0.167 HD
ATOM     55  C   UNL A   1      43.176  32.797  29.787  1.00  0.00     0.074 A 
ATOM     56  C   UNL A   1      42.378  33.706  30.583  1.00  0.00     0.031 C 
ATOM     57  C   UNL A   1      44.451  33.037  29.400  1.00  0.00     0.037 A 
BRANCH  44  58
ATOM     58  C   UNL A   1      47.064  28.491  26.164  1.00  0.00     0.064 A 
ATOM     59  C   UNL A   1      48.249  28.189  26.849  1.00  0.00     0.173 A 
ATOM     60  C   UNL A   1      47.011  28.216  24.788  1.00  0.00     0.173 A 
ATOM     61  F   UNL A   1      48.352  28.438  28.162  1.00  0.00    -0.203 F 
ATOM     62  C   UNL A   1      49.339  27.635  26.181  1.00  0.00     0.198 A 
ATOM     63  C   UNL A   1      48.093  27.640  24.129  1.00  0.00     0.198 A 
ATOM     64  F   UNL A   1      45.895  28.477  24.089  1.00  0.00    -0.203 F 
ATOM     65  F   UNL A   1      50.469  27.369  26.851  1.00  0.00    -0.200 F 
ATOM     66  C   UNL A   1      49.256  27.351  24.826  1.00  0.00     0.200 A 
ATOM     67  F   UNL A   1      48.005  27.351  22.824  1.00  0.00    -0.200 F 
ATOM     68  F   UNL A   1      50.297  26.793  24.191  1.00  0.00    -0.200 F 
ENDBRANCH  44  58
BRANCH  45  69
ATOM     69  C   UNL A   1      38.805  31.469  30.930  1.00  0.00     0.064 A 
ATOM     70  C   UNL A   1      37.758  32.119  30.262  1.00  0.00     0.173 A 
ATOM     71  C   UNL A   1      38.646  31.218  32.301  1.00  0.00     0.173 A 
ATOM     72  F   UNL A   1      37.871  32.403  28.956  1.00  0.00    -0.203 F 
ATOM     73  C   UNL A   1      36.603  32.506  30.939  1.00  0.00     0.198 A 
ATOM     74  C   UNL A   1      37.479  31.577  32.970  1.00  0.00     0.198 A 
ATOM     75  F   UNL A   1      39.617  30.597  32.987  1.00  0.00    -0.203 F 
ATOM     76  F   UNL A   1      35.632  33.158  30.285  1.00  0.00    -0.200 F 
ATOM     77  C   UNL A   1      36.460  32.226  32.290  1.00  0.00     0.200 A 
ATOM     78  F   UNL A   1      37.339  31.289  34.271  1.00  0.00    -0.200 F 
ATOM     79  F   UNL A   1      35.343  32.585  32.937  1.00  0.00    -0.200 F 
ENDBRANCH  45  69
BRANCH  57  80
ATOM     80  C   UNL A   1      45.070  34.338  29.812  1.00  0.00     0.064 A 
ATOM     81  C   UNL A   1      45.837  34.441  30.980  1.00  0.00     0.173 A 
ATOM     82  C   UNL A   1      44.979  35.463  28.979  1.00  0.00     0.173 A 
ATOM     83  F   UNL A   1      45.942  33.394  31.812  1.00  0.00    -0.203 F 
ATOM     84  C   UNL A   1      46.492  35.626  31.301  1.00  0.00     0.198 A 
ATOM     85  C   UNL A   1      45.654  36.639  29.291  1.00  0.00     0.198 A 
ATOM     86  F   UNL A   1      44.262  35.410  27.846  1.00  0.00    -0.203 F 
ATOM     87  F   UNL A   1      47.206  35.709  32.432  1.00  0.00    -0.200 F 
ATOM     88  C   UNL A   1      46.410  36.719  30.451  1.00  0.00     0.200 A 
ATOM     89  F   UNL A   1      45.586  37.689  28.461  1.00  0.00    -0.200 F 
ATOM     90  F   UNL A   1      47.061  37.852  30.750  1.00  0.00    -0.200 F 
ENDBRANCH  57  80
ENDBRANCH  31  32
ENDBRANCH  24  26
ENDBRANCH  23  24
ENDBRANCH   1  23
TORSDOF 13
ENDMDL
