MODEL 1
REMARK VINA RESULT:     -12.7      0.000      0.000
REMARK SMILES COc1ccc(/C=C/C(=O)Nc2cc(Cl)ccc2C(=O)OCCOC(=O)c2ccc(-c3c4nc(c(-c5c(F)c(F)c(F)c(F)c5F)c5ccc([nH]5)c(-c5c(F)c(F)c(F)c(F)c5F)c5nc(c(-c6c(F)c(F)c(F)c(F)c6F)c6ccc3[nH]6)C=C5)C=C4)cc2)cc1
REMARK SMILES IDX 22 1 21 2 19 3 20 4 18 5 12 6 13 7 14 8 17 9 15 10 16 11
REMARK SMILES IDX 11 12 9 13 10 14 8 16 7 17 6 18 3 19 4 20 91 21 5 22 90 23
REMARK SMILES IDX 2 24 1 25 23 26 24 27 25 28 26 29 27 30 28 31 89 32 29 33
REMARK SMILES IDX 88 34 30 35 31 36 32 37 82 38 33 39 87 40 81 41 83 42 34 43
REMARK SMILES IDX 86 44 80 45 79 46 35 48 67 49 47 50 66 51 48 52 51 53 65 54
REMARK SMILES IDX 84 55 49 56 50 57 64 59 85 60 52 61 36 62 37 63 45 64 38 65
REMARK SMILES IDX 39 66 43 67 46 68 40 69 41 70 44 71 42 72 68 73 69 74 77 75
REMARK SMILES IDX 70 76 71 77 75 78 78 79 72 80 73 81 76 82 74 83 53 84 54 85
REMARK SMILES IDX 62 86 55 87 56 88 60 89 63 90 57 91 58 92 61 93 59 94
REMARK H PARENT 11 15 83 47 51 58
REMARK Flexibility Score: inf
ROOT
ATOM      1  C   UNL A   1      35.454  21.063  25.448  1.00  0.00     0.275 C 
ENDROOT
BRANCH   1   2
ATOM      2  O   UNL A   1      34.478  20.906  24.391  1.00  0.00    -0.458 OA
BRANCH   2   3
ATOM      3  C   UNL A   1      33.240  21.342  24.725  1.00  0.00     0.340 C 
ATOM      4  O   UNL A   1      32.534  20.850  25.586  1.00  0.00    -0.246 OA
BRANCH   3   5
ATOM      5  C   UNL A   1      32.765  22.485  23.915  1.00  0.00     0.083 A 
ATOM      6  C   UNL A   1      31.599  23.216  24.185  1.00  0.00     0.057 A 
ATOM      7  C   UNL A   1      31.248  24.270  23.317  1.00  0.00     0.047 A 
ATOM      8  C   UNL A   1      32.105  24.675  22.291  1.00  0.00     0.043 A 
ATOM      9  C   UNL A   1      33.601  22.895  22.857  1.00  0.00     0.019 A 
ATOM     10  Cl  UNL A   1      31.716  26.050  21.336  1.00  0.00    -0.084 Cl
ATOM     11  C   UNL A   1      33.292  23.998  22.065  1.00  0.00     0.021 A 
BRANCH   6  12
ATOM     12  N   UNL A   1      30.729  23.037  25.280  1.00  0.00    -0.322 N 
ATOM     13  C   UNL A   1      30.696  23.579  26.533  1.00  0.00     0.248 C 
ATOM     14  O   UNL A   1      29.989  23.065  27.398  1.00  0.00    -0.270 OA
ATOM     15  H   UNL A   1      30.002  22.396  25.107  1.00  0.00     0.170 HD
BRANCH  13  16
ATOM     16  C   UNL A   1      31.466  24.798  26.880  1.00  0.00     0.072 C 
ATOM     17  C   UNL A   1      31.197  26.035  26.430  1.00  0.00     0.014 C 
BRANCH  17  18
ATOM     18  C   UNL A   1      32.103  27.185  26.619  1.00  0.00    -0.025 A 
ATOM     19  C   UNL A   1      33.711  29.465  26.994  1.00  0.00     0.118 A 
ATOM     20  C   UNL A   1      34.218  28.351  26.329  1.00  0.00     0.047 A 
ATOM     21  C   UNL A   1      32.388  29.471  27.429  1.00  0.00     0.047 A 
ATOM     22  C   UNL A   1      33.424  27.212  26.154  1.00  0.00     0.012 A 
ATOM     23  C   UNL A   1      31.595  28.332  27.252  1.00  0.00     0.012 A 
BRANCH  19  24
ATOM     24  O   UNL A   1      34.557  30.529  27.149  1.00  0.00    -0.497 OA
ATOM     25  C   UNL A   1      33.904  31.677  27.689  1.00  0.00     0.278 C 
ENDBRANCH  19  24
ENDBRANCH  17  18
ENDBRANCH  13  16
ENDBRANCH   6  12
ENDBRANCH   3   5
ENDBRANCH   2   3
ENDBRANCH   1   2
BRANCH   1  26
ATOM     26  C   UNL A   1      36.899  20.822  24.998  1.00  0.00     0.275 C 
BRANCH  26  27
ATOM     27  O   UNL A   1      37.755  21.947  25.274  1.00  0.00    -0.458 OA
BRANCH  27  28
ATOM     28  C   UNL A   1      38.891  21.637  25.933  1.00  0.00     0.338 C 
ATOM     29  O   UNL A   1      39.503  20.579  25.899  1.00  0.00    -0.246 OA
BRANCH  28  30
ATOM     30  C   UNL A   1      39.408  22.787  26.687  1.00  0.00     0.060 A 
ATOM     31  C   UNL A   1      39.007  24.058  26.299  1.00  0.00     0.016 A 
ATOM     32  C   UNL A   1      40.477  22.638  27.564  1.00  0.00     0.016 A 
ATOM     33  C   UNL A   1      39.755  25.171  26.631  1.00  0.00     0.010 A 
ATOM     34  C   UNL A   1      41.141  23.779  28.029  1.00  0.00     0.010 A 
ATOM     35  C   UNL A   1      40.814  25.054  27.527  1.00  0.00    -0.014 A 
BRANCH  35  36
ATOM     36  C   UNL A   1      41.587  26.266  27.892  1.00  0.00     0.031 A 
ATOM     37  C   UNL A   1      40.950  27.324  28.746  1.00  0.00     0.074 A 
ATOM     38  C   UNL A   1      42.864  26.397  27.482  1.00  0.00     0.049 A 
ATOM     39  N   UNL A   1      41.354  28.542  28.991  1.00  0.00    -0.248 NA
ATOM     40  C   UNL A   1      39.679  26.970  29.400  1.00  0.00     0.031 C 
ATOM     41  C   UNL A   1      43.620  25.400  26.716  1.00  0.00     0.029 A 
ATOM     42  N   UNL A   1      43.759  27.423  27.650  1.00  0.00    -0.354 N 
ATOM     43  C   UNL A   1      40.355  29.122  29.763  1.00  0.00     0.074 A 
ATOM     44  C   UNL A   1      39.327  28.122  29.954  1.00  0.00     0.031 C 
ATOM     45  C   UNL A   1      44.863  25.850  26.502  1.00  0.00     0.029 A 
ATOM     46  C   UNL A   1      44.955  27.213  27.006  1.00  0.00     0.049 A 
ATOM     47  H   UNL A   1      43.563  28.231  28.178  1.00  0.00     0.167 HD
ATOM     48  C   UNL A   1      40.307  30.383  30.253  1.00  0.00     0.037 A 
ATOM     49  C   UNL A   1      45.982  28.050  26.777  1.00  0.00     0.037 A 
ATOM     50  C   UNL A   1      41.371  31.341  30.092  1.00  0.00     0.049 A 
ATOM     51  C   UNL A   1      45.878  29.460  27.285  1.00  0.00     0.074 A 
ATOM     52  C   UNL A   1      41.443  32.640  30.562  1.00  0.00     0.029 A 
ATOM     53  N   UNL A   1      42.556  31.096  29.410  1.00  0.00    -0.354 N 
ATOM     54  N   UNL A   1      44.912  30.024  27.969  1.00  0.00    -0.248 NA
ATOM     55  C   UNL A   1      47.000  30.355  26.977  1.00  0.00     0.031 C 
ATOM     56  C   UNL A   1      42.645  33.199  30.118  1.00  0.00     0.029 A 
ATOM     57  C   UNL A   1      43.355  32.228  29.428  1.00  0.00     0.049 A 
ATOM     58  H   UNL A   1      42.794  30.244  28.979  1.00  0.00     0.167 HD
ATOM     59  C   UNL A   1      45.315  31.332  28.191  1.00  0.00     0.074 A 
ATOM     60  C   UNL A   1      46.627  31.468  27.590  1.00  0.00     0.031 C 
ATOM     61  C   UNL A   1      44.661  32.332  28.830  1.00  0.00     0.037 A 
BRANCH  48  62
ATOM     62  C   UNL A   1      39.056  30.820  30.959  1.00  0.00     0.064 A 
ATOM     63  C   UNL A   1      37.969  31.388  30.279  1.00  0.00     0.173 A 
ATOM     64  C   UNL A   1      38.929  30.619  32.343  1.00  0.00     0.173 A 
ATOM     65  F   UNL A   1      38.042  31.617  28.960  1.00  0.00    -0.203 F 
ATOM     66  C   UNL A   1      36.811  31.757  30.962  1.00  0.00     0.198 A 
ATOM     67  C   UNL A   1      37.759  30.959  33.017  1.00  0.00     0.198 A 
ATOM     68  F   UNL A   1      39.938  30.078  33.044  1.00  0.00    -0.203 F 
ATOM     69  F   UNL A   1      35.802  32.339  30.299  1.00  0.00    -0.200 F 
ATOM     70  C   UNL A   1      36.703  31.534  32.327  1.00  0.00     0.200 A 
ATOM     71  F   UNL A   1      37.654  30.729  34.332  1.00  0.00    -0.200 F 
ATOM     72  F   UNL A   1      35.583  31.876  32.978  1.00  0.00    -0.200 F 
ENDBRANCH  48  62
BRANCH  49  73
ATOM     73  C   UNL A   1      47.149  27.602  25.971  1.00  0.00     0.064 A 
ATOM     74  C   UNL A   1      47.153  27.715  24.575  1.00  0.00     0.173 A 
ATOM     75  C   UNL A   1      48.285  27.043  26.579  1.00  0.00     0.173 A 
ATOM     76  F   UNL A   1      46.085  28.225  23.942  1.00  0.00    -0.203 F 
ATOM     77  C   UNL A   1      48.232  27.265  23.817  1.00  0.00     0.198 A 
ATOM     78  C   UNL A   1      49.381  26.631  25.825  1.00  0.00     0.198 A 
ATOM     79  F   UNL A   1      48.340  26.914  27.913  1.00  0.00    -0.203 F 
ATOM     80  F   UNL A   1      48.185  27.335  22.481  1.00  0.00    -0.200 F 
ATOM     81  C   UNL A   1      49.349  26.731  24.444  1.00  0.00     0.200 A 
ATOM     82  F   UNL A   1      50.466  26.138  26.437  1.00  0.00    -0.200 F 
ATOM     83  F   UNL A   1      50.390  26.307  23.715  1.00  0.00    -0.200 F 
ENDBRANCH  49  73
BRANCH  61  84
ATOM     84  C   UNL A   1      45.380  33.644  28.952  1.00  0.00     0.064 A 
ATOM     85  C   UNL A   1      45.221  34.664  28.004  1.00  0.00     0.173 A 
ATOM     86  C   UNL A   1      46.220  33.886  30.049  1.00  0.00     0.173 A 
ATOM     87  F   UNL A   1      44.444  34.471  26.927  1.00  0.00    -0.203 F 
ATOM     88  C   UNL A   1      45.904  35.870  28.134  1.00  0.00     0.198 A 
ATOM     89  C   UNL A   1      46.870  35.107  30.195  1.00  0.00     0.198 A 
ATOM     90  F   UNL A   1      46.399  32.944  30.987  1.00  0.00    -0.203 F 
ATOM     91  F   UNL A   1      45.785  36.809  27.184  1.00  0.00    -0.200 F 
ATOM     92  C   UNL A   1      46.720  36.094  29.232  1.00  0.00     0.200 A 
ATOM     93  F   UNL A   1      47.645  35.328  31.266  1.00  0.00    -0.200 F 
ATOM     94  F   UNL A   1      47.369  37.259  29.358  1.00  0.00    -0.200 F 
ENDBRANCH  61  84
ENDBRANCH  35  36
ENDBRANCH  28  30
ENDBRANCH  27  28
ENDBRANCH  26  27
ENDBRANCH   1  26
TORSDOF 15
ENDMDL
MODEL 2
REMARK VINA RESULT:     -12.6      1.925      4.533
REMARK SMILES COc1ccc(/C=C/C(=O)Nc2cc(Cl)ccc2C(=O)OCCOC(=O)c2ccc(-c3c4nc(c(-c5c(F)c(F)c(F)c(F)c5F)c5ccc([nH]5)c(-c5c(F)c(F)c(F)c(F)c5F)c5nc(c(-c6c(F)c(F)c(F)c(F)c6F)c6ccc3[nH]6)C=C5)C=C4)cc2)cc1
REMARK SMILES IDX 22 1 21 2 19 3 20 4 18 5 12 6 13 7 14 8 17 9 15 10 16 11
REMARK SMILES IDX 11 12 9 13 10 14 8 16 7 17 6 18 3 19 4 20 91 21 5 22 90 23
REMARK SMILES IDX 2 24 1 25 23 26 24 27 25 28 26 29 27 30 28 31 89 32 29 33
REMARK SMILES IDX 88 34 30 35 31 36 32 37 82 38 33 39 87 40 81 41 83 42 34 43
REMARK SMILES IDX 86 44 80 45 79 46 35 48 67 49 47 50 66 51 48 52 51 53 65 54
REMARK SMILES IDX 84 55 49 56 50 57 64 59 85 60 52 61 36 62 37 63 45 64 38 65
REMARK SMILES IDX 39 66 43 67 46 68 40 69 41 70 44 71 42 72 68 73 69 74 77 75
REMARK SMILES IDX 70 76 71 77 75 78 78 79 72 80 73 81 76 82 74 83 53 84 54 85
REMARK SMILES IDX 62 86 55 87 56 88 60 89 63 90 57 91 58 92 61 93 59 94
REMARK H PARENT 11 15 83 47 51 58
REMARK Flexibility Score: inf
ROOT
ATOM      1  C   UNL A   1      35.673  21.409  25.286  1.00  0.00     0.275 C 
ENDROOT
BRANCH   1   2
ATOM      2  O   UNL A   1      35.722  22.612  26.088  1.00  0.00    -0.458 OA
BRANCH   2   3
ATOM      3  C   UNL A   1      34.962  23.622  25.602  1.00  0.00     0.340 C 
ATOM      4  O   UNL A   1      35.380  24.562  24.953  1.00  0.00    -0.246 OA
BRANCH   3   5
ATOM      5  C   UNL A   1      33.529  23.521  25.957  1.00  0.00     0.083 A 
ATOM      6  C   UNL A   1      32.474  23.736  25.058  1.00  0.00     0.057 A 
ATOM      7  C   UNL A   1      31.151  23.632  25.533  1.00  0.00     0.047 A 
ATOM      8  C   UNL A   1      30.884  23.190  26.832  1.00  0.00     0.043 A 
ATOM      9  C   UNL A   1      33.235  23.104  27.270  1.00  0.00     0.019 A 
ATOM     10  Cl  UNL A   1      29.261  22.940  27.341  1.00  0.00    -0.084 Cl
ATOM     11  C   UNL A   1      31.925  22.910  27.702  1.00  0.00     0.021 A 
BRANCH   6  12
ATOM     12  N   UNL A   1      32.586  24.016  23.681  1.00  0.00    -0.322 N 
ATOM     13  C   UNL A   1      32.982  23.262  22.614  1.00  0.00     0.248 C 
ATOM     14  O   UNL A   1      33.245  23.814  21.545  1.00  0.00    -0.270 OA
ATOM     15  H   UNL A   1      32.330  24.936  23.442  1.00  0.00     0.170 HD
BRANCH  13  16
ATOM     16  C   UNL A   1      33.073  21.784  22.689  1.00  0.00     0.072 C 
ATOM     17  C   UNL A   1      32.276  20.998  23.433  1.00  0.00     0.014 C 
BRANCH  17  18
ATOM     18  C   UNL A   1      32.527  19.560  23.653  1.00  0.00    -0.025 A 
ATOM     19  C   UNL A   1      33.056  16.852  24.208  1.00  0.00     0.118 A 
ATOM     20  C   UNL A   1      32.989  17.298  22.890  1.00  0.00     0.047 A 
ATOM     21  C   UNL A   1      32.913  17.759  25.255  1.00  0.00     0.047 A 
ATOM     22  C   UNL A   1      32.712  18.642  22.613  1.00  0.00     0.012 A 
ATOM     23  C   UNL A   1      32.638  19.102  24.977  1.00  0.00     0.012 A 
BRANCH  19  24
ATOM     24  O   UNL A   1      33.304  15.520  24.397  1.00  0.00    -0.497 OA
ATOM     25  C   UNL A   1      32.793  15.035  25.638  1.00  0.00     0.278 C 
ENDBRANCH  19  24
ENDBRANCH  17  18
ENDBRANCH  13  16
ENDBRANCH   6  12
ENDBRANCH   3   5
ENDBRANCH   2   3
ENDBRANCH   1   2
BRANCH   1  26
ATOM     26  C   UNL A   1      37.051  20.814  24.977  1.00  0.00     0.275 C 
BRANCH  26  27
ATOM     27  O   UNL A   1      38.104  21.793  25.067  1.00  0.00    -0.458 OA
BRANCH  27  28
ATOM     28  C   UNL A   1      39.096  21.470  25.923  1.00  0.00     0.338 C 
ATOM     29  O   UNL A   1      39.634  20.381  26.058  1.00  0.00    -0.246 OA
BRANCH  28  30
ATOM     30  C   UNL A   1      39.558  22.642  26.679  1.00  0.00     0.060 A 
ATOM     31  C   UNL A   1      39.125  23.896  26.271  1.00  0.00     0.016 A 
ATOM     32  C   UNL A   1      40.611  22.534  27.582  1.00  0.00     0.016 A 
ATOM     33  C   UNL A   1      39.829  25.036  26.612  1.00  0.00     0.010 A 
ATOM     34  C   UNL A   1      41.226  23.700  28.052  1.00  0.00     0.010 A 
ATOM     35  C   UNL A   1      40.871  24.959  27.532  1.00  0.00    -0.014 A 
BRANCH  35  36
ATOM     36  C   UNL A   1      41.595  26.199  27.904  1.00  0.00     0.031 A 
ATOM     37  C   UNL A   1      40.898  27.251  28.717  1.00  0.00     0.074 A 
ATOM     38  C   UNL A   1      42.882  26.360  27.538  1.00  0.00     0.049 A 
ATOM     39  N   UNL A   1      41.259  28.484  28.957  1.00  0.00    -0.248 NA
ATOM     40  C   UNL A   1      39.615  26.871  29.331  1.00  0.00     0.031 C 
ATOM     41  C   UNL A   1      43.693  25.373  26.816  1.00  0.00     0.029 A 
ATOM     42  N   UNL A   1      43.741  27.414  27.720  1.00  0.00    -0.354 N 
ATOM     43  C   UNL A   1      40.217  29.047  29.683  1.00  0.00     0.074 A 
ATOM     44  C   UNL A   1      39.211  28.021  29.853  1.00  0.00     0.031 C 
ATOM     45  C   UNL A   1      44.930  25.856  26.639  1.00  0.00     0.029 A 
ATOM     46  C   UNL A   1      44.965  27.228  27.123  1.00  0.00     0.049 A 
ATOM     47  H   UNL A   1      43.504  28.224  28.228  1.00  0.00     0.167 HD
ATOM     48  C   UNL A   1      40.116  30.314  30.149  1.00  0.00     0.037 A 
ATOM     49  C   UNL A   1      45.976  28.091  26.917  1.00  0.00     0.037 A 
ATOM     50  C   UNL A   1      41.158  31.299  30.011  1.00  0.00     0.049 A 
ATOM     51  C   UNL A   1      45.814  29.505  27.399  1.00  0.00     0.074 A 
ATOM     52  C   UNL A   1      41.176  32.606  30.462  1.00  0.00     0.029 A 
ATOM     53  N   UNL A   1      42.373  31.078  29.376  1.00  0.00    -0.354 N 
ATOM     54  N   UNL A   1      44.808  30.051  28.038  1.00  0.00    -0.248 NA
ATOM     55  C   UNL A   1      46.921  30.426  27.116  1.00  0.00     0.031 C 
ATOM     56  C   UNL A   1      42.377  33.193  30.052  1.00  0.00     0.029 A 
ATOM     57  C   UNL A   1      43.138  32.232  29.404  1.00  0.00     0.049 A 
ATOM     58  H   UNL A   1      42.650  30.226  28.967  1.00  0.00     0.167 HD
ATOM     59  C   UNL A   1      45.167  31.373  28.252  1.00  0.00     0.074 A 
ATOM     60  C   UNL A   1      46.495  31.538  27.696  1.00  0.00     0.031 C 
ATOM     61  C   UNL A   1      44.462  32.364  28.851  1.00  0.00     0.037 A 
BRANCH  48  62
ATOM     62  C   UNL A   1      38.828  30.725  30.802  1.00  0.00     0.064 A 
ATOM     63  C   UNL A   1      38.650  30.702  32.193  1.00  0.00     0.173 A 
ATOM     64  C   UNL A   1      37.765  31.198  30.015  1.00  0.00     0.173 A 
ATOM     65  F   UNL A   1      39.625  30.245  32.992  1.00  0.00    -0.203 F 
ATOM     66  C   UNL A   1      37.449  31.116  32.768  1.00  0.00     0.198 A 
ATOM     67  C   UNL A   1      36.580  31.641  30.594  1.00  0.00     0.198 A 
ATOM     68  F   UNL A   1      37.882  31.242  28.678  1.00  0.00    -0.203 F 
ATOM     69  F   UNL A   1      37.285  31.044  34.096  1.00  0.00    -0.200 F 
ATOM     70  C   UNL A   1      36.420  31.594  31.970  1.00  0.00     0.200 A 
ATOM     71  F   UNL A   1      35.594  32.115  29.821  1.00  0.00    -0.200 F 
ATOM     72  F   UNL A   1      35.273  32.006  32.527  1.00  0.00    -0.200 F 
ENDBRANCH  48  62
BRANCH  49  73
ATOM     73  C   UNL A   1      47.184  27.663  26.161  1.00  0.00     0.064 A 
ATOM     74  C   UNL A   1      48.326  27.197  26.824  1.00  0.00     0.173 A 
ATOM     75  C   UNL A   1      47.225  27.718  24.758  1.00  0.00     0.173 A 
ATOM     76  F   UNL A   1      48.346  27.142  28.165  1.00  0.00    -0.203 F 
ATOM     77  C   UNL A   1      49.469  26.827  26.118  1.00  0.00     0.198 A 
ATOM     78  C   UNL A   1      48.352  27.309  24.051  1.00  0.00     0.198 A 
ATOM     79  F   UNL A   1      46.158  28.151  24.070  1.00  0.00    -0.203 F 
ATOM     80  F   UNL A   1      50.566  26.437  26.781  1.00  0.00    -0.200 F 
ATOM     81  C   UNL A   1      49.478  26.875  24.732  1.00  0.00     0.200 A 
ATOM     82  F   UNL A   1      48.347  27.336  22.712  1.00  0.00    -0.200 F 
ATOM     83  F   UNL A   1      50.575  26.511  24.053  1.00  0.00    -0.200 F 
ENDBRANCH  49  73
BRANCH  61  84
ATOM     84  C   UNL A   1      45.139  33.698  28.977  1.00  0.00     0.064 A 
ATOM     85  C   UNL A   1      45.949  34.014  30.075  1.00  0.00     0.173 A 
ATOM     86  C   UNL A   1      44.990  34.660  27.966  1.00  0.00     0.173 A 
ATOM     87  F   UNL A   1      46.106  33.134  31.076  1.00  0.00    -0.203 F 
ATOM     88  C   UNL A   1      46.561  35.260  30.174  1.00  0.00     0.198 A 
ATOM     89  C   UNL A   1      45.635  35.890  28.051  1.00  0.00     0.198 A 
ATOM     90  F   UNL A   1      44.230  34.402  26.892  1.00  0.00    -0.203 F 
ATOM     91  F   UNL A   1      47.283  35.565  31.263  1.00  0.00    -0.200 F 
ATOM     92  C   UNL A   1      46.411  36.193  29.159  1.00  0.00     0.200 A 
ATOM     93  F   UNL A   1      45.501  36.783  27.061  1.00  0.00    -0.200 F 
ATOM     94  F   UNL A   1      47.008  37.389  29.254  1.00  0.00    -0.200 F 
ENDBRANCH  61  84
ENDBRANCH  35  36
ENDBRANCH  28  30
ENDBRANCH  27  28
ENDBRANCH  26  27
ENDBRANCH   1  26
TORSDOF 15
ENDMDL
MODEL 3
REMARK VINA RESULT:     -12.6      0.202      2.002
REMARK SMILES COc1ccc(/C=C/C(=O)Nc2cc(Cl)ccc2C(=O)OCCOC(=O)c2ccc(-c3c4nc(c(-c5c(F)c(F)c(F)c(F)c5F)c5ccc([nH]5)c(-c5c(F)c(F)c(F)c(F)c5F)c5nc(c(-c6c(F)c(F)c(F)c(F)c6F)c6ccc3[nH]6)C=C5)C=C4)cc2)cc1
REMARK SMILES IDX 22 1 21 2 19 3 20 4 18 5 12 6 13 7 14 8 17 9 15 10 16 11
REMARK SMILES IDX 11 12 9 13 10 14 8 16 7 17 6 18 3 19 4 20 91 21 5 22 90 23
REMARK SMILES IDX 2 24 1 25 23 26 24 27 25 28 26 29 27 30 28 31 89 32 29 33
REMARK SMILES IDX 88 34 30 35 31 36 32 37 82 38 33 39 87 40 81 41 83 42 34 43
REMARK SMILES IDX 86 44 80 45 79 46 35 48 67 49 47 50 66 51 48 52 51 53 65 54
REMARK SMILES IDX 84 55 49 56 50 57 64 59 85 60 52 61 36 62 37 63 45 64 38 65
REMARK SMILES IDX 39 66 43 67 46 68 40 69 41 70 44 71 42 72 68 73 69 74 77 75
REMARK SMILES IDX 70 76 71 77 75 78 78 79 72 80 73 81 76 82 74 83 53 84 54 85
REMARK SMILES IDX 62 86 55 87 56 88 60 89 63 90 57 91 58 92 61 93 59 94
REMARK H PARENT 11 15 83 47 51 58
REMARK Flexibility Score: inf
ROOT
ATOM      1  C   UNL A   1      35.718  21.083  25.497  1.00  0.00     0.275 C 
ENDROOT
BRANCH   1   2
ATOM      2  O   UNL A   1      34.688  20.982  24.485  1.00  0.00    -0.458 OA
BRANCH   2   3
ATOM      3  C   UNL A   1      33.495  21.494  24.870  1.00  0.00     0.340 C 
ATOM      4  O   UNL A   1      32.852  21.120  25.834  1.00  0.00    -0.246 OA
BRANCH   3   5
ATOM      5  C   UNL A   1      32.983  22.563  23.984  1.00  0.00     0.083 A 
ATOM      6  C   UNL A   1      31.771  23.241  24.181  1.00  0.00     0.057 A 
ATOM      7  C   UNL A   1      31.390  24.224  23.245  1.00  0.00     0.047 A 
ATOM      8  C   UNL A   1      32.254  24.619  22.220  1.00  0.00     0.043 A 
ATOM      9  C   UNL A   1      33.827  22.959  22.927  1.00  0.00     0.019 A 
ATOM     10  Cl  UNL A   1      31.820  25.915  21.178  1.00  0.00    -0.084 Cl
ATOM     11  C   UNL A   1      33.483  23.998  22.066  1.00  0.00     0.021 A 
BRANCH   6  12
ATOM     12  N   UNL A   1      30.879  23.074  25.259  1.00  0.00    -0.322 N 
ATOM     13  C   UNL A   1      30.807  23.650  26.495  1.00  0.00     0.248 C 
ATOM     14  O   UNL A   1      30.089  23.145  27.359  1.00  0.00    -0.270 OA
ATOM     15  H   UNL A   1      30.170  22.414  25.088  1.00  0.00     0.170 HD
BRANCH  13  16
ATOM     16  C   UNL A   1      31.543  24.895  26.825  1.00  0.00     0.072 C 
ATOM     17  C   UNL A   1      31.152  26.135  26.491  1.00  0.00     0.014 C 
BRANCH  17  18
ATOM     18  C   UNL A   1      32.008  27.328  26.644  1.00  0.00    -0.025 A 
ATOM     19  C   UNL A   1      33.757  29.512  26.942  1.00  0.00     0.118 A 
ATOM     20  C   UNL A   1      32.416  29.636  27.295  1.00  0.00     0.047 A 
ATOM     21  C   UNL A   1      34.247  28.290  26.491  1.00  0.00     0.047 A 
ATOM     22  C   UNL A   1      31.542  28.554  27.134  1.00  0.00     0.012 A 
ATOM     23  C   UNL A   1      33.373  27.209  26.332  1.00  0.00     0.012 A 
BRANCH  19  24
ATOM     24  O   UNL A   1      34.542  30.621  27.104  1.00  0.00    -0.497 OA
ATOM     25  C   UNL A   1      33.845  31.705  27.716  1.00  0.00     0.278 C 
ENDBRANCH  19  24
ENDBRANCH  17  18
ENDBRANCH  13  16
ENDBRANCH   6  12
ENDBRANCH   3   5
ENDBRANCH   2   3
ENDBRANCH   1   2
BRANCH   1  26
ATOM     26  C   UNL A   1      37.120  20.730  24.991  1.00  0.00     0.275 C 
BRANCH  26  27
ATOM     27  O   UNL A   1      38.067  21.793  25.213  1.00  0.00    -0.458 OA
BRANCH  27  28
ATOM     28  C   UNL A   1      39.106  21.459  26.007  1.00  0.00     0.338 C 
ATOM     29  O   UNL A   1      39.653  20.370  26.095  1.00  0.00    -0.246 OA
BRANCH  28  30
ATOM     30  C   UNL A   1      39.609  22.621  26.752  1.00  0.00     0.060 A 
ATOM     31  C   UNL A   1      39.135  23.879  26.403  1.00  0.00     0.016 A 
ATOM     32  C   UNL A   1      40.725  22.508  27.575  1.00  0.00     0.016 A 
ATOM     33  C   UNL A   1      39.850  25.019  26.715  1.00  0.00     0.010 A 
ATOM     34  C   UNL A   1      41.361  23.672  28.024  1.00  0.00     0.010 A 
ATOM     35  C   UNL A   1      40.956  24.937  27.557  1.00  0.00    -0.014 A 
BRANCH  35  36
ATOM     36  C   UNL A   1      41.692  26.177  27.901  1.00  0.00     0.031 A 
ATOM     37  C   UNL A   1      41.031  27.221  28.754  1.00  0.00     0.074 A 
ATOM     38  C   UNL A   1      42.960  26.346  27.476  1.00  0.00     0.049 A 
ATOM     39  N   UNL A   1      41.398  28.455  28.983  1.00  0.00    -0.248 NA
ATOM     40  C   UNL A   1      39.779  26.832  29.425  1.00  0.00     0.031 C 
ATOM     41  C   UNL A   1      43.739  25.367  26.710  1.00  0.00     0.029 A 
ATOM     42  N   UNL A   1      43.823  27.402  27.624  1.00  0.00    -0.354 N 
ATOM     43  C   UNL A   1      40.389  29.009  29.761  1.00  0.00     0.074 A 
ATOM     44  C   UNL A   1      39.397  27.978  29.973  1.00  0.00     0.031 C 
ATOM     45  C   UNL A   1      44.965  25.855  26.478  1.00  0.00     0.029 A 
ATOM     46  C   UNL A   1      45.017  27.226  26.968  1.00  0.00     0.049 A 
ATOM     47  H   UNL A   1      43.607  28.208  28.147  1.00  0.00     0.167 HD
ATOM     48  C   UNL A   1      40.306  30.272  30.240  1.00  0.00     0.037 A 
ATOM     49  C   UNL A   1      46.014  28.093  26.720  1.00  0.00     0.037 A 
ATOM     50  C   UNL A   1      41.336  31.263  30.058  1.00  0.00     0.049 A 
ATOM     51  C   UNL A   1      45.870  29.504  27.217  1.00  0.00     0.074 A 
ATOM     52  C   UNL A   1      41.370  32.567  30.516  1.00  0.00     0.029 A 
ATOM     53  N   UNL A   1      42.520  31.050  29.365  1.00  0.00    -0.354 N 
ATOM     54  N   UNL A   1      44.893  30.042  27.906  1.00  0.00    -0.248 NA
ATOM     55  C   UNL A   1      46.958  30.432  26.888  1.00  0.00     0.031 C 
ATOM     56  C   UNL A   1      42.548  33.162  30.053  1.00  0.00     0.029 A 
ATOM     57  C   UNL A   1      43.281  32.208  29.364  1.00  0.00     0.049 A 
ATOM     58  H   UNL A   1      42.781  30.202  28.939  1.00  0.00     0.167 HD
ATOM     59  C   UNL A   1      45.257  31.364  28.112  1.00  0.00     0.074 A 
ATOM     60  C   UNL A   1      46.556  31.538  27.494  1.00  0.00     0.031 C 
ATOM     61  C   UNL A   1      44.577  32.348  28.750  1.00  0.00     0.037 A 
BRANCH  48  62
ATOM     62  C   UNL A   1      39.049  30.674  30.956  1.00  0.00     0.064 A 
ATOM     63  C   UNL A   1      38.905  30.556  32.346  1.00  0.00     0.173 A 
ATOM     64  C   UNL A   1      37.982  31.234  30.234  1.00  0.00     0.173 A 
ATOM     65  F   UNL A   1      39.885  30.014  33.083  1.00  0.00    -0.203 F 
ATOM     66  C   UNL A   1      37.733  30.964  32.982  1.00  0.00     0.198 A 
ATOM     67  C   UNL A   1      36.826  31.670  30.876  1.00  0.00     0.198 A 
ATOM     68  F   UNL A   1      38.066  31.371  28.901  1.00  0.00    -0.203 F 
ATOM     69  F   UNL A   1      37.601  30.802  34.306  1.00  0.00    -0.200 F 
ATOM     70  C   UNL A   1      36.700  31.529  32.249  1.00  0.00     0.200 A 
ATOM     71  F   UNL A   1      35.837  32.228  30.166  1.00  0.00    -0.200 F 
ATOM     72  F   UNL A   1      35.581  31.934  32.865  1.00  0.00    -0.200 F 
ENDBRANCH  48  62
BRANCH  49  73
ATOM     73  C   UNL A   1      47.186  27.675  25.905  1.00  0.00     0.064 A 
ATOM     74  C   UNL A   1      48.361  27.211  26.510  1.00  0.00     0.173 A 
ATOM     75  C   UNL A   1      47.160  27.737  24.501  1.00  0.00     0.173 A 
ATOM     76  F   UNL A   1      48.445  27.149  27.848  1.00  0.00    -0.203 F 
ATOM     77  C   UNL A   1      49.470  26.850  25.748  1.00  0.00     0.198 A 
ATOM     78  C   UNL A   1      48.254  27.338  23.739  1.00  0.00     0.198 A 
ATOM     79  F   UNL A   1      46.059  28.169  23.868  1.00  0.00    -0.203 F 
ATOM     80  F   UNL A   1      50.599  26.462  26.355  1.00  0.00    -0.200 F 
ATOM     81  C   UNL A   1      49.413  26.906  24.363  1.00  0.00     0.200 A 
ATOM     82  F   UNL A   1      48.185  27.371  22.402  1.00  0.00    -0.200 F 
ATOM     83  F   UNL A   1      50.478  26.550  23.631  1.00  0.00    -0.200 F 
ENDBRANCH  49  73
BRANCH  61  84
ATOM     84  C   UNL A   1      45.254  33.684  28.851  1.00  0.00     0.064 A 
ATOM     85  C   UNL A   1      46.132  33.989  29.900  1.00  0.00     0.173 A 
ATOM     86  C   UNL A   1      45.035  34.660  27.867  1.00  0.00     0.173 A 
ATOM     87  F   UNL A   1      46.357  33.095  30.876  1.00  0.00    -0.203 F 
ATOM     88  C   UNL A   1      46.743  35.237  29.978  1.00  0.00     0.198 A 
ATOM     89  C   UNL A   1      45.678  35.892  27.929  1.00  0.00     0.198 A 
ATOM     90  F   UNL A   1      44.209  34.414  26.840  1.00  0.00    -0.203 F 
ATOM     91  F   UNL A   1      47.532  35.531  31.022  1.00  0.00    -0.200 F 
ATOM     92  C   UNL A   1      46.523  36.184  28.989  1.00  0.00     0.200 A 
ATOM     93  F   UNL A   1      45.476  36.800  26.963  1.00  0.00    -0.200 F 
ATOM     94  F   UNL A   1      47.118  37.382  29.062  1.00  0.00    -0.200 F 
ENDBRANCH  61  84
ENDBRANCH  35  36
ENDBRANCH  28  30
ENDBRANCH  27  28
ENDBRANCH  26  27
ENDBRANCH   1  26
TORSDOF 15
ENDMDL
