MODEL 1
REMARK VINA RESULT:     -10.7      0.000      0.000
REMARK SMILES C[C@@H](CC(=O)OCCOC(=O)c1ccc(-c2c3nc(c(-c4c(F)c(F)c(F)c(F)c4F)c4ccc([nH]4)c(-c4c(F)c(F)c(F)c(F)c4F)c4nc(c(-c5c(F)c(F)c(F)c(F)c5F)c5ccc2[nH]5)C=C4)C=C3)cc1)NC(=O)CCCN1C(=O)CN(C)C1=O
REMARK SMILES IDX 4 1 5 2 3 3 2 4 1 5 75 6 76 7 77 9 78 10 79 11 80 12 81 13
REMARK SMILES IDX 82 14 87 15 83 16 84 17 85 18 88 19 86 20 6 21 7 22 8 23
REMARK SMILES IDX 9 24 10 25 11 26 12 27 13 28 74 29 14 30 73 31 15 32 16 33
REMARK SMILES IDX 17 34 67 35 18 36 72 37 66 38 68 39 19 40 71 41 65 42 64 43
REMARK SMILES IDX 20 45 52 46 32 47 51 48 33 49 36 50 50 51 69 52 34 53 35 54
REMARK SMILES IDX 49 56 70 57 37 58 21 59 22 60 30 61 23 62 24 63 28 64 31 65
REMARK SMILES IDX 25 66 26 67 29 68 27 69 53 70 54 71 62 72 55 73 56 74 60 75
REMARK SMILES IDX 63 76 57 77 58 78 61 79 59 80 38 81 39 82 47 83 40 84 41 85
REMARK SMILES IDX 45 86 48 87 42 88 43 89 46 90 44 91
REMARK H PARENT 75 8 68 44 36 55
REMARK Flexibility Score: inf
ROOT
ATOM      1  C   UNL A   1      34.679  33.257  28.571  1.00  0.00     0.307 C 
ATOM      2  O   UNL A   1      35.152  33.589  27.487  1.00  0.00    -0.252 OA
ENDROOT
BRANCH   1   3
ATOM      3  C   UNL A   1      34.714  31.829  29.036  1.00  0.00     0.147 C 
BRANCH   3   4
ATOM      4  C   UNL A   1      34.906  30.682  28.044  1.00  0.00     0.090 C 
ATOM      5  C   UNL A   1      36.344  30.410  27.622  1.00  0.00     0.031 C 
BRANCH   4   6
ATOM      6  N   UNL A   1      34.029  30.704  26.883  1.00  0.00    -0.353 N 
ATOM      7  C   UNL A   1      33.386  29.661  26.275  1.00  0.00     0.220 C 
ATOM      8  H   UNL A   1      33.876  31.590  26.481  1.00  0.00     0.163 HD
ATOM      9  O   UNL A   1      32.909  29.813  25.151  1.00  0.00    -0.275 OA
BRANCH   7  10
ATOM     10  C   UNL A   1      33.180  28.362  27.032  1.00  0.00     0.102 C 
BRANCH  10  11
ATOM     11  C   UNL A   1      31.764  27.765  27.009  1.00  0.00     0.032 C 
BRANCH  11  12
ATOM     12  C   UNL A   1      31.422  26.775  25.869  1.00  0.00     0.131 C 
BRANCH  12  13
ATOM     13  N   UNL A   1      32.269  25.597  25.823  1.00  0.00    -0.263 N 
ATOM     14  C   UNL A   1      32.076  24.460  26.557  1.00  0.00     0.250 C 
ATOM     15  C   UNL A   1      33.432  25.513  25.110  1.00  0.00     0.326 C 
ATOM     16  O   UNL A   1      31.103  24.199  27.250  1.00  0.00    -0.272 OA
ATOM     17  C   UNL A   1      33.318  23.591  26.439  1.00  0.00     0.221 C 
ATOM     18  N   UNL A   1      34.105  24.379  25.521  1.00  0.00    -0.318 N 
ATOM     19  O   UNL A   1      33.843  26.324  24.296  1.00  0.00    -0.248 OA
ATOM     20  C   UNL A   1      35.484  24.075  25.220  1.00  0.00     0.149 C 
ENDBRANCH  12  13
ENDBRANCH  11  12
ENDBRANCH  10  11
ENDBRANCH   7  10
ENDBRANCH   4   6
ENDBRANCH   3   4
ENDBRANCH   1   3
BRANCH   1  21
ATOM     21  O   UNL A   1      34.028  34.089  29.413  1.00  0.00    -0.462 OA
BRANCH  21  22
ATOM     22  C   UNL A   1      33.235  35.117  28.795  1.00  0.00     0.274 C 
BRANCH  22  23
ATOM     23  C   UNL A   1      32.861  36.196  29.810  1.00  0.00     0.275 C 
BRANCH  23  24
ATOM     24  O   UNL A   1      32.149  35.642  30.934  1.00  0.00    -0.458 OA
BRANCH  24  25
ATOM     25  C   UNL A   1      32.593  36.035  32.152  1.00  0.00     0.338 C 
ATOM     26  O   UNL A   1      32.109  36.886  32.876  1.00  0.00    -0.246 OA
BRANCH  25  27
ATOM     27  C   UNL A   1      33.736  35.196  32.544  1.00  0.00     0.060 A 
ATOM     28  C   UNL A   1      35.023  35.735  32.513  1.00  0.00     0.016 A 
ATOM     29  C   UNL A   1      33.539  33.860  32.887  1.00  0.00     0.016 A 
ATOM     30  C   UNL A   1      36.123  34.947  32.839  1.00  0.00     0.010 A 
ATOM     31  C   UNL A   1      34.640  33.079  33.251  1.00  0.00     0.010 A 
ATOM     32  C   UNL A   1      35.939  33.619  33.240  1.00  0.00    -0.014 A 
BRANCH  32  33
ATOM     33  C   UNL A   1      37.093  32.795  33.679  1.00  0.00     0.031 A 
ATOM     34  C   UNL A   1      37.739  33.047  35.007  1.00  0.00     0.074 A 
ATOM     35  C   UNL A   1      37.583  31.841  32.863  1.00  0.00     0.049 A 
ATOM     36  N   UNL A   1      38.877  32.600  35.473  1.00  0.00    -0.248 NA
ATOM     37  C   UNL A   1      37.006  33.921  35.936  1.00  0.00     0.031 C 
ATOM     38  C   UNL A   1      37.008  31.455  31.573  1.00  0.00     0.029 A 
ATOM     39  N   UNL A   1      38.685  31.034  32.990  1.00  0.00    -0.354 N 
ATOM     40  C   UNL A   1      39.019  33.170  36.732  1.00  0.00     0.074 A 
ATOM     41  C   UNL A   1      37.850  33.994  36.957  1.00  0.00     0.031 C 
ATOM     42  C   UNL A   1      37.759  30.484  31.031  1.00  0.00     0.029 A 
ATOM     43  C   UNL A   1      38.909  30.239  31.893  1.00  0.00     0.049 A 
ATOM     44  H   UNL A   1      39.260  31.026  33.790  1.00  0.00     0.167 HD
ATOM     45  C   UNL A   1      40.039  33.020  37.611  1.00  0.00     0.037 A 
ATOM     46  C   UNL A   1      39.953  29.444  31.588  1.00  0.00     0.037 A 
ATOM     47  C   UNL A   1      41.187  32.180  37.384  1.00  0.00     0.049 A 
ATOM     48  C   UNL A   1      41.115  29.366  32.537  1.00  0.00     0.074 A 
ATOM     49  C   UNL A   1      42.269  31.950  38.217  1.00  0.00     0.029 A 
ATOM     50  N   UNL A   1      41.401  31.430  36.236  1.00  0.00    -0.354 N 
ATOM     51  N   UNL A   1      41.268  29.941  33.704  1.00  0.00    -0.248 NA
ATOM     52  C   UNL A   1      42.261  28.550  32.113  1.00  0.00     0.031 C 
ATOM     53  C   UNL A   1      43.156  31.092  37.556  1.00  0.00     0.029 A 
ATOM     54  C   UNL A   1      42.607  30.754  36.329  1.00  0.00     0.049 A 
ATOM     55  H   UNL A   1      40.786  31.384  35.469  1.00  0.00     0.167 HD
ATOM     56  C   UNL A   1      42.518  29.550  34.161  1.00  0.00     0.074 A 
ATOM     57  C   UNL A   1      43.078  28.675  33.151  1.00  0.00     0.031 C 
ATOM     58  C   UNL A   1      43.148  29.888  35.313  1.00  0.00     0.037 A 
BRANCH  45  59
ATOM     59  C   UNL A   1      39.978  33.812  38.883  1.00  0.00     0.064 A 
ATOM     60  C   UNL A   1      40.606  35.058  39.010  1.00  0.00     0.173 A 
ATOM     61  C   UNL A   1      39.252  33.326  39.982  1.00  0.00     0.173 A 
ATOM     62  F   UNL A   1      41.320  35.561  37.992  1.00  0.00    -0.203 F 
ATOM     63  C   UNL A   1      40.533  35.777  40.202  1.00  0.00     0.198 A 
ATOM     64  C   UNL A   1      39.160  34.059  41.161  1.00  0.00     0.198 A 
ATOM     65  F   UNL A   1      38.626  32.141  39.909  1.00  0.00    -0.203 F 
ATOM     66  F   UNL A   1      41.176  36.948  40.316  1.00  0.00    -0.200 F 
ATOM     67  C   UNL A   1      39.806  35.281  41.273  1.00  0.00     0.200 A 
ATOM     68  F   UNL A   1      38.447  33.583  42.192  1.00  0.00    -0.200 F 
ATOM     69  F   UNL A   1      39.733  35.977  42.416  1.00  0.00    -0.200 F 
ENDBRANCH  45  59
BRANCH  46  70
ATOM     70  C   UNL A   1      39.962  28.700  30.303  1.00  0.00     0.064 A 
ATOM     71  C   UNL A   1      40.565  29.245  29.162  1.00  0.00     0.173 A 
ATOM     72  C   UNL A   1      39.385  27.425  30.193  1.00  0.00     0.173 A 
ATOM     73  F   UNL A   1      41.106  30.471  29.212  1.00  0.00    -0.203 F 
ATOM     74  C   UNL A   1      40.587  28.544  27.958  1.00  0.00     0.198 A 
ATOM     75  C   UNL A   1      39.433  26.715  28.996  1.00  0.00     0.198 A 
ATOM     76  F   UNL A   1      38.792  26.862  31.256  1.00  0.00    -0.203 F 
ATOM     77  F   UNL A   1      41.143  29.101  26.873  1.00  0.00    -0.200 F 
ATOM     78  C   UNL A   1      40.031  27.277  27.878  1.00  0.00     0.200 A 
ATOM     79  F   UNL A   1      38.904  25.485  28.928  1.00  0.00    -0.200 F 
ATOM     80  F   UNL A   1      40.064  26.599  26.722  1.00  0.00    -0.200 F 
ENDBRANCH  46  70
BRANCH  58  81
ATOM     81  C   UNL A   1      44.502  29.290  35.551  1.00  0.00     0.064 A 
ATOM     82  C   UNL A   1      44.652  28.049  36.185  1.00  0.00     0.173 A 
ATOM     83  C   UNL A   1      45.658  29.948  35.106  1.00  0.00     0.173 A 
ATOM     84  F   UNL A   1      43.578  27.392  36.646  1.00  0.00    -0.203 F 
ATOM     85  C   UNL A   1      45.915  27.495  36.380  1.00  0.00     0.198 A 
ATOM     86  C   UNL A   1      46.916  29.381  35.280  1.00  0.00     0.198 A 
ATOM     87  F   UNL A   1      45.564  31.138  34.492  1.00  0.00    -0.203 F 
ATOM     88  F   UNL A   1      46.040  26.326  37.022  1.00  0.00    -0.200 F 
ATOM     89  C   UNL A   1      47.045  28.158  35.921  1.00  0.00     0.200 A 
ATOM     90  F   UNL A   1      48.006  30.018  34.830  1.00  0.00    -0.200 F 
ATOM     91  F   UNL A   1      48.258  27.620  36.104  1.00  0.00    -0.200 F 
ENDBRANCH  58  81
ENDBRANCH  32  33
ENDBRANCH  25  27
ENDBRANCH  24  25
ENDBRANCH  23  24
ENDBRANCH  22  23
ENDBRANCH  21  22
ENDBRANCH   1  21
TORSDOF 17
ENDMDL
MODEL 2
REMARK VINA RESULT:     -10.6      2.939      8.695
REMARK SMILES C[C@@H](CC(=O)OCCOC(=O)c1ccc(-c2c3nc(c(-c4c(F)c(F)c(F)c(F)c4F)c4ccc([nH]4)c(-c4c(F)c(F)c(F)c(F)c4F)c4nc(c(-c5c(F)c(F)c(F)c(F)c5F)c5ccc2[nH]5)C=C4)C=C3)cc1)NC(=O)CCCN1C(=O)CN(C)C1=O
REMARK SMILES IDX 4 1 5 2 3 3 2 4 1 5 75 6 76 7 77 9 78 10 79 11 80 12 81 13
REMARK SMILES IDX 82 14 87 15 83 16 84 17 85 18 88 19 86 20 6 21 7 22 8 23
REMARK SMILES IDX 9 24 10 25 11 26 12 27 13 28 74 29 14 30 73 31 15 32 16 33
REMARK SMILES IDX 17 34 67 35 18 36 72 37 66 38 68 39 19 40 71 41 65 42 64 43
REMARK SMILES IDX 20 45 52 46 32 47 51 48 33 49 36 50 50 51 69 52 34 53 35 54
REMARK SMILES IDX 49 56 70 57 37 58 21 59 22 60 30 61 23 62 24 63 28 64 31 65
REMARK SMILES IDX 25 66 26 67 29 68 27 69 53 70 54 71 62 72 55 73 56 74 60 75
REMARK SMILES IDX 63 76 57 77 58 78 61 79 59 80 38 81 39 82 47 83 40 84 41 85
REMARK SMILES IDX 45 86 48 87 42 88 43 89 46 90 44 91
REMARK H PARENT 75 8 68 44 36 55
REMARK Flexibility Score: inf
ROOT
ATOM      1  C   UNL A   1      30.262  27.951  23.444  1.00  0.00     0.307 C 
ATOM      2  O   UNL A   1      30.019  28.324  22.300  1.00  0.00    -0.252 OA
ENDROOT
BRANCH   1   3
ATOM      3  C   UNL A   1      29.646  26.703  24.009  1.00  0.00     0.147 C 
BRANCH   3   4
ATOM      4  C   UNL A   1      30.492  25.456  24.270  1.00  0.00     0.090 C 
ATOM      5  C   UNL A   1      30.556  24.452  23.127  1.00  0.00     0.031 C 
BRANCH   4   6
ATOM      6  N   UNL A   1      30.234  24.778  25.532  1.00  0.00    -0.353 N 
ATOM      7  C   UNL A   1      31.130  24.350  26.473  1.00  0.00     0.220 C 
ATOM      8  H   UNL A   1      29.286  24.604  25.737  1.00  0.00     0.163 HD
ATOM      9  O   UNL A   1      30.767  23.558  27.342  1.00  0.00    -0.275 OA
BRANCH   7  10
ATOM     10  C   UNL A   1      32.530  24.934  26.497  1.00  0.00     0.102 C 
BRANCH  10  11
ATOM     11  C   UNL A   1      33.678  23.996  26.094  1.00  0.00     0.032 C 
BRANCH  11  12
ATOM     12  C   UNL A   1      33.477  23.117  24.835  1.00  0.00     0.131 C 
BRANCH  12  13
ATOM     13  N   UNL A   1      33.704  21.699  25.050  1.00  0.00    -0.263 N 
ATOM     14  C   UNL A   1      34.925  21.084  25.012  1.00  0.00     0.250 C 
ATOM     15  C   UNL A   1      32.710  20.777  25.219  1.00  0.00     0.326 C 
ATOM     16  O   UNL A   1      36.014  21.634  24.934  1.00  0.00    -0.272 OA
ATOM     17  C   UNL A   1      34.707  19.579  25.000  1.00  0.00     0.221 C 
ATOM     18  N   UNL A   1      33.270  19.519  25.108  1.00  0.00    -0.318 N 
ATOM     19  O   UNL A   1      31.523  21.013  25.377  1.00  0.00    -0.248 OA
ATOM     20  C   UNL A   1      32.529  18.290  24.951  1.00  0.00     0.149 C 
ENDBRANCH  12  13
ENDBRANCH  11  12
ENDBRANCH  10  11
ENDBRANCH   7  10
ENDBRANCH   4   6
ENDBRANCH   3   4
ENDBRANCH   1   3
BRANCH   1  21
ATOM     21  O   UNL A   1      31.026  28.630  24.328  1.00  0.00    -0.462 OA
BRANCH  21  22
ATOM     22  C   UNL A   1      32.446  28.568  24.112  1.00  0.00     0.274 C 
BRANCH  22  23
ATOM     23  C   UNL A   1      33.157  29.700  24.853  1.00  0.00     0.275 C 
BRANCH  23  24
ATOM     24  O   UNL A   1      32.718  29.793  26.223  1.00  0.00    -0.458 OA
BRANCH  24  25
ATOM     25  C   UNL A   1      33.088  30.923  26.873  1.00  0.00     0.338 C 
ATOM     26  O   UNL A   1      32.464  31.965  26.955  1.00  0.00    -0.246 OA
BRANCH  25  27
ATOM     27  C   UNL A   1      34.357  30.682  27.577  1.00  0.00     0.060 A 
ATOM     28  C   UNL A   1      35.245  31.743  27.767  1.00  0.00     0.016 A 
ATOM     29  C   UNL A   1      34.692  29.398  27.998  1.00  0.00     0.016 A 
ATOM     30  C   UNL A   1      36.470  31.529  28.393  1.00  0.00     0.010 A 
ATOM     31  C   UNL A   1      35.906  29.191  28.660  1.00  0.00     0.010 A 
ATOM     32  C   UNL A   1      36.800  30.257  28.872  1.00  0.00    -0.014 A 
BRANCH  32  33
ATOM     33  C   UNL A   1      38.061  30.035  29.622  1.00  0.00     0.031 A 
ATOM     34  C   UNL A   1      39.131  29.151  29.055  1.00  0.00     0.074 A 
ATOM     35  C   UNL A   1      38.228  30.601  30.833  1.00  0.00     0.049 A 
ATOM     36  N   UNL A   1      40.191  28.654  29.639  1.00  0.00    -0.248 NA
ATOM     37  C   UNL A   1      38.987  28.774  27.641  1.00  0.00     0.031 C 
ATOM     38  C   UNL A   1      37.292  31.530  31.468  1.00  0.00     0.029 A 
ATOM     39  N   UNL A   1      39.237  30.466  31.752  1.00  0.00    -0.354 N 
ATOM     40  C   UNL A   1      40.819  27.873  28.679  1.00  0.00     0.074 A 
ATOM     41  C   UNL A   1      40.023  27.963  27.473  1.00  0.00     0.031 C 
ATOM     42  C   UNL A   1      37.773  31.884  32.669  1.00  0.00     0.029 A 
ATOM     43  C   UNL A   1      39.004  31.146  32.923  1.00  0.00     0.049 A 
ATOM     44  H   UNL A   1      40.050  29.933  31.589  1.00  0.00     0.167 HD
ATOM     45  C   UNL A   1      41.955  27.144  28.802  1.00  0.00     0.037 A 
ATOM     46  C   UNL A   1      39.676  31.131  34.090  1.00  0.00     0.037 A 
ATOM     47  C   UNL A   1      42.750  27.079  30.000  1.00  0.00     0.049 A 
ATOM     48  C   UNL A   1      40.880  30.244  34.232  1.00  0.00     0.074 A 
ATOM     49  C   UNL A   1      43.925  26.380  30.223  1.00  0.00     0.029 A 
ATOM     50  N   UNL A   1      42.452  27.744  31.182  1.00  0.00    -0.354 N 
ATOM     51  N   UNL A   1      41.445  29.471  33.338  1.00  0.00    -0.248 NA
ATOM     52  C   UNL A   1      41.521  30.205  35.552  1.00  0.00     0.031 C 
ATOM     53  C   UNL A   1      44.315  26.589  31.552  1.00  0.00     0.029 A 
ATOM     54  C   UNL A   1      43.406  27.452  32.144  1.00  0.00     0.049 A 
ATOM     55  H   UNL A   1      41.676  28.335  31.317  1.00  0.00     0.167 HD
ATOM     56  C   UNL A   1      42.514  28.863  33.980  1.00  0.00     0.074 A 
ATOM     57  C   UNL A   1      42.528  29.369  35.338  1.00  0.00     0.031 C 
ATOM     58  C   UNL A   1      43.402  27.964  33.490  1.00  0.00     0.037 A 
BRANCH  45  59
ATOM     59  C   UNL A   1      42.382  26.325  27.620  1.00  0.00     0.064 A 
ATOM     60  C   UNL A   1      43.333  26.791  26.701  1.00  0.00     0.173 A 
ATOM     61  C   UNL A   1      41.850  25.042  27.421  1.00  0.00     0.173 A 
ATOM     62  F   UNL A   1      43.863  28.016  26.842  1.00  0.00    -0.203 F 
ATOM     63  C   UNL A   1      43.716  26.012  25.611  1.00  0.00     0.198 A 
ATOM     64  C   UNL A   1      42.255  24.256  26.346  1.00  0.00     0.198 A 
ATOM     65  F   UNL A   1      40.942  24.546  28.275  1.00  0.00    -0.203 F 
ATOM     66  F   UNL A   1      44.597  26.494  24.723  1.00  0.00    -0.200 F 
ATOM     67  C   UNL A   1      43.182  24.744  25.438  1.00  0.00     0.200 A 
ATOM     68  F   UNL A   1      41.747  23.026  26.186  1.00  0.00    -0.200 F 
ATOM     69  F   UNL A   1      43.557  23.995  24.391  1.00  0.00    -0.200 F 
ENDBRANCH  45  59
BRANCH  46  70
ATOM     70  C   UNL A   1      39.191  31.951  35.229  1.00  0.00     0.064 A 
ATOM     71  C   UNL A   1      39.477  33.320  35.301  1.00  0.00     0.173 A 
ATOM     72  C   UNL A   1      38.421  31.388  36.260  1.00  0.00     0.173 A 
ATOM     73  F   UNL A   1      40.231  33.897  34.355  1.00  0.00    -0.203 F 
ATOM     74  C   UNL A   1      39.013  34.096  36.362  1.00  0.00     0.198 A 
ATOM     75  C   UNL A   1      37.935  32.171  37.304  1.00  0.00     0.198 A 
ATOM     76  F   UNL A   1      38.124  30.081  36.239  1.00  0.00    -0.203 F 
ATOM     77  F   UNL A   1      39.327  35.398  36.423  1.00  0.00    -0.200 F 
ATOM     78  C   UNL A   1      38.235  33.524  37.356  1.00  0.00     0.200 A 
ATOM     79  F   UNL A   1      37.173  31.615  38.257  1.00  0.00    -0.200 F 
ATOM     80  F   UNL A   1      37.779  34.274  38.369  1.00  0.00    -0.200 F 
ENDBRANCH  46  70
BRANCH  58  81
ATOM     81  C   UNL A   1      44.477  27.490  34.422  1.00  0.00     0.064 A 
ATOM     82  C   UNL A   1      44.326  26.318  35.177  1.00  0.00     0.173 A 
ATOM     83  C   UNL A   1      45.685  28.194  34.531  1.00  0.00     0.173 A 
ATOM     84  F   UNL A   1      43.180  25.623  35.122  1.00  0.00    -0.203 F 
ATOM     85  C   UNL A   1      45.341  25.878  36.022  1.00  0.00     0.198 A 
ATOM     86  C   UNL A   1      46.707  27.739  35.357  1.00  0.00     0.198 A 
ATOM     87  F   UNL A   1      45.877  29.321  33.826  1.00  0.00    -0.203 F 
ATOM     88  F   UNL A   1      45.163  24.777  36.765  1.00  0.00    -0.200 F 
ATOM     89  C   UNL A   1      46.533  26.584  36.106  1.00  0.00     0.200 A 
ATOM     90  F   UNL A   1      47.861  28.417  35.432  1.00  0.00    -0.200 F 
ATOM     91  F   UNL A   1      47.511  26.154  36.914  1.00  0.00    -0.200 F 
ENDBRANCH  58  81
ENDBRANCH  32  33
ENDBRANCH  25  27
ENDBRANCH  24  25
ENDBRANCH  23  24
ENDBRANCH  22  23
ENDBRANCH  21  22
ENDBRANCH   1  21
TORSDOF 17
ENDMDL
MODEL 3
REMARK VINA RESULT:     -10.5      2.693      8.468
REMARK SMILES C[C@@H](CC(=O)OCCOC(=O)c1ccc(-c2c3nc(c(-c4c(F)c(F)c(F)c(F)c4F)c4ccc([nH]4)c(-c4c(F)c(F)c(F)c(F)c4F)c4nc(c(-c5c(F)c(F)c(F)c(F)c5F)c5ccc2[nH]5)C=C4)C=C3)cc1)NC(=O)CCCN1C(=O)CN(C)C1=O
REMARK SMILES IDX 4 1 5 2 3 3 2 4 1 5 75 6 76 7 77 9 78 10 79 11 80 12 81 13
REMARK SMILES IDX 82 14 87 15 83 16 84 17 85 18 88 19 86 20 6 21 7 22 8 23
REMARK SMILES IDX 9 24 10 25 11 26 12 27 13 28 74 29 14 30 73 31 15 32 16 33
REMARK SMILES IDX 17 34 67 35 18 36 72 37 66 38 68 39 19 40 71 41 65 42 64 43
REMARK SMILES IDX 20 45 52 46 32 47 51 48 33 49 36 50 50 51 69 52 34 53 35 54
REMARK SMILES IDX 49 56 70 57 37 58 21 59 22 60 30 61 23 62 24 63 28 64 31 65
REMARK SMILES IDX 25 66 26 67 29 68 27 69 53 70 54 71 62 72 55 73 56 74 60 75
REMARK SMILES IDX 63 76 57 77 58 78 61 79 59 80 38 81 39 82 47 83 40 84 41 85
REMARK SMILES IDX 45 86 48 87 42 88 43 89 46 90 44 91
REMARK H PARENT 75 8 68 44 36 55
REMARK Flexibility Score: inf
ROOT
ATOM      1  C   UNL A   1      31.600  27.458  26.421  1.00  0.00     0.307 C 
ATOM      2  O   UNL A   1      31.072  27.454  27.529  1.00  0.00    -0.252 OA
ENDROOT
BRANCH   1   3
ATOM      3  C   UNL A   1      33.011  26.980  26.223  1.00  0.00     0.147 C 
BRANCH   3   4
ATOM      4  C   UNL A   1      33.320  25.797  25.306  1.00  0.00     0.090 C 
ATOM      5  C   UNL A   1      34.604  25.039  25.619  1.00  0.00     0.031 C 
BRANCH   4   6
ATOM      6  N   UNL A   1      33.220  26.067  23.879  1.00  0.00    -0.353 N 
ATOM      7  C   UNL A   1      32.326  25.566  22.973  1.00  0.00     0.220 C 
ATOM      8  H   UNL A   1      33.886  26.696  23.517  1.00  0.00     0.163 HD
ATOM      9  O   UNL A   1      32.551  25.683  21.769  1.00  0.00    -0.275 OA
BRANCH   7  10
ATOM     10  C   UNL A   1      31.021  24.964  23.460  1.00  0.00     0.102 C 
BRANCH  10  11
ATOM     11  C   UNL A   1      31.063  23.498  23.918  1.00  0.00     0.032 C 
BRANCH  11  12
ATOM     12  C   UNL A   1      31.868  22.500  23.050  1.00  0.00     0.131 C 
BRANCH  12  13
ATOM     13  N   UNL A   1      32.960  21.844  23.746  1.00  0.00    -0.263 N 
ATOM     14  C   UNL A   1      32.816  20.869  24.694  1.00  0.00     0.250 C 
ATOM     15  C   UNL A   1      34.275  22.192  23.615  1.00  0.00     0.326 C 
ATOM     16  O   UNL A   1      31.778  20.302  25.002  1.00  0.00    -0.272 OA
ATOM     17  C   UNL A   1      34.160  20.654  25.374  1.00  0.00     0.221 C 
ATOM     18  N   UNL A   1      34.986  21.565  24.620  1.00  0.00    -0.318 N 
ATOM     19  O   UNL A   1      34.741  22.968  22.796  1.00  0.00    -0.248 OA
ATOM     20  C   UNL A   1      36.343  21.881  25.000  1.00  0.00     0.149 C 
ENDBRANCH  12  13
ENDBRANCH  11  12
ENDBRANCH  10  11
ENDBRANCH   7  10
ENDBRANCH   4   6
ENDBRANCH   3   4
ENDBRANCH   1   3
BRANCH   1  21
ATOM     21  O   UNL A   1      31.028  27.944  25.297  1.00  0.00    -0.462 OA
BRANCH  21  22
ATOM     22  C   UNL A   1      31.657  29.102  24.720  1.00  0.00     0.274 C 
BRANCH  22  23
ATOM     23  C   UNL A   1      31.778  30.223  25.751  1.00  0.00     0.275 C 
BRANCH  23  24
ATOM     24  O   UNL A   1      33.152  30.463  26.113  1.00  0.00    -0.458 OA
BRANCH  24  25
ATOM     25  C   UNL A   1      33.350  31.465  27.004  1.00  0.00     0.338 C 
ATOM     26  O   UNL A   1      32.619  32.414  27.222  1.00  0.00    -0.246 OA
BRANCH  25  27
ATOM     27  C   UNL A   1      34.573  31.194  27.774  1.00  0.00     0.060 A 
ATOM     28  C   UNL A   1      34.767  29.925  28.324  1.00  0.00     0.016 A 
ATOM     29  C   UNL A   1      35.498  32.210  28.001  1.00  0.00     0.016 A 
ATOM     30  C   UNL A   1      35.898  29.658  29.092  1.00  0.00     0.010 A 
ATOM     31  C   UNL A   1      36.651  31.932  28.741  1.00  0.00     0.010 A 
ATOM     32  C   UNL A   1      36.865  30.651  29.284  1.00  0.00    -0.014 A 
BRANCH  32  33
ATOM     33  C   UNL A   1      38.117  30.354  30.023  1.00  0.00     0.031 A 
ATOM     34  C   UNL A   1      39.144  29.438  29.430  1.00  0.00     0.074 A 
ATOM     35  C   UNL A   1      38.313  30.882  31.247  1.00  0.00     0.049 A 
ATOM     36  N   UNL A   1      40.182  28.879  29.998  1.00  0.00    -0.248 NA
ATOM     37  C   UNL A   1      38.979  29.103  28.008  1.00  0.00     0.031 C 
ATOM     38  C   UNL A   1      37.422  31.836  31.909  1.00  0.00     0.029 A 
ATOM     39  N   UNL A   1      39.318  30.678  32.159  1.00  0.00    -0.354 N 
ATOM     40  C   UNL A   1      40.772  28.094  29.015  1.00  0.00     0.074 A 
ATOM     41  C   UNL A   1      39.977  28.250  27.815  1.00  0.00     0.031 C 
ATOM     42  C   UNL A   1      37.921  32.138  33.117  1.00  0.00     0.029 A 
ATOM     43  C   UNL A   1      39.119  31.339  33.347  1.00  0.00     0.049 A 
ATOM     44  H   UNL A   1      40.106  30.114  31.979  1.00  0.00     0.167 HD
ATOM     45  C   UNL A   1      41.874  27.312  29.116  1.00  0.00     0.037 A 
ATOM     46  C   UNL A   1      39.793  31.265  34.510  1.00  0.00     0.037 A 
ATOM     47  C   UNL A   1      42.670  27.182  30.309  1.00  0.00     0.049 A 
ATOM     48  C   UNL A   1      40.956  30.321  34.625  1.00  0.00     0.074 A 
ATOM     49  C   UNL A   1      43.811  26.425  30.510  1.00  0.00     0.029 A 
ATOM     50  N   UNL A   1      42.405  27.829  31.508  1.00  0.00    -0.354 N 
ATOM     51  N   UNL A   1      41.483  29.546  33.710  1.00  0.00    -0.248 NA
ATOM     52  C   UNL A   1      41.599  30.220  35.942  1.00  0.00     0.031 C 
ATOM     53  C   UNL A   1      44.214  26.583  31.841  1.00  0.00     0.029 A 
ATOM     54  C   UNL A   1      43.348  27.471  32.458  1.00  0.00     0.049 A 
ATOM     55  H   UNL A   1      41.657  28.451  31.660  1.00  0.00     0.167 HD
ATOM     56  C   UNL A   1      42.525  28.875  34.333  1.00  0.00     0.074 A 
ATOM     57  C   UNL A   1      42.566  29.345  35.702  1.00  0.00     0.031 C 
ATOM     58  C   UNL A   1      43.371  27.949  33.817  1.00  0.00     0.037 A 
BRANCH  45  59
ATOM     59  C   UNL A   1      42.261  26.505  27.912  1.00  0.00     0.064 A 
ATOM     60  C   UNL A   1      43.223  26.954  26.997  1.00  0.00     0.173 A 
ATOM     61  C   UNL A   1      41.677  25.248  27.688  1.00  0.00     0.173 A 
ATOM     62  F   UNL A   1      43.802  28.153  27.161  1.00  0.00    -0.203 F 
ATOM     63  C   UNL A   1      43.568  26.186  25.887  1.00  0.00     0.198 A 
ATOM     64  C   UNL A   1      42.044  24.472  26.592  1.00  0.00     0.198 A 
ATOM     65  F   UNL A   1      40.756  24.769  28.538  1.00  0.00    -0.203 F 
ATOM     66  F   UNL A   1      44.460  26.653  25.002  1.00  0.00    -0.200 F 
ATOM     67  C   UNL A   1      42.983  24.944  25.688  1.00  0.00     0.200 A 
ATOM     68  F   UNL A   1      41.486  23.267  26.409  1.00  0.00    -0.200 F 
ATOM     69  F   UNL A   1      43.320  24.205  24.622  1.00  0.00    -0.200 F 
ENDBRANCH  45  59
BRANCH  46  70
ATOM     70  C   UNL A   1      39.349  32.077  35.672  1.00  0.00     0.064 A 
ATOM     71  C   UNL A   1      38.405  31.576  36.578  1.00  0.00     0.173 A 
ATOM     72  C   UNL A   1      39.867  33.360  35.908  1.00  0.00     0.173 A 
ATOM     73  F   UNL A   1      37.862  30.367  36.379  1.00  0.00    -0.203 F 
ATOM     74  C   UNL A   1      37.996  32.329  37.677  1.00  0.00     0.198 A 
ATOM     75  C   UNL A   1      39.477  34.099  37.022  1.00  0.00     0.198 A 
ATOM     76  F   UNL A   1      40.769  33.885  35.067  1.00  0.00    -0.203 F 
ATOM     77  F   UNL A   1      37.069  31.840  38.513  1.00  0.00    -0.200 F 
ATOM     78  C   UNL A   1      38.538  33.585  37.903  1.00  0.00     0.200 A 
ATOM     79  F   UNL A   1      40.014  35.307  37.242  1.00  0.00    -0.200 F 
ATOM     80  F   UNL A   1      38.152  34.303  38.967  1.00  0.00    -0.200 F 
ENDBRANCH  46  70
BRANCH  58  81
ATOM     81  C   UNL A   1      44.426  27.404  34.732  1.00  0.00     0.064 A 
ATOM     82  C   UNL A   1      44.219  26.229  35.469  1.00  0.00     0.173 A 
ATOM     83  C   UNL A   1      45.669  28.042  34.844  1.00  0.00     0.173 A 
ATOM     84  F   UNL A   1      43.038  25.596  35.412  1.00  0.00    -0.203 F 
ATOM     85  C   UNL A   1      45.216  25.723  36.299  1.00  0.00     0.198 A 
ATOM     86  C   UNL A   1      46.673  27.520  35.654  1.00  0.00     0.198 A 
ATOM     87  F   UNL A   1      45.915  29.168  34.156  1.00  0.00    -0.203 F 
ATOM     88  F   UNL A   1      44.985  24.620  37.025  1.00  0.00    -0.200 F 
ATOM     89  C   UNL A   1      46.443  26.364  36.385  1.00  0.00     0.200 A 
ATOM     90  F   UNL A   1      47.860  28.135  35.731  1.00  0.00    -0.200 F 
ATOM     91  F   UNL A   1      47.403  25.870  37.179  1.00  0.00    -0.200 F 
ENDBRANCH  58  81
ENDBRANCH  32  33
ENDBRANCH  25  27
ENDBRANCH  24  25
ENDBRANCH  23  24
ENDBRANCH  22  23
ENDBRANCH  21  22
ENDBRANCH   1  21
TORSDOF 17
ENDMDL
