MODEL 1
REMARK VINA RESULT:     -10.7      0.000      0.000
REMARK SMILES CC[N@@H+]1CC[C@H](C[NH2+]Cc2ccc(C(=O)OCCOC(=O)c3ccc(-c4c5nc(c(-c6c(F)c(F)c(F)c(F)c6F)c6ccc([nH]6)c(-c6c(F)c(F)c(F)c(F)c6F)c6nc(c(-c7c(F)c(F)c(F)c(F)c7F)c7ccc4[nH]7)C=C6)C=C5)cc3)cn2)C1
REMARK SMILES IDX 16 1 14 2 15 3 13 4 10 5 11 6 86 7 12 8 85 9 9 10 8 11 7 14
REMARK SMILES IDX 6 15 3 16 4 17 87 18 5 20 2 21 1 22 17 23 18 24 19 25 20 26
REMARK SMILES IDX 21 27 22 28 23 29 84 30 24 31 83 32 25 33 26 34 27 35 77 36
REMARK SMILES IDX 28 37 82 38 76 39 78 40 29 41 81 42 75 43 74 44 30 46 62 47
REMARK SMILES IDX 42 48 61 49 43 50 46 51 60 52 79 53 44 54 45 55 59 57 80 58
REMARK SMILES IDX 47 59 31 60 32 61 40 62 33 63 34 64 38 65 41 66 35 67 36 68
REMARK SMILES IDX 39 69 37 70 63 71 64 72 72 73 65 74 66 75 70 76 73 77 67 78
REMARK SMILES IDX 68 79 71 80 69 81 48 82 49 83 57 84 50 85 51 86 55 87 58 88
REMARK SMILES IDX 52 89 53 90 56 91 54 92
REMARK H PARENT 8 12 8 13 3 19 78 45 46 56
REMARK Flexibility Score: inf
ROOT
ATOM      1  O   UNL A   1      33.944  33.865  28.746  1.00  0.00    -0.458 OA
ENDROOT
BRANCH   1   2
ATOM      2  C   UNL A   1      35.060  33.145  28.472  1.00  0.00     0.339 C 
ATOM      3  O   UNL A   1      36.209  33.502  28.642  1.00  0.00    -0.246 OA
BRANCH   2   4
ATOM      4  C   UNL A   1      34.718  31.783  28.015  1.00  0.00     0.078 A 
ATOM      5  C   UNL A   1      33.815  29.316  27.178  1.00  0.00     0.094 A 
ATOM      6  C   UNL A   1      35.149  29.460  27.573  1.00  0.00     0.031 A 
ATOM      7  N   UNL A   1      32.946  30.352  27.188  1.00  0.00    -0.254 NA
ATOM      8  C   UNL A   1      35.608  30.712  27.993  1.00  0.00     0.019 A 
ATOM      9  C   UNL A   1      33.410  31.544  27.622  1.00  0.00     0.127 A 
BRANCH   5  10
ATOM     10  C   UNL A   1      33.212  27.958  26.873  1.00  0.00     0.317 C 
BRANCH  10  11
ATOM     11  N   UNL A   1      32.834  27.765  25.463  1.00  0.00    -0.341 N 
ATOM     12  H   UNL A   1      31.907  27.342  25.428  1.00  0.00     0.346 HD
ATOM     13  H   UNL A   1      32.848  28.680  25.012  1.00  0.00     0.346 HD
BRANCH  11  14
ATOM     14  C   UNL A   1      33.776  26.897  24.739  1.00  0.00     0.270 C 
BRANCH  14  15
ATOM     15  C   UNL A   1      33.418  26.836  23.251  1.00  0.00     0.105 C 
ATOM     16  N   UNL A   1      31.473  27.596  22.002  1.00  0.00    -0.335 N 
ATOM     17  C   UNL A   1      31.777  26.199  21.672  1.00  0.00     0.262 C 
ATOM     18  C   UNL A   1      32.656  28.080  22.757  1.00  0.00     0.271 C 
ATOM     19  H   UNL A   1      31.291  28.116  21.144  1.00  0.00     0.348 HD
ATOM     20  C   UNL A   1      32.491  25.675  22.895  1.00  0.00     0.076 C 
BRANCH  16  21
ATOM     21  C   UNL A   1      30.249  27.781  22.802  1.00  0.00     0.258 C 
ATOM     22  C   UNL A   1      30.112  29.152  23.458  1.00  0.00     0.071 C 
ENDBRANCH  16  21
ENDBRANCH  14  15
ENDBRANCH  11  14
ENDBRANCH  10  11
ENDBRANCH   5  10
ENDBRANCH   2   4
ENDBRANCH   1   2
BRANCH   1  23
ATOM     23  C   UNL A   1      34.051  35.287  28.520  1.00  0.00     0.275 C 
BRANCH  23  24
ATOM     24  C   UNL A   1      32.981  36.058  29.293  1.00  0.00     0.275 C 
BRANCH  24  25
ATOM     25  O   UNL A   1      32.464  35.278  30.390  1.00  0.00    -0.458 OA
BRANCH  25  26
ATOM     26  C   UNL A   1      32.658  35.815  31.615  1.00  0.00     0.338 C 
ATOM     27  O   UNL A   1      32.017  36.706  32.148  1.00  0.00    -0.246 OA
BRANCH  26  28
ATOM     28  C   UNL A   1      33.732  35.102  32.321  1.00  0.00     0.060 A 
ATOM     29  C   UNL A   1      34.993  35.686  32.332  1.00  0.00     0.016 A 
ATOM     30  C   UNL A   1      33.563  33.800  32.782  1.00  0.00     0.016 A 
ATOM     31  C   UNL A   1      36.112  34.940  32.685  1.00  0.00     0.010 A 
ATOM     32  C   UNL A   1      34.676  33.090  33.256  1.00  0.00     0.010 A 
ATOM     33  C   UNL A   1      35.973  33.636  33.176  1.00  0.00    -0.014 A 
BRANCH  33  34
ATOM     34  C   UNL A   1      37.177  32.850  33.578  1.00  0.00     0.031 A 
ATOM     35  C   UNL A   1      37.831  33.085  34.917  1.00  0.00     0.074 A 
ATOM     36  C   UNL A   1      37.686  31.911  32.752  1.00  0.00     0.049 A 
ATOM     37  N   UNL A   1      38.979  32.644  35.370  1.00  0.00    -0.248 NA
ATOM     38  C   UNL A   1      37.106  33.942  35.867  1.00  0.00     0.031 C 
ATOM     39  C   UNL A   1      37.134  31.539  31.450  1.00  0.00     0.029 A 
ATOM     40  N   UNL A   1      38.784  31.094  32.887  1.00  0.00    -0.354 N 
ATOM     41  C   UNL A   1      39.140  33.217  36.627  1.00  0.00     0.074 A 
ATOM     42  C   UNL A   1      37.975  34.044  36.863  1.00  0.00     0.031 C 
ATOM     43  C   UNL A   1      37.864  30.545  30.925  1.00  0.00     0.029 A 
ATOM     44  C   UNL A   1      39.000  30.282  31.800  1.00  0.00     0.049 A 
ATOM     45  H   UNL A   1      39.360  31.092  33.685  1.00  0.00     0.167 HD
ATOM     46  C   UNL A   1      40.165  33.063  37.502  1.00  0.00     0.037 A 
ATOM     47  C   UNL A   1      40.021  29.454  31.505  1.00  0.00     0.037 A 
ATOM     48  C   UNL A   1      41.293  32.194  37.284  1.00  0.00     0.049 A 
ATOM     49  C   UNL A   1      41.166  29.337  32.470  1.00  0.00     0.074 A 
ATOM     50  C   UNL A   1      42.370  31.952  38.119  1.00  0.00     0.029 A 
ATOM     51  N   UNL A   1      41.482  31.411  36.155  1.00  0.00    -0.354 N 
ATOM     52  N   UNL A   1      41.331  29.919  33.633  1.00  0.00    -0.248 NA
ATOM     53  C   UNL A   1      42.277  28.461  32.074  1.00  0.00     0.031 C 
ATOM     54  C   UNL A   1      43.236  31.064  37.474  1.00  0.00     0.029 A 
ATOM     55  C   UNL A   1      42.669  30.703  36.263  1.00  0.00     0.049 A 
ATOM     56  H   UNL A   1      40.865  31.365  35.388  1.00  0.00     0.167 HD
ATOM     57  C   UNL A   1      42.548  29.463  34.118  1.00  0.00     0.074 A 
ATOM     58  C   UNL A   1      43.074  28.544  33.129  1.00  0.00     0.031 C 
ATOM     59  C   UNL A   1      43.174  29.781  35.276  1.00  0.00     0.037 A 
BRANCH  46  60
ATOM     60  C   UNL A   1      40.139  33.882  38.763  1.00  0.00     0.064 A 
ATOM     61  C   UNL A   1      40.801  35.115  38.869  1.00  0.00     0.173 A 
ATOM     62  C   UNL A   1      39.398  33.442  39.873  1.00  0.00     0.173 A 
ATOM     63  F   UNL A   1      41.530  35.580  37.844  1.00  0.00    -0.203 F 
ATOM     64  C   UNL A   1      40.748  35.859  40.046  1.00  0.00     0.198 A 
ATOM     65  C   UNL A   1      39.320  34.204  41.036  1.00  0.00     0.198 A 
ATOM     66  F   UNL A   1      38.736  32.276  39.826  1.00  0.00    -0.203 F 
ATOM     67  F   UNL A   1      41.429  37.009  40.141  1.00  0.00    -0.200 F 
ATOM     68  C   UNL A   1      40.002  35.408  41.125  1.00  0.00     0.200 A 
ATOM     69  F   UNL A   1      38.584  33.774  42.070  1.00  0.00    -0.200 F 
ATOM     70  F   UNL A   1      39.945  36.130  42.252  1.00  0.00    -0.200 F 
ENDBRANCH  46  60
BRANCH  47  71
ATOM     71  C   UNL A   1      40.024  28.712  30.216  1.00  0.00     0.064 A 
ATOM     72  C   UNL A   1      40.637  29.247  29.075  1.00  0.00     0.173 A 
ATOM     73  C   UNL A   1      39.419  27.451  30.099  1.00  0.00     0.173 A 
ATOM     74  F   UNL A   1      41.205  30.460  29.127  1.00  0.00    -0.203 F 
ATOM     75  C   UNL A   1      40.636  28.555  27.865  1.00  0.00     0.198 A 
ATOM     76  C   UNL A   1      39.451  26.743  28.900  1.00  0.00     0.198 A 
ATOM     77  F   UNL A   1      38.818  26.892  31.160  1.00  0.00    -0.203 F 
ATOM     78  F   UNL A   1      41.189  29.109  26.778  1.00  0.00    -0.200 F 
ATOM     79  C   UNL A   1      40.051  27.299  27.781  1.00  0.00     0.200 A 
ATOM     80  F   UNL A   1      38.901  25.523  28.829  1.00  0.00    -0.200 F 
ATOM     81  F   UNL A   1      40.061  26.629  26.621  1.00  0.00    -0.200 F 
ENDBRANCH  47  71
BRANCH  59  82
ATOM     82  C   UNL A   1      44.476  29.091  35.565  1.00  0.00     0.064 A 
ATOM     83  C   UNL A   1      44.529  27.864  36.242  1.00  0.00     0.173 A 
ATOM     84  C   UNL A   1      45.685  29.654  35.128  1.00  0.00     0.173 A 
ATOM     85  F   UNL A   1      43.403  27.294  36.696  1.00  0.00    -0.203 F 
ATOM     86  C   UNL A   1      45.747  27.238  36.492  1.00  0.00     0.198 A 
ATOM     87  C   UNL A   1      46.898  29.009  35.350  1.00  0.00     0.198 A 
ATOM     88  F   UNL A   1      45.688  30.823  34.472  1.00  0.00    -0.203 F 
ATOM     89  F   UNL A   1      45.779  26.090  37.183  1.00  0.00    -0.200 F 
ATOM     90  C   UNL A   1      46.929  27.806  36.038  1.00  0.00     0.200 A 
ATOM     91  F   UNL A   1      48.037  29.553  34.900  1.00  0.00    -0.200 F 
ATOM     92  F   UNL A   1      48.099  27.196  36.272  1.00  0.00    -0.200 F 
ENDBRANCH  59  82
ENDBRANCH  33  34
ENDBRANCH  26  28
ENDBRANCH  25  26
ENDBRANCH  24  25
ENDBRANCH  23  24
ENDBRANCH   1  23
TORSDOF 16
ENDMDL
MODEL 2
REMARK VINA RESULT:     -10.5      3.324      8.935
REMARK SMILES CC[N@@H+]1CC[C@H](C[NH2+]Cc2ccc(C(=O)OCCOC(=O)c3ccc(-c4c5nc(c(-c6c(F)c(F)c(F)c(F)c6F)c6ccc([nH]6)c(-c6c(F)c(F)c(F)c(F)c6F)c6nc(c(-c7c(F)c(F)c(F)c(F)c7F)c7ccc4[nH]7)C=C6)C=C5)cc3)cn2)C1
REMARK SMILES IDX 16 1 14 2 15 3 13 4 10 5 11 6 86 7 12 8 85 9 9 10 8 11 7 14
REMARK SMILES IDX 6 15 3 16 4 17 87 18 5 20 2 21 1 22 17 23 18 24 19 25 20 26
REMARK SMILES IDX 21 27 22 28 23 29 84 30 24 31 83 32 25 33 26 34 27 35 77 36
REMARK SMILES IDX 28 37 82 38 76 39 78 40 29 41 81 42 75 43 74 44 30 46 62 47
REMARK SMILES IDX 42 48 61 49 43 50 46 51 60 52 79 53 44 54 45 55 59 57 80 58
REMARK SMILES IDX 47 59 31 60 32 61 40 62 33 63 34 64 38 65 41 66 35 67 36 68
REMARK SMILES IDX 39 69 37 70 63 71 64 72 72 73 65 74 66 75 70 76 73 77 67 78
REMARK SMILES IDX 68 79 71 80 69 81 48 82 49 83 57 84 50 85 51 86 55 87 58 88
REMARK SMILES IDX 52 89 53 90 56 91 54 92
REMARK H PARENT 8 12 8 13 3 19 78 45 46 56
REMARK Flexibility Score: inf
ROOT
ATOM      1  O   UNL A   1      31.920  27.069  24.507  1.00  0.00    -0.458 OA
ENDROOT
BRANCH   1   2
ATOM      2  C   UNL A   1      31.008  26.073  24.626  1.00  0.00     0.339 C 
ATOM      3  O   UNL A   1      29.923  26.018  24.081  1.00  0.00    -0.246 OA
BRANCH   2   4
ATOM      4  C   UNL A   1      31.533  24.963  25.448  1.00  0.00     0.078 A 
ATOM      5  C   UNL A   1      32.756  23.026  26.981  1.00  0.00     0.094 A 
ATOM      6  C   UNL A   1      31.515  22.754  26.395  1.00  0.00     0.031 A 
ATOM      7  N   UNL A   1      33.380  24.215  26.826  1.00  0.00    -0.254 NA
ATOM      8  C   UNL A   1      30.893  23.739  25.621  1.00  0.00     0.019 A 
ATOM      9  C   UNL A   1      32.768  25.138  26.053  1.00  0.00     0.127 A 
BRANCH   5  10
ATOM     10  C   UNL A   1      33.559  21.951  27.690  1.00  0.00     0.317 C 
BRANCH  10  11
ATOM     11  N   UNL A   1      34.706  21.444  26.919  1.00  0.00    -0.341 N 
ATOM     12  H   UNL A   1      35.423  22.168  26.885  1.00  0.00     0.346 HD
ATOM     13  H   UNL A   1      35.044  20.602  27.386  1.00  0.00     0.346 HD
BRANCH  11  14
ATOM     14  C   UNL A   1      34.343  21.073  25.542  1.00  0.00     0.270 C 
BRANCH  14  15
ATOM     15  C   UNL A   1      35.488  21.393  24.577  1.00  0.00     0.105 C 
ATOM     16  N   UNL A   1      37.464  22.799  24.790  1.00  0.00    -0.335 N 
ATOM     17  C   UNL A   1      36.741  23.117  23.552  1.00  0.00     0.262 C 
ATOM     18  C   UNL A   1      36.852  21.537  25.279  1.00  0.00     0.271 C 
ATOM     19  H   UNL A   1      38.461  22.722  24.590  1.00  0.00     0.348 HD
ATOM     20  C   UNL A   1      35.313  22.721  23.843  1.00  0.00     0.076 C 
BRANCH  16  21
ATOM     21  C   UNL A   1      37.382  23.841  25.829  1.00  0.00     0.258 C 
ATOM     22  C   UNL A   1      38.704  24.162  26.520  1.00  0.00     0.071 C 
ENDBRANCH  16  21
ENDBRANCH  14  15
ENDBRANCH  11  14
ENDBRANCH  10  11
ENDBRANCH   5  10
ENDBRANCH   2   4
ENDBRANCH   1   2
BRANCH   1  23
ATOM     23  C   UNL A   1      31.407  28.405  24.698  1.00  0.00     0.275 C 
BRANCH  23  24
ATOM     24  C   UNL A   1      31.891  29.006  26.019  1.00  0.00     0.275 C 
BRANCH  24  25
ATOM     25  O   UNL A   1      33.003  29.900  25.810  1.00  0.00    -0.458 OA
BRANCH  25  26
ATOM     26  C   UNL A   1      33.232  30.772  26.817  1.00  0.00     0.338 C 
ATOM     27  O   UNL A   1      32.437  31.545  27.328  1.00  0.00    -0.246 OA
BRANCH  26  28
ATOM     28  C   UNL A   1      34.600  30.614  27.329  1.00  0.00     0.060 A 
ATOM     29  C   UNL A   1      35.036  29.326  27.615  1.00  0.00     0.016 A 
ATOM     30  C   UNL A   1      35.365  31.711  27.716  1.00  0.00     0.016 A 
ATOM     31  C   UNL A   1      36.170  29.122  28.392  1.00  0.00     0.010 A 
ATOM     32  C   UNL A   1      36.574  31.498  28.393  1.00  0.00     0.010 A 
ATOM     33  C   UNL A   1      36.974  30.202  28.777  1.00  0.00    -0.014 A 
BRANCH  33  34
ATOM     34  C   UNL A   1      38.205  29.972  29.590  1.00  0.00     0.031 A 
ATOM     35  C   UNL A   1      39.322  29.109  29.059  1.00  0.00     0.074 A 
ATOM     36  C   UNL A   1      38.337  30.546  30.805  1.00  0.00     0.049 A 
ATOM     37  N   UNL A   1      40.378  28.641  29.679  1.00  0.00    -0.248 NA
ATOM     38  C   UNL A   1      39.232  28.704  27.648  1.00  0.00     0.031 C 
ATOM     39  C   UNL A   1      37.364  31.444  31.428  1.00  0.00     0.029 A 
ATOM     40  N   UNL A   1      39.347  30.463  31.735  1.00  0.00    -0.354 N 
ATOM     41  C   UNL A   1      41.042  27.843  28.754  1.00  0.00     0.074 A 
ATOM     42  C   UNL A   1      40.266  27.882  27.533  1.00  0.00     0.031 C 
ATOM     43  C   UNL A   1      37.838  31.859  32.611  1.00  0.00     0.029 A 
ATOM     44  C   UNL A   1      39.096  31.176  32.882  1.00  0.00     0.049 A 
ATOM     45  H   UNL A   1      40.169  29.941  31.592  1.00  0.00     0.167 HD
ATOM     46  C   UNL A   1      42.193  27.144  28.912  1.00  0.00     0.037 A 
ATOM     47  C   UNL A   1      39.769  31.238  34.047  1.00  0.00     0.037 A 
ATOM     48  C   UNL A   1      42.990  27.156  30.113  1.00  0.00     0.049 A 
ATOM     49  C   UNL A   1      41.017  30.419  34.213  1.00  0.00     0.074 A 
ATOM     50  C   UNL A   1      44.183  26.500  30.364  1.00  0.00     0.029 A 
ATOM     51  N   UNL A   1      42.682  27.872  31.260  1.00  0.00    -0.354 N 
ATOM     52  N   UNL A   1      41.610  29.630  33.350  1.00  0.00    -0.248 NA
ATOM     53  C   UNL A   1      41.681  30.483  35.523  1.00  0.00     0.031 C 
ATOM     54  C   UNL A   1      44.570  26.777  31.679  1.00  0.00     0.029 A 
ATOM     55  C   UNL A   1      43.650  27.656  32.228  1.00  0.00     0.049 A 
ATOM     56  H   UNL A   1      41.891  28.448  31.372  1.00  0.00     0.167 HD
ATOM     57  C   UNL A   1      42.726  29.125  34.000  1.00  0.00     0.074 A 
ATOM     58  C   UNL A   1      42.737  29.707  35.326  1.00  0.00     0.031 C 
ATOM     59  C   UNL A   1      43.656  28.254  33.540  1.00  0.00     0.037 A 
BRANCH  46  60
ATOM     60  C   UNL A   1      42.647  26.272  27.774  1.00  0.00     0.064 A 
ATOM     61  C   UNL A   1      43.544  26.725  26.795  1.00  0.00     0.173 A 
ATOM     62  C   UNL A   1      42.207  24.940  27.690  1.00  0.00     0.173 A 
ATOM     63  F   UNL A   1      43.989  27.990  26.822  1.00  0.00    -0.203 F 
ATOM     64  C   UNL A   1      43.959  25.890  25.760  1.00  0.00     0.198 A 
ATOM     65  C   UNL A   1      42.649  24.098  26.672  1.00  0.00     0.198 A 
ATOM     66  F   UNL A   1      41.357  24.449  28.604  1.00  0.00    -0.203 F 
ATOM     67  F   UNL A   1      44.777  26.360  24.808  1.00  0.00    -0.200 F 
ATOM     68  C   UNL A   1      43.517  24.576  25.703  1.00  0.00     0.200 A 
ATOM     69  F   UNL A   1      42.236  22.824  26.630  1.00  0.00    -0.200 F 
ATOM     70  F   UNL A   1      43.925  23.772  24.711  1.00  0.00    -0.200 F 
ENDBRANCH  46  60
BRANCH  47  71
ATOM     71  C   UNL A   1      39.244  32.072  35.162  1.00  0.00     0.064 A 
ATOM     72  C   UNL A   1      38.475  31.506  36.188  1.00  0.00     0.173 A 
ATOM     73  C   UNL A   1      39.504  33.449  35.227  1.00  0.00     0.173 A 
ATOM     74  F   UNL A   1      38.176  30.199  36.158  1.00  0.00    -0.203 F 
ATOM     75  C   UNL A   1      37.979  32.287  37.230  1.00  0.00     0.198 A 
ATOM     76  C   UNL A   1      39.038  34.223  36.288  1.00  0.00     0.198 A 
ATOM     77  F   UNL A   1      40.234  34.043  34.271  1.00  0.00    -0.203 F 
ATOM     78  F   UNL A   1      37.208  31.730  38.174  1.00  0.00    -0.200 F 
ATOM     79  C   UNL A   1      38.268  33.643  37.284  1.00  0.00     0.200 A 
ATOM     80  F   UNL A   1      39.337  35.527  36.346  1.00  0.00    -0.200 F 
ATOM     81  F   UNL A   1      37.800  34.391  38.292  1.00  0.00    -0.200 F 
ENDBRANCH  47  71
BRANCH  59  82
ATOM     82  C   UNL A   1      44.794  27.915  34.459  1.00  0.00     0.064 A 
ATOM     83  C   UNL A   1      44.742  26.814  35.326  1.00  0.00     0.173 A 
ATOM     84  C   UNL A   1      45.966  28.687  34.444  1.00  0.00     0.173 A 
ATOM     85  F   UNL A   1      43.637  26.057  35.390  1.00  0.00    -0.203 F 
ATOM     86  C   UNL A   1      45.813  26.514  36.164  1.00  0.00     0.198 A 
ATOM     87  C   UNL A   1      47.047  28.364  35.259  1.00  0.00     0.198 A 
ATOM     88  F   UNL A   1      46.068  29.747  33.629  1.00  0.00    -0.203 F 
ATOM     89  F   UNL A   1      45.724  25.487  37.020  1.00  0.00    -0.200 F 
ATOM     90  C   UNL A   1      46.967  27.283  36.123  1.00  0.00     0.200 A 
ATOM     91  F   UNL A   1      48.165  29.100  35.209  1.00  0.00    -0.200 F 
ATOM     92  F   UNL A   1      48.000  26.986  36.924  1.00  0.00    -0.200 F 
ENDBRANCH  59  82
ENDBRANCH  33  34
ENDBRANCH  26  28
ENDBRANCH  25  26
ENDBRANCH  24  25
ENDBRANCH  23  24
ENDBRANCH   1  23
TORSDOF 16
ENDMDL
MODEL 3
REMARK VINA RESULT:     -10.5      1.136      2.325
REMARK SMILES CC[N@@H+]1CC[C@H](C[NH2+]Cc2ccc(C(=O)OCCOC(=O)c3ccc(-c4c5nc(c(-c6c(F)c(F)c(F)c(F)c6F)c6ccc([nH]6)c(-c6c(F)c(F)c(F)c(F)c6F)c6nc(c(-c7c(F)c(F)c(F)c(F)c7F)c7ccc4[nH]7)C=C6)C=C5)cc3)cn2)C1
REMARK SMILES IDX 16 1 14 2 15 3 13 4 10 5 11 6 86 7 12 8 85 9 9 10 8 11 7 14
REMARK SMILES IDX 6 15 3 16 4 17 87 18 5 20 2 21 1 22 17 23 18 24 19 25 20 26
REMARK SMILES IDX 21 27 22 28 23 29 84 30 24 31 83 32 25 33 26 34 27 35 77 36
REMARK SMILES IDX 28 37 82 38 76 39 78 40 29 41 81 42 75 43 74 44 30 46 62 47
REMARK SMILES IDX 42 48 61 49 43 50 46 51 60 52 79 53 44 54 45 55 59 57 80 58
REMARK SMILES IDX 47 59 31 60 32 61 40 62 33 63 34 64 38 65 41 66 35 67 36 68
REMARK SMILES IDX 39 69 37 70 63 71 64 72 72 73 65 74 66 75 70 76 73 77 67 78
REMARK SMILES IDX 68 79 71 80 69 81 48 82 49 83 57 84 50 85 51 86 55 87 58 88
REMARK SMILES IDX 52 89 53 90 56 91 54 92
REMARK H PARENT 8 12 8 13 3 19 78 45 46 56
REMARK Flexibility Score: inf
ROOT
ATOM      1  O   UNL A   1      34.100  33.891  28.945  1.00  0.00    -0.458 OA
ENDROOT
BRANCH   1   2
ATOM      2  C   UNL A   1      35.248  33.243  28.626  1.00  0.00     0.339 C 
ATOM      3  O   UNL A   1      36.379  33.639  28.822  1.00  0.00    -0.246 OA
BRANCH   2   4
ATOM      4  C   UNL A   1      34.968  31.900  28.076  1.00  0.00     0.078 A 
ATOM      5  C   UNL A   1      34.178  29.447  27.099  1.00  0.00     0.094 A 
ATOM      6  C   UNL A   1      35.529  29.668  27.383  1.00  0.00     0.031 A 
ATOM      7  N   UNL A   1      33.238  30.401  27.282  1.00  0.00    -0.254 NA
ATOM      8  C   UNL A   1      35.930  30.915  27.876  1.00  0.00     0.019 A 
ATOM      9  C   UNL A   1      33.650  31.587  27.781  1.00  0.00     0.127 A 
BRANCH   5  10
ATOM     10  C   UNL A   1      33.654  28.073  26.723  1.00  0.00     0.317 C 
BRANCH  10  11
ATOM     11  N   UNL A   1      34.032  27.628  25.372  1.00  0.00    -0.341 N 
ATOM     12  H   UNL A   1      33.837  28.381  24.713  1.00  0.00     0.346 HD
ATOM     13  H   UNL A   1      35.025  27.393  25.391  1.00  0.00     0.346 HD
BRANCH  11  14
ATOM     14  C   UNL A   1      33.298  26.426  24.946  1.00  0.00     0.270 C 
BRANCH  14  15
ATOM     15  C   UNL A   1      33.196  25.421  26.096  1.00  0.00     0.105 C 
ATOM     16  N   UNL A   1      33.291  22.989  26.159  1.00  0.00    -0.335 N 
ATOM     17  C   UNL A   1      32.110  23.473  26.884  1.00  0.00     0.262 C 
ATOM     18  C   UNL A   1      34.118  24.199  25.919  1.00  0.00     0.271 C 
ATOM     19  H   UNL A   1      33.760  22.273  26.713  1.00  0.00     0.348 HD
ATOM     20  C   UNL A   1      31.805  24.808  26.248  1.00  0.00     0.076 C 
BRANCH  16  21
ATOM     21  C   UNL A   1      32.990  22.318  24.882  1.00  0.00     0.258 C 
ATOM     22  C   UNL A   1      32.126  21.065  25.004  1.00  0.00     0.071 C 
ENDBRANCH  16  21
ENDBRANCH  14  15
ENDBRANCH  11  14
ENDBRANCH  10  11
ENDBRANCH   5  10
ENDBRANCH   2   4
ENDBRANCH   1   2
BRANCH   1  23
ATOM     23  C   UNL A   1      34.085  35.305  28.657  1.00  0.00     0.275 C 
BRANCH  23  24
ATOM     24  C   UNL A   1      32.978  36.022  29.432  1.00  0.00     0.275 C 
BRANCH  24  25
ATOM     25  O   UNL A   1      32.486  35.208  30.515  1.00  0.00    -0.458 OA
BRANCH  25  26
ATOM     26  C   UNL A   1      32.668  35.727  31.749  1.00  0.00     0.338 C 
ATOM     27  O   UNL A   1      32.004  36.590  32.300  1.00  0.00    -0.246 OA
BRANCH  26  28
ATOM     28  C   UNL A   1      33.763  35.032  32.440  1.00  0.00     0.060 A 
ATOM     29  C   UNL A   1      35.023  35.616  32.401  1.00  0.00     0.016 A 
ATOM     30  C   UNL A   1      33.608  33.741  32.937  1.00  0.00     0.016 A 
ATOM     31  C   UNL A   1      36.152  34.879  32.740  1.00  0.00     0.010 A 
ATOM     32  C   UNL A   1      34.735  33.043  33.395  1.00  0.00     0.010 A 
ATOM     33  C   UNL A   1      36.029  33.587  33.264  1.00  0.00    -0.014 A 
BRANCH  33  34
ATOM     34  C   UNL A   1      37.245  32.811  33.651  1.00  0.00     0.031 A 
ATOM     35  C   UNL A   1      37.903  33.037  34.989  1.00  0.00     0.074 A 
ATOM     36  C   UNL A   1      37.761  31.890  32.810  1.00  0.00     0.049 A 
ATOM     37  N   UNL A   1      39.059  32.605  35.430  1.00  0.00    -0.248 NA
ATOM     38  C   UNL A   1      37.172  33.872  35.954  1.00  0.00     0.031 C 
ATOM     39  C   UNL A   1      37.207  31.528  31.505  1.00  0.00     0.029 A 
ATOM     40  N   UNL A   1      38.870  31.085  32.928  1.00  0.00    -0.354 N 
ATOM     41  C   UNL A   1      39.219  33.163  36.694  1.00  0.00     0.074 A 
ATOM     42  C   UNL A   1      38.045  33.972  36.946  1.00  0.00     0.031 C 
ATOM     43  C   UNL A   1      37.947  30.550  30.964  1.00  0.00     0.029 A 
ATOM     44  C   UNL A   1      39.090  30.290  31.829  1.00  0.00     0.049 A 
ATOM     45  H   UNL A   1      39.450  31.079  33.723  1.00  0.00     0.167 HD
ATOM     46  C   UNL A   1      40.250  33.011  37.561  1.00  0.00     0.037 A 
ATOM     47  C   UNL A   1      40.120  29.479  31.518  1.00  0.00     0.037 A 
ATOM     48  C   UNL A   1      41.388  32.158  37.326  1.00  0.00     0.049 A 
ATOM     49  C   UNL A   1      41.271  29.364  32.475  1.00  0.00     0.074 A 
ATOM     50  C   UNL A   1      42.473  31.919  38.152  1.00  0.00     0.029 A 
ATOM     51  N   UNL A   1      41.581  31.393  36.186  1.00  0.00    -0.354 N 
ATOM     52  N   UNL A   1      41.435  29.932  33.645  1.00  0.00    -0.248 NA
ATOM     53  C   UNL A   1      42.392  28.507  32.062  1.00  0.00     0.031 C 
ATOM     54  C   UNL A   1      43.347  31.051  37.491  1.00  0.00     0.029 A 
ATOM     55  C   UNL A   1      42.778  30.699  36.278  1.00  0.00     0.049 A 
ATOM     56  H   UNL A   1      40.961  31.350  35.422  1.00  0.00     0.167 HD
ATOM     57  C   UNL A   1      42.661  29.485  34.118  1.00  0.00     0.074 A 
ATOM     58  C   UNL A   1      43.193  28.587  33.114  1.00  0.00     0.031 C 
ATOM     59  C   UNL A   1      43.289  29.796  35.277  1.00  0.00     0.037 A 
BRANCH  46  60
ATOM     60  C   UNL A   1      40.221  33.813  38.834  1.00  0.00     0.064 A 
ATOM     61  C   UNL A   1      39.571  33.357  39.991  1.00  0.00     0.173 A 
ATOM     62  C   UNL A   1      40.897  35.042  38.905  1.00  0.00     0.173 A 
ATOM     63  F   UNL A   1      38.903  32.195  39.976  1.00  0.00    -0.203 F 
ATOM     64  C   UNL A   1      39.573  34.115  41.160  1.00  0.00     0.198 A 
ATOM     65  C   UNL A   1      40.924  35.781  40.086  1.00  0.00     0.198 A 
ATOM     66  F   UNL A   1      41.544  35.523  37.834  1.00  0.00    -0.203 F 
ATOM     67  F   UNL A   1      38.903  33.683  42.237  1.00  0.00    -0.200 F 
ATOM     68  C   UNL A   1      40.255  35.322  41.209  1.00  0.00     0.200 A 
ATOM     69  F   UNL A   1      41.599  36.938  40.135  1.00  0.00    -0.200 F 
ATOM     70  F   UNL A   1      40.263  36.044  42.338  1.00  0.00    -0.200 F 
ENDBRANCH  46  60
BRANCH  47  71
ATOM     71  C   UNL A   1      40.126  28.754  30.219  1.00  0.00     0.064 A 
ATOM     72  C   UNL A   1      40.772  29.288  29.096  1.00  0.00     0.173 A 
ATOM     73  C   UNL A   1      39.490  27.511  30.075  1.00  0.00     0.173 A 
ATOM     74  F   UNL A   1      41.371  30.484  29.174  1.00  0.00    -0.203 F 
ATOM     75  C   UNL A   1      40.774  28.611  27.878  1.00  0.00     0.198 A 
ATOM     76  C   UNL A   1      39.523  26.819  28.867  1.00  0.00     0.198 A 
ATOM     77  F   UNL A   1      38.856  26.955  31.118  1.00  0.00    -0.203 F 
ATOM     78  F   UNL A   1      41.360  29.165  26.807  1.00  0.00    -0.200 F 
ATOM     79  C   UNL A   1      40.157  27.373  27.766  1.00  0.00     0.200 A 
ATOM     80  F   UNL A   1      38.943  25.615  28.770  1.00  0.00    -0.200 F 
ATOM     81  F   UNL A   1      40.169  26.718  26.598  1.00  0.00    -0.200 F 
ENDBRANCH  47  71
BRANCH  59  82
ATOM     82  C   UNL A   1      44.601  29.119  35.550  1.00  0.00     0.064 A 
ATOM     83  C   UNL A   1      45.822  29.689  35.162  1.00  0.00     0.173 A 
ATOM     84  C   UNL A   1      44.635  27.897  36.239  1.00  0.00     0.173 A 
ATOM     85  F   UNL A   1      45.842  30.847  34.484  1.00  0.00    -0.203 F 
ATOM     86  C   UNL A   1      47.028  29.048  35.433  1.00  0.00     0.198 A 
ATOM     87  C   UNL A   1      45.843  27.275  36.537  1.00  0.00     0.198 A 
ATOM     88  F   UNL A   1      43.495  27.313  36.636  1.00  0.00    -0.203 F 
ATOM     89  F   UNL A   1      48.180  29.586  35.010  1.00  0.00    -0.200 F 
ATOM     90  C   UNL A   1      47.038  27.847  36.128  1.00  0.00     0.200 A 
ATOM     91  F   UNL A   1      45.852  26.122  37.219  1.00  0.00    -0.200 F 
ATOM     92  F   UNL A   1      48.201  27.236  36.395  1.00  0.00    -0.200 F 
ENDBRANCH  59  82
ENDBRANCH  33  34
ENDBRANCH  26  28
ENDBRANCH  25  26
ENDBRANCH  24  25
ENDBRANCH  23  24
ENDBRANCH   1  23
TORSDOF 16
ENDMDL
