MODEL 1
REMARK VINA RESULT:     -11.7      0.000      0.000
REMARK SMILES CN(CC(C)(C)O)C(=O)NC[C@@H](C(=O)OCCOC(=O)c1ccc(-c2c3nc(c(-c4c(F)c(F)c(F)c(F)c4F)c4ccc([nH]4)c(-c4c(F)c(F)c(F)c(F)c4F)c4nc(c(-c5c(F)c(F)c(F)c(F)c5F)c5ccc2[nH]5)C=C4)C=C3)cc1)c1ccccc1
REMARK SMILES IDX 13 1 14 2 12 3 11 4 10 5 8 6 9 7 2 9 1 10 3 11 4 12 5 13
REMARK SMILES IDX 6 14 7 15 84 17 85 18 89 19 86 20 88 21 87 22 15 23 16 24
REMARK SMILES IDX 17 25 18 26 19 27 20 28 21 29 22 30 83 31 23 32 82 33 24 34
REMARK SMILES IDX 25 35 26 36 76 37 27 38 81 39 75 40 77 41 28 42 80 43 74 44
REMARK SMILES IDX 73 45 29 47 61 48 41 49 60 50 42 51 45 52 59 53 78 54 43 55
REMARK SMILES IDX 44 56 58 58 79 59 46 60 30 61 31 62 39 63 32 64 33 65 37 66
REMARK SMILES IDX 40 67 34 68 35 69 38 70 36 71 62 72 63 73 71 74 64 75 65 76
REMARK SMILES IDX 69 77 72 78 66 79 67 80 70 81 68 82 47 83 48 84 56 85 49 86
REMARK SMILES IDX 50 87 54 88 57 89 51 90 52 91 55 92 53 93
REMARK H PARENT 10 8 7 16 77 46 45 57
REMARK Flexibility Score: inf
ROOT
ATOM      1  C   UNL A   1      31.953  27.376  23.787  1.00  0.00     0.315 C 
ATOM      2  O   UNL A   1      32.468  27.048  22.723  1.00  0.00    -0.251 OA
ENDROOT
BRANCH   1   3
ATOM      3  C   UNL A   1      30.449  27.267  24.066  1.00  0.00     0.148 C 
BRANCH   3   4
ATOM      4  C   UNL A   1      29.909  25.823  23.985  1.00  0.00     0.137 C 
BRANCH   4   5
ATOM      5  N   UNL A   1      30.037  25.136  25.264  1.00  0.00    -0.337 N 
ATOM      6  C   UNL A   1      30.737  24.111  25.769  1.00  0.00     0.317 C 
ATOM      7  O   UNL A   1      30.535  23.916  26.975  1.00  0.00    -0.249 OA
ATOM      8  H   UNL A   1      29.445  25.533  25.943  1.00  0.00     0.165 HD
BRANCH   6   9
ATOM      9  N   UNL A   1      31.610  23.335  25.059  1.00  0.00    -0.325 N 
ATOM     10  C   UNL A   1      31.850  22.013  25.633  1.00  0.00     0.148 C 
BRANCH   9  11
ATOM     11  C   UNL A   1      32.292  23.577  23.777  1.00  0.00     0.155 C 
BRANCH  11  12
ATOM     12  C   UNL A   1      33.805  23.941  23.856  1.00  0.00     0.077 C 
ATOM     13  C   UNL A   1      34.165  24.711  25.124  1.00  0.00     0.043 C 
ATOM     14  C   UNL A   1      34.624  22.644  23.775  1.00  0.00     0.043 C 
BRANCH  12  15
ATOM     15  O   UNL A   1      34.181  24.741  22.727  1.00  0.00    -0.389 OA
ATOM     16  H   UNL A   1      34.930  25.308  22.970  1.00  0.00     0.211 HD
ENDBRANCH  12  15
ENDBRANCH  11  12
ENDBRANCH   9  11
ENDBRANCH   6   9
ENDBRANCH   4   5
ENDBRANCH   3   4
BRANCH   3  17
ATOM     17  C   UNL A   1      29.626  28.293  23.278  1.00  0.00    -0.032 A 
ATOM     18  C   UNL A   1      30.199  29.213  22.385  1.00  0.00     0.004 A 
ATOM     19  C   UNL A   1      28.224  28.300  23.416  1.00  0.00     0.004 A 
ATOM     20  C   UNL A   1      29.395  30.055  21.608  1.00  0.00     0.000 A 
ATOM     21  C   UNL A   1      27.423  29.148  22.647  1.00  0.00     0.000 A 
ATOM     22  C   UNL A   1      28.009  30.016  21.731  1.00  0.00     0.000 A 
ENDBRANCH   3  17
ENDBRANCH   1   3
BRANCH   1  23
ATOM     23  O   UNL A   1      32.646  27.930  24.820  1.00  0.00    -0.462 OA
BRANCH  23  24
ATOM     24  C   UNL A   1      32.964  29.334  24.717  1.00  0.00     0.274 C 
BRANCH  24  25
ATOM     25  C   UNL A   1      31.954  30.154  25.515  1.00  0.00     0.275 C 
BRANCH  25  26
ATOM     26  O   UNL A   1      32.406  30.281  26.877  1.00  0.00    -0.458 OA
BRANCH  26  27
ATOM     27  C   UNL A   1      33.029  31.437  27.196  1.00  0.00     0.338 C 
ATOM     28  O   UNL A   1      32.565  32.567  27.162  1.00  0.00    -0.246 OA
BRANCH  27  29
ATOM     29  C   UNL A   1      34.396  31.156  27.669  1.00  0.00     0.060 A 
ATOM     30  C   UNL A   1      34.762  29.850  27.973  1.00  0.00     0.016 A 
ATOM     31  C   UNL A   1      35.272  32.202  27.960  1.00  0.00     0.016 A 
ATOM     32  C   UNL A   1      35.943  29.602  28.669  1.00  0.00     0.010 A 
ATOM     33  C   UNL A   1      36.513  31.929  28.555  1.00  0.00     0.010 A 
ATOM     34  C   UNL A   1      36.853  30.626  28.965  1.00  0.00    -0.014 A 
BRANCH  34  35
ATOM     35  C   UNL A   1      38.105  30.346  29.742  1.00  0.00     0.031 A 
ATOM     36  C   UNL A   1      39.216  29.525  29.131  1.00  0.00     0.074 A 
ATOM     37  C   UNL A   1      38.295  30.835  30.986  1.00  0.00     0.049 A 
ATOM     38  N   UNL A   1      40.224  28.924  29.717  1.00  0.00    -0.248 NA
ATOM     39  C   UNL A   1      39.185  29.340  27.671  1.00  0.00     0.031 C 
ATOM     40  C   UNL A   1      37.372  31.707  31.714  1.00  0.00     0.029 A 
ATOM     41  N   UNL A   1      39.345  30.674  31.862  1.00  0.00    -0.354 N 
ATOM     42  C   UNL A   1      40.877  28.208  28.721  1.00  0.00     0.074 A 
ATOM     43  C   UNL A   1      40.177  28.480  27.483  1.00  0.00     0.031 C 
ATOM     44  C   UNL A   1      37.922  32.060  32.884  1.00  0.00     0.029 A 
ATOM     45  C   UNL A   1      39.170  31.328  33.058  1.00  0.00     0.049 A 
ATOM     46  H   UNL A   1      40.146  30.141  31.652  1.00  0.00     0.167 HD
ATOM     47  C   UNL A   1      41.948  27.387  28.836  1.00  0.00     0.037 A 
ATOM     48  C   UNL A   1      39.882  31.296  34.202  1.00  0.00     0.037 A 
ATOM     49  C   UNL A   1      42.712  27.203  30.044  1.00  0.00     0.049 A 
ATOM     50  C   UNL A   1      41.065  30.380  34.312  1.00  0.00     0.074 A 
ATOM     51  C   UNL A   1      43.828  26.407  30.247  1.00  0.00     0.029 A 
ATOM     52  N   UNL A   1      42.462  27.851  31.243  1.00  0.00    -0.354 N 
ATOM     53  N   UNL A   1      41.588  29.592  33.405  1.00  0.00    -0.248 NA
ATOM     54  C   UNL A   1      41.731  30.315  35.621  1.00  0.00     0.031 C 
ATOM     55  C   UNL A   1      44.239  26.557  31.577  1.00  0.00     0.029 A 
ATOM     56  C   UNL A   1      43.401  27.472  32.190  1.00  0.00     0.049 A 
ATOM     57  H   UNL A   1      41.727  28.487  31.399  1.00  0.00     0.167 HD
ATOM     58  C   UNL A   1      42.627  28.925  34.037  1.00  0.00     0.074 A 
ATOM     59  C   UNL A   1      42.689  29.429  35.393  1.00  0.00     0.031 C 
ATOM     60  C   UNL A   1      43.445  27.966  33.539  1.00  0.00     0.037 A 
BRANCH  47  61
ATOM     61  C   UNL A   1      42.346  26.576  27.638  1.00  0.00     0.064 A 
ATOM     62  C   UNL A   1      43.357  26.982  26.758  1.00  0.00     0.173 A 
ATOM     63  C   UNL A   1      41.742  25.326  27.416  1.00  0.00     0.173 A 
ATOM     64  F   UNL A   1      43.954  28.172  26.920  1.00  0.00    -0.203 F 
ATOM     65  C   UNL A   1      43.743  26.172  25.693  1.00  0.00     0.198 A 
ATOM     66  C   UNL A   1      42.148  24.509  26.364  1.00  0.00     0.198 A 
ATOM     67  F   UNL A   1      40.773  24.889  28.233  1.00  0.00    -0.203 F 
ATOM     68  F   UNL A   1      44.694  26.591  24.845  1.00  0.00    -0.200 F 
ATOM     69  C   UNL A   1      43.146  24.934  25.502  1.00  0.00     0.200 A 
ATOM     70  F   UNL A   1      41.578  23.308  26.192  1.00  0.00    -0.200 F 
ATOM     71  F   UNL A   1      43.531  24.150  24.485  1.00  0.00    -0.200 F 
ENDBRANCH  47  61
BRANCH  48  72
ATOM     72  C   UNL A   1      39.428  32.094  35.372  1.00  0.00     0.064 A 
ATOM     73  C   UNL A   1      38.571  31.542  36.332  1.00  0.00     0.173 A 
ATOM     74  C   UNL A   1      39.858  33.416  35.560  1.00  0.00     0.173 A 
ATOM     75  F   UNL A   1      38.106  30.294  36.177  1.00  0.00    -0.203 F 
ATOM     76  C   UNL A   1      38.164  32.283  37.440  1.00  0.00     0.198 A 
ATOM     77  C   UNL A   1      39.479  34.143  36.684  1.00  0.00     0.198 A 
ATOM     78  F   UNL A   1      40.674  33.992  34.664  1.00  0.00    -0.203 F 
ATOM     79  F   UNL A   1      37.317  31.746  38.328  1.00  0.00    -0.200 F 
ATOM     80  C   UNL A   1      38.628  33.578  37.622  1.00  0.00     0.200 A 
ATOM     81  F   UNL A   1      39.944  35.387  36.863  1.00  0.00    -0.200 F 
ATOM     82  F   UNL A   1      38.251  34.283  38.698  1.00  0.00    -0.200 F 
ENDBRANCH  48  72
BRANCH  60  83
ATOM     83  C   UNL A   1      44.476  27.403  34.468  1.00  0.00     0.064 A 
ATOM     84  C   UNL A   1      44.231  26.234  35.204  1.00  0.00     0.173 A 
ATOM     85  C   UNL A   1      45.723  28.025  34.614  1.00  0.00     0.173 A 
ATOM     86  F   UNL A   1      43.045  25.614  35.111  1.00  0.00    -0.203 F 
ATOM     87  C   UNL A   1      45.194  25.719  36.068  1.00  0.00     0.198 A 
ATOM     88  C   UNL A   1      46.691  27.496  35.464  1.00  0.00     0.198 A 
ATOM     89  F   UNL A   1      46.005  29.144  33.930  1.00  0.00    -0.203 F 
ATOM     90  F   UNL A   1      44.923  24.624  36.793  1.00  0.00    -0.200 F 
ATOM     91  C   UNL A   1      46.423  26.348  36.195  1.00  0.00     0.200 A 
ATOM     92  F   UNL A   1      47.881  28.101  35.581  1.00  0.00    -0.200 F 
ATOM     93  F   UNL A   1      47.346  25.853  37.029  1.00  0.00    -0.200 F 
ENDBRANCH  60  83
ENDBRANCH  34  35
ENDBRANCH  27  29
ENDBRANCH  26  27
ENDBRANCH  25  26
ENDBRANCH  24  25
ENDBRANCH  23  24
ENDBRANCH   1  23
TORSDOF 18
ENDMDL
MODEL 2
REMARK VINA RESULT:     -11.7      1.482      2.980
REMARK SMILES CN(CC(C)(C)O)C(=O)NC[C@@H](C(=O)OCCOC(=O)c1ccc(-c2c3nc(c(-c4c(F)c(F)c(F)c(F)c4F)c4ccc([nH]4)c(-c4c(F)c(F)c(F)c(F)c4F)c4nc(c(-c5c(F)c(F)c(F)c(F)c5F)c5ccc2[nH]5)C=C4)C=C3)cc1)c1ccccc1
REMARK SMILES IDX 13 1 14 2 12 3 11 4 10 5 8 6 9 7 2 9 1 10 3 11 4 12 5 13
REMARK SMILES IDX 6 14 7 15 84 17 85 18 89 19 86 20 88 21 87 22 15 23 16 24
REMARK SMILES IDX 17 25 18 26 19 27 20 28 21 29 22 30 83 31 23 32 82 33 24 34
REMARK SMILES IDX 25 35 26 36 76 37 27 38 81 39 75 40 77 41 28 42 80 43 74 44
REMARK SMILES IDX 73 45 29 47 61 48 41 49 60 50 42 51 45 52 59 53 78 54 43 55
REMARK SMILES IDX 44 56 58 58 79 59 46 60 30 61 31 62 39 63 32 64 33 65 37 66
REMARK SMILES IDX 40 67 34 68 35 69 38 70 36 71 62 72 63 73 71 74 64 75 65 76
REMARK SMILES IDX 69 77 72 78 66 79 67 80 70 81 68 82 47 83 48 84 56 85 49 86
REMARK SMILES IDX 50 87 54 88 57 89 51 90 52 91 55 92 53 93
REMARK H PARENT 10 8 7 16 77 46 45 57
REMARK Flexibility Score: inf
ROOT
ATOM      1  C   UNL A   1      32.585  25.534  25.186  1.00  0.00     0.315 C 
ATOM      2  O   UNL A   1      32.274  24.998  26.246  1.00  0.00    -0.251 OA
ENDROOT
BRANCH   1   3
ATOM      3  C   UNL A   1      33.155  24.765  23.988  1.00  0.00     0.148 C 
BRANCH   3   4
ATOM      4  C   UNL A   1      32.170  23.739  23.387  1.00  0.00     0.137 C 
BRANCH   4   5
ATOM      5  N   UNL A   1      31.451  23.019  24.430  1.00  0.00    -0.337 N 
ATOM      6  C   UNL A   1      31.706  22.044  25.314  1.00  0.00     0.317 C 
ATOM      7  O   UNL A   1      30.753  21.787  26.061  1.00  0.00    -0.249 OA
ATOM      8  H   UNL A   1      30.522  23.335  24.505  1.00  0.00     0.165 HD
BRANCH   6   9
ATOM      9  N   UNL A   1      32.894  21.379  25.422  1.00  0.00    -0.325 N 
ATOM     10  C   UNL A   1      33.575  21.557  26.702  1.00  0.00     0.148 C 
BRANCH   9  11
ATOM     11  C   UNL A   1      33.570  20.455  24.495  1.00  0.00     0.155 C 
BRANCH  11  12
ATOM     12  C   UNL A   1      33.039  18.990  24.470  1.00  0.00     0.077 C 
ATOM     13  C   UNL A   1      32.188  18.688  23.238  1.00  0.00     0.043 C 
ATOM     14  C   UNL A   1      34.239  18.034  24.529  1.00  0.00     0.043 C 
BRANCH  12  15
ATOM     15  O   UNL A   1      32.243  18.731  25.633  1.00  0.00    -0.389 OA
ATOM     16  H   UNL A   1      32.559  19.280  26.369  1.00  0.00     0.211 HD
ENDBRANCH  12  15
ENDBRANCH  11  12
ENDBRANCH   9  11
ENDBRANCH   6   9
ENDBRANCH   4   5
ENDBRANCH   3   4
BRANCH   3  17
ATOM     17  C   UNL A   1      34.559  24.209  24.255  1.00  0.00    -0.032 A 
ATOM     18  C   UNL A   1      35.244  24.406  25.466  1.00  0.00     0.004 A 
ATOM     19  C   UNL A   1      35.189  23.429  23.265  1.00  0.00     0.004 A 
ATOM     20  C   UNL A   1      36.476  23.786  25.701  1.00  0.00     0.000 A 
ATOM     21  C   UNL A   1      36.424  22.819  23.498  1.00  0.00     0.000 A 
ATOM     22  C   UNL A   1      37.061  22.986  24.723  1.00  0.00     0.000 A 
ENDBRANCH   3  17
ENDBRANCH   1   3
BRANCH   1  23
ATOM     23  O   UNL A   1      32.519  26.876  24.973  1.00  0.00    -0.462 OA
BRANCH  23  24
ATOM     24  C   UNL A   1      31.975  27.683  26.038  1.00  0.00     0.274 C 
BRANCH  24  25
ATOM     25  C   UNL A   1      31.688  29.093  25.526  1.00  0.00     0.275 C 
BRANCH  25  26
ATOM     26  O   UNL A   1      32.892  29.881  25.587  1.00  0.00    -0.458 OA
BRANCH  26  27
ATOM     27  C   UNL A   1      33.041  30.661  26.681  1.00  0.00     0.338 C 
ATOM     28  O   UNL A   1      32.194  31.356  27.221  1.00  0.00    -0.246 OA
BRANCH  27  29
ATOM     29  C   UNL A   1      34.411  30.526  27.209  1.00  0.00     0.060 A 
ATOM     30  C   UNL A   1      34.968  29.261  27.357  1.00  0.00     0.016 A 
ATOM     31  C   UNL A   1      35.090  31.640  27.704  1.00  0.00     0.016 A 
ATOM     32  C   UNL A   1      36.137  29.098  28.096  1.00  0.00     0.010 A 
ATOM     33  C   UNL A   1      36.328  31.476  28.345  1.00  0.00     0.010 A 
ATOM     34  C   UNL A   1      36.853  30.195  28.596  1.00  0.00    -0.014 A 
BRANCH  34  35
ATOM     35  C   UNL A   1      38.094  29.999  29.415  1.00  0.00     0.031 A 
ATOM     36  C   UNL A   1      39.258  29.210  28.863  1.00  0.00     0.074 A 
ATOM     37  C   UNL A   1      38.225  30.536  30.647  1.00  0.00     0.049 A 
ATOM     38  N   UNL A   1      40.275  28.677  29.497  1.00  0.00    -0.248 NA
ATOM     39  C   UNL A   1      39.278  28.976  27.411  1.00  0.00     0.031 C 
ATOM     40  C   UNL A   1      37.243  31.388  31.319  1.00  0.00     0.029 A 
ATOM     41  N   UNL A   1      39.256  30.454  31.556  1.00  0.00    -0.354 N 
ATOM     42  C   UNL A   1      40.988  27.960  28.544  1.00  0.00     0.074 A 
ATOM     43  C   UNL A   1      40.313  28.158  27.279  1.00  0.00     0.031 C 
ATOM     44  C   UNL A   1      37.742  31.805  32.490  1.00  0.00     0.029 A 
ATOM     45  C   UNL A   1      39.017  31.138  32.723  1.00  0.00     0.049 A 
ATOM     46  H   UNL A   1      40.085  29.952  31.386  1.00  0.00     0.167 HD
ATOM     47  C   UNL A   1      42.092  27.193  28.717  1.00  0.00     0.037 A 
ATOM     48  C   UNL A   1      39.695  31.177  33.887  1.00  0.00     0.037 A 
ATOM     49  C   UNL A   1      42.828  27.085  29.950  1.00  0.00     0.049 A 
ATOM     50  C   UNL A   1      40.916  30.321  34.061  1.00  0.00     0.074 A 
ATOM     51  C   UNL A   1      43.973  26.349  30.212  1.00  0.00     0.029 A 
ATOM     52  N   UNL A   1      42.514  27.760  31.119  1.00  0.00    -0.354 N 
ATOM     53  N   UNL A   1      41.500  29.529  33.196  1.00  0.00    -0.248 NA
ATOM     54  C   UNL A   1      41.545  30.331  35.389  1.00  0.00     0.031 C 
ATOM     55  C   UNL A   1      44.338  26.561  31.546  1.00  0.00     0.029 A 
ATOM     56  C   UNL A   1      43.442  27.456  32.104  1.00  0.00     0.049 A 
ATOM     57  H   UNL A   1      41.747  28.366  31.234  1.00  0.00     0.167 HD
ATOM     58  C   UNL A   1      42.549  28.932  33.878  1.00  0.00     0.074 A 
ATOM     59  C   UNL A   1      42.550  29.482  35.217  1.00  0.00     0.031 C 
ATOM     60  C   UNL A   1      43.424  27.996  33.437  1.00  0.00     0.037 A 
BRANCH  47  61
ATOM     61  C   UNL A   1      42.561  26.362  27.558  1.00  0.00     0.064 A 
ATOM     62  C   UNL A   1      43.567  26.793  26.684  1.00  0.00     0.173 A 
ATOM     63  C   UNL A   1      42.033  25.073  27.372  1.00  0.00     0.173 A 
ATOM     64  F   UNL A   1      44.093  28.020  26.813  1.00  0.00    -0.203 F 
ATOM     65  C   UNL A   1      44.021  25.967  25.658  1.00  0.00     0.198 A 
ATOM     66  C   UNL A   1      42.507  24.242  26.361  1.00  0.00     0.198 A 
ATOM     67  F   UNL A   1      41.072  24.612  28.186  1.00  0.00    -0.203 F 
ATOM     68  F   UNL A   1      44.965  26.408  24.814  1.00  0.00    -0.200 F 
ATOM     69  C   UNL A   1      43.499  24.691  25.503  1.00  0.00     0.200 A 
ATOM     70  F   UNL A   1      42.009  23.005  26.222  1.00  0.00    -0.200 F 
ATOM     71  F   UNL A   1      43.949  23.893  24.524  1.00  0.00    -0.200 F 
ENDBRANCH  47  61
BRANCH  48  72
ATOM     72  C   UNL A   1      39.173  31.991  35.016  1.00  0.00     0.064 A 
ATOM     73  C   UNL A   1      38.483  31.392  36.078  1.00  0.00     0.173 A 
ATOM     74  C   UNL A   1      39.368  33.379  35.063  1.00  0.00     0.173 A 
ATOM     75  F   UNL A   1      38.241  30.073  36.061  1.00  0.00    -0.203 F 
ATOM     76  C   UNL A   1      38.012  32.153  37.147  1.00  0.00     0.198 A 
ATOM     77  C   UNL A   1      38.929  34.133  36.147  1.00  0.00     0.198 A 
ATOM     78  F   UNL A   1      40.018  34.000  34.066  1.00  0.00    -0.203 F 
ATOM     79  F   UNL A   1      37.325  31.563  38.134  1.00  0.00    -0.200 F 
ATOM     80  C   UNL A   1      38.246  33.520  37.186  1.00  0.00     0.200 A 
ATOM     81  F   UNL A   1      39.173  35.449  36.188  1.00  0.00    -0.200 F 
ATOM     82  F   UNL A   1      37.810  34.247  38.224  1.00  0.00    -0.200 F 
ENDBRANCH  48  72
BRANCH  60  83
ATOM     83  C   UNL A   1      44.453  27.512  34.413  1.00  0.00     0.064 A 
ATOM     84  C   UNL A   1      44.233  26.366  35.191  1.00  0.00     0.173 A 
ATOM     85  C   UNL A   1      45.672  28.187  34.560  1.00  0.00     0.173 A 
ATOM     86  F   UNL A   1      43.075  25.698  35.097  1.00  0.00    -0.203 F 
ATOM     87  C   UNL A   1      45.193  25.926  36.099  1.00  0.00     0.198 A 
ATOM     88  C   UNL A   1      46.638  27.732  35.454  1.00  0.00     0.198 A 
ATOM     89  F   UNL A   1      45.928  29.287  33.835  1.00  0.00    -0.203 F 
ATOM     90  F   UNL A   1      44.946  24.853  36.864  1.00  0.00    -0.200 F 
ATOM     91  C   UNL A   1      46.395  26.606  36.227  1.00  0.00     0.200 A 
ATOM     92  F   UNL A   1      47.801  28.387  35.572  1.00  0.00    -0.200 F 
ATOM     93  F   UNL A   1      47.315  26.183  37.103  1.00  0.00    -0.200 F 
ENDBRANCH  60  83
ENDBRANCH  34  35
ENDBRANCH  27  29
ENDBRANCH  26  27
ENDBRANCH  25  26
ENDBRANCH  24  25
ENDBRANCH  23  24
ENDBRANCH   1  23
TORSDOF 18
ENDMDL
MODEL 3
REMARK VINA RESULT:     -11.5      1.180      3.400
REMARK SMILES CN(CC(C)(C)O)C(=O)NC[C@@H](C(=O)OCCOC(=O)c1ccc(-c2c3nc(c(-c4c(F)c(F)c(F)c(F)c4F)c4ccc([nH]4)c(-c4c(F)c(F)c(F)c(F)c4F)c4nc(c(-c5c(F)c(F)c(F)c(F)c5F)c5ccc2[nH]5)C=C4)C=C3)cc1)c1ccccc1
REMARK SMILES IDX 13 1 14 2 12 3 11 4 10 5 8 6 9 7 2 9 1 10 3 11 4 12 5 13
REMARK SMILES IDX 6 14 7 15 84 17 85 18 89 19 86 20 88 21 87 22 15 23 16 24
REMARK SMILES IDX 17 25 18 26 19 27 20 28 21 29 22 30 83 31 23 32 82 33 24 34
REMARK SMILES IDX 25 35 26 36 76 37 27 38 81 39 75 40 77 41 28 42 80 43 74 44
REMARK SMILES IDX 73 45 29 47 61 48 41 49 60 50 42 51 45 52 59 53 78 54 43 55
REMARK SMILES IDX 44 56 58 58 79 59 46 60 30 61 31 62 39 63 32 64 33 65 37 66
REMARK SMILES IDX 40 67 34 68 35 69 38 70 36 71 62 72 63 73 71 74 64 75 65 76
REMARK SMILES IDX 69 77 72 78 66 79 67 80 70 81 68 82 47 83 48 84 56 85 49 86
REMARK SMILES IDX 50 87 54 88 57 89 51 90 52 91 55 92 53 93
REMARK H PARENT 10 8 7 16 77 46 45 57
REMARK Flexibility Score: inf
ROOT
ATOM      1  C   UNL A   1      32.261  26.287  25.557  1.00  0.00     0.315 C 
ATOM      2  O   UNL A   1      31.466  25.446  25.966  1.00  0.00    -0.251 OA
ENDROOT
BRANCH   1   3
ATOM      3  C   UNL A   1      33.022  26.155  24.233  1.00  0.00     0.148 C 
BRANCH   3   4
ATOM      4  C   UNL A   1      32.105  26.142  22.991  1.00  0.00     0.137 C 
BRANCH   4   5
ATOM      5  N   UNL A   1      30.713  26.370  23.357  1.00  0.00    -0.337 N 
ATOM      6  C   UNL A   1      29.841  27.389  23.343  1.00  0.00     0.317 C 
ATOM      7  O   UNL A   1      28.706  27.078  23.725  1.00  0.00    -0.249 OA
ATOM      8  H   UNL A   1      30.299  25.551  23.713  1.00  0.00     0.165 HD
BRANCH   6   9
ATOM      9  N   UNL A   1      30.134  28.662  22.943  1.00  0.00    -0.325 N 
ATOM     10  C   UNL A   1      31.226  29.293  23.682  1.00  0.00     0.148 C 
BRANCH   9  11
ATOM     11  C   UNL A   1      29.587  29.478  21.847  1.00  0.00     0.155 C 
BRANCH  11  12
ATOM     12  C   UNL A   1      28.239  30.206  22.132  1.00  0.00     0.077 C 
ATOM     13  C   UNL A   1      28.253  30.989  23.443  1.00  0.00     0.043 C 
ATOM     14  C   UNL A   1      27.933  31.147  20.958  1.00  0.00     0.043 C 
BRANCH  12  15
ATOM     15  O   UNL A   1      27.167  29.256  22.193  1.00  0.00    -0.389 OA
ATOM     16  H   UNL A   1      26.331  29.701  21.982  1.00  0.00     0.211 HD
ENDBRANCH  12  15
ENDBRANCH  11  12
ENDBRANCH   9  11
ENDBRANCH   6   9
ENDBRANCH   4   5
ENDBRANCH   3   4
BRANCH   3  17
ATOM     17  C   UNL A   1      34.063  25.029  24.259  1.00  0.00    -0.032 A 
ATOM     18  C   UNL A   1      34.922  24.803  25.347  1.00  0.00     0.004 A 
ATOM     19  C   UNL A   1      34.147  24.146  23.164  1.00  0.00     0.004 A 
ATOM     20  C   UNL A   1      35.777  23.696  25.369  1.00  0.00     0.000 A 
ATOM     21  C   UNL A   1      35.009  23.047  23.183  1.00  0.00     0.000 A 
ATOM     22  C   UNL A   1      35.814  22.814  24.292  1.00  0.00     0.000 A 
ENDBRANCH   3  17
ENDBRANCH   1   3
BRANCH   1  23
ATOM     23  O   UNL A   1      32.604  27.403  26.257  1.00  0.00    -0.462 OA
BRANCH  23  24
ATOM     24  C   UNL A   1      31.694  27.834  27.291  1.00  0.00     0.274 C 
BRANCH  24  25
ATOM     25  C   UNL A   1      31.568  29.356  27.268  1.00  0.00     0.275 C 
BRANCH  25  26
ATOM     26  O   UNL A   1      32.706  29.922  26.591  1.00  0.00    -0.458 OA
BRANCH  26  27
ATOM     27  C   UNL A   1      33.196  31.073  27.103  1.00  0.00     0.338 C 
ATOM     28  O   UNL A   1      32.618  32.143  27.216  1.00  0.00    -0.246 OA
BRANCH  27  29
ATOM     29  C   UNL A   1      34.572  30.861  27.588  1.00  0.00     0.060 A 
ATOM     30  C   UNL A   1      35.019  29.569  27.841  1.00  0.00     0.016 A 
ATOM     31  C   UNL A   1      35.373  31.947  27.940  1.00  0.00     0.016 A 
ATOM     32  C   UNL A   1      36.203  29.368  28.546  1.00  0.00     0.010 A 
ATOM     33  C   UNL A   1      36.620  31.729  28.545  1.00  0.00     0.010 A 
ATOM     34  C   UNL A   1      37.038  30.435  28.903  1.00  0.00    -0.014 A 
BRANCH  34  35
ATOM     35  C   UNL A   1      38.295  30.202  29.688  1.00  0.00     0.031 A 
ATOM     36  C   UNL A   1      39.431  29.401  29.095  1.00  0.00     0.074 A 
ATOM     37  C   UNL A   1      38.466  30.717  30.924  1.00  0.00     0.049 A 
ATOM     38  N   UNL A   1      40.452  28.839  29.695  1.00  0.00    -0.248 NA
ATOM     39  C   UNL A   1      39.410  29.191  27.639  1.00  0.00     0.031 C 
ATOM     40  C   UNL A   1      37.517  31.576  31.635  1.00  0.00     0.029 A 
ATOM     41  N   UNL A   1      39.518  30.601  31.807  1.00  0.00    -0.354 N 
ATOM     42  C   UNL A   1      41.128  28.125  28.713  1.00  0.00     0.074 A 
ATOM     43  C   UNL A   1      40.426  28.356  27.469  1.00  0.00     0.031 C 
ATOM     44  C   UNL A   1      38.053  31.964  32.800  1.00  0.00     0.029 A 
ATOM     45  C   UNL A   1      39.320  31.270  32.990  1.00  0.00     0.049 A 
ATOM     46  H   UNL A   1      40.333  30.086  31.608  1.00  0.00     0.167 HD
ATOM     47  C   UNL A   1      42.222  27.335  28.846  1.00  0.00     0.037 A 
ATOM     48  C   UNL A   1      40.028  31.276  34.138  1.00  0.00     0.037 A 
ATOM     49  C   UNL A   1      42.985  27.193  30.059  1.00  0.00     0.049 A 
ATOM     50  C   UNL A   1      41.236  30.395  34.267  1.00  0.00     0.074 A 
ATOM     51  C   UNL A   1      44.122  26.431  30.280  1.00  0.00     0.029 A 
ATOM     52  N   UNL A   1      42.713  27.854  31.246  1.00  0.00    -0.354 N 
ATOM     53  N   UNL A   1      41.783  29.607  33.376  1.00  0.00    -0.248 NA
ATOM     54  C   UNL A   1      41.897  30.371  35.579  1.00  0.00     0.031 C 
ATOM     55  C   UNL A   1      44.524  26.615  31.609  1.00  0.00     0.029 A 
ATOM     56  C   UNL A   1      43.658  27.517  32.203  1.00  0.00     0.049 A 
ATOM     57  H   UNL A   1      41.960  28.472  31.389  1.00  0.00     0.167 HD
ATOM     58  C   UNL A   1      42.837  28.979  34.022  1.00  0.00     0.074 A 
ATOM     59  C   UNL A   1      42.881  29.507  35.369  1.00  0.00     0.031 C 
ATOM     60  C   UNL A   1      43.683  28.035  33.544  1.00  0.00     0.037 A 
BRANCH  47  61
ATOM     61  C   UNL A   1      42.646  26.515  27.663  1.00  0.00     0.064 A 
ATOM     62  C   UNL A   1      43.632  26.945  26.767  1.00  0.00     0.173 A 
ATOM     63  C   UNL A   1      42.096  25.235  27.474  1.00  0.00     0.173 A 
ATOM     64  F   UNL A   1      44.177  28.163  26.897  1.00  0.00    -0.203 F 
ATOM     65  C   UNL A   1      44.046  26.128  25.717  1.00  0.00     0.198 A 
ATOM     66  C   UNL A   1      42.530  24.413  26.438  1.00  0.00     0.198 A 
ATOM     67  F   UNL A   1      41.153  24.775  28.309  1.00  0.00    -0.203 F 
ATOM     68  F   UNL A   1      44.971  26.569  24.852  1.00  0.00    -0.200 F 
ATOM     69  C   UNL A   1      43.503  24.861  25.558  1.00  0.00     0.200 A 
ATOM     70  F   UNL A   1      42.012  23.184  26.297  1.00  0.00    -0.200 F 
ATOM     71  F   UNL A   1      43.914  24.072  24.556  1.00  0.00    -0.200 F 
ENDBRANCH  47  61
BRANCH  48  72
ATOM     72  C   UNL A   1      39.548  32.081  35.292  1.00  0.00     0.064 A 
ATOM     73  C   UNL A   1      38.668  31.535  36.235  1.00  0.00     0.173 A 
ATOM     74  C   UNL A   1      39.975  33.404  35.483  1.00  0.00     0.173 A 
ATOM     75  F   UNL A   1      38.205  30.287  36.076  1.00  0.00    -0.203 F 
ATOM     76  C   UNL A   1      38.236  32.283  37.329  1.00  0.00     0.198 A 
ATOM     77  C   UNL A   1      39.570  34.138  36.594  1.00  0.00     0.198 A 
ATOM     78  F   UNL A   1      40.812  33.973  34.603  1.00  0.00    -0.203 F 
ATOM     79  F   UNL A   1      37.368  31.752  38.200  1.00  0.00    -0.200 F 
ATOM     80  C   UNL A   1      38.697  33.579  37.514  1.00  0.00     0.200 A 
ATOM     81  F   UNL A   1      40.033  35.382  36.776  1.00  0.00    -0.200 F 
ATOM     82  F   UNL A   1      38.296  34.290  38.577  1.00  0.00    -0.200 F 
ENDBRANCH  48  72
BRANCH  60  83
ATOM     83  C   UNL A   1      44.726  27.516  34.486  1.00  0.00     0.064 A 
ATOM     84  C   UNL A   1      44.496  26.374  35.267  1.00  0.00     0.173 A 
ATOM     85  C   UNL A   1      45.969  28.154  34.598  1.00  0.00     0.173 A 
ATOM     86  F   UNL A   1      43.315  25.741  35.206  1.00  0.00    -0.203 F 
ATOM     87  C   UNL A   1      45.469  25.900  36.143  1.00  0.00     0.198 A 
ATOM     88  C   UNL A   1      46.947  27.666  35.461  1.00  0.00     0.198 A 
ATOM     89  F   UNL A   1      46.236  29.249  33.871  1.00  0.00    -0.203 F 
ATOM     90  F   UNL A   1      45.213  24.832  36.911  1.00  0.00    -0.200 F 
ATOM     91  C   UNL A   1      46.694  26.544  36.237  1.00  0.00     0.200 A 
ATOM     92  F   UNL A   1      48.133  28.284  35.546  1.00  0.00    -0.200 F 
ATOM     93  F   UNL A   1      47.628  26.089  37.083  1.00  0.00    -0.200 F 
ENDBRANCH  60  83
ENDBRANCH  34  35
ENDBRANCH  27  29
ENDBRANCH  26  27
ENDBRANCH  25  26
ENDBRANCH  24  25
ENDBRANCH  23  24
ENDBRANCH   1  23
TORSDOF 18
ENDMDL
