MODEL 1
REMARK VINA RESULT:     -12.4      0.000      0.000
REMARK SMILES CCc1cc(C)c2c(c1)C=C(C(=O)OCCOC(=O)c1ccc(-c3c4nc(c(-c5c(F)c(F)c(F)c(F)c5F)c5ccc([nH]5)c(-c5c(F)c(F)c(F)c(F)c5F)c5nc(c(-c6c(F)c(F)c(F)c(F)c6F)c6ccc3[nH]6)C=C5)C=C4)cc1)[C@@H](C(F)(F)F)O2
REMARK SMILES IDX 16 1 15 2 14 3 12 4 13 5 11 6 3 7 4 8 9 9 5 10 8 11 6 12
REMARK SMILES IDX 7 13 10 14 88 15 83 16 2 17 1 18 84 19 85 20 86 21 87 22
REMARK SMILES IDX 17 23 18 24 19 25 20 26 21 27 82 28 22 29 81 30 23 31 24 32
REMARK SMILES IDX 25 33 75 34 26 35 80 36 74 37 76 38 27 39 79 40 73 41 72 42
REMARK SMILES IDX 28 44 60 45 40 46 59 47 41 48 44 49 58 50 77 51 42 52 43 53
REMARK SMILES IDX 57 55 78 56 45 57 29 58 30 59 38 60 31 61 32 62 36 63 39 64
REMARK SMILES IDX 33 65 34 66 37 67 35 68 61 69 62 70 70 71 63 72 64 73 68 74
REMARK SMILES IDX 71 75 65 76 66 77 69 78 67 79 46 80 47 81 55 82 48 83 49 84
REMARK SMILES IDX 53 85 56 86 50 87 51 88 54 89 52 90
REMARK H PARENT 76 43 44 54
REMARK Flexibility Score: inf
ROOT
ATOM      1  C   UNL A   1      31.458  30.043  25.395  1.00  0.00     0.275 C 
ENDROOT
BRANCH   1   2
ATOM      2  C   UNL A   1      31.245  28.672  24.754  1.00  0.00     0.275 C 
BRANCH   2   3
ATOM      3  O   UNL A   1      32.158  27.697  25.299  1.00  0.00    -0.459 OA
BRANCH   3   4
ATOM      4  C   UNL A   1      31.593  26.770  26.105  1.00  0.00     0.338 C 
ATOM      5  O   UNL A   1      30.705  26.957  26.923  1.00  0.00    -0.246 OA
BRANCH   4   6
ATOM      6  C   UNL A   1      32.169  25.441  25.843  1.00  0.00     0.087 C 
ATOM      7  C   UNL A   1      36.130  22.744  25.319  1.00  0.00    -0.047 A 
ATOM      8  C   UNL A   1      35.343  21.713  24.785  1.00  0.00     0.011 A 
ATOM      9  C   UNL A   1      35.495  23.911  25.755  1.00  0.00     0.015 A 
ATOM     10  C   UNL A   1      33.944  21.836  24.694  1.00  0.00    -0.008 A 
ATOM     11  C   UNL A   1      34.104  24.047  25.660  1.00  0.00     0.018 A 
ATOM     12  C   UNL A   1      33.131  20.723  24.094  1.00  0.00     0.048 C 
ATOM     13  C   UNL A   1      33.327  23.014  25.135  1.00  0.00     0.130 A 
ATOM     14  C   UNL A   1      33.479  25.289  26.064  1.00  0.00     0.027 C 
ATOM     15  O   UNL A   1      31.962  23.090  25.039  1.00  0.00    -0.475 OA
ATOM     16  C   UNL A   1      31.312  24.378  25.221  1.00  0.00     0.316 C 
BRANCH   7  17
ATOM     17  C   UNL A   1      37.635  22.628  25.360  1.00  0.00     0.032 C 
ATOM     18  C   UNL A   1      38.311  23.719  26.181  1.00  0.00     0.009 C 
ENDBRANCH   7  17
BRANCH  16  19
ATOM     19  C   UNL A   1      30.732  24.843  23.875  1.00  0.00     0.430 C 
ATOM     20  F   UNL A   1      31.655  25.510  23.143  1.00  0.00    -0.167 F 
ATOM     21  F   UNL A   1      30.329  23.791  23.121  1.00  0.00    -0.167 F 
ATOM     22  F   UNL A   1      29.666  25.661  24.031  1.00  0.00    -0.167 F 
ENDBRANCH  16  19
ENDBRANCH   4   6
ENDBRANCH   3   4
ENDBRANCH   2   3
ENDBRANCH   1   2
BRANCH   1  23
ATOM     23  O   UNL A   1      32.843  30.225  25.741  1.00  0.00    -0.458 OA
BRANCH  23  24
ATOM     24  C   UNL A   1      33.087  31.083  26.758  1.00  0.00     0.338 C 
ATOM     25  O   UNL A   1      32.373  31.986  27.156  1.00  0.00    -0.246 OA
BRANCH  24  26
ATOM     26  C   UNL A   1      34.388  30.773  27.372  1.00  0.00     0.060 A 
ATOM     27  C   UNL A   1      34.728  29.450  27.646  1.00  0.00     0.016 A 
ATOM     28  C   UNL A   1      35.218  31.810  27.797  1.00  0.00     0.016 A 
ATOM     29  C   UNL A   1      35.829  29.167  28.448  1.00  0.00     0.010 A 
ATOM     30  C   UNL A   1      36.394  31.514  28.495  1.00  0.00     0.010 A 
ATOM     31  C   UNL A   1      36.693  30.191  28.863  1.00  0.00    -0.014 A 
BRANCH  31  32
ATOM     32  C   UNL A   1      37.902  29.861  29.669  1.00  0.00     0.031 A 
ATOM     33  C   UNL A   1      38.995  28.995  29.100  1.00  0.00     0.074 A 
ATOM     34  C   UNL A   1      38.032  30.375  30.909  1.00  0.00     0.049 A 
ATOM     35  N   UNL A   1      40.088  28.560  29.678  1.00  0.00    -0.248 NA
ATOM     36  C   UNL A   1      38.843  28.552  27.705  1.00  0.00     0.031 C 
ATOM     37  C   UNL A   1      37.056  31.247  31.565  1.00  0.00     0.029 A 
ATOM     38  N   UNL A   1      39.045  30.265  31.829  1.00  0.00    -0.354 N 
ATOM     39  C   UNL A   1      40.731  27.771  28.733  1.00  0.00     0.074 A 
ATOM     40  C   UNL A   1      39.901  27.767  27.549  1.00  0.00     0.031 C 
ATOM     41  C   UNL A   1      37.545  31.649  32.746  1.00  0.00     0.029 A 
ATOM     42  C   UNL A   1      38.831  30.998  32.973  1.00  0.00     0.049 A 
ATOM     43  H   UNL A   1      39.849  29.716  31.685  1.00  0.00     0.167 HD
ATOM     44  C   UNL A   1      41.912  27.116  28.843  1.00  0.00     0.037 A 
ATOM     45  C   UNL A   1      39.574  31.121  34.090  1.00  0.00     0.037 A 
ATOM     46  C   UNL A   1      42.757  27.156  30.009  1.00  0.00     0.049 A 
ATOM     47  C   UNL A   1      40.861  30.356  34.199  1.00  0.00     0.074 A 
ATOM     48  C   UNL A   1      43.976  26.530  30.211  1.00  0.00     0.029 A 
ATOM     49  N   UNL A   1      42.476  27.869  31.164  1.00  0.00    -0.354 N 
ATOM     50  N   UNL A   1      41.440  29.590  33.308  1.00  0.00    -0.248 NA
ATOM     51  C   UNL A   1      41.587  30.453  35.473  1.00  0.00     0.031 C 
ATOM     52  C   UNL A   1      44.416  26.838  31.501  1.00  0.00     0.029 A 
ATOM     53  C   UNL A   1      43.493  27.689  32.087  1.00  0.00     0.049 A 
ATOM     54  H   UNL A   1      41.674  28.422  31.307  1.00  0.00     0.167 HD
ATOM     55  C   UNL A   1      42.603  29.125  33.903  1.00  0.00     0.074 A 
ATOM     56  C   UNL A   1      42.656  29.706  35.230  1.00  0.00     0.031 C 
ATOM     57  C   UNL A   1      43.537  28.287  33.397  1.00  0.00     0.037 A 
BRANCH  44  58
ATOM     58  C   UNL A   1      42.373  26.293  27.676  1.00  0.00     0.064 A 
ATOM     59  C   UNL A   1      43.338  26.767  26.775  1.00  0.00     0.173 A 
ATOM     60  C   UNL A   1      41.900  24.982  27.501  1.00  0.00     0.173 A 
ATOM     61  F   UNL A   1      43.815  28.014  26.894  1.00  0.00    -0.203 F 
ATOM     62  C   UNL A   1      43.803  25.964  25.736  1.00  0.00     0.198 A 
ATOM     63  C   UNL A   1      42.386  24.174  26.477  1.00  0.00     0.198 A 
ATOM     64  F   UNL A   1      40.984  24.477  28.341  1.00  0.00    -0.203 F 
ATOM     65  F   UNL A   1      44.705  26.448  24.871  1.00  0.00    -0.200 F 
ATOM     66  C   UNL A   1      43.334  24.667  25.593  1.00  0.00     0.200 A 
ATOM     67  F   UNL A   1      41.943  22.915  26.349  1.00  0.00    -0.200 F 
ATOM     68  F   UNL A   1      43.795  23.891  24.602  1.00  0.00    -0.200 F 
ENDBRANCH  44  58
BRANCH  45  69
ATOM     69  C   UNL A   1      39.109  32.012  35.185  1.00  0.00     0.064 A 
ATOM     70  C   UNL A   1      38.398  31.496  36.276  1.00  0.00     0.173 A 
ATOM     71  C   UNL A   1      39.403  33.385  35.188  1.00  0.00     0.173 A 
ATOM     72  F   UNL A   1      38.075  30.195  36.308  1.00  0.00    -0.203 F 
ATOM     73  C   UNL A   1      38.000  32.316  37.329  1.00  0.00     0.198 A 
ATOM     74  C   UNL A   1      39.030  34.198  36.256  1.00  0.00     0.198 A 
ATOM     75  F   UNL A   1      40.083  33.928  34.168  1.00  0.00    -0.203 F 
ATOM     76  F   UNL A   1      37.300  31.801  38.349  1.00  0.00    -0.200 F 
ATOM     77  C   UNL A   1      38.326  33.664  37.324  1.00  0.00     0.200 A 
ATOM     78  F   UNL A   1      39.362  35.497  36.253  1.00  0.00    -0.200 F 
ATOM     79  F   UNL A   1      37.961  34.449  38.346  1.00  0.00    -0.200 F 
ENDBRANCH  45  69
BRANCH  57  80
ATOM     80  C   UNL A   1      44.716  27.956  34.259  1.00  0.00     0.064 A 
ATOM     81  C   UNL A   1      44.725  26.817  35.074  1.00  0.00     0.173 A 
ATOM     82  C   UNL A   1      45.884  28.730  34.190  1.00  0.00     0.173 A 
ATOM     83  F   UNL A   1      43.626  26.054  35.181  1.00  0.00    -0.203 F 
ATOM     84  C   UNL A   1      45.864  26.462  35.791  1.00  0.00     0.198 A 
ATOM     85  C   UNL A   1      47.028  28.360  34.891  1.00  0.00     0.198 A 
ATOM     86  F   UNL A   1      45.924  29.826  33.418  1.00  0.00    -0.203 F 
ATOM     87  F   UNL A   1      45.849  25.377  36.578  1.00  0.00    -0.200 F 
ATOM     88  C   UNL A   1      47.017  27.227  35.690  1.00  0.00     0.200 A 
ATOM     89  F   UNL A   1      48.145  29.092  34.781  1.00  0.00    -0.200 F 
ATOM     90  F   UNL A   1      48.121  26.870  36.363  1.00  0.00    -0.200 F 
ENDBRANCH  57  80
ENDBRANCH  31  32
ENDBRANCH  24  26
ENDBRANCH  23  24
ENDBRANCH   1  23
TORSDOF 13
ENDMDL
MODEL 2
REMARK VINA RESULT:     -12.4      5.217     11.191
REMARK SMILES CCc1cc(C)c2c(c1)C=C(C(=O)OCCOC(=O)c1ccc(-c3c4nc(c(-c5c(F)c(F)c(F)c(F)c5F)c5ccc([nH]5)c(-c5c(F)c(F)c(F)c(F)c5F)c5nc(c(-c6c(F)c(F)c(F)c(F)c6F)c6ccc3[nH]6)C=C5)C=C4)cc1)[C@@H](C(F)(F)F)O2
REMARK SMILES IDX 16 1 15 2 14 3 12 4 13 5 11 6 3 7 4 8 9 9 5 10 8 11 6 12
REMARK SMILES IDX 7 13 10 14 88 15 83 16 2 17 1 18 84 19 85 20 86 21 87 22
REMARK SMILES IDX 17 23 18 24 19 25 20 26 21 27 82 28 22 29 81 30 23 31 24 32
REMARK SMILES IDX 25 33 75 34 26 35 80 36 74 37 76 38 27 39 79 40 73 41 72 42
REMARK SMILES IDX 28 44 60 45 40 46 59 47 41 48 44 49 58 50 77 51 42 52 43 53
REMARK SMILES IDX 57 55 78 56 45 57 29 58 30 59 38 60 31 61 32 62 36 63 39 64
REMARK SMILES IDX 33 65 34 66 37 67 35 68 61 69 62 70 70 71 63 72 64 73 68 74
REMARK SMILES IDX 71 75 65 76 66 77 69 78 67 79 46 80 47 81 55 82 48 83 49 84
REMARK SMILES IDX 53 85 56 86 50 87 51 88 54 89 52 90
REMARK H PARENT 76 43 44 54
REMARK Flexibility Score: inf
ROOT
ATOM      1  C   UNL A   1      40.850  19.963  26.277  1.00  0.00     0.275 C 
ENDROOT
BRANCH   1   2
ATOM      2  C   UNL A   1      42.241  19.809  26.891  1.00  0.00     0.275 C 
BRANCH   2   3
ATOM      3  O   UNL A   1      43.263  20.275  25.984  1.00  0.00    -0.459 OA
BRANCH   3   4
ATOM      4  C   UNL A   1      43.214  21.594  25.693  1.00  0.00     0.338 C 
ATOM      5  O   UNL A   1      42.380  22.159  25.002  1.00  0.00    -0.246 OA
BRANCH   4   6
ATOM      6  C   UNL A   1      44.307  22.311  26.370  1.00  0.00     0.087 C 
ATOM      7  C   UNL A   1      45.622  25.484  29.751  1.00  0.00    -0.047 A 
ATOM      8  C   UNL A   1      46.905  25.536  29.186  1.00  0.00     0.011 A 
ATOM      9  C   UNL A   1      44.682  24.615  29.191  1.00  0.00     0.015 A 
ATOM     10  C   UNL A   1      47.252  24.730  28.086  1.00  0.00    -0.008 A 
ATOM     11  C   UNL A   1      45.014  23.814  28.091  1.00  0.00     0.018 A 
ATOM     12  C   UNL A   1      48.627  24.827  27.488  1.00  0.00     0.048 C 
ATOM     13  C   UNL A   1      46.294  23.865  27.539  1.00  0.00     0.130 A 
ATOM     14  C   UNL A   1      44.002  22.966  27.494  1.00  0.00     0.027 C 
ATOM     15  O   UNL A   1      46.674  23.089  26.476  1.00  0.00    -0.475 OA
ATOM     16  C   UNL A   1      45.652  22.393  25.710  1.00  0.00     0.316 C 
BRANCH   7  17
ATOM     17  C   UNL A   1      45.241  26.396  30.893  1.00  0.00     0.032 C 
ATOM     18  C   UNL A   1      43.800  26.883  30.832  1.00  0.00     0.009 C 
ENDBRANCH   7  17
BRANCH  16  19
ATOM     19  C   UNL A   1      45.553  23.026  24.313  1.00  0.00     0.430 C 
ATOM     20  F   UNL A   1      45.110  22.134  23.395  1.00  0.00    -0.167 F 
ATOM     21  F   UNL A   1      44.675  24.060  24.299  1.00  0.00    -0.167 F 
ATOM     22  F   UNL A   1      46.742  23.502  23.879  1.00  0.00    -0.167 F 
ENDBRANCH  16  19
ENDBRANCH   4   6
ENDBRANCH   3   4
ENDBRANCH   2   3
ENDBRANCH   1   2
BRANCH   1  23
ATOM     23  O   UNL A   1      40.013  20.767  27.128  1.00  0.00    -0.458 OA
BRANCH  23  24
ATOM     24  C   UNL A   1      39.273  21.710  26.502  1.00  0.00     0.338 C 
ATOM     25  O   UNL A   1      38.353  21.538  25.722  1.00  0.00    -0.246 OA
BRANCH  24  26
ATOM     26  C   UNL A   1      39.728  23.051  26.905  1.00  0.00     0.060 A 
ATOM     27  C   UNL A   1      39.420  24.155  26.114  1.00  0.00     0.016 A 
ATOM     28  C   UNL A   1      40.575  23.194  28.005  1.00  0.00     0.016 A 
ATOM     29  C   UNL A   1      40.051  25.373  26.344  1.00  0.00     0.010 A 
ATOM     30  C   UNL A   1      41.108  24.450  28.310  1.00  0.00     0.010 A 
ATOM     31  C   UNL A   1      40.885  25.547  27.460  1.00  0.00    -0.014 A 
BRANCH  31  32
ATOM     32  C   UNL A   1      41.502  26.877  27.725  1.00  0.00     0.031 A 
ATOM     33  C   UNL A   1      40.781  27.911  28.549  1.00  0.00     0.074 A 
ATOM     34  C   UNL A   1      42.737  27.140  27.250  1.00  0.00     0.049 A 
ATOM     35  N   UNL A   1      41.142  29.139  28.831  1.00  0.00    -0.248 NA
ATOM     36  C   UNL A   1      39.484  27.525  29.125  1.00  0.00     0.031 C 
ATOM     37  C   UNL A   1      43.549  26.214  26.460  1.00  0.00     0.029 A 
ATOM     38  N   UNL A   1      43.536  28.248  27.382  1.00  0.00    -0.354 N 
ATOM     39  C   UNL A   1      40.108  29.678  29.585  1.00  0.00     0.074 A 
ATOM     40  C   UNL A   1      39.093  28.654  29.703  1.00  0.00     0.031 C 
ATOM     41  C   UNL A   1      44.753  26.760  26.239  1.00  0.00     0.029 A 
ATOM     42  C   UNL A   1      44.772  28.108  26.796  1.00  0.00     0.049 A 
ATOM     43  H   UNL A   1      43.254  29.065  27.853  1.00  0.00     0.167 HD
ATOM     44  C   UNL A   1      40.018  30.912  30.137  1.00  0.00     0.037 A 
ATOM     45  C   UNL A   1      45.801  28.971  26.698  1.00  0.00     0.037 A 
ATOM     46  C   UNL A   1      41.049  31.915  30.052  1.00  0.00     0.049 A 
ATOM     47  C   UNL A   1      45.661  30.345  27.287  1.00  0.00     0.074 A 
ATOM     48  C   UNL A   1      41.052  33.193  30.585  1.00  0.00     0.029 A 
ATOM     49  N   UNL A   1      42.263  31.748  29.404  1.00  0.00    -0.354 N 
ATOM     50  N   UNL A   1      44.664  30.848  27.971  1.00  0.00    -0.248 NA
ATOM     51  C   UNL A   1      46.777  31.277  27.073  1.00  0.00     0.031 C 
ATOM     52  C   UNL A   1      42.254  33.811  30.231  1.00  0.00     0.029 A 
ATOM     53  C   UNL A   1      43.018  32.904  29.514  1.00  0.00     0.049 A 
ATOM     54  H   UNL A   1      42.547  30.929  28.937  1.00  0.00     0.167 HD
ATOM     55  C   UNL A   1      45.034  32.148  28.283  1.00  0.00     0.074 A 
ATOM     56  C   UNL A   1      46.355  32.354  27.724  1.00  0.00     0.031 C 
ATOM     57  C   UNL A   1      44.336  33.086  28.965  1.00  0.00     0.037 A 
BRANCH  44  58
ATOM     58  C   UNL A   1      38.764  31.262  30.882  1.00  0.00     0.064 A 
ATOM     59  C   UNL A   1      38.646  31.052  32.264  1.00  0.00     0.173 A 
ATOM     60  C   UNL A   1      37.695  31.887  30.220  1.00  0.00     0.173 A 
ATOM     61  F   UNL A   1      39.635  30.451  32.942  1.00  0.00    -0.203 F 
ATOM     62  C   UNL A   1      37.500  31.443  32.952  1.00  0.00     0.198 A 
ATOM     63  C   UNL A   1      36.562  32.300  30.916  1.00  0.00     0.198 A 
ATOM     64  F   UNL A   1      37.761  32.119  28.900  1.00  0.00    -0.203 F 
ATOM     65  F   UNL A   1      37.397  31.208  34.268  1.00  0.00    -0.200 F 
ATOM     66  C   UNL A   1      36.464  32.074  32.280  1.00  0.00     0.200 A 
ATOM     67  F   UNL A   1      35.568  32.923  30.267  1.00  0.00    -0.200 F 
ATOM     68  F   UNL A   1      35.369  32.465  32.948  1.00  0.00    -0.200 F 
ENDBRANCH  44  58
BRANCH  45  69
ATOM     69  C   UNL A   1      47.052  28.546  26.016  1.00  0.00     0.064 A 
ATOM     70  C   UNL A   1      48.234  28.350  26.743  1.00  0.00     0.173 A 
ATOM     71  C   UNL A   1      47.084  28.287  24.637  1.00  0.00     0.173 A 
ATOM     72  F   UNL A   1      48.259  28.605  28.059  1.00  0.00    -0.203 F 
ATOM     73  C   UNL A   1      49.398  27.908  26.119  1.00  0.00     0.198 A 
ATOM     74  C   UNL A   1      48.241  27.817  24.019  1.00  0.00     0.198 A 
ATOM     75  F   UNL A   1      45.979  28.458  23.896  1.00  0.00    -0.203 F 
ATOM     76  F   UNL A   1      50.520  27.751  26.833  1.00  0.00    -0.200 F 
ATOM     77  C   UNL A   1      49.397  27.631  24.760  1.00  0.00     0.200 A 
ATOM     78  F   UNL A   1      48.230  27.536  22.709  1.00  0.00    -0.200 F 
ATOM     79  F   UNL A   1      50.512  27.186  24.163  1.00  0.00    -0.200 F 
ENDBRANCH  45  69
BRANCH  57  80
ATOM     80  C   UNL A   1      44.985  34.420  29.174  1.00  0.00     0.064 A 
ATOM     81  C   UNL A   1      45.828  34.657  30.267  1.00  0.00     0.173 A 
ATOM     82  C   UNL A   1      44.839  35.436  28.217  1.00  0.00     0.173 A 
ATOM     83  F   UNL A   1      45.986  33.718  31.213  1.00  0.00    -0.203 F 
ATOM     84  C   UNL A   1      46.507  35.865  30.395  1.00  0.00     0.198 A 
ATOM     85  C   UNL A   1      45.537  36.634  28.338  1.00  0.00     0.198 A 
ATOM     86  F   UNL A   1      44.047  35.253  27.151  1.00  0.00    -0.203 F 
ATOM     87  F   UNL A   1      47.299  36.078  31.456  1.00  0.00    -0.200 F 
ATOM     88  C   UNL A   1      46.370  36.847  29.425  1.00  0.00     0.200 A 
ATOM     89  F   UNL A   1      45.414  37.577  27.393  1.00  0.00    -0.200 F 
ATOM     90  F   UNL A   1      47.044  38.001  29.539  1.00  0.00    -0.200 F 
ENDBRANCH  57  80
ENDBRANCH  31  32
ENDBRANCH  24  26
ENDBRANCH  23  24
ENDBRANCH   1  23
TORSDOF 13
ENDMDL
MODEL 3
REMARK VINA RESULT:     -12.4      5.225     11.230
REMARK SMILES CCc1cc(C)c2c(c1)C=C(C(=O)OCCOC(=O)c1ccc(-c3c4nc(c(-c5c(F)c(F)c(F)c(F)c5F)c5ccc([nH]5)c(-c5c(F)c(F)c(F)c(F)c5F)c5nc(c(-c6c(F)c(F)c(F)c(F)c6F)c6ccc3[nH]6)C=C5)C=C4)cc1)[C@@H](C(F)(F)F)O2
REMARK SMILES IDX 16 1 15 2 14 3 12 4 13 5 11 6 3 7 4 8 9 9 5 10 8 11 6 12
REMARK SMILES IDX 7 13 10 14 88 15 83 16 2 17 1 18 84 19 85 20 86 21 87 22
REMARK SMILES IDX 17 23 18 24 19 25 20 26 21 27 82 28 22 29 81 30 23 31 24 32
REMARK SMILES IDX 25 33 75 34 26 35 80 36 74 37 76 38 27 39 79 40 73 41 72 42
REMARK SMILES IDX 28 44 60 45 40 46 59 47 41 48 44 49 58 50 77 51 42 52 43 53
REMARK SMILES IDX 57 55 78 56 45 57 29 58 30 59 38 60 31 61 32 62 36 63 39 64
REMARK SMILES IDX 33 65 34 66 37 67 35 68 61 69 62 70 70 71 63 72 64 73 68 74
REMARK SMILES IDX 71 75 65 76 66 77 69 78 67 79 46 80 47 81 55 82 48 83 49 84
REMARK SMILES IDX 53 85 56 86 50 87 51 88 54 89 52 90
REMARK H PARENT 76 43 44 54
REMARK Flexibility Score: inf
ROOT
ATOM      1  C   UNL A   1      40.752  20.117  26.273  1.00  0.00     0.275 C 
ENDROOT
BRANCH   1   2
ATOM      2  C   UNL A   1      42.094  19.861  26.959  1.00  0.00     0.275 C 
BRANCH   2   3
ATOM      3  O   UNL A   1      43.194  20.263  26.115  1.00  0.00    -0.459 OA
BRANCH   3   4
ATOM      4  C   UNL A   1      43.186  21.562  25.743  1.00  0.00     0.338 C 
ATOM      5  O   UNL A   1      42.381  22.106  25.002  1.00  0.00    -0.246 OA
BRANCH   4   6
ATOM      6  C   UNL A   1      44.286  22.291  26.397  1.00  0.00     0.087 C 
ATOM      7  C   UNL A   1      45.635  25.515  29.716  1.00  0.00    -0.047 A 
ATOM      8  C   UNL A   1      46.911  25.560  29.136  1.00  0.00     0.011 A 
ATOM      9  C   UNL A   1      44.689  24.636  29.180  1.00  0.00     0.015 A 
ATOM     10  C   UNL A   1      47.246  24.738  28.044  1.00  0.00    -0.008 A 
ATOM     11  C   UNL A   1      45.010  23.820  28.088  1.00  0.00     0.018 A 
ATOM     12  C   UNL A   1      48.615  24.828  27.429  1.00  0.00     0.048 C 
ATOM     13  C   UNL A   1      46.283  23.864  27.521  1.00  0.00     0.130 A 
ATOM     14  C   UNL A   1      43.993  22.962  27.515  1.00  0.00     0.027 C 
ATOM     15  O   UNL A   1      46.653  23.073  26.465  1.00  0.00    -0.475 OA
ATOM     16  C   UNL A   1      45.623  22.365  25.720  1.00  0.00     0.316 C 
BRANCH   7  17
ATOM     17  C   UNL A   1      45.265  26.442  30.849  1.00  0.00     0.032 C 
ATOM     18  C   UNL A   1      43.868  27.034  30.724  1.00  0.00     0.009 C 
ENDBRANCH   7  17
BRANCH  16  19
ATOM     19  C   UNL A   1      45.507  22.977  24.315  1.00  0.00     0.430 C 
ATOM     20  F   UNL A   1      44.671  24.043  24.307  1.00  0.00    -0.167 F 
ATOM     21  F   UNL A   1      46.707  23.427  23.871  1.00  0.00    -0.167 F 
ATOM     22  F   UNL A   1      45.046  22.090  23.405  1.00  0.00    -0.167 F 
ENDBRANCH  16  19
ENDBRANCH   4   6
ENDBRANCH   3   4
ENDBRANCH   2   3
ENDBRANCH   1   2
BRANCH   1  23
ATOM     23  O   UNL A   1      39.897  20.905  27.123  1.00  0.00    -0.458 OA
BRANCH  23  24
ATOM     24  C   UNL A   1      39.182  21.871  26.503  1.00  0.00     0.338 C 
ATOM     25  O   UNL A   1      38.245  21.728  25.737  1.00  0.00    -0.246 OA
BRANCH  24  26
ATOM     26  C   UNL A   1      39.690  23.196  26.893  1.00  0.00     0.060 A 
ATOM     27  C   UNL A   1      39.400  24.309  26.107  1.00  0.00     0.016 A 
ATOM     28  C   UNL A   1      40.564  23.312  27.974  1.00  0.00     0.016 A 
ATOM     29  C   UNL A   1      40.076  25.506  26.321  1.00  0.00     0.010 A 
ATOM     30  C   UNL A   1      41.145  24.551  28.264  1.00  0.00     0.010 A 
ATOM     31  C   UNL A   1      40.939  25.654  27.417  1.00  0.00    -0.014 A 
BRANCH  31  32
ATOM     32  C   UNL A   1      41.605  26.963  27.666  1.00  0.00     0.031 A 
ATOM     33  C   UNL A   1      40.940  28.019  28.509  1.00  0.00     0.074 A 
ATOM     34  C   UNL A   1      42.834  27.187  27.158  1.00  0.00     0.049 A 
ATOM     35  N   UNL A   1      41.347  29.235  28.782  1.00  0.00    -0.248 NA
ATOM     36  C   UNL A   1      39.646  27.674  29.120  1.00  0.00     0.031 C 
ATOM     37  C   UNL A   1      43.596  26.237  26.347  1.00  0.00     0.029 A 
ATOM     38  N   UNL A   1      43.672  28.269  27.270  1.00  0.00    -0.354 N 
ATOM     39  C   UNL A   1      40.351  29.805  29.563  1.00  0.00     0.074 A 
ATOM     40  C   UNL A   1      39.308  28.813  29.708  1.00  0.00     0.031 C 
ATOM     41  C   UNL A   1      44.810  26.744  26.094  1.00  0.00     0.029 A 
ATOM     42  C   UNL A   1      44.886  28.091  26.650  1.00  0.00     0.049 A 
ATOM     43  H   UNL A   1      43.428  29.095  27.748  1.00  0.00     0.167 HD
ATOM     44  C   UNL A   1      40.315  31.040  30.118  1.00  0.00     0.037 A 
ATOM     45  C   UNL A   1      45.940  28.920  26.525  1.00  0.00     0.037 A 
ATOM     46  C   UNL A   1      41.374  32.010  30.006  1.00  0.00     0.049 A 
ATOM     47  C   UNL A   1      45.859  30.297  27.117  1.00  0.00     0.074 A 
ATOM     48  C   UNL A   1      41.433  33.287  30.539  1.00  0.00     0.029 A 
ATOM     49  N   UNL A   1      42.565  31.805  29.325  1.00  0.00    -0.354 N 
ATOM     50  N   UNL A   1      44.898  30.832  27.828  1.00  0.00    -0.248 NA
ATOM     51  C   UNL A   1      46.998  31.194  26.874  1.00  0.00     0.031 C 
ATOM     52  C   UNL A   1      42.643  33.867  30.152  1.00  0.00     0.029 A 
ATOM     53  C   UNL A   1      43.359  32.937  29.415  1.00  0.00     0.049 A 
ATOM     54  H   UNL A   1      42.810  30.978  28.850  1.00  0.00     0.167 HD
ATOM     55  C   UNL A   1      45.316  32.118  28.130  1.00  0.00     0.074 A 
ATOM     56  C   UNL A   1      46.628  32.283  27.537  1.00  0.00     0.031 C 
ATOM     57  C   UNL A   1      44.667  33.078  28.831  1.00  0.00     0.037 A 
BRANCH  44  58
ATOM     58  C   UNL A   1      39.093  31.429  30.897  1.00  0.00     0.064 A 
ATOM     59  C   UNL A   1      37.989  32.037  30.280  1.00  0.00     0.173 A 
ATOM     60  C   UNL A   1      38.993  31.118  32.263  1.00  0.00     0.173 A 
ATOM     61  F   UNL A   1      38.038  32.361  28.980  1.00  0.00    -0.203 F 
ATOM     62  C   UNL A   1      36.837  32.331  31.005  1.00  0.00     0.198 A 
ATOM     63  C   UNL A   1      37.830  31.390  32.977  1.00  0.00     0.198 A 
ATOM     64  F   UNL A   1      40.016  30.528  32.898  1.00  0.00    -0.203 F 
ATOM     65  F   UNL A   1      35.805  32.937  30.401  1.00  0.00    -0.200 F 
ATOM     66  C   UNL A   1      36.754  32.000  32.349  1.00  0.00     0.200 A 
ATOM     67  F   UNL A   1      37.746  31.057  34.273  1.00  0.00    -0.200 F 
ATOM     68  F   UNL A   1      35.637  32.269  33.040  1.00  0.00    -0.200 F 
ENDBRANCH  44  58
BRANCH  45  69
ATOM     69  C   UNL A   1      47.158  28.457  25.810  1.00  0.00     0.064 A 
ATOM     70  C   UNL A   1      48.350  28.217  26.506  1.00  0.00     0.173 A 
ATOM     71  C   UNL A   1      47.146  28.203  24.429  1.00  0.00     0.173 A 
ATOM     72  F   UNL A   1      48.417  28.466  27.822  1.00  0.00    -0.203 F 
ATOM     73  C   UNL A   1      49.482  27.739  25.850  1.00  0.00     0.198 A 
ATOM     74  C   UNL A   1      48.270  27.698  23.780  1.00  0.00     0.198 A 
ATOM     75  F   UNL A   1      46.029  28.415  23.718  1.00  0.00    -0.203 F 
ATOM     76  F   UNL A   1      50.617  27.542  26.535  1.00  0.00    -0.200 F 
ATOM     77  C   UNL A   1      49.438  27.469  24.490  1.00  0.00     0.200 A 
ATOM     78  F   UNL A   1      48.217  27.423  22.470  1.00  0.00    -0.200 F 
ATOM     79  F   UNL A   1      50.521  26.990  23.864  1.00  0.00    -0.200 F 
ENDBRANCH  45  69
BRANCH  57  80
ATOM     80  C   UNL A   1      45.363  34.391  29.023  1.00  0.00     0.064 A 
ATOM     81  C   UNL A   1      45.163  35.457  28.137  1.00  0.00     0.173 A 
ATOM     82  C   UNL A   1      46.156  34.613  30.159  1.00  0.00     0.173 A 
ATOM     83  F   UNL A   1      44.423  35.286  27.031  1.00  0.00    -0.203 F 
ATOM     84  C   UNL A   1      45.732  36.704  28.382  1.00  0.00     0.198 A 
ATOM     85  C   UNL A   1      46.705  35.866  30.412  1.00  0.00     0.198 A 
ATOM     86  F   UNL A   1      46.370  33.622  31.038  1.00  0.00    -0.203 F 
ATOM     87  F   UNL A   1      45.541  37.708  27.515  1.00  0.00    -0.200 F 
ATOM     88  C   UNL A   1      46.492  36.910  29.525  1.00  0.00     0.200 A 
ATOM     89  F   UNL A   1      47.427  36.067  31.523  1.00  0.00    -0.200 F 
ATOM     90  F   UNL A   1      47.019  38.118  29.771  1.00  0.00    -0.200 F 
ENDBRANCH  57  80
ENDBRANCH  31  32
ENDBRANCH  24  26
ENDBRANCH  23  24
ENDBRANCH   1  23
TORSDOF 13
ENDMDL
