MODEL 1
REMARK VINA RESULT:     -11.3      0.000      0.000
REMARK SMILES CCC(C)(C)[C@H]1CC[C@H](C(=O)OCCOC(=O)c2ccc(-c3c4nc(c(-c5c(F)c(F)c(F)c(F)c5F)c5ccc([nH]5)c(-c5c(F)c(F)c(F)c(F)c5F)c5nc(c(-c6c(F)c(F)c(F)c(F)c6F)c6ccc3[nH]6)C=C5)C=C4)cc2)[C@H](SC[C@@H](C)CO)C1
REMARK SMILES IDX 12 1 10 2 11 3 9 4 6 5 7 6 88 7 8 8 81 9 3 10 4 11 5 12 2 13
REMARK SMILES IDX 1 14 82 15 83 16 84 17 85 18 86 19 87 20 13 22 14 23 15 24
REMARK SMILES IDX 16 25 17 26 18 27 19 28 80 29 20 30 79 31 21 32 22 33 23 34
REMARK SMILES IDX 73 35 24 36 78 37 72 38 74 39 25 40 77 41 71 42 70 43 26 45
REMARK SMILES IDX 58 46 38 47 57 48 39 49 42 50 56 51 75 52 40 53 41 54 55 56
REMARK SMILES IDX 76 57 43 58 27 59 28 60 36 61 29 62 30 63 34 64 37 65 31 66
REMARK SMILES IDX 32 67 35 68 33 69 59 70 60 71 68 72 61 73 62 74 66 75 69 76
REMARK SMILES IDX 63 77 64 78 67 79 65 80 44 81 45 82 53 83 46 84 47 85 51 86
REMARK SMILES IDX 54 87 48 88 49 89 52 90 50 91
REMARK H PARENT 87 21 74 44 42 55
REMARK Flexibility Score: inf
ROOT
ATOM      1  O   UNL A   1      35.929  23.349  24.294  1.00  0.00    -0.462 OA
ENDROOT
BRANCH   1   2
ATOM      2  C   UNL A   1      34.830  23.682  23.572  1.00  0.00     0.310 C 
ATOM      3  O   UNL A   1      34.578  23.239  22.456  1.00  0.00    -0.252 OA
BRANCH   2   4
ATOM      4  C   UNL A   1      33.914  24.660  24.275  1.00  0.00     0.112 C 
ATOM      5  C   UNL A   1      30.960  25.152  23.630  1.00  0.00    -0.004 C 
ATOM      6  C   UNL A   1      32.089  25.413  22.630  1.00  0.00     0.005 C 
ATOM      7  C   UNL A   1      31.406  23.967  24.519  1.00  0.00     0.019 C 
ATOM      8  C   UNL A   1      33.422  25.739  23.286  1.00  0.00     0.017 C 
ATOM      9  C   UNL A   1      32.793  24.094  25.170  1.00  0.00     0.061 C 
BRANCH   5  10
ATOM     10  C   UNL A   1      30.293  26.396  24.359  1.00  0.00    -0.033 C 
ATOM     11  C   UNL A   1      30.374  26.392  25.895  1.00  0.00     0.011 C 
ATOM     12  C   UNL A   1      28.769  26.363  24.025  1.00  0.00     0.011 C 
BRANCH  10  13
ATOM     13  C   UNL A   1      30.812  27.763  23.795  1.00  0.00     0.003 C 
ATOM     14  C   UNL A   1      29.905  28.549  22.851  1.00  0.00     0.004 C 
ENDBRANCH  10  13
ENDBRANCH   5  10
BRANCH   9  15
ATOM     15  S   UNL A   1      33.079  22.719  26.400  1.00  0.00    -0.157 SA
BRANCH  15  16
ATOM     16  C   UNL A   1      33.525  21.204  25.479  1.00  0.00     0.075 C 
BRANCH  16  17
ATOM     17  C   UNL A   1      32.423  20.348  24.830  1.00  0.00     0.021 C 
ATOM     18  C   UNL A   1      32.276  20.541  23.328  1.00  0.00     0.011 C 
BRANCH  17  19
ATOM     19  C   UNL A   1      32.698  18.856  25.101  1.00  0.00     0.160 C 
BRANCH  19  20
ATOM     20  O   UNL A   1      32.656  18.559  26.489  1.00  0.00    -0.396 OA
ATOM     21  H   UNL A   1      33.386  17.961  26.714  1.00  0.00     0.210 HD
ENDBRANCH  19  20
ENDBRANCH  17  19
ENDBRANCH  16  17
ENDBRANCH  15  16
ENDBRANCH   9  15
ENDBRANCH   2   4
ENDBRANCH   1   2
BRANCH   1  22
ATOM     22  C   UNL A   1      36.835  22.408  23.678  1.00  0.00     0.274 C 
BRANCH  22  23
ATOM     23  C   UNL A   1      37.222  21.254  24.609  1.00  0.00     0.275 C 
BRANCH  23  24
ATOM     24  O   UNL A   1      37.679  21.748  25.881  1.00  0.00    -0.458 OA
BRANCH  24  25
ATOM     25  C   UNL A   1      38.972  21.480  26.177  1.00  0.00     0.338 C 
ATOM     26  O   UNL A   1      39.589  20.457  25.936  1.00  0.00    -0.246 OA
BRANCH  25  27
ATOM     27  C   UNL A   1      39.617  22.697  26.699  1.00  0.00     0.060 A 
ATOM     28  C   UNL A   1      39.204  23.930  26.179  1.00  0.00     0.016 A 
ATOM     29  C   UNL A   1      40.639  22.632  27.646  1.00  0.00     0.016 A 
ATOM     30  C   UNL A   1      39.799  25.109  26.613  1.00  0.00     0.010 A 
ATOM     31  C   UNL A   1      41.260  23.814  28.058  1.00  0.00     0.010 A 
ATOM     32  C   UNL A   1      40.849  25.053  27.535  1.00  0.00    -0.014 A 
BRANCH  32  33
ATOM     33  C   UNL A   1      41.613  26.280  27.841  1.00  0.00     0.031 A 
ATOM     34  C   UNL A   1      40.941  27.361  28.634  1.00  0.00     0.074 A 
ATOM     35  C   UNL A   1      42.887  26.412  27.439  1.00  0.00     0.049 A 
ATOM     36  N   UNL A   1      41.359  28.568  28.918  1.00  0.00    -0.248 NA
ATOM     37  C   UNL A   1      39.614  27.037  29.182  1.00  0.00     0.031 C 
ATOM     38  C   UNL A   1      43.658  25.391  26.732  1.00  0.00     0.029 A 
ATOM     39  N   UNL A   1      43.753  27.469  27.559  1.00  0.00    -0.354 N 
ATOM     40  C   UNL A   1      40.341  29.151  29.659  1.00  0.00     0.074 A 
ATOM     41  C   UNL A   1      39.280  28.173  29.772  1.00  0.00     0.031 C 
ATOM     42  C   UNL A   1      44.881  25.879  26.461  1.00  0.00     0.029 A 
ATOM     43  C   UNL A   1      44.959  27.260  26.935  1.00  0.00     0.049 A 
ATOM     44  H   UNL A   1      43.533  28.296  28.045  1.00  0.00     0.167 HD
ATOM     45  C   UNL A   1      40.299  30.395  30.190  1.00  0.00     0.037 A 
ATOM     46  C   UNL A   1      45.988  28.106  26.739  1.00  0.00     0.037 A 
ATOM     47  C   UNL A   1      41.362  31.355  30.067  1.00  0.00     0.049 A 
ATOM     48  C   UNL A   1      45.887  29.511  27.276  1.00  0.00     0.074 A 
ATOM     49  C   UNL A   1      41.421  32.649  30.552  1.00  0.00     0.029 A 
ATOM     50  N   UNL A   1      42.560  31.119  29.405  1.00  0.00    -0.354 N 
ATOM     51  N   UNL A   1      44.912  30.071  27.952  1.00  0.00    -0.248 NA
ATOM     52  C   UNL A   1      47.025  30.403  27.016  1.00  0.00     0.031 C 
ATOM     53  C   UNL A   1      42.638  33.211  30.147  1.00  0.00     0.029 A 
ATOM     54  C   UNL A   1      43.357  32.250  29.454  1.00  0.00     0.049 A 
ATOM     55  H   UNL A   1      42.805  30.274  28.966  1.00  0.00     0.167 HD
ATOM     56  C   UNL A   1      45.327  31.370  28.218  1.00  0.00     0.074 A 
ATOM     57  C   UNL A   1      46.647  31.510  27.641  1.00  0.00     0.031 C 
ATOM     58  C   UNL A   1      44.674  32.358  28.877  1.00  0.00     0.037 A 
BRANCH  45  59
ATOM     59  C   UNL A   1      39.045  30.793  30.912  1.00  0.00     0.064 A 
ATOM     60  C   UNL A   1      38.911  30.643  32.300  1.00  0.00     0.173 A 
ATOM     61  C   UNL A   1      37.965  31.338  30.202  1.00  0.00     0.173 A 
ATOM     62  F   UNL A   1      39.907  30.107  33.020  1.00  0.00    -0.203 F 
ATOM     63  C   UNL A   1      37.731  30.999  32.948  1.00  0.00     0.198 A 
ATOM     64  C   UNL A   1      36.797  31.720  30.857  1.00  0.00     0.198 A 
ATOM     65  F   UNL A   1      38.041  31.501  28.873  1.00  0.00    -0.203 F 
ATOM     66  F   UNL A   1      37.604  30.801  34.266  1.00  0.00    -0.200 F 
ATOM     67  C   UNL A   1      36.677  31.542  32.226  1.00  0.00     0.200 A 
ATOM     68  F   UNL A   1      35.783  32.250  30.160  1.00  0.00    -0.200 F 
ATOM     69  F   UNL A   1      35.542  31.885  32.851  1.00  0.00    -0.200 F 
ENDBRANCH  45  59
BRANCH  46  70
ATOM     70  C   UNL A   1      47.182  27.661  25.976  1.00  0.00     0.064 A 
ATOM     71  C   UNL A   1      47.211  27.717  24.576  1.00  0.00     0.173 A 
ATOM     72  C   UNL A   1      48.317  27.159  26.631  1.00  0.00     0.173 A 
ATOM     73  F   UNL A   1      46.141  28.162  23.902  1.00  0.00    -0.203 F 
ATOM     74  C   UNL A   1      48.324  27.276  23.861  1.00  0.00     0.198 A 
ATOM     75  C   UNL A   1      49.440  26.745  25.917  1.00  0.00     0.198 A 
ATOM     76  F   UNL A   1      48.339  27.077  27.970  1.00  0.00    -0.203 F 
ATOM     77  F   UNL A   1      48.308  27.299  22.521  1.00  0.00    -0.200 F 
ATOM     78  C   UNL A   1      49.439  26.797  24.532  1.00  0.00     0.200 A 
ATOM     79  F   UNL A   1      50.518  26.292  26.570  1.00  0.00    -0.200 F 
ATOM     80  F   UNL A   1      50.509  26.377  23.843  1.00  0.00    -0.200 F 
ENDBRANCH  46  70
BRANCH  58  81
ATOM     81  C   UNL A   1      45.394  33.664  29.041  1.00  0.00     0.064 A 
ATOM     82  C   UNL A   1      46.249  33.902  30.126  1.00  0.00     0.173 A 
ATOM     83  C   UNL A   1      45.258  34.672  28.074  1.00  0.00     0.173 A 
ATOM     84  F   UNL A   1      46.399  32.975  31.083  1.00  0.00    -0.203 F 
ATOM     85  C   UNL A   1      46.927  35.112  30.248  1.00  0.00     0.198 A 
ATOM     86  C   UNL A   1      45.960  35.869  28.185  1.00  0.00     0.198 A 
ATOM     87  F   UNL A   1      44.458  34.489  27.013  1.00  0.00    -0.203 F 
ATOM     88  F   UNL A   1      47.706  35.335  31.316  1.00  0.00    -0.200 F 
ATOM     89  C   UNL A   1      46.788  36.090  29.274  1.00  0.00     0.200 A 
ATOM     90  F   UNL A   1      45.835  36.807  27.237  1.00  0.00    -0.200 F 
ATOM     91  F   UNL A   1      47.448  37.250  29.390  1.00  0.00    -0.200 F 
ENDBRANCH  58  81
ENDBRANCH  32  33
ENDBRANCH  25  27
ENDBRANCH  24  25
ENDBRANCH  23  24
ENDBRANCH  22  23
ENDBRANCH   1  22
TORSDOF 18
ENDMDL
MODEL 2
REMARK VINA RESULT:     -10.8      0.858      7.517
REMARK SMILES CCC(C)(C)[C@H]1CC[C@H](C(=O)OCCOC(=O)c2ccc(-c3c4nc(c(-c5c(F)c(F)c(F)c(F)c5F)c5ccc([nH]5)c(-c5c(F)c(F)c(F)c(F)c5F)c5nc(c(-c6c(F)c(F)c(F)c(F)c6F)c6ccc3[nH]6)C=C5)C=C4)cc2)[C@H](SC[C@@H](C)CO)C1
REMARK SMILES IDX 12 1 10 2 11 3 9 4 6 5 7 6 88 7 8 8 81 9 3 10 4 11 5 12 2 13
REMARK SMILES IDX 1 14 82 15 83 16 84 17 85 18 86 19 87 20 13 22 14 23 15 24
REMARK SMILES IDX 16 25 17 26 18 27 19 28 80 29 20 30 79 31 21 32 22 33 23 34
REMARK SMILES IDX 73 35 24 36 78 37 72 38 74 39 25 40 77 41 71 42 70 43 26 45
REMARK SMILES IDX 58 46 38 47 57 48 39 49 42 50 56 51 75 52 40 53 41 54 55 56
REMARK SMILES IDX 76 57 43 58 27 59 28 60 36 61 29 62 30 63 34 64 37 65 31 66
REMARK SMILES IDX 32 67 35 68 33 69 59 70 60 71 68 72 61 73 62 74 66 75 69 76
REMARK SMILES IDX 63 77 64 78 67 79 65 80 44 81 45 82 53 83 46 84 47 85 51 86
REMARK SMILES IDX 54 87 48 88 49 89 52 90 50 91
REMARK H PARENT 87 21 74 44 42 55
REMARK Flexibility Score: inf
ROOT
ATOM      1  O   UNL A   1      36.150  22.684  24.411  1.00  0.00    -0.462 OA
ENDROOT
BRANCH   1   2
ATOM      2  C   UNL A   1      35.175  23.202  23.624  1.00  0.00     0.310 C 
ATOM      3  O   UNL A   1      35.264  23.327  22.406  1.00  0.00    -0.252 OA
BRANCH   2   4
ATOM      4  C   UNL A   1      33.933  23.613  24.385  1.00  0.00     0.112 C 
ATOM      5  C   UNL A   1      31.940  25.786  23.556  1.00  0.00    -0.004 C 
ATOM      6  C   UNL A   1      33.414  26.073  23.856  1.00  0.00     0.005 C 
ATOM      7  C   UNL A   1      31.867  24.357  22.969  1.00  0.00     0.019 C 
ATOM      8  C   UNL A   1      34.041  25.087  24.830  1.00  0.00     0.017 C 
ATOM      9  C   UNL A   1      32.559  23.254  23.786  1.00  0.00     0.061 C 
BRANCH   5  10
ATOM     10  C   UNL A   1      30.855  26.181  24.647  1.00  0.00    -0.033 C 
ATOM     11  C   UNL A   1      30.508  25.084  25.669  1.00  0.00     0.011 C 
ATOM     12  C   UNL A   1      29.525  26.476  23.888  1.00  0.00     0.011 C 
BRANCH  10  13
ATOM     13  C   UNL A   1      31.216  27.514  25.388  1.00  0.00     0.003 C 
ATOM     14  C   UNL A   1      31.568  27.446  26.872  1.00  0.00     0.004 C 
ENDBRANCH  10  13
ENDBRANCH   5  10
BRANCH   9  15
ATOM     15  S   UNL A   1      32.169  21.566  23.088  1.00  0.00    -0.157 SA
BRANCH  15  16
ATOM     16  C   UNL A   1      32.738  20.303  24.281  1.00  0.00     0.075 C 
BRANCH  16  17
ATOM     17  C   UNL A   1      32.275  18.842  24.132  1.00  0.00     0.021 C 
ATOM     18  C   UNL A   1      32.530  18.237  22.760  1.00  0.00     0.011 C 
BRANCH  17  19
ATOM     19  C   UNL A   1      32.978  17.964  25.186  1.00  0.00     0.160 C 
BRANCH  19  20
ATOM     20  O   UNL A   1      32.531  18.264  26.500  1.00  0.00    -0.396 OA
ATOM     21  H   UNL A   1      33.297  18.400  27.079  1.00  0.00     0.210 HD
ENDBRANCH  19  20
ENDBRANCH  17  19
ENDBRANCH  16  17
ENDBRANCH  15  16
ENDBRANCH   9  15
ENDBRANCH   2   4
ENDBRANCH   1   2
BRANCH   1  22
ATOM     22  C   UNL A   1      36.190  21.244  24.509  1.00  0.00     0.274 C 
BRANCH  22  23
ATOM     23  C   UNL A   1      37.543  20.716  25.000  1.00  0.00     0.275 C 
BRANCH  23  24
ATOM     24  O   UNL A   1      38.015  21.475  26.128  1.00  0.00    -0.458 OA
BRANCH  24  25
ATOM     25  C   UNL A   1      39.347  21.412  26.354  1.00  0.00     0.338 C 
ATOM     26  O   UNL A   1      40.097  20.485  26.101  1.00  0.00    -0.246 OA
BRANCH  25  27
ATOM     27  C   UNL A   1      39.830  22.726  26.810  1.00  0.00     0.060 A 
ATOM     28  C   UNL A   1      39.302  23.867  26.193  1.00  0.00     0.016 A 
ATOM     29  C   UNL A   1      40.814  22.842  27.792  1.00  0.00     0.016 A 
ATOM     30  C   UNL A   1      39.742  25.133  26.561  1.00  0.00     0.010 A 
ATOM     31  C   UNL A   1      41.281  24.112  28.140  1.00  0.00     0.010 A 
ATOM     32  C   UNL A   1      40.754  25.259  27.518  1.00  0.00    -0.014 A 
BRANCH  32  33
ATOM     33  C   UNL A   1      41.362  26.583  27.762  1.00  0.00     0.031 A 
ATOM     34  C   UNL A   1      42.772  26.818  27.309  1.00  0.00     0.074 A 
ATOM     35  C   UNL A   1      40.658  27.560  28.356  1.00  0.00     0.049 A 
ATOM     36  N   UNL A   1      43.554  27.844  27.519  1.00  0.00    -0.248 NA
ATOM     37  C   UNL A   1      43.383  25.747  26.506  1.00  0.00     0.031 C 
ATOM     38  C   UNL A   1      39.258  27.462  28.765  1.00  0.00     0.029 A 
ATOM     39  N   UNL A   1      41.032  28.826  28.729  1.00  0.00    -0.354 N 
ATOM     40  C   UNL A   1      44.754  27.534  26.894  1.00  0.00     0.074 A 
ATOM     41  C   UNL A   1      44.602  26.221  26.305  1.00  0.00     0.031 C 
ATOM     42  C   UNL A   1      38.895  28.615  29.353  1.00  0.00     0.029 A 
ATOM     43  C   UNL A   1      40.049  29.510  29.402  1.00  0.00     0.049 A 
ATOM     44  H   UNL A   1      41.919  29.207  28.534  1.00  0.00     0.167 HD
ATOM     45  C   UNL A   1      45.880  28.282  26.825  1.00  0.00     0.037 A 
ATOM     46  C   UNL A   1      40.097  30.707  30.016  1.00  0.00     0.037 A 
ATOM     47  C   UNL A   1      46.015  29.585  27.417  1.00  0.00     0.049 A 
ATOM     48  C   UNL A   1      41.386  31.488  29.990  1.00  0.00     0.074 A 
ATOM     49  C   UNL A   1      47.113  30.425  27.423  1.00  0.00     0.029 A 
ATOM     50  N   UNL A   1      45.006  30.238  28.115  1.00  0.00    -0.354 N 
ATOM     51  N   UNL A   1      42.528  31.182  29.423  1.00  0.00    -0.248 NA
ATOM     52  C   UNL A   1      41.394  32.777  30.697  1.00  0.00     0.031 C 
ATOM     53  C   UNL A   1      46.783  31.569  28.160  1.00  0.00     0.029 A 
ATOM     54  C   UNL A   1      45.463  31.463  28.569  1.00  0.00     0.049 A 
ATOM     55  H   UNL A   1      44.101  29.882  28.263  1.00  0.00     0.167 HD
ATOM     56  C   UNL A   1      43.382  32.246  29.682  1.00  0.00     0.074 A 
ATOM     57  C   UNL A   1      42.621  33.212  30.447  1.00  0.00     0.031 C 
ATOM     58  C   UNL A   1      44.679  32.410  29.323  1.00  0.00     0.037 A 
BRANCH  45  59
ATOM     59  C   UNL A   1      47.062  27.682  26.121  1.00  0.00     0.064 A 
ATOM     60  C   UNL A   1      47.278  27.869  24.748  1.00  0.00     0.173 A 
ATOM     61  C   UNL A   1      47.994  26.915  26.834  1.00  0.00     0.173 A 
ATOM     62  F   UNL A   1      46.404  28.577  24.017  1.00  0.00    -0.203 F 
ATOM     63  C   UNL A   1      48.369  27.286  24.109  1.00  0.00     0.198 A 
ATOM     64  C   UNL A   1      49.100  26.357  26.199  1.00  0.00     0.198 A 
ATOM     65  F   UNL A   1      47.833  26.705  28.149  1.00  0.00    -0.203 F 
ATOM     66  F   UNL A   1      48.529  27.434  22.787  1.00  0.00    -0.200 F 
ATOM     67  C   UNL A   1      49.282  26.536  24.836  1.00  0.00     0.200 A 
ATOM     68  F   UNL A   1      49.984  25.639  26.904  1.00  0.00    -0.200 F 
ATOM     69  F   UNL A   1      50.334  25.976  24.220  1.00  0.00    -0.200 F 
ENDBRANCH  45  59
BRANCH  46  70
ATOM     70  C   UNL A   1      38.902  31.222  30.735  1.00  0.00     0.064 A 
ATOM     71  C   UNL A   1      38.714  30.974  32.101  1.00  0.00     0.173 A 
ATOM     72  C   UNL A   1      37.917  31.965  30.066  1.00  0.00     0.173 A 
ATOM     73  F   UNL A   1      39.613  30.244  32.779  1.00  0.00    -0.203 F 
ATOM     74  C   UNL A   1      37.581  31.437  32.767  1.00  0.00     0.198 A 
ATOM     75  C   UNL A   1      36.799  32.452  30.740  1.00  0.00     0.198 A 
ATOM     76  F   UNL A   1      38.045  32.225  28.757  1.00  0.00    -0.203 F 
ATOM     77  F   UNL A   1      37.404  31.148  34.065  1.00  0.00    -0.200 F 
ATOM     78  C   UNL A   1      36.629  32.181  32.089  1.00  0.00     0.200 A 
ATOM     79  F   UNL A   1      35.886  33.178  30.082  1.00  0.00    -0.200 F 
ATOM     80  F   UNL A   1      35.541  32.629  32.731  1.00  0.00    -0.200 F 
ENDBRANCH  46  70
BRANCH  58  81
ATOM     81  C   UNL A   1      45.344  33.694  29.721  1.00  0.00     0.064 A 
ATOM     82  C   UNL A   1      46.046  33.815  30.929  1.00  0.00     0.173 A 
ATOM     83  C   UNL A   1      45.314  34.802  28.862  1.00  0.00     0.173 A 
ATOM     84  F   UNL A   1      46.090  32.787  31.790  1.00  0.00    -0.203 F 
ATOM     85  C   UNL A   1      46.677  35.008  31.272  1.00  0.00     0.198 A 
ATOM     86  C   UNL A   1      45.969  35.984  29.195  1.00  0.00     0.198 A 
ATOM     87  F   UNL A   1      44.662  34.734  27.692  1.00  0.00    -0.203 F 
ATOM     88  F   UNL A   1      47.305  35.116  32.450  1.00  0.00    -0.200 F 
ATOM     89  C   UNL A   1      46.644  36.088  30.401  1.00  0.00     0.200 A 
ATOM     90  F   UNL A   1      45.949  37.022  28.348  1.00  0.00    -0.200 F 
ATOM     91  F   UNL A   1      47.259  37.232  30.730  1.00  0.00    -0.200 F 
ENDBRANCH  58  81
ENDBRANCH  32  33
ENDBRANCH  25  27
ENDBRANCH  24  25
ENDBRANCH  23  24
ENDBRANCH  22  23
ENDBRANCH   1  22
TORSDOF 18
ENDMDL
MODEL 3
REMARK VINA RESULT:     -10.7      1.640      3.045
REMARK SMILES CCC(C)(C)[C@H]1CC[C@H](C(=O)OCCOC(=O)c2ccc(-c3c4nc(c(-c5c(F)c(F)c(F)c(F)c5F)c5ccc([nH]5)c(-c5c(F)c(F)c(F)c(F)c5F)c5nc(c(-c6c(F)c(F)c(F)c(F)c6F)c6ccc3[nH]6)C=C5)C=C4)cc2)[C@H](SC[C@@H](C)CO)C1
REMARK SMILES IDX 12 1 10 2 11 3 9 4 6 5 7 6 88 7 8 8 81 9 3 10 4 11 5 12 2 13
REMARK SMILES IDX 1 14 82 15 83 16 84 17 85 18 86 19 87 20 13 22 14 23 15 24
REMARK SMILES IDX 16 25 17 26 18 27 19 28 80 29 20 30 79 31 21 32 22 33 23 34
REMARK SMILES IDX 73 35 24 36 78 37 72 38 74 39 25 40 77 41 71 42 70 43 26 45
REMARK SMILES IDX 58 46 38 47 57 48 39 49 42 50 56 51 75 52 40 53 41 54 55 56
REMARK SMILES IDX 76 57 43 58 27 59 28 60 36 61 29 62 30 63 34 64 37 65 31 66
REMARK SMILES IDX 32 67 35 68 33 69 59 70 60 71 68 72 61 73 62 74 66 75 69 76
REMARK SMILES IDX 63 77 64 78 67 79 65 80 44 81 45 82 53 83 46 84 47 85 51 86
REMARK SMILES IDX 54 87 48 88 49 89 52 90 50 91
REMARK H PARENT 87 21 74 44 42 55
REMARK Flexibility Score: inf
ROOT
ATOM      1  O   UNL A   1      37.922  22.399  24.751  1.00  0.00    -0.462 OA
ENDROOT
BRANCH   1   2
ATOM      2  C   UNL A   1      36.767  22.684  24.098  1.00  0.00     0.310 C 
ATOM      3  O   UNL A   1      36.656  22.718  22.877  1.00  0.00    -0.252 OA
BRANCH   2   4
ATOM      4  C   UNL A   1      35.596  22.949  25.020  1.00  0.00     0.112 C 
ATOM      5  C   UNL A   1      32.922  24.215  24.226  1.00  0.00    -0.004 C 
ATOM      6  C   UNL A   1      34.262  24.946  24.107  1.00  0.00     0.005 C 
ATOM      7  C   UNL A   1      33.205  22.711  23.995  1.00  0.00     0.019 C 
ATOM      8  C   UNL A   1      35.310  24.464  25.099  1.00  0.00     0.017 C 
ATOM      9  C   UNL A   1      34.325  22.095  24.848  1.00  0.00     0.061 C 
BRANCH   5  10
ATOM     10  C   UNL A   1      31.956  24.597  25.428  1.00  0.00    -0.033 C 
ATOM     11  C   UNL A   1      32.364  25.836  26.244  1.00  0.00     0.011 C 
ATOM     12  C   UNL A   1      31.985  23.408  26.438  1.00  0.00     0.011 C 
BRANCH  10  13
ATOM     13  C   UNL A   1      30.462  24.719  24.972  1.00  0.00     0.003 C 
ATOM     14  C   UNL A   1      30.090  25.832  23.996  1.00  0.00     0.004 C 
ENDBRANCH  10  13
ENDBRANCH   5  10
BRANCH   9  15
ATOM     15  S   UNL A   1      34.373  20.240  24.641  1.00  0.00    -0.157 SA
BRANCH  15  16
ATOM     16  C   UNL A   1      32.654  19.626  24.537  1.00  0.00     0.075 C 
BRANCH  16  17
ATOM     17  C   UNL A   1      32.380  18.184  24.072  1.00  0.00     0.021 C 
ATOM     18  C   UNL A   1      33.288  17.700  22.951  1.00  0.00     0.011 C 
BRANCH  17  19
ATOM     19  C   UNL A   1      32.526  17.218  25.264  1.00  0.00     0.160 C 
BRANCH  19  20
ATOM     20  O   UNL A   1      32.536  17.912  26.502  1.00  0.00    -0.396 OA
ATOM     21  H   UNL A   1      31.624  18.045  26.806  1.00  0.00     0.210 HD
ENDBRANCH  19  20
ENDBRANCH  17  19
ENDBRANCH  16  17
ENDBRANCH  15  16
ENDBRANCH   9  15
ENDBRANCH   2   4
ENDBRANCH   1   2
BRANCH   1  22
ATOM     22  C   UNL A   1      37.864  21.314  25.702  1.00  0.00     0.274 C 
BRANCH  22  23
ATOM     23  C   UNL A   1      38.846  20.183  25.376  1.00  0.00     0.275 C 
BRANCH  23  24
ATOM     24  O   UNL A   1      39.670  19.871  26.514  1.00  0.00    -0.458 OA
BRANCH  24  25
ATOM     25  C   UNL A   1      40.985  19.696  26.248  1.00  0.00     0.338 C 
ATOM     26  O   UNL A   1      41.514  18.717  25.751  1.00  0.00    -0.246 OA
BRANCH  25  27
ATOM     27  C   UNL A   1      41.706  20.957  26.488  1.00  0.00     0.060 A 
ATOM     28  C   UNL A   1      42.017  21.291  27.811  1.00  0.00     0.016 A 
ATOM     29  C   UNL A   1      42.031  21.822  25.443  1.00  0.00     0.016 A 
ATOM     30  C   UNL A   1      42.670  22.483  28.101  1.00  0.00     0.010 A 
ATOM     31  C   UNL A   1      42.659  23.036  25.735  1.00  0.00     0.010 A 
ATOM     32  C   UNL A   1      42.969  23.374  27.065  1.00  0.00    -0.014 A 
BRANCH  32  33
ATOM     33  C   UNL A   1      43.476  24.723  27.390  1.00  0.00     0.031 A 
ATOM     34  C   UNL A   1      42.524  25.725  27.970  1.00  0.00     0.074 A 
ATOM     35  C   UNL A   1      44.768  25.035  27.192  1.00  0.00     0.049 A 
ATOM     36  N   UNL A   1      42.701  26.997  28.219  1.00  0.00    -0.248 NA
ATOM     37  C   UNL A   1      41.184  25.223  28.318  1.00  0.00     0.031 C 
ATOM     38  C   UNL A   1      45.793  24.113  26.707  1.00  0.00     0.029 A 
ATOM     39  N   UNL A   1      45.432  26.222  27.365  1.00  0.00    -0.354 N 
ATOM     40  C   UNL A   1      41.494  27.449  28.732  1.00  0.00     0.074 A 
ATOM     41  C   UNL A   1      40.587  26.322  28.750  1.00  0.00     0.031 C 
ATOM     42  C   UNL A   1      46.957  24.775  26.601  1.00  0.00     0.029 A 
ATOM     43  C   UNL A   1      46.746  26.175  26.966  1.00  0.00     0.049 A 
ATOM     44  H   UNL A   1      45.010  27.029  27.738  1.00  0.00     0.167 HD
ATOM     45  C   UNL A   1      41.176  28.698  29.145  1.00  0.00     0.037 A 
ATOM     46  C   UNL A   1      47.656  27.163  26.873  1.00  0.00     0.037 A 
ATOM     47  C   UNL A   1      42.089  29.808  29.119  1.00  0.00     0.049 A 
ATOM     48  C   UNL A   1      47.255  28.561  27.268  1.00  0.00     0.074 A 
ATOM     49  C   UNL A   1      41.869  31.120  29.499  1.00  0.00     0.029 A 
ATOM     50  N   UNL A   1      43.405  29.731  28.683  1.00  0.00    -0.354 N 
ATOM     51  N   UNL A   1      46.104  28.995  27.727  1.00  0.00    -0.248 NA
ATOM     52  C   UNL A   1      48.275  29.609  27.125  1.00  0.00     0.031 C 
ATOM     53  C   UNL A   1      43.041  31.846  29.254  1.00  0.00     0.029 A 
ATOM     54  C   UNL A   1      44.005  30.976  28.769  1.00  0.00     0.049 A 
ATOM     55  H   UNL A   1      43.847  28.913  28.362  1.00  0.00     0.167 HD
ATOM     56  C   UNL A   1      46.269  30.356  27.949  1.00  0.00     0.074 A 
ATOM     57  C   UNL A   1      47.634  30.673  27.587  1.00  0.00     0.031 C 
ATOM     58  C   UNL A   1      45.371  31.262  28.409  1.00  0.00     0.037 A 
BRANCH  45  59
ATOM     59  C   UNL A   1      39.770  28.930  29.616  1.00  0.00     0.064 A 
ATOM     60  C   UNL A   1      38.764  29.381  28.750  1.00  0.00     0.173 A 
ATOM     61  C   UNL A   1      39.425  28.689  30.954  1.00  0.00     0.173 A 
ATOM     62  F   UNL A   1      39.048  29.645  27.465  1.00  0.00    -0.203 F 
ATOM     63  C   UNL A   1      37.470  29.610  29.211  1.00  0.00     0.198 A 
ATOM     64  C   UNL A   1      38.124  28.892  31.407  1.00  0.00     0.198 A 
ATOM     65  F   UNL A   1      40.350  28.259  31.825  1.00  0.00    -0.203 F 
ATOM     66  F   UNL A   1      36.537  30.089  28.379  1.00  0.00    -0.200 F 
ATOM     67  C   UNL A   1      37.150  29.359  30.538  1.00  0.00     0.200 A 
ATOM     68  F   UNL A   1      37.815  28.643  32.687  1.00  0.00    -0.200 F 
ATOM     69  F   UNL A   1      35.904  29.579  30.981  1.00  0.00    -0.200 F 
ENDBRANCH  45  59
BRANCH  46  70
ATOM     70  C   UNL A   1      49.018  26.874  26.354  1.00  0.00     0.064 A 
ATOM     71  C   UNL A   1      50.057  26.496  27.215  1.00  0.00     0.173 A 
ATOM     72  C   UNL A   1      49.311  26.981  24.986  1.00  0.00     0.173 A 
ATOM     73  F   UNL A   1      49.834  26.407  28.534  1.00  0.00    -0.203 F 
ATOM     74  C   UNL A   1      51.340  26.249  26.729  1.00  0.00     0.198 A 
ATOM     75  C   UNL A   1      50.587  26.706  24.498  1.00  0.00     0.198 A 
ATOM     76  F   UNL A   1      48.354  27.346  24.120  1.00  0.00    -0.203 F 
ATOM     77  F   UNL A   1      52.326  25.933  27.580  1.00  0.00    -0.200 F 
ATOM     78  C   UNL A   1      51.602  26.347  25.371  1.00  0.00     0.200 A 
ATOM     79  F   UNL A   1      50.833  26.793  23.184  1.00  0.00    -0.200 F 
ATOM     80  F   UNL A   1      52.835  26.107  24.905  1.00  0.00    -0.200 F 
ENDBRANCH  46  70
BRANCH  58  81
ATOM     81  C   UNL A   1      45.849  32.674  28.580  1.00  0.00     0.064 A 
ATOM     82  C   UNL A   1      45.708  33.627  27.561  1.00  0.00     0.173 A 
ATOM     83  C   UNL A   1      46.416  33.086  29.795  1.00  0.00     0.173 A 
ATOM     84  F   UNL A   1      45.186  33.276  26.376  1.00  0.00    -0.203 F 
ATOM     85  C   UNL A   1      46.136  34.938  27.746  1.00  0.00     0.198 A 
ATOM     86  C   UNL A   1      46.818  34.405  29.986  1.00  0.00     0.198 A 
ATOM     87  F   UNL A   1      46.566  32.214  30.803  1.00  0.00    -0.203 F 
ATOM     88  F   UNL A   1      46.031  35.822  26.745  1.00  0.00    -0.200 F 
ATOM     89  C   UNL A   1      46.683  35.328  28.961  1.00  0.00     0.200 A 
ATOM     90  F   UNL A   1      47.333  34.783  31.164  1.00  0.00    -0.200 F 
ATOM     91  F   UNL A   1      47.087  36.592  29.139  1.00  0.00    -0.200 F 
ENDBRANCH  58  81
ENDBRANCH  32  33
ENDBRANCH  25  27
ENDBRANCH  24  25
ENDBRANCH  23  24
ENDBRANCH  22  23
ENDBRANCH   1  22
TORSDOF 18
ENDMDL
