MODEL 1
REMARK VINA RESULT:     -11.6      0.000      0.000
REMARK SMILES CCc1cccc(NC(=O)NCC(=O)OCCOC(=O)c2ccc(-c3c4nc(c(-c5c(F)c(F)c(F)c(F)c5F)c5ccc([nH]5)c(-c5c(F)c(F)c(F)c(F)c5F)c5nc(c(-c6c(F)c(F)c(F)c(F)c6F)c6ccc3[nH]6)C=C5)C=C4)cc2)c1
REMARK SMILES IDX 16 1 15 2 13 3 14 4 12 5 11 6 8 7 9 8 10 10 7 12 3 13 4 14
REMARK SMILES IDX 84 15 5 16 6 17 2 18 1 19 17 20 18 21 19 22 20 23 21 24
REMARK SMILES IDX 22 25 83 26 23 27 82 28 24 29 25 30 26 31 76 32 27 33 81 34
REMARK SMILES IDX 75 35 77 36 28 37 80 38 74 39 73 40 29 42 61 43 41 44 60 45
REMARK SMILES IDX 42 46 45 47 59 48 78 49 43 50 44 51 58 53 79 54 46 55 30 56
REMARK SMILES IDX 31 57 39 58 32 59 33 60 37 61 40 62 34 63 35 64 38 65 36 66
REMARK SMILES IDX 62 67 63 68 71 69 64 70 65 71 69 72 72 73 66 74 67 75 70 76
REMARK SMILES IDX 68 77 47 78 48 79 56 80 49 81 50 82 54 83 57 84 51 85 52 86
REMARK SMILES IDX 55 87 53 88
REMARK H PARENT 8 9 11 11 77 41 45 52
REMARK Flexibility Score: inf
ROOT
ATOM      1  C   UNL A   1      31.958  29.232  24.897  1.00  0.00     0.274 C 
ENDROOT
BRANCH   1   2
ATOM      2  O   UNL A   1      30.867  29.091  23.970  1.00  0.00    -0.461 OA
BRANCH   2   3
ATOM      3  C   UNL A   1      31.088  28.277  22.900  1.00  0.00     0.325 C 
ATOM      4  O   UNL A   1      30.278  28.077  22.001  1.00  0.00    -0.250 OA
BRANCH   3   5
ATOM      5  C   UNL A   1      32.514  27.726  22.878  1.00  0.00     0.240 C 
BRANCH   5   6
ATOM      6  N   UNL A   1      32.896  27.099  21.625  1.00  0.00    -0.327 N 
ATOM      7  N   UNL A   1      32.815  24.776  22.100  1.00  0.00    -0.308 N 
ATOM      8  C   UNL A   1      32.906  25.814  21.245  1.00  0.00     0.319 C 
ATOM      9  H   UNL A   1      32.391  23.985  21.697  1.00  0.00     0.171 HD
ATOM     10  O   UNL A   1      32.903  25.577  20.034  1.00  0.00    -0.248 OA
ATOM     11  H   UNL A   1      33.203  27.729  20.934  1.00  0.00     0.166 HD
BRANCH   7  12
ATOM     12  C   UNL A   1      33.190  24.570  23.437  1.00  0.00     0.043 A 
ATOM     13  C   UNL A   1      32.468  24.101  25.722  1.00  0.00    -0.046 A 
ATOM     14  C   UNL A   1      33.794  24.216  26.155  1.00  0.00     0.004 A 
ATOM     15  C   UNL A   1      32.173  24.332  24.367  1.00  0.00     0.029 A 
ATOM     16  C   UNL A   1      34.813  24.399  25.228  1.00  0.00     0.002 A 
ATOM     17  C   UNL A   1      34.508  24.496  23.871  1.00  0.00     0.026 A 
BRANCH  13  18
ATOM     18  C   UNL A   1      31.392  23.687  26.694  1.00  0.00     0.032 C 
ATOM     19  C   UNL A   1      30.511  22.578  26.126  1.00  0.00     0.009 C 
ENDBRANCH  13  18
ENDBRANCH   7  12
ENDBRANCH   5   6
ENDBRANCH   3   5
ENDBRANCH   2   3
ENDBRANCH   1   2
BRANCH   1  20
ATOM     20  C   UNL A   1      31.778  30.454  25.805  1.00  0.00     0.275 C 
BRANCH  20  21
ATOM     21  O   UNL A   1      32.600  30.384  26.986  1.00  0.00    -0.458 OA
BRANCH  21  22
ATOM     22  C   UNL A   1      33.275  31.516  27.285  1.00  0.00     0.338 C 
ATOM     23  O   UNL A   1      32.860  32.666  27.232  1.00  0.00    -0.246 OA
BRANCH  22  24
ATOM     24  C   UNL A   1      34.582  31.183  27.865  1.00  0.00     0.060 A 
ATOM     25  C   UNL A   1      34.788  29.874  28.307  1.00  0.00     0.016 A 
ATOM     26  C   UNL A   1      35.555  32.160  28.065  1.00  0.00     0.016 A 
ATOM     27  C   UNL A   1      35.958  29.527  28.962  1.00  0.00     0.010 A 
ATOM     28  C   UNL A   1      36.736  31.815  28.728  1.00  0.00     0.010 A 
ATOM     29  C   UNL A   1      36.932  30.500  29.190  1.00  0.00    -0.014 A 
BRANCH  29  30
ATOM     30  C   UNL A   1      38.110  30.144  30.005  1.00  0.00     0.031 A 
ATOM     31  C   UNL A   1      39.155  29.246  29.419  1.00  0.00     0.074 A 
ATOM     32  C   UNL A   1      38.263  30.681  31.227  1.00  0.00     0.049 A 
ATOM     33  N   UNL A   1      40.209  28.724  29.987  1.00  0.00    -0.248 NA
ATOM     34  C   UNL A   1      38.991  28.891  28.001  1.00  0.00     0.031 C 
ATOM     35  C   UNL A   1      37.351  31.643  31.845  1.00  0.00     0.029 A 
ATOM     36  N   UNL A   1      39.245  30.497  32.163  1.00  0.00    -0.354 N 
ATOM     37  C   UNL A   1      40.815  27.948  29.007  1.00  0.00     0.074 A 
ATOM     38  C   UNL A   1      40.013  28.070  27.809  1.00  0.00     0.031 C 
ATOM     39  C   UNL A   1      37.820  31.970  33.060  1.00  0.00     0.029 A 
ATOM     40  C   UNL A   1      39.028  31.194  33.325  1.00  0.00     0.049 A 
ATOM     41  H   UNL A   1      40.030  29.922  32.017  1.00  0.00     0.167 HD
ATOM     42  C   UNL A   1      41.936  27.198  29.111  1.00  0.00     0.037 A 
ATOM     43  C   UNL A   1      39.712  31.174  34.483  1.00  0.00     0.037 A 
ATOM     44  C   UNL A   1      42.733  27.111  30.306  1.00  0.00     0.049 A 
ATOM     45  C   UNL A   1      40.915  30.279  34.596  1.00  0.00     0.074 A 
ATOM     46  C   UNL A   1      43.885  26.380  30.527  1.00  0.00     0.029 A 
ATOM     47  N   UNL A   1      42.454  27.787  31.486  1.00  0.00    -0.354 N 
ATOM     48  N   UNL A   1      41.458  29.505  33.686  1.00  0.00    -0.248 NA
ATOM     49  C   UNL A   1      41.590  30.240  35.899  1.00  0.00     0.031 C 
ATOM     50  C   UNL A   1      44.283  26.584  31.854  1.00  0.00     0.029 A 
ATOM     51  C   UNL A   1      43.402  27.476  32.447  1.00  0.00     0.049 A 
ATOM     52  H   UNL A   1      41.694  28.399  31.620  1.00  0.00     0.167 HD
ATOM     53  C   UNL A   1      42.545  28.899  34.299  1.00  0.00     0.074 A 
ATOM     54  C   UNL A   1      42.593  29.407  35.656  1.00  0.00     0.031 C 
ATOM     55  C   UNL A   1      43.422  28.000  33.789  1.00  0.00     0.037 A 
BRANCH  42  56
ATOM     56  C   UNL A   1      42.325  26.375  27.921  1.00  0.00     0.064 A 
ATOM     57  C   UNL A   1      43.278  26.816  26.991  1.00  0.00     0.173 A 
ATOM     58  C   UNL A   1      41.731  25.122  27.709  1.00  0.00     0.173 A 
ATOM     59  F   UNL A   1      43.859  28.017  27.137  1.00  0.00    -0.203 F 
ATOM     60  C   UNL A   1      43.602  26.043  25.878  1.00  0.00     0.198 A 
ATOM     61  C   UNL A   1      42.076  24.341  26.610  1.00  0.00     0.198 A 
ATOM     62  F   UNL A   1      40.812  24.656  28.568  1.00  0.00    -0.203 F 
ATOM     63  F   UNL A   1      44.478  26.505  24.976  1.00  0.00    -0.200 F 
ATOM     64  C   UNL A   1      43.005  24.805  25.692  1.00  0.00     0.200 A 
ATOM     65  F   UNL A   1      41.501  23.143  26.434  1.00  0.00    -0.200 F 
ATOM     66  F   UNL A   1      43.316  24.063  24.619  1.00  0.00    -0.200 F 
ENDBRANCH  42  56
BRANCH  43  67
ATOM     67  C   UNL A   1      39.251  31.999  35.628  1.00  0.00     0.064 A 
ATOM     68  C   UNL A   1      39.678  33.324  35.780  1.00  0.00     0.173 A 
ATOM     69  C   UNL A   1      38.363  31.485  36.584  1.00  0.00     0.173 A 
ATOM     70  F   UNL A   1      40.545  33.853  34.905  1.00  0.00    -0.203 F 
ATOM     71  C   UNL A   1      39.237  34.104  36.848  1.00  0.00     0.198 A 
ATOM     72  C   UNL A   1      37.903  32.272  37.637  1.00  0.00     0.198 A 
ATOM     73  F   UNL A   1      37.926  30.221  36.485  1.00  0.00    -0.203 F 
ATOM     74  F   UNL A   1      39.685  35.359  36.989  1.00  0.00    -0.200 F 
ATOM     75  C   UNL A   1      38.344  33.579  37.771  1.00  0.00     0.200 A 
ATOM     76  F   UNL A   1      37.030  31.766  38.519  1.00  0.00    -0.200 F 
ATOM     77  F   UNL A   1      37.912  34.333  38.791  1.00  0.00    -0.200 F 
ENDBRANCH  43  67
BRANCH  55  78
ATOM     78  C   UNL A   1      44.519  27.533  34.697  1.00  0.00     0.064 A 
ATOM     79  C   UNL A   1      45.702  28.266  34.853  1.00  0.00     0.173 A 
ATOM     80  C   UNL A   1      44.365  26.356  35.445  1.00  0.00     0.173 A 
ATOM     81  F   UNL A   1      45.900  29.388  34.144  1.00  0.00    -0.203 F 
ATOM     82  C   UNL A   1      46.704  27.828  35.713  1.00  0.00     0.198 A 
ATOM     83  C   UNL A   1      45.359  25.934  36.324  1.00  0.00     0.198 A 
ATOM     84  F   UNL A   1      43.248  25.624  35.332  1.00  0.00    -0.203 F 
ATOM     85  F   UNL A   1      47.846  28.522  35.818  1.00  0.00    -0.200 F 
ATOM     86  C   UNL A   1      46.529  26.666  36.452  1.00  0.00     0.200 A 
ATOM     87  F   UNL A   1      45.184  24.818  37.044  1.00  0.00    -0.200 F 
ATOM     88  F   UNL A   1      47.493  26.249  37.284  1.00  0.00    -0.200 F 
ENDBRANCH  55  78
ENDBRANCH  29  30
ENDBRANCH  22  24
ENDBRANCH  21  22
ENDBRANCH  20  21
ENDBRANCH   1  20
TORSDOF 14
ENDMDL
MODEL 2
REMARK VINA RESULT:     -11.6      0.701      2.300
REMARK SMILES CCc1cccc(NC(=O)NCC(=O)OCCOC(=O)c2ccc(-c3c4nc(c(-c5c(F)c(F)c(F)c(F)c5F)c5ccc([nH]5)c(-c5c(F)c(F)c(F)c(F)c5F)c5nc(c(-c6c(F)c(F)c(F)c(F)c6F)c6ccc3[nH]6)C=C5)C=C4)cc2)c1
REMARK SMILES IDX 16 1 15 2 13 3 14 4 12 5 11 6 8 7 9 8 10 10 7 12 3 13 4 14
REMARK SMILES IDX 84 15 5 16 6 17 2 18 1 19 17 20 18 21 19 22 20 23 21 24
REMARK SMILES IDX 22 25 83 26 23 27 82 28 24 29 25 30 26 31 76 32 27 33 81 34
REMARK SMILES IDX 75 35 77 36 28 37 80 38 74 39 73 40 29 42 61 43 41 44 60 45
REMARK SMILES IDX 42 46 45 47 59 48 78 49 43 50 44 51 58 53 79 54 46 55 30 56
REMARK SMILES IDX 31 57 39 58 32 59 33 60 37 61 40 62 34 63 35 64 38 65 36 66
REMARK SMILES IDX 62 67 63 68 71 69 64 70 65 71 69 72 72 73 66 74 67 75 70 76
REMARK SMILES IDX 68 77 47 78 48 79 56 80 49 81 50 82 54 83 57 84 51 85 52 86
REMARK SMILES IDX 55 87 53 88
REMARK H PARENT 8 9 11 11 77 41 45 52
REMARK Flexibility Score: inf
ROOT
ATOM      1  C   UNL A   1      31.097  29.607  24.642  1.00  0.00     0.274 C 
ENDROOT
BRANCH   1   2
ATOM      2  O   UNL A   1      31.801  28.767  23.709  1.00  0.00    -0.461 OA
BRANCH   2   3
ATOM      3  C   UNL A   1      31.044  28.176  22.742  1.00  0.00     0.325 C 
ATOM      4  O   UNL A   1      30.182  28.752  22.087  1.00  0.00    -0.250 OA
BRANCH   3   5
ATOM      5  C   UNL A   1      31.472  26.732  22.475  1.00  0.00     0.240 C 
BRANCH   5   6
ATOM      6  N   UNL A   1      32.258  26.553  21.268  1.00  0.00    -0.327 N 
ATOM      7  N   UNL A   1      32.727  24.227  21.231  1.00  0.00    -0.308 N 
ATOM      8  C   UNL A   1      32.699  25.445  20.655  1.00  0.00     0.319 C 
ATOM      9  H   UNL A   1      32.630  23.495  20.581  1.00  0.00     0.171 HD
ATOM     10  O   UNL A   1      33.008  25.537  19.463  1.00  0.00    -0.248 OA
ATOM     11  H   UNL A   1      32.512  27.392  20.821  1.00  0.00     0.166 HD
BRANCH   7  12
ATOM     12  C   UNL A   1      32.865  23.768  22.551  1.00  0.00     0.043 A 
ATOM     13  C   UNL A   1      34.173  23.809  24.611  1.00  0.00    -0.046 A 
ATOM     14  C   UNL A   1      33.301  22.869  25.174  1.00  0.00     0.004 A 
ATOM     15  C   UNL A   1      33.974  24.211  23.280  1.00  0.00     0.029 A 
ATOM     16  C   UNL A   1      32.170  22.467  24.473  1.00  0.00     0.002 A 
ATOM     17  C   UNL A   1      31.922  22.981  23.200  1.00  0.00     0.026 A 
BRANCH  13  18
ATOM     18  C   UNL A   1      35.275  24.408  25.449  1.00  0.00     0.032 C 
ATOM     19  C   UNL A   1      36.483  23.481  25.544  1.00  0.00     0.009 C 
ENDBRANCH  13  18
ENDBRANCH   7  12
ENDBRANCH   5   6
ENDBRANCH   3   5
ENDBRANCH   2   3
ENDBRANCH   1   2
BRANCH   1  20
ATOM     20  C   UNL A   1      31.796  29.652  26.005  1.00  0.00     0.275 C 
BRANCH  20  21
ATOM     21  O   UNL A   1      33.089  30.283  25.936  1.00  0.00    -0.458 OA
BRANCH  21  22
ATOM     22  C   UNL A   1      33.334  31.199  26.900  1.00  0.00     0.338 C 
ATOM     23  O   UNL A   1      32.563  32.042  27.339  1.00  0.00    -0.246 OA
BRANCH  22  24
ATOM     24  C   UNL A   1      34.648  30.951  27.506  1.00  0.00     0.060 A 
ATOM     25  C   UNL A   1      34.984  29.633  27.825  1.00  0.00     0.016 A 
ATOM     26  C   UNL A   1      35.498  32.001  27.846  1.00  0.00     0.016 A 
ATOM     27  C   UNL A   1      36.162  29.348  28.497  1.00  0.00     0.010 A 
ATOM     28  C   UNL A   1      36.686  31.719  28.527  1.00  0.00     0.010 A 
ATOM     29  C   UNL A   1      37.011  30.393  28.866  1.00  0.00    -0.014 A 
BRANCH  29  30
ATOM     30  C   UNL A   1      38.192  30.084  29.695  1.00  0.00     0.031 A 
ATOM     31  C   UNL A   1      39.272  29.215  29.129  1.00  0.00     0.074 A 
ATOM     32  C   UNL A   1      38.314  30.637  30.914  1.00  0.00     0.049 A 
ATOM     33  N   UNL A   1      40.337  28.733  29.712  1.00  0.00    -0.248 NA
ATOM     34  C   UNL A   1      39.134  28.841  27.713  1.00  0.00     0.031 C 
ATOM     35  C   UNL A   1      37.365  31.575  31.513  1.00  0.00     0.029 A 
ATOM     36  N   UNL A   1      39.293  30.495  31.861  1.00  0.00    -0.354 N 
ATOM     37  C   UNL A   1      40.978  27.969  28.746  1.00  0.00     0.074 A 
ATOM     38  C   UNL A   1      40.184  28.053  27.539  1.00  0.00     0.031 C 
ATOM     39  C   UNL A   1      37.810  31.928  32.729  1.00  0.00     0.029 A 
ATOM     40  C   UNL A   1      39.040  31.195  33.014  1.00  0.00     0.049 A 
ATOM     41  H   UNL A   1      40.098  29.945  31.729  1.00  0.00     0.167 HD
ATOM     42  C   UNL A   1      42.122  27.258  28.869  1.00  0.00     0.037 A 
ATOM     43  C   UNL A   1      39.713  31.209  34.179  1.00  0.00     0.037 A 
ATOM     44  C   UNL A   1      42.909  27.208  30.073  1.00  0.00     0.049 A 
ATOM     45  C   UNL A   1      40.944  30.355  34.313  1.00  0.00     0.074 A 
ATOM     46  C   UNL A   1      44.083  26.518  30.312  1.00  0.00     0.029 A 
ATOM     47  N   UNL A   1      42.596  27.886  31.243  1.00  0.00    -0.354 N 
ATOM     48  N   UNL A   1      41.521  29.591  33.416  1.00  0.00    -0.248 NA
ATOM     49  C   UNL A   1      41.606  30.352  35.623  1.00  0.00     0.031 C 
ATOM     50  C   UNL A   1      44.460  26.748  31.641  1.00  0.00     0.029 A 
ATOM     51  C   UNL A   1      43.543  27.616  32.216  1.00  0.00     0.049 A 
ATOM     52  H   UNL A   1      41.815  28.474  31.364  1.00  0.00     0.167 HD
ATOM     53  C   UNL A   1      42.621  29.027  34.045  1.00  0.00     0.074 A 
ATOM     54  C   UNL A   1      42.639  29.550  35.397  1.00  0.00     0.031 C 
ATOM     55  C   UNL A   1      43.533  28.153  33.553  1.00  0.00     0.037 A 
BRANCH  42  56
ATOM     56  C   UNL A   1      42.551  26.436  27.691  1.00  0.00     0.064 A 
ATOM     57  C   UNL A   1      42.035  25.154  27.452  1.00  0.00     0.173 A 
ATOM     58  C   UNL A   1      43.495  26.945  26.787  1.00  0.00     0.173 A 
ATOM     59  F   UNL A   1      41.146  24.614  28.299  1.00  0.00    -0.203 F 
ATOM     60  C   UNL A   1      42.471  24.401  26.364  1.00  0.00     0.198 A 
ATOM     61  C   UNL A   1      43.909  26.199  25.687  1.00  0.00     0.198 A 
ATOM     62  F   UNL A   1      44.020  28.166  26.973  1.00  0.00    -0.203 F 
ATOM     63  F   UNL A   1      42.003  23.158  26.181  1.00  0.00    -0.200 F 
ATOM     64  C   UNL A   1      43.403  24.926  25.480  1.00  0.00     0.200 A 
ATOM     65  F   UNL A   1      44.805  26.711  24.831  1.00  0.00    -0.200 F 
ATOM     66  F   UNL A   1      43.822  24.199  24.435  1.00  0.00    -0.200 F 
ENDBRANCH  42  56
BRANCH  43  67
ATOM     67  C   UNL A   1      39.214  32.029  35.311  1.00  0.00     0.064 A 
ATOM     68  C   UNL A   1      38.436  31.460  36.327  1.00  0.00     0.173 A 
ATOM     69  C   UNL A   1      39.516  33.396  35.407  1.00  0.00     0.173 A 
ATOM     70  F   UNL A   1      38.101  30.163  36.266  1.00  0.00    -0.203 F 
ATOM     71  C   UNL A   1      37.975  32.227  37.396  1.00  0.00     0.198 A 
ATOM     72  C   UNL A   1      39.077  34.156  36.489  1.00  0.00     0.198 A 
ATOM     73  F   UNL A   1      40.255  33.990  34.459  1.00  0.00    -0.203 F 
ATOM     74  F   UNL A   1      37.207  31.666  38.338  1.00  0.00    -0.200 F 
ATOM     75  C   UNL A   1      38.303  33.572  37.479  1.00  0.00     0.200 A 
ATOM     76  F   UNL A   1      39.407  35.453  36.572  1.00  0.00    -0.200 F 
ATOM     77  F   UNL A   1      37.869  34.307  38.512  1.00  0.00    -0.200 F 
ENDBRANCH  43  67
BRANCH  55  78
ATOM     78  C   UNL A   1      44.635  27.731  34.476  1.00  0.00     0.064 A 
ATOM     79  C   UNL A   1      44.521  26.586  35.276  1.00  0.00     0.173 A 
ATOM     80  C   UNL A   1      45.831  28.461  34.532  1.00  0.00     0.173 A 
ATOM     81  F   UNL A   1      43.388  25.866  35.268  1.00  0.00    -0.203 F 
ATOM     82  C   UNL A   1      45.560  26.197  36.116  1.00  0.00     0.198 A 
ATOM     83  C   UNL A   1      46.878  28.055  35.355  1.00  0.00     0.198 A 
ATOM     84  F   UNL A   1      45.987  29.562  33.782  1.00  0.00    -0.203 F 
ATOM     85  F   UNL A   1      45.416  25.121  36.903  1.00  0.00    -0.200 F 
ATOM     86  C   UNL A   1      46.739  26.928  36.150  1.00  0.00     0.200 A 
ATOM     87  F   UNL A   1      48.019  28.756  35.380  1.00  0.00    -0.200 F 
ATOM     88  F   UNL A   1      47.740  26.548  36.956  1.00  0.00    -0.200 F 
ENDBRANCH  55  78
ENDBRANCH  29  30
ENDBRANCH  22  24
ENDBRANCH  21  22
ENDBRANCH  20  21
ENDBRANCH   1  20
TORSDOF 14
ENDMDL
MODEL 3
REMARK VINA RESULT:     -11.6      5.323      8.020
REMARK SMILES CCc1cccc(NC(=O)NCC(=O)OCCOC(=O)c2ccc(-c3c4nc(c(-c5c(F)c(F)c(F)c(F)c5F)c5ccc([nH]5)c(-c5c(F)c(F)c(F)c(F)c5F)c5nc(c(-c6c(F)c(F)c(F)c(F)c6F)c6ccc3[nH]6)C=C5)C=C4)cc2)c1
REMARK SMILES IDX 16 1 15 2 13 3 14 4 12 5 11 6 8 7 9 8 10 10 7 12 3 13 4 14
REMARK SMILES IDX 84 15 5 16 6 17 2 18 1 19 17 20 18 21 19 22 20 23 21 24
REMARK SMILES IDX 22 25 83 26 23 27 82 28 24 29 25 30 26 31 76 32 27 33 81 34
REMARK SMILES IDX 75 35 77 36 28 37 80 38 74 39 73 40 29 42 61 43 41 44 60 45
REMARK SMILES IDX 42 46 45 47 59 48 78 49 43 50 44 51 58 53 79 54 46 55 30 56
REMARK SMILES IDX 31 57 39 58 32 59 33 60 37 61 40 62 34 63 35 64 38 65 36 66
REMARK SMILES IDX 62 67 63 68 71 69 64 70 65 71 69 72 72 73 66 74 67 75 70 76
REMARK SMILES IDX 68 77 47 78 48 79 56 80 49 81 50 82 54 83 57 84 51 85 52 86
REMARK SMILES IDX 55 87 53 88
REMARK H PARENT 8 9 11 11 77 41 45 52
REMARK Flexibility Score: inf
ROOT
ATOM      1  C   UNL A   1      37.992  19.871  24.989  1.00  0.00     0.274 C 
ENDROOT
BRANCH   1   2
ATOM      2  O   UNL A   1      38.035  21.292  24.762  1.00  0.00    -0.461 OA
BRANCH   2   3
ATOM      3  C   UNL A   1      37.106  22.036  25.425  1.00  0.00     0.325 C 
ATOM      4  O   UNL A   1      37.254  23.212  25.738  1.00  0.00    -0.250 OA
BRANCH   3   5
ATOM      5  C   UNL A   1      35.797  21.272  25.635  1.00  0.00     0.240 C 
BRANCH   5   6
ATOM      6  N   UNL A   1      34.885  21.894  26.579  1.00  0.00    -0.327 N 
ATOM      7  N   UNL A   1      33.075  20.366  26.717  1.00  0.00    -0.308 N 
ATOM      8  C   UNL A   1      33.759  21.444  27.149  1.00  0.00     0.319 C 
ATOM      9  H   UNL A   1      32.589  19.907  27.438  1.00  0.00     0.171 HD
ATOM     10  O   UNL A   1      33.384  21.998  28.187  1.00  0.00    -0.248 OA
ATOM     11  H   UNL A   1      35.138  22.807  26.846  1.00  0.00     0.166 HD
BRANCH   7  12
ATOM     12  C   UNL A   1      32.901  19.751  25.467  1.00  0.00     0.043 A 
ATOM     13  C   UNL A   1      33.087  17.710  24.140  1.00  0.00    -0.046 A 
ATOM     14  C   UNL A   1      32.674  18.418  23.007  1.00  0.00     0.004 A 
ATOM     15  C   UNL A   1      33.248  18.400  25.354  1.00  0.00     0.029 A 
ATOM     16  C   UNL A   1      32.279  19.746  23.125  1.00  0.00     0.002 A 
ATOM     17  C   UNL A   1      32.322  20.375  24.368  1.00  0.00     0.026 A 
BRANCH  13  18
ATOM     18  C   UNL A   1      33.307  16.220  24.058  1.00  0.00     0.032 C 
ATOM     19  C   UNL A   1      33.022  15.530  25.388  1.00  0.00     0.009 C 
ENDBRANCH  13  18
ENDBRANCH   7  12
ENDBRANCH   5   6
ENDBRANCH   3   5
ENDBRANCH   2   3
ENDBRANCH   1   2
BRANCH   1  20
ATOM     20  C   UNL A   1      39.228  19.379  25.749  1.00  0.00     0.275 C 
BRANCH  20  21
ATOM     21  O   UNL A   1      40.213  20.415  25.921  1.00  0.00    -0.458 OA
BRANCH  21  22
ATOM     22  C   UNL A   1      40.742  20.505  27.163  1.00  0.00     0.338 C 
ATOM     23  O   UNL A   1      41.082  19.585  27.895  1.00  0.00    -0.246 OA
BRANCH  22  24
ATOM     24  C   UNL A   1      41.026  21.909  27.485  1.00  0.00     0.060 A 
ATOM     25  C   UNL A   1      40.498  22.894  26.649  1.00  0.00     0.016 A 
ATOM     26  C   UNL A   1      41.877  22.251  28.534  1.00  0.00     0.016 A 
ATOM     27  C   UNL A   1      40.821  24.228  26.837  1.00  0.00     0.010 A 
ATOM     28  C   UNL A   1      42.209  23.595  28.727  1.00  0.00     0.010 A 
ATOM     29  C   UNL A   1      41.692  24.584  27.869  1.00  0.00    -0.014 A 
BRANCH  29  30
ATOM     30  C   UNL A   1      42.128  25.989  27.971  1.00  0.00     0.031 A 
ATOM     31  C   UNL A   1      43.423  26.397  27.340  1.00  0.00     0.074 A 
ATOM     32  C   UNL A   1      41.332  26.894  28.565  1.00  0.00     0.049 A 
ATOM     33  N   UNL A   1      44.046  27.544  27.396  1.00  0.00    -0.248 NA
ATOM     34  C   UNL A   1      44.108  25.374  26.534  1.00  0.00     0.031 C 
ATOM     35  C   UNL A   1      40.008  26.615  29.121  1.00  0.00     0.029 A 
ATOM     36  N   UNL A   1      41.518  28.231  28.792  1.00  0.00    -0.354 N 
ATOM     37  C   UNL A   1      45.213  27.371  26.664  1.00  0.00     0.074 A 
ATOM     38  C   UNL A   1      45.212  26.010  26.172  1.00  0.00     0.031 C 
ATOM     39  C   UNL A   1      39.498  27.750  29.625  1.00  0.00     0.029 A 
ATOM     40  C   UNL A   1      40.484  28.817  29.478  1.00  0.00     0.049 A 
ATOM     41  H   UNL A   1      42.316  28.724  28.493  1.00  0.00     0.167 HD
ATOM     42  C   UNL A   1      46.197  28.272  26.437  1.00  0.00     0.037 A 
ATOM     43  C   UNL A   1      40.370  30.067  29.964  1.00  0.00     0.037 A 
ATOM     44  C   UNL A   1      46.167  29.629  26.916  1.00  0.00     0.049 A 
ATOM     45  C   UNL A   1      41.507  31.028  29.758  1.00  0.00     0.074 A 
ATOM     46  C   UNL A   1      47.108  30.627  26.749  1.00  0.00     0.029 A 
ATOM     47  N   UNL A   1      45.127  30.176  27.657  1.00  0.00    -0.354 N 
ATOM     48  N   UNL A   1      42.634  30.849  29.111  1.00  0.00    -0.248 NA
ATOM     49  C   UNL A   1      41.365  32.359  30.362  1.00  0.00     0.031 C 
ATOM     50  C   UNL A   1      46.656  31.768  27.423  1.00  0.00     0.029 A 
ATOM     51  C   UNL A   1      45.413  31.493  27.973  1.00  0.00     0.049 A 
ATOM     52  H   UNL A   1      44.307  29.697  27.919  1.00  0.00     0.167 HD
ATOM     53  C   UNL A   1      43.331  32.044  29.216  1.00  0.00     0.074 A 
ATOM     54  C   UNL A   1      42.490  32.948  29.978  1.00  0.00     0.031 C 
ATOM     55  C   UNL A   1      44.555  32.367  28.732  1.00  0.00     0.037 A 
BRANCH  42  56
ATOM     56  C   UNL A   1      47.405  27.796  25.688  1.00  0.00     0.064 A 
ATOM     57  C   UNL A   1      47.456  27.790  24.287  1.00  0.00     0.173 A 
ATOM     58  C   UNL A   1      48.530  27.339  26.390  1.00  0.00     0.173 A 
ATOM     59  F   UNL A   1      46.398  28.196  23.570  1.00  0.00    -0.203 F 
ATOM     60  C   UNL A   1      48.582  27.317  23.615  1.00  0.00     0.198 A 
ATOM     61  C   UNL A   1      49.663  26.891  25.715  1.00  0.00     0.198 A 
ATOM     62  F   UNL A   1      48.530  27.323  27.732  1.00  0.00    -0.203 F 
ATOM     63  F   UNL A   1      48.591  27.272  22.276  1.00  0.00    -0.200 F 
ATOM     64  C   UNL A   1      49.685  26.873  24.330  1.00  0.00     0.200 A 
ATOM     65  F   UNL A   1      50.729  26.468  26.408  1.00  0.00    -0.200 F 
ATOM     66  F   UNL A   1      50.766  26.416  23.682  1.00  0.00    -0.200 F 
ENDBRANCH  42  56
BRANCH  43  67
ATOM     67  C   UNL A   1      39.152  30.458  30.717  1.00  0.00     0.064 A 
ATOM     68  C   UNL A   1      38.057  31.041  30.066  1.00  0.00     0.173 A 
ATOM     69  C   UNL A   1      39.052  30.243  32.100  1.00  0.00     0.173 A 
ATOM     70  F   UNL A   1      38.115  31.287  28.750  1.00  0.00    -0.203 F 
ATOM     71  C   UNL A   1      36.909  31.398  30.771  1.00  0.00     0.198 A 
ATOM     72  C   UNL A   1      37.894  30.577  32.799  1.00  0.00     0.198 A 
ATOM     73  F   UNL A   1      40.074  29.690  32.770  1.00  0.00    -0.203 F 
ATOM     74  F   UNL A   1      35.888  31.983  30.130  1.00  0.00    -0.200 F 
ATOM     75  C   UNL A   1      36.826  31.158  32.134  1.00  0.00     0.200 A 
ATOM     76  F   UNL A   1      37.813  30.332  34.114  1.00  0.00    -0.200 F 
ATOM     77  F   UNL A   1      35.717  31.493  32.809  1.00  0.00    -0.200 F 
ENDBRANCH  43  67
BRANCH  55  78
ATOM     78  C   UNL A   1      45.042  33.760  28.992  1.00  0.00     0.064 A 
ATOM     79  C   UNL A   1      45.825  34.063  30.114  1.00  0.00     0.173 A 
ATOM     80  C   UNL A   1      44.750  34.792  28.089  1.00  0.00     0.173 A 
ATOM     81  F   UNL A   1      46.114  33.111  31.014  1.00  0.00    -0.203 F 
ATOM     82  C   UNL A   1      46.284  35.359  30.333  1.00  0.00     0.198 A 
ATOM     83  C   UNL A   1      45.232  36.081  28.298  1.00  0.00     0.198 A 
ATOM     84  F   UNL A   1      44.007  34.548  27.000  1.00  0.00    -0.203 F 
ATOM     85  F   UNL A   1      46.998  35.637  31.433  1.00  0.00    -0.200 F 
ATOM     86  C   UNL A   1      45.993  36.364  29.422  1.00  0.00     0.200 A 
ATOM     87  F   UNL A   1      44.959  37.049  27.413  1.00  0.00    -0.200 F 
ATOM     88  F   UNL A   1      46.441  37.610  29.633  1.00  0.00    -0.200 F 
ENDBRANCH  55  78
ENDBRANCH  29  30
ENDBRANCH  22  24
ENDBRANCH  21  22
ENDBRANCH  20  21
ENDBRANCH   1  20
TORSDOF 14
ENDMDL
