MODEL 1
REMARK VINA RESULT:     -12.6      0.000      0.000
REMARK SMILES O=C(Cc1cccn1-c1ccc2c(c1)OCCO2)OCCOC(=O)c1ccc(-c2c3nc(c(-c4c(F)c(F)c(F)c(F)c4F)c4ccc([nH]4)c(-c4c(F)c(F)c(F)c(F)c4F)c4nc(c(-c5c(F)c(F)c(F)c(F)c5F)c5ccc2[nH]5)C=C4)C=C3)cc1
REMARK SMILES IDX 20 1 19 2 2 3 1 4 3 5 4 6 5 7 8 8 6 9 7 10 9 11 10 12 14 13
REMARK SMILES IDX 11 14 13 15 12 16 15 17 18 18 16 19 17 20 21 21 22 22 23 23
REMARK SMILES IDX 24 24 25 25 26 26 87 27 27 28 86 29 28 30 29 31 30 32 80 33
REMARK SMILES IDX 31 34 85 35 79 36 81 37 32 38 84 39 78 40 77 41 33 43 65 44
REMARK SMILES IDX 45 45 64 46 46 47 49 48 63 49 82 50 47 51 48 52 62 54 83 55
REMARK SMILES IDX 50 56 34 57 35 58 43 59 36 60 37 61 41 62 44 63 38 64 39 65
REMARK SMILES IDX 42 66 40 67 66 68 67 69 75 70 68 71 69 72 73 73 76 74 70 75
REMARK SMILES IDX 71 76 74 77 72 78 51 79 52 80 60 81 53 82 54 83 58 84 61 85
REMARK SMILES IDX 55 86 56 87 59 88 57 89
REMARK H PARENT 81 42 49 53
REMARK Flexibility Score: inf
ROOT
ATOM      1  C   UNL A   1      33.501  29.561  26.857  1.00  0.00     0.274 C 
ENDROOT
BRANCH   1   2
ATOM      2  O   UNL A   1      32.911  28.370  26.310  1.00  0.00    -0.462 OA
BRANCH   2   3
ATOM      3  C   UNL A   1      32.018  27.577  26.957  1.00  0.00     0.311 C 
ATOM      4  O   UNL A   1      31.447  28.001  27.963  1.00  0.00    -0.252 OA
BRANCH   3   5
ATOM      5  C   UNL A   1      31.789  26.149  26.476  1.00  0.00     0.177 C 
BRANCH   5   6
ATOM      6  C   UNL A   1      32.581  25.815  25.250  1.00  0.00     0.034 A 
ATOM      7  C   UNL A   1      33.768  25.098  25.198  1.00  0.00     0.024 A 
ATOM      8  N   UNL A   1      32.216  26.115  23.941  1.00  0.00    -0.320 N 
ATOM      9  C   UNL A   1      34.099  24.898  23.844  1.00  0.00     0.020 A 
ATOM     10  C   UNL A   1      33.109  25.490  23.096  1.00  0.00     0.091 A 
BRANCH   8  11
ATOM     11  C   UNL A   1      31.074  26.819  23.484  1.00  0.00     0.049 A 
ATOM     12  C   UNL A   1      29.810  26.356  23.882  1.00  0.00     0.031 A 
ATOM     13  C   UNL A   1      31.196  28.002  22.744  1.00  0.00     0.077 A 
ATOM     14  C   UNL A   1      28.676  27.121  23.607  1.00  0.00     0.052 A 
ATOM     15  C   UNL A   1      30.047  28.743  22.442  1.00  0.00     0.163 A 
ATOM     16  C   UNL A   1      28.793  28.307  22.886  1.00  0.00     0.161 A 
ATOM     17  O   UNL A   1      30.226  29.899  21.724  1.00  0.00    -0.486 OA
ATOM     18  O   UNL A   1      27.635  29.013  22.688  1.00  0.00    -0.486 OA
ATOM     19  C   UNL A   1      29.081  30.758  21.795  1.00  0.00     0.271 C 
ATOM     20  C   UNL A   1      27.780  29.985  21.649  1.00  0.00     0.271 C 
ENDBRANCH   8  11
ENDBRANCH   5   6
ENDBRANCH   3   5
ENDBRANCH   2   3
ENDBRANCH   1   2
BRANCH   1  21
ATOM     21  C   UNL A   1      34.742  29.336  27.714  1.00  0.00     0.275 C 
BRANCH  21  22
ATOM     22  O   UNL A   1      35.850  30.128  27.293  1.00  0.00    -0.458 OA
BRANCH  22  23
ATOM     23  C   UNL A   1      36.768  30.325  28.267  1.00  0.00     0.338 C 
ATOM     24  O   UNL A   1      36.782  31.212  29.092  1.00  0.00    -0.246 OA
BRANCH  23  25
ATOM     25  C   UNL A   1      37.862  29.359  28.126  1.00  0.00     0.060 A 
ATOM     26  C   UNL A   1      38.107  28.561  29.247  1.00  0.00     0.016 A 
ATOM     27  C   UNL A   1      38.756  29.428  27.050  1.00  0.00     0.016 A 
ATOM     28  C   UNL A   1      39.347  27.986  29.385  1.00  0.00     0.010 A 
ATOM     29  C   UNL A   1      40.010  28.870  27.198  1.00  0.00     0.010 A 
ATOM     30  C   UNL A   1      40.307  28.205  28.390  1.00  0.00    -0.014 A 
BRANCH  30  31
ATOM     31  C   UNL A   1      41.607  27.563  28.588  1.00  0.00     0.031 A 
ATOM     32  C   UNL A   1      41.518  26.094  28.114  1.00  0.00     0.074 A 
ATOM     33  C   UNL A   1      42.541  28.347  29.227  1.00  0.00     0.049 A 
ATOM     34  N   UNL A   1      42.183  25.055  28.504  1.00  0.00    -0.248 NA
ATOM     35  C   UNL A   1      40.495  25.697  27.095  1.00  0.00     0.031 C 
ATOM     36  C   UNL A   1      42.392  29.796  29.533  1.00  0.00     0.029 A 
ATOM     37  N   UNL A   1      43.789  28.108  29.768  1.00  0.00    -0.354 N 
ATOM     38  C   UNL A   1      41.844  23.973  27.659  1.00  0.00     0.074 A 
ATOM     39  C   UNL A   1      40.718  24.396  26.891  1.00  0.00     0.031 C 
ATOM     40  C   UNL A   1      43.426  30.257  30.278  1.00  0.00     0.029 A 
ATOM     41  C   UNL A   1      44.363  29.179  30.525  1.00  0.00     0.049 A 
ATOM     42  H   UNL A   1      44.256  27.250  29.642  1.00  0.00     0.167 HD
ATOM     43  C   UNL A   1      42.624  22.855  27.561  1.00  0.00     0.037 A 
ATOM     44  C   UNL A   1      45.480  29.160  31.327  1.00  0.00     0.037 A 
ATOM     45  C   UNL A   1      43.683  22.946  28.507  1.00  0.00     0.049 A 
ATOM     46  C   UNL A   1      46.059  27.839  31.066  1.00  0.00     0.074 A 
ATOM     47  C   UNL A   1      43.673  22.845  29.873  1.00  0.00     0.029 A 
ATOM     48  N   UNL A   1      44.815  23.608  28.099  1.00  0.00    -0.354 N 
ATOM     49  N   UNL A   1      46.667  27.516  29.966  1.00  0.00    -0.248 NA
ATOM     50  C   UNL A   1      45.835  26.771  32.045  1.00  0.00     0.031 C 
ATOM     51  C   UNL A   1      44.509  23.908  30.259  1.00  0.00     0.029 A 
ATOM     52  C   UNL A   1      45.236  24.373  29.155  1.00  0.00     0.049 A 
ATOM     53  H   UNL A   1      45.245  23.544  27.215  1.00  0.00     0.167 HD
ATOM     54  C   UNL A   1      46.570  26.148  29.988  1.00  0.00     0.074 A 
ATOM     55  C   UNL A   1      46.382  25.763  31.373  1.00  0.00     0.031 C 
ATOM     56  C   UNL A   1      46.095  25.498  28.894  1.00  0.00     0.037 A 
BRANCH  43  57
ATOM     57  C   UNL A   1      42.722  21.751  26.549  1.00  0.00     0.064 A 
ATOM     58  C   UNL A   1      42.210  20.477  26.913  1.00  0.00     0.173 A 
ATOM     59  C   UNL A   1      43.618  21.773  25.476  1.00  0.00     0.173 A 
ATOM     60  F   UNL A   1      41.293  20.357  27.888  1.00  0.00    -0.203 F 
ATOM     61  C   UNL A   1      42.702  19.299  26.363  1.00  0.00     0.198 A 
ATOM     62  C   UNL A   1      44.069  20.587  24.887  1.00  0.00     0.198 A 
ATOM     63  F   UNL A   1      44.156  22.921  25.046  1.00  0.00    -0.203 F 
ATOM     64  F   UNL A   1      42.314  18.116  26.860  1.00  0.00    -0.200 F 
ATOM     65  C   UNL A   1      43.651  19.354  25.364  1.00  0.00     0.200 A 
ATOM     66  F   UNL A   1      44.982  20.640  23.907  1.00  0.00    -0.200 F 
ATOM     67  F   UNL A   1      44.191  18.224  24.885  1.00  0.00    -0.200 F 
ENDBRANCH  43  57
BRANCH  44  68
ATOM     68  C   UNL A   1      46.208  29.981  32.383  1.00  0.00     0.064 A 
ATOM     69  C   UNL A   1      45.788  30.221  33.695  1.00  0.00     0.173 A 
ATOM     70  C   UNL A   1      47.507  30.511  32.093  1.00  0.00     0.173 A 
ATOM     71  F   UNL A   1      44.546  29.908  34.083  1.00  0.00    -0.203 F 
ATOM     72  C   UNL A   1      46.642  30.814  34.656  1.00  0.00     0.198 A 
ATOM     73  C   UNL A   1      48.374  31.031  33.053  1.00  0.00     0.198 A 
ATOM     74  F   UNL A   1      47.996  30.546  30.847  1.00  0.00    -0.203 F 
ATOM     75  F   UNL A   1      46.198  31.027  35.903  1.00  0.00    -0.200 F 
ATOM     76  C   UNL A   1      47.948  31.166  34.348  1.00  0.00     0.200 A 
ATOM     77  F   UNL A   1      49.624  31.374  32.705  1.00  0.00    -0.200 F 
ATOM     78  F   UNL A   1      48.780  31.645  35.283  1.00  0.00    -0.200 F 
ENDBRANCH  44  68
BRANCH  56  79
ATOM     79  C   UNL A   1      46.235  26.268  27.589  1.00  0.00     0.064 A 
ATOM     80  C   UNL A   1      47.509  26.677  27.160  1.00  0.00     0.173 A 
ATOM     81  C   UNL A   1      45.159  26.721  26.804  1.00  0.00     0.173 A 
ATOM     82  F   UNL A   1      48.599  26.264  27.823  1.00  0.00    -0.203 F 
ATOM     83  C   UNL A   1      47.687  27.506  26.048  1.00  0.00     0.198 A 
ATOM     84  C   UNL A   1      45.331  27.555  25.694  1.00  0.00     0.198 A 
ATOM     85  F   UNL A   1      43.911  26.357  27.084  1.00  0.00    -0.203 F 
ATOM     86  F   UNL A   1      48.923  27.870  25.677  1.00  0.00    -0.200 F 
ATOM     87  C   UNL A   1      46.598  27.951  25.318  1.00  0.00     0.200 A 
ATOM     88  F   UNL A   1      44.265  27.961  24.986  1.00  0.00    -0.200 F 
ATOM     89  F   UNL A   1      46.771  28.739  24.246  1.00  0.00    -0.200 F 
ENDBRANCH  56  79
ENDBRANCH  30  31
ENDBRANCH  23  25
ENDBRANCH  22  23
ENDBRANCH  21  22
ENDBRANCH   1  21
TORSDOF 13
ENDMDL
MODEL 2
REMARK VINA RESULT:     -12.4      5.755     11.293
REMARK SMILES O=C(Cc1cccn1-c1ccc2c(c1)OCCO2)OCCOC(=O)c1ccc(-c2c3nc(c(-c4c(F)c(F)c(F)c(F)c4F)c4ccc([nH]4)c(-c4c(F)c(F)c(F)c(F)c4F)c4nc(c(-c5c(F)c(F)c(F)c(F)c5F)c5ccc2[nH]5)C=C4)C=C3)cc1
REMARK SMILES IDX 20 1 19 2 2 3 1 4 3 5 4 6 5 7 8 8 6 9 7 10 9 11 10 12 14 13
REMARK SMILES IDX 11 14 13 15 12 16 15 17 18 18 16 19 17 20 21 21 22 22 23 23
REMARK SMILES IDX 24 24 25 25 26 26 87 27 27 28 86 29 28 30 29 31 30 32 80 33
REMARK SMILES IDX 31 34 85 35 79 36 81 37 32 38 84 39 78 40 77 41 33 43 65 44
REMARK SMILES IDX 45 45 64 46 46 47 49 48 63 49 82 50 47 51 48 52 62 54 83 55
REMARK SMILES IDX 50 56 34 57 35 58 43 59 36 60 37 61 41 62 44 63 38 64 39 65
REMARK SMILES IDX 42 66 40 67 66 68 67 69 75 70 68 71 69 72 73 73 76 74 70 75
REMARK SMILES IDX 71 76 74 77 72 78 51 79 52 80 60 81 53 82 54 83 58 84 61 85
REMARK SMILES IDX 55 86 56 87 59 88 57 89
REMARK H PARENT 81 42 49 53
REMARK Flexibility Score: inf
ROOT
ATOM      1  C   UNL A   1      38.481  21.973  25.770  1.00  0.00     0.274 C 
ENDROOT
BRANCH   1   2
ATOM      2  O   UNL A   1      39.872  21.611  25.739  1.00  0.00    -0.462 OA
BRANCH   2   3
ATOM      3  C   UNL A   1      40.363  20.387  26.064  1.00  0.00     0.311 C 
ATOM      4  O   UNL A   1      39.749  19.376  25.721  1.00  0.00    -0.252 OA
BRANCH   3   5
ATOM      5  C   UNL A   1      41.624  20.280  26.913  1.00  0.00     0.177 C 
BRANCH   5   6
ATOM      6  C   UNL A   1      42.847  19.984  26.102  1.00  0.00     0.034 A 
ATOM      7  C   UNL A   1      43.235  18.749  25.605  1.00  0.00     0.024 A 
ATOM      8  N   UNL A   1      43.770  20.925  25.651  1.00  0.00    -0.320 N 
ATOM      9  C   UNL A   1      44.366  18.941  24.788  1.00  0.00     0.020 A 
ATOM     10  C   UNL A   1      44.644  20.287  24.796  1.00  0.00     0.091 A 
BRANCH   8  11
ATOM     11  C   UNL A   1      43.789  22.323  25.885  1.00  0.00     0.049 A 
ATOM     12  C   UNL A   1      43.127  23.154  24.969  1.00  0.00     0.031 A 
ATOM     13  C   UNL A   1      44.360  22.859  27.047  1.00  0.00     0.077 A 
ATOM     14  C   UNL A   1      42.967  24.510  25.257  1.00  0.00     0.052 A 
ATOM     15  C   UNL A   1      44.225  24.227  27.307  1.00  0.00     0.163 A 
ATOM     16  C   UNL A   1      43.518  25.046  26.419  1.00  0.00     0.161 A 
ATOM     17  O   UNL A   1      44.793  24.697  28.465  1.00  0.00    -0.486 OA
ATOM     18  O   UNL A   1      43.286  26.378  26.642  1.00  0.00    -0.486 OA
ATOM     19  C   UNL A   1      44.288  25.989  28.827  1.00  0.00     0.271 C 
ATOM     20  C   UNL A   1      44.177  26.912  27.624  1.00  0.00     0.271 C 
ENDBRANCH   8  11
ENDBRANCH   5   6
ENDBRANCH   3   5
ENDBRANCH   2   3
ENDBRANCH   1   2
BRANCH   1  21
ATOM     21  C   UNL A   1      38.173  23.308  26.440  1.00  0.00     0.275 C 
BRANCH  21  22
ATOM     22  O   UNL A   1      39.204  24.272  26.241  1.00  0.00    -0.458 OA
BRANCH  22  23
ATOM     23  C   UNL A   1      39.929  24.520  27.357  1.00  0.00     0.338 C 
ATOM     24  O   UNL A   1      40.700  23.767  27.910  1.00  0.00    -0.246 OA
BRANCH  23  25
ATOM     25  C   UNL A   1      39.563  25.827  27.911  1.00  0.00     0.060 A 
ATOM     26  C   UNL A   1      40.060  26.933  27.217  1.00  0.00     0.016 A 
ATOM     27  C   UNL A   1      38.993  25.941  29.186  1.00  0.00     0.016 A 
ATOM     28  C   UNL A   1      40.172  28.130  27.882  1.00  0.00     0.010 A 
ATOM     29  C   UNL A   1      39.126  27.136  29.863  1.00  0.00     0.010 A 
ATOM     30  C   UNL A   1      39.767  28.199  29.220  1.00  0.00    -0.014 A 
BRANCH  30  31
ATOM     31  C   UNL A   1      39.905  29.500  29.875  1.00  0.00     0.031 A 
ATOM     32  C   UNL A   1      38.656  30.355  29.558  1.00  0.00     0.074 A 
ATOM     33  C   UNL A   1      41.112  29.699  30.506  1.00  0.00     0.049 A 
ATOM     34  N   UNL A   1      38.528  31.641  29.487  1.00  0.00    -0.248 NA
ATOM     35  C   UNL A   1      37.363  29.689  29.203  1.00  0.00     0.031 C 
ATOM     36  C   UNL A   1      42.154  28.659  30.727  1.00  0.00     0.029 A 
ATOM     37  N   UNL A   1      41.732  30.795  31.072  1.00  0.00    -0.354 N 
ATOM     38  C   UNL A   1      37.155  31.937  29.318  1.00  0.00     0.074 A 
ATOM     39  C   UNL A   1      36.505  30.699  29.032  1.00  0.00     0.031 C 
ATOM     40  C   UNL A   1      43.280  29.189  31.263  1.00  0.00     0.029 A 
ATOM     41  C   UNL A   1      43.096  30.613  31.464  1.00  0.00     0.049 A 
ATOM     42  H   UNL A   1      41.263  31.651  31.199  1.00  0.00     0.167 HD
ATOM     43  C   UNL A   1      36.643  33.177  29.576  1.00  0.00     0.037 A 
ATOM     44  C   UNL A   1      44.007  31.563  31.865  1.00  0.00     0.037 A 
ATOM     45  C   UNL A   1      37.711  34.063  29.892  1.00  0.00     0.049 A 
ATOM     46  C   UNL A   1      43.195  32.776  31.989  1.00  0.00     0.074 A 
ATOM     47  C   UNL A   1      38.685  34.607  29.098  1.00  0.00     0.029 A 
ATOM     48  N   UNL A   1      38.108  34.101  31.206  1.00  0.00    -0.354 N 
ATOM     49  N   UNL A   1      42.341  32.986  32.944  1.00  0.00    -0.248 NA
ATOM     50  C   UNL A   1      43.247  33.767  30.910  1.00  0.00     0.031 C 
ATOM     51  C   UNL A   1      39.837  34.456  29.890  1.00  0.00     0.029 A 
ATOM     52  C   UNL A   1      39.477  34.158  31.210  1.00  0.00     0.049 A 
ATOM     53  H   UNL A   1      37.520  34.092  31.996  1.00  0.00     0.167 HD
ATOM     54  C   UNL A   1      41.526  33.935  32.382  1.00  0.00     0.074 A 
ATOM     55  C   UNL A   1      42.298  34.590  31.345  1.00  0.00     0.031 C 
ATOM     56  C   UNL A   1      40.181  33.749  32.397  1.00  0.00     0.037 A 
BRANCH  43  57
ATOM     57  C   UNL A   1      35.253  33.688  29.823  1.00  0.00     0.064 A 
ATOM     58  C   UNL A   1      34.676  34.530  28.836  1.00  0.00     0.173 A 
ATOM     59  C   UNL A   1      34.668  33.734  31.093  1.00  0.00     0.173 A 
ATOM     60  F   UNL A   1      35.122  34.511  27.568  1.00  0.00    -0.203 F 
ATOM     61  C   UNL A   1      33.708  35.479  29.148  1.00  0.00     0.198 A 
ATOM     62  C   UNL A   1      33.656  34.653  31.388  1.00  0.00     0.198 A 
ATOM     63  F   UNL A   1      35.130  32.976  32.095  1.00  0.00    -0.203 F 
ATOM     64  F   UNL A   1      33.320  36.367  28.222  1.00  0.00    -0.200 F 
ATOM     65  C   UNL A   1      33.214  35.555  30.433  1.00  0.00     0.200 A 
ATOM     66  F   UNL A   1      33.166  34.719  32.634  1.00  0.00    -0.200 F 
ATOM     67  F   UNL A   1      32.343  36.520  30.763  1.00  0.00    -0.200 F 
ENDBRANCH  43  57
BRANCH  44  68
ATOM     68  C   UNL A   1      45.495  31.759  32.123  1.00  0.00     0.064 A 
ATOM     69  C   UNL A   1      46.116  31.931  33.364  1.00  0.00     0.173 A 
ATOM     70  C   UNL A   1      46.418  31.675  31.030  1.00  0.00     0.173 A 
ATOM     71  F   UNL A   1      45.390  32.161  34.464  1.00  0.00    -0.203 F 
ATOM     72  C   UNL A   1      47.523  31.886  33.508  1.00  0.00     0.198 A 
ATOM     73  C   UNL A   1      47.800  31.561  31.177  1.00  0.00     0.198 A 
ATOM     74  F   UNL A   1      46.010  31.700  29.754  1.00  0.00    -0.203 F 
ATOM     75  F   UNL A   1      48.076  32.058  34.717  1.00  0.00    -0.200 F 
ATOM     76  C   UNL A   1      48.357  31.648  32.425  1.00  0.00     0.200 A 
ATOM     77  F   UNL A   1      48.569  31.347  30.098  1.00  0.00    -0.200 F 
ATOM     78  F   UNL A   1      49.682  31.520  32.580  1.00  0.00    -0.200 F 
ENDBRANCH  44  68
BRANCH  56  79
ATOM     79  C   UNL A   1      39.682  32.814  33.489  1.00  0.00     0.064 A 
ATOM     80  C   UNL A   1      39.955  33.113  34.834  1.00  0.00     0.173 A 
ATOM     81  C   UNL A   1      39.051  31.578  33.261  1.00  0.00     0.173 A 
ATOM     82  F   UNL A   1      40.522  34.285  35.154  1.00  0.00    -0.203 F 
ATOM     83  C   UNL A   1      39.649  32.223  35.870  1.00  0.00     0.198 A 
ATOM     84  C   UNL A   1      38.747  30.682  34.292  1.00  0.00     0.198 A 
ATOM     85  F   UNL A   1      38.699  31.209  32.033  1.00  0.00    -0.203 F 
ATOM     86  F   UNL A   1      39.929  32.554  37.138  1.00  0.00    -0.200 F 
ATOM     87  C   UNL A   1      39.051  31.005  35.599  1.00  0.00     0.200 A 
ATOM     88  F   UNL A   1      38.148  29.513  34.013  1.00  0.00    -0.200 F 
ATOM     89  F   UNL A   1      38.749  30.157  36.593  1.00  0.00    -0.200 F 
ENDBRANCH  56  79
ENDBRANCH  30  31
ENDBRANCH  23  25
ENDBRANCH  22  23
ENDBRANCH  21  22
ENDBRANCH   1  21
TORSDOF 13
ENDMDL
MODEL 3
REMARK VINA RESULT:     -12.4      4.643      7.392
REMARK SMILES O=C(Cc1cccn1-c1ccc2c(c1)OCCO2)OCCOC(=O)c1ccc(-c2c3nc(c(-c4c(F)c(F)c(F)c(F)c4F)c4ccc([nH]4)c(-c4c(F)c(F)c(F)c(F)c4F)c4nc(c(-c5c(F)c(F)c(F)c(F)c5F)c5ccc2[nH]5)C=C4)C=C3)cc1
REMARK SMILES IDX 20 1 19 2 2 3 1 4 3 5 4 6 5 7 8 8 6 9 7 10 9 11 10 12 14 13
REMARK SMILES IDX 11 14 13 15 12 16 15 17 18 18 16 19 17 20 21 21 22 22 23 23
REMARK SMILES IDX 24 24 25 25 26 26 87 27 27 28 86 29 28 30 29 31 30 32 80 33
REMARK SMILES IDX 31 34 85 35 79 36 81 37 32 38 84 39 78 40 77 41 33 43 65 44
REMARK SMILES IDX 45 45 64 46 46 47 49 48 63 49 82 50 47 51 48 52 62 54 83 55
REMARK SMILES IDX 50 56 34 57 35 58 43 59 36 60 37 61 41 62 44 63 38 64 39 65
REMARK SMILES IDX 42 66 40 67 66 68 67 69 75 70 68 71 69 72 73 73 76 74 70 75
REMARK SMILES IDX 71 76 74 77 72 78 51 79 52 80 60 81 53 82 54 83 58 84 61 85
REMARK SMILES IDX 55 86 56 87 59 88 57 89
REMARK H PARENT 81 42 49 53
REMARK Flexibility Score: inf
ROOT
ATOM      1  C   UNL A   1      32.951  31.746  27.295  1.00  0.00     0.274 C 
ENDROOT
BRANCH   1   2
ATOM      2  O   UNL A   1      33.779  30.629  27.659  1.00  0.00    -0.462 OA
BRANCH   2   3
ATOM      3  C   UNL A   1      33.675  29.381  27.135  1.00  0.00     0.311 C 
ATOM      4  O   UNL A   1      34.668  28.845  26.642  1.00  0.00    -0.252 OA
BRANCH   3   5
ATOM      5  C   UNL A   1      32.317  28.690  27.094  1.00  0.00     0.177 C 
BRANCH   5   6
ATOM      6  C   UNL A   1      31.811  28.486  25.700  1.00  0.00     0.034 A 
ATOM      7  C   UNL A   1      31.145  29.415  24.914  1.00  0.00     0.024 A 
ATOM      8  N   UNL A   1      31.988  27.338  24.931  1.00  0.00    -0.320 N 
ATOM      9  C   UNL A   1      30.972  28.860  23.632  1.00  0.00     0.020 A 
ATOM     10  C   UNL A   1      31.537  27.607  23.656  1.00  0.00     0.091 A 
BRANCH   8  11
ATOM     11  C   UNL A   1      32.626  26.125  25.293  1.00  0.00     0.049 A 
ATOM     12  C   UNL A   1      33.953  25.930  24.882  1.00  0.00     0.031 A 
ATOM     13  C   UNL A   1      31.994  25.190  26.123  1.00  0.00     0.077 A 
ATOM     14  C   UNL A   1      34.674  24.838  25.368  1.00  0.00     0.052 A 
ATOM     15  C   UNL A   1      32.715  24.079  26.575  1.00  0.00     0.163 A 
ATOM     16  C   UNL A   1      34.055  23.913  26.207  1.00  0.00     0.161 A 
ATOM     17  O   UNL A   1      32.051  23.201  27.394  1.00  0.00    -0.486 OA
ATOM     18  O   UNL A   1      34.843  22.889  26.665  1.00  0.00    -0.486 OA
ATOM     19  C   UNL A   1      32.952  22.332  28.095  1.00  0.00     0.271 C 
ATOM     20  C   UNL A   1      34.060  21.815  27.191  1.00  0.00     0.271 C 
ENDBRANCH   8  11
ENDBRANCH   5   6
ENDBRANCH   3   5
ENDBRANCH   2   3
ENDBRANCH   1   2
BRANCH   1  21
ATOM     21  C   UNL A   1      33.492  33.114  27.695  1.00  0.00     0.275 C 
BRANCH  21  22
ATOM     22  O   UNL A   1      32.483  33.969  28.226  1.00  0.00    -0.458 OA
BRANCH  22  23
ATOM     23  C   UNL A   1      32.981  35.064  28.847  1.00  0.00     0.338 C 
ATOM     24  O   UNL A   1      32.632  36.214  28.694  1.00  0.00    -0.246 OA
BRANCH  23  25
ATOM     25  C   UNL A   1      34.128  34.688  29.678  1.00  0.00     0.060 A 
ATOM     26  C   UNL A   1      35.380  34.831  29.073  1.00  0.00     0.016 A 
ATOM     27  C   UNL A   1      33.955  33.986  30.878  1.00  0.00     0.016 A 
ATOM     28  C   UNL A   1      36.434  34.098  29.563  1.00  0.00     0.010 A 
ATOM     29  C   UNL A   1      35.007  33.231  31.358  1.00  0.00     0.010 A 
ATOM     30  C   UNL A   1      36.217  33.253  30.659  1.00  0.00    -0.014 A 
BRANCH  30  31
ATOM     31  C   UNL A   1      37.376  32.501  31.140  1.00  0.00     0.031 A 
ATOM     32  C   UNL A   1      37.556  31.241  30.261  1.00  0.00     0.074 A 
ATOM     33  C   UNL A   1      37.951  33.006  32.284  1.00  0.00     0.049 A 
ATOM     34  N   UNL A   1      38.078  30.094  30.554  1.00  0.00    -0.248 NA
ATOM     35  C   UNL A   1      37.023  31.222  28.863  1.00  0.00     0.031 C 
ATOM     36  C   UNL A   1      37.615  34.310  32.919  1.00  0.00     0.029 A 
ATOM     37  N   UNL A   1      38.908  32.542  33.165  1.00  0.00    -0.354 N 
ATOM     38  C   UNL A   1      38.147  29.327  29.368  1.00  0.00     0.074 A 
ATOM     39  C   UNL A   1      37.378  30.025  28.389  1.00  0.00     0.031 C 
ATOM     40  C   UNL A   1      38.260  34.470  34.100  1.00  0.00     0.029 A 
ATOM     41  C   UNL A   1      39.090  33.309  34.359  1.00  0.00     0.049 A 
ATOM     42  H   UNL A   1      39.435  31.730  32.981  1.00  0.00     0.167 HD
ATOM     43  C   UNL A   1      38.966  28.239  29.254  1.00  0.00     0.037 A 
ATOM     44  C   UNL A   1      39.815  32.988  35.483  1.00  0.00     0.037 A 
ATOM     45  C   UNL A   1      39.577  27.985  30.513  1.00  0.00     0.049 A 
ATOM     46  C   UNL A   1      40.521  31.766  35.089  1.00  0.00     0.074 A 
ATOM     47  C   UNL A   1      39.051  27.494  31.678  1.00  0.00     0.029 A 
ATOM     48  N   UNL A   1      40.741  28.664  30.779  1.00  0.00    -0.354 N 
ATOM     49  N   UNL A   1      41.521  31.738  34.261  1.00  0.00    -0.248 NA
ATOM     50  C   UNL A   1      40.001  30.477  35.552  1.00  0.00     0.031 C 
ATOM     51  C   UNL A   1      39.617  28.344  32.645  1.00  0.00     0.029 A 
ATOM     52  C   UNL A   1      40.683  29.062  32.089  1.00  0.00     0.049 A 
ATOM     53  H   UNL A   1      41.478  28.833  30.148  1.00  0.00     0.167 HD
ATOM     54  C   UNL A   1      41.498  30.432  33.845  1.00  0.00     0.074 A 
ATOM     55  C   UNL A   1      40.817  29.675  34.876  1.00  0.00     0.031 C 
ATOM     56  C   UNL A   1      41.513  30.159  32.514  1.00  0.00     0.037 A 
BRANCH  43  57
ATOM     57  C   UNL A   1      39.504  27.472  28.080  1.00  0.00     0.064 A 
ATOM     58  C   UNL A   1      39.633  26.064  28.218  1.00  0.00     0.173 A 
ATOM     59  C   UNL A   1      40.247  28.063  27.054  1.00  0.00     0.173 A 
ATOM     60  F   UNL A   1      38.911  25.393  29.131  1.00  0.00    -0.203 F 
ATOM     61  C   UNL A   1      40.576  25.336  27.502  1.00  0.00     0.198 A 
ATOM     62  C   UNL A   1      41.155  27.315  26.298  1.00  0.00     0.198 A 
ATOM     63  F   UNL A   1      40.194  29.382  26.832  1.00  0.00    -0.203 F 
ATOM     64  F   UNL A   1      40.782  24.043  27.791  1.00  0.00    -0.200 F 
ATOM     65  C   UNL A   1      41.355  25.968  26.556  1.00  0.00     0.200 A 
ATOM     66  F   UNL A   1      41.904  27.927  25.369  1.00  0.00    -0.200 F 
ATOM     67  F   UNL A   1      42.323  25.292  25.920  1.00  0.00    -0.200 F 
ENDBRANCH  43  57
BRANCH  44  68
ATOM     68  C   UNL A   1      40.038  33.421  36.926  1.00  0.00     0.064 A 
ATOM     69  C   UNL A   1      41.136  34.126  37.430  1.00  0.00     0.173 A 
ATOM     70  C   UNL A   1      39.011  33.193  37.898  1.00  0.00     0.173 A 
ATOM     71  F   UNL A   1      42.234  34.302  36.686  1.00  0.00    -0.203 F 
ATOM     72  C   UNL A   1      41.140  34.665  38.739  1.00  0.00     0.198 A 
ATOM     73  C   UNL A   1      38.982  33.780  39.163  1.00  0.00     0.198 A 
ATOM     74  F   UNL A   1      37.975  32.378  37.657  1.00  0.00    -0.203 F 
ATOM     75  F   UNL A   1      42.214  35.333  39.182  1.00  0.00    -0.200 F 
ATOM     76  C   UNL A   1      40.044  34.538  39.580  1.00  0.00     0.200 A 
ATOM     77  F   UNL A   1      37.908  33.616  39.949  1.00  0.00    -0.200 F 
ATOM     78  F   UNL A   1      40.019  35.124  40.785  1.00  0.00    -0.200 F 
ENDBRANCH  44  68
BRANCH  56  79
ATOM     79  C   UNL A   1      42.099  31.263  31.647  1.00  0.00     0.064 A 
ATOM     80  C   UNL A   1      43.451  31.615  31.793  1.00  0.00     0.173 A 
ATOM     81  C   UNL A   1      41.357  32.067  30.763  1.00  0.00     0.173 A 
ATOM     82  F   UNL A   1      44.247  30.884  32.587  1.00  0.00    -0.203 F 
ATOM     83  C   UNL A   1      44.008  32.713  31.129  1.00  0.00     0.198 A 
ATOM     84  C   UNL A   1      41.909  33.170  30.099  1.00  0.00     0.198 A 
ATOM     85  F   UNL A   1      40.080  31.800  30.506  1.00  0.00    -0.203 F 
ATOM     86  F   UNL A   1      45.304  33.009  31.301  1.00  0.00    -0.200 F 
ATOM     87  C   UNL A   1      43.236  33.495  30.287  1.00  0.00     0.200 A 
ATOM     88  F   UNL A   1      41.150  33.905  29.271  1.00  0.00    -0.200 F 
ATOM     89  F   UNL A   1      43.774  34.541  29.644  1.00  0.00    -0.200 F 
ENDBRANCH  56  79
ENDBRANCH  30  31
ENDBRANCH  23  25
ENDBRANCH  22  23
ENDBRANCH  21  22
ENDBRANCH   1  21
TORSDOF 13
ENDMDL
