MODEL 1
REMARK VINA RESULT:     -12.4      0.000      0.000
REMARK SMILES C[C@@]([NH2+]CC(=O)Nc1cccc(F)c1)(C(=O)OCCOC(=O)c1ccc(-c2c3nc(c(-c4c(F)c(F)c(F)c(F)c4F)c4ccc([nH]4)c(-c4c(F)c(F)c(F)c(F)c4F)c4nc(c(-c5c(F)c(F)c(F)c(F)c5F)c5ccc2[nH]5)C=C4)C=C3)cc1)C(F)(F)F
REMARK SMILES IDX 18 1 17 2 15 3 16 4 2 5 1 6 3 7 4 10 5 11 6 12 7 13 8 15
REMARK SMILES IDX 9 16 14 17 10 18 12 19 11 20 13 21 86 22 87 23 88 24 89 25
REMARK SMILES IDX 19 26 20 27 21 28 22 29 23 30 24 31 85 32 25 33 84 34 26 35
REMARK SMILES IDX 27 36 28 37 78 38 29 39 83 40 77 41 79 42 30 43 82 44 76 45
REMARK SMILES IDX 75 46 31 48 63 49 43 50 62 51 44 52 47 53 61 54 80 55 45 56
REMARK SMILES IDX 46 57 60 59 81 60 48 61 32 62 33 63 41 64 34 65 35 66 39 67
REMARK SMILES IDX 42 68 36 69 37 70 40 71 38 72 64 73 65 74 73 75 66 76 67 77
REMARK SMILES IDX 71 78 74 79 68 80 69 81 72 82 70 83 49 84 50 85 58 86 51 87
REMARK SMILES IDX 52 88 56 89 59 90 53 91 54 92 57 93 55 94
REMARK H PARENT 3 8 3 9 7 14 79 47 47 58
REMARK Flexibility Score: inf
ROOT
ATOM      1  C   UNL A   1      31.779  28.954  26.488  1.00  0.00     0.274 C 
ENDROOT
BRANCH   1   2
ATOM      2  O   UNL A   1      32.713  27.925  26.022  1.00  0.00    -0.457 OA
BRANCH   2   3
ATOM      3  C   UNL A   1      32.207  26.663  26.125  1.00  0.00     0.377 C 
ATOM      4  O   UNL A   1      31.305  26.485  26.948  1.00  0.00    -0.244 OA
BRANCH   3   5
ATOM      5  C   UNL A   1      32.989  25.442  25.357  1.00  0.00     0.287 C 
ATOM      6  C   UNL A   1      31.882  24.690  24.591  1.00  0.00     0.103 C 
BRANCH   5   7
ATOM      7  N   UNL A   1      33.955  26.231  24.524  1.00  0.00    -0.317 N 
ATOM      8  H   UNL A   1      34.864  25.769  24.549  1.00  0.00     0.347 HD
ATOM      9  H   UNL A   1      34.008  27.172  24.911  1.00  0.00     0.347 HD
BRANCH   7  10
ATOM     10  C   UNL A   1      33.508  26.345  23.086  1.00  0.00     0.363 C 
BRANCH  10  11
ATOM     11  C   UNL A   1      33.255  27.702  22.310  1.00  0.00     0.279 C 
ATOM     12  O   UNL A   1      34.216  28.082  21.603  1.00  0.00    -0.268 OA
ATOM     13  N   UNL A   1      32.133  28.471  22.093  1.00  0.00    -0.321 N 
ATOM     14  H   UNL A   1      32.327  29.060  21.328  1.00  0.00     0.170 HD
BRANCH  13  15
ATOM     15  C   UNL A   1      30.784  28.765  22.532  1.00  0.00     0.044 A 
ATOM     16  C   UNL A   1      29.716  30.161  21.952  1.00  0.00     0.026 A 
ATOM     17  C   UNL A   1      29.975  27.324  23.273  1.00  0.00     0.065 A 
ATOM     18  C   UNL A   1      27.886  30.096  22.127  1.00  0.00     0.005 A 
ATOM     19  C   UNL A   1      28.199  27.364  23.656  1.00  0.00     0.125 A 
ATOM     20  C   UNL A   1      27.155  28.754  23.102  1.00  0.00     0.039 A 
ATOM     21  F   UNL A   1      27.625  26.304  24.241  1.00  0.00    -0.207 F 
ENDBRANCH  13  15
ENDBRANCH  10  11
ENDBRANCH   7  10
ENDBRANCH   5   7
BRANCH   5  22
ATOM     22  C   UNL A   1      33.901  24.194  25.786  1.00  0.00     0.455 C 
ATOM     23  F   UNL A   1      33.768  23.779  27.066  1.00  0.00    -0.164 F 
ATOM     24  F   UNL A   1      33.472  23.103  25.057  1.00  0.00    -0.164 F 
ATOM     25  F   UNL A   1      35.215  24.256  25.522  1.00  0.00    -0.164 F 
ENDBRANCH   5  22
ENDBRANCH   3   5
ENDBRANCH   2   3
ENDBRANCH   1   2
BRANCH   1  26
ATOM     26  C   UNL A   1      31.836  30.309  25.753  1.00  0.00     0.275 C 
BRANCH  26  27
ATOM     27  O   UNL A   1      31.521  31.452  26.592  1.00  0.00    -0.458 OA
BRANCH  27  28
ATOM     28  C   UNL A   1      32.660  32.170  27.206  1.00  0.00     0.338 C 
ATOM     29  O   UNL A   1      32.206  33.356  27.217  1.00  0.00    -0.246 OA
BRANCH  28  30
ATOM     30  C   UNL A   1      34.531  31.359  27.861  1.00  0.00     0.060 A 
ATOM     31  C   UNL A   1      35.839  32.103  28.207  1.00  0.00     0.016 A 
ATOM     32  C   UNL A   1      34.968  29.927  28.084  1.00  0.00     0.016 A 
ATOM     33  C   UNL A   1      36.990  31.665  28.829  1.00  0.00     0.010 A 
ATOM     34  C   UNL A   1      36.114  29.457  28.738  1.00  0.00     0.010 A 
ATOM     35  C   UNL A   1      37.063  30.351  29.174  1.00  0.00    -0.014 A 
BRANCH  35  36
ATOM     36  C   UNL A   1      38.234  29.929  29.902  1.00  0.00     0.031 A 
ATOM     37  C   UNL A   1      38.386  30.461  31.270  1.00  0.00     0.074 A 
ATOM     38  C   UNL A   1      39.022  29.018  29.313  1.00  0.00     0.049 A 
ATOM     39  N   UNL A   1      39.373  30.300  32.094  1.00  0.00    -0.248 NA
ATOM     40  C   UNL A   1      37.280  31.294  31.787  1.00  0.00     0.031 C 
ATOM     41  C   UNL A   1      38.776  28.413  27.996  1.00  0.00     0.029 A 
ATOM     42  N   UNL A   1      40.167  28.428  29.744  1.00  0.00    -0.354 N 
ATOM     43  C   UNL A   1      39.024  31.028  33.215  1.00  0.00     0.074 A 
ATOM     44  C   UNL A   1      37.750  31.658  32.967  1.00  0.00     0.031 C 
ATOM     45  C   UNL A   1      39.751  27.531  27.733  1.00  0.00     0.029 A 
ATOM     46  C   UNL A   1      40.712  27.569  28.825  1.00  0.00     0.049 A 
ATOM     47  H   UNL A   1      40.566  28.600  30.627  1.00  0.00     0.167 HD
ATOM     48  C   UNL A   1      39.741  31.134  34.348  1.00  0.00     0.037 A 
ATOM     49  C   UNL A   1      41.892  26.930  28.876  1.00  0.00     0.037 A 
ATOM     50  C   UNL A   1      40.999  30.466  34.507  1.00  0.00     0.049 A 
ATOM     51  C   UNL A   1      42.713  27.150  30.117  1.00  0.00     0.074 A 
ATOM     52  C   UNL A   1      41.861  30.499  35.581  1.00  0.00     0.029 A 
ATOM     53  N   UNL A   1      41.572  29.638  33.543  1.00  0.00    -0.354 N 
ATOM     54  N   UNL A   1      42.417  27.868  31.179  1.00  0.00    -0.248 NA
ATOM     55  C   UNL A   1      44.019  26.495  30.177  1.00  0.00     0.031 C 
ATOM     56  C   UNL A   1      42.988  29.753  35.238  1.00  0.00     0.029 A 
ATOM     57  C   UNL A   1      42.796  29.180  33.985  1.00  0.00     0.049 A 
ATOM     58  H   UNL A   1      41.164  29.414  32.676  1.00  0.00     0.167 HD
ATOM     59  C   UNL A   1      43.487  27.736  32.045  1.00  0.00     0.074 A 
ATOM     60  C   UNL A   1      44.435  26.854  31.384  1.00  0.00     0.031 C 
ATOM     61  C   UNL A   1      43.681  28.287  33.269  1.00  0.00     0.037 A 
BRANCH  48  62
ATOM     62  C   UNL A   1      39.215  32.028  35.421  1.00  0.00     0.064 A 
ATOM     63  C   UNL A   1      39.521  33.396  35.398  1.00  0.00     0.173 A 
ATOM     64  C   UNL A   1      38.418  31.547  36.469  1.00  0.00     0.173 A 
ATOM     65  F   UNL A   1      40.249  33.910  34.397  1.00  0.00    -0.203 F 
ATOM     66  C   UNL A   1      39.076  34.244  36.407  1.00  0.00     0.198 A 
ATOM     67  C   UNL A   1      37.946  32.405  37.459  1.00  0.00     0.198 A 
ATOM     68  F   UNL A   1      38.054  30.256  36.507  1.00  0.00    -0.203 F 
ATOM     69  F   UNL A   1      39.407  35.542  36.381  1.00  0.00    -0.200 F 
ATOM     70  C   UNL A   1      38.290  33.749  37.435  1.00  0.00     0.200 A 
ATOM     71  F   UNL A   1      37.148  31.935  38.426  1.00  0.00    -0.200 F 
ATOM     72  F   UNL A   1      37.854  34.570  38.401  1.00  0.00    -0.200 F 
ENDBRANCH  48  62
BRANCH  49  73
ATOM     73  C   UNL A   1      42.334  26.090  27.736  1.00  0.00     0.064 A 
ATOM     74  C   UNL A   1      43.204  26.592  26.753  1.00  0.00     0.173 A 
ATOM     75  C   UNL A   1      41.859  24.783  27.570  1.00  0.00     0.173 A 
ATOM     76  F   UNL A   1      43.685  27.841  26.854  1.00  0.00    -0.203 F 
ATOM     77  C   UNL A   1      43.562  25.830  25.642  1.00  0.00     0.198 A 
ATOM     78  C   UNL A   1      42.243  24.009  26.475  1.00  0.00     0.198 A 
ATOM     79  F   UNL A   1      41.032  24.251  28.482  1.00  0.00    -0.203 F 
ATOM     80  F   UNL A   1      44.360  26.353  24.702  1.00  0.00    -0.200 F 
ATOM     81  C   UNL A   1      43.086  24.535  25.508  1.00  0.00     0.200 A 
ATOM     82  F   UNL A   1      41.798  22.751  26.359  1.00  0.00    -0.200 F 
ATOM     83  F   UNL A   1      43.443  23.796  24.450  1.00  0.00    -0.200 F 
ENDBRANCH  49  73
BRANCH  61  84
ATOM     84  C   UNL A   1      44.949  27.933  33.979  1.00  0.00     0.064 A 
ATOM     85  C   UNL A   1      44.976  26.838  34.855  1.00  0.00     0.173 A 
ATOM     86  C   UNL A   1      46.079  28.757  33.904  1.00  0.00     0.173 A 
ATOM     87  F   UNL A   1      43.905  26.036  34.969  1.00  0.00    -0.203 F 
ATOM     88  C   UNL A   1      46.078  26.605  35.666  1.00  0.00     0.198 A 
ATOM     89  C   UNL A   1      47.197  28.494  34.686  1.00  0.00     0.198 A 
ATOM     90  F   UNL A   1      46.096  29.808  33.071  1.00  0.00    -0.203 F 
ATOM     91  F   UNL A   1      46.054  25.599  36.552  1.00  0.00    -0.200 F 
ATOM     92  C   UNL A   1      47.188  27.431  35.579  1.00  0.00     0.200 A 
ATOM     93  F   UNL A   1      48.280  29.277  34.585  1.00  0.00    -0.200 F 
ATOM     94  F   UNL A   1      48.250  27.207  36.363  1.00  0.00    -0.200 F 
ENDBRANCH  61  84
ENDBRANCH  35  36
ENDBRANCH  28  30
ENDBRANCH  27  28
ENDBRANCH  26  27
ENDBRANCH   1  26
TORSDOF 16
ENDMDL
MODEL 2
REMARK VINA RESULT:     -12.2      1.675      4.029
REMARK SMILES C[C@@]([NH2+]CC(=O)Nc1cccc(F)c1)(C(=O)OCCOC(=O)c1ccc(-c2c3nc(c(-c4c(F)c(F)c(F)c(F)c4F)c4ccc([nH]4)c(-c4c(F)c(F)c(F)c(F)c4F)c4nc(c(-c5c(F)c(F)c(F)c(F)c5F)c5ccc2[nH]5)C=C4)C=C3)cc1)C(F)(F)F
REMARK SMILES IDX 18 1 17 2 15 3 16 4 2 5 1 6 3 7 4 10 5 11 6 12 7 13 8 15
REMARK SMILES IDX 9 16 14 17 10 18 12 19 11 20 13 21 86 22 87 23 88 24 89 25
REMARK SMILES IDX 19 26 20 27 21 28 22 29 23 30 24 31 85 32 25 33 84 34 26 35
REMARK SMILES IDX 27 36 28 37 78 38 29 39 83 40 77 41 79 42 30 43 82 44 76 45
REMARK SMILES IDX 75 46 31 48 63 49 43 50 62 51 44 52 47 53 61 54 80 55 45 56
REMARK SMILES IDX 46 57 60 59 81 60 48 61 32 62 33 63 41 64 34 65 35 66 39 67
REMARK SMILES IDX 42 68 36 69 37 70 40 71 38 72 64 73 65 74 73 75 66 76 67 77
REMARK SMILES IDX 71 78 74 79 68 80 69 81 72 82 70 83 49 84 50 85 58 86 51 87
REMARK SMILES IDX 52 88 56 89 59 90 53 91 54 92 57 93 55 94
REMARK H PARENT 3 8 3 9 7 14 79 47 47 58
REMARK Flexibility Score: inf
ROOT
ATOM      1  C   UNL A   1      32.015  30.148  25.797  1.00  0.00     0.274 C 
ENDROOT
BRANCH   1   2
ATOM      2  O   UNL A   1      32.571  28.913  26.359  1.00  0.00    -0.457 OA
BRANCH   2   3
ATOM      3  C   UNL A   1      31.616  27.979  26.635  1.00  0.00     0.377 C 
ATOM      4  O   UNL A   1      31.318  27.815  27.820  1.00  0.00    -0.244 OA
BRANCH   3   5
ATOM      5  C   UNL A   1      31.131  26.978  25.429  1.00  0.00     0.287 C 
ATOM      6  C   UNL A   1      32.438  26.518  24.753  1.00  0.00     0.103 C 
BRANCH   5   7
ATOM      7  N   UNL A   1      30.393  25.943  26.224  1.00  0.00    -0.317 N 
ATOM      8  H   UNL A   1      29.391  26.085  26.102  1.00  0.00     0.347 HD
ATOM      9  H   UNL A   1      30.666  26.046  27.202  1.00  0.00     0.347 HD
BRANCH   7  10
ATOM     10  C   UNL A   1      30.740  24.538  25.792  1.00  0.00     0.363 C 
BRANCH  10  11
ATOM     11  C   UNL A   1      31.478  23.460  26.687  1.00  0.00     0.279 C 
ATOM     12  O   UNL A   1      30.791  23.012  27.632  1.00  0.00    -0.268 OA
ATOM     13  N   UNL A   1      32.658  22.762  26.545  1.00  0.00    -0.321 N 
ATOM     14  H   UNL A   1      32.612  21.987  27.149  1.00  0.00     0.170 HD
BRANCH  13  15
ATOM     15  C   UNL A   1      33.937  22.706  25.868  1.00  0.00     0.044 A 
ATOM     16  C   UNL A   1      35.185  24.069  25.753  1.00  0.00     0.026 A 
ATOM     17  C   UNL A   1      34.510  21.004  25.624  1.00  0.00     0.065 A 
ATOM     18  C   UNL A   1      36.954  23.713  25.395  1.00  0.00     0.005 A 
ATOM     19  C   UNL A   1      36.200  20.678  25.043  1.00  0.00     0.125 A 
ATOM     20  C   UNL A   1      37.419  22.030  24.909  1.00  0.00     0.039 A 
ATOM     21  F   UNL A   1      36.594  19.415  24.829  1.00  0.00    -0.207 F 
ENDBRANCH  13  15
ENDBRANCH  10  11
ENDBRANCH   7  10
ENDBRANCH   5   7
BRANCH   5  22
ATOM     22  C   UNL A   1      30.194  27.092  24.130  1.00  0.00     0.455 C 
ATOM     23  F   UNL A   1      30.562  26.340  23.069  1.00  0.00    -0.164 F 
ATOM     24  F   UNL A   1      28.960  26.574  24.470  1.00  0.00    -0.164 F 
ATOM     25  F   UNL A   1      29.907  28.319  23.669  1.00  0.00    -0.164 F 
ENDBRANCH   5  22
ENDBRANCH   3   5
ENDBRANCH   2   3
ENDBRANCH   1   2
BRANCH   1  26
ATOM     26  C   UNL A   1      31.424  31.151  26.808  1.00  0.00     0.275 C 
BRANCH  26  27
ATOM     27  O   UNL A   1      31.846  32.525  26.597  1.00  0.00    -0.458 OA
BRANCH  27  28
ATOM     28  C   UNL A   1      32.916  33.041  27.479  1.00  0.00     0.338 C 
ATOM     29  O   UNL A   1      32.465  34.202  27.732  1.00  0.00    -0.246 OA
BRANCH  28  30
ATOM     30  C   UNL A   1      34.708  32.047  28.100  1.00  0.00     0.060 A 
ATOM     31  C   UNL A   1      36.100  32.651  28.386  1.00  0.00     0.016 A 
ATOM     32  C   UNL A   1      34.994  30.582  28.351  1.00  0.00     0.016 A 
ATOM     33  C   UNL A   1      37.216  32.106  28.986  1.00  0.00     0.010 A 
ATOM     34  C   UNL A   1      36.102  30.005  28.985  1.00  0.00     0.010 A 
ATOM     35  C   UNL A   1      37.156  30.801  29.367  1.00  0.00    -0.014 A 
BRANCH  35  36
ATOM     36  C   UNL A   1      38.299  30.271  30.071  1.00  0.00     0.031 A 
ATOM     37  C   UNL A   1      38.473  30.715  31.467  1.00  0.00     0.074 A 
ATOM     38  C   UNL A   1      39.035  29.352  29.432  1.00  0.00     0.049 A 
ATOM     39  N   UNL A   1      39.446  30.450  32.283  1.00  0.00    -0.248 NA
ATOM     40  C   UNL A   1      37.415  31.579  32.029  1.00  0.00     0.031 C 
ATOM     41  C   UNL A   1      38.762  28.838  28.082  1.00  0.00     0.029 A 
ATOM     42  N   UNL A   1      40.142  28.673  29.831  1.00  0.00    -0.354 N 
ATOM     43  C   UNL A   1      39.133  31.133  33.442  1.00  0.00     0.074 A 
ATOM     44  C   UNL A   1      37.899  31.848  33.229  1.00  0.00     0.031 C 
ATOM     45  C   UNL A   1      39.686  27.917  27.771  1.00  0.00     0.029 A 
ATOM     46  C   UNL A   1      40.642  27.837  28.865  1.00  0.00     0.049 A 
ATOM     47  H   UNL A   1      40.546  28.771  30.722  1.00  0.00     0.167 HD
ATOM     48  C   UNL A   1      39.850  31.132  34.581  1.00  0.00     0.037 A 
ATOM     49  C   UNL A   1      41.783  27.130  28.881  1.00  0.00     0.037 A 
ATOM     50  C   UNL A   1      41.067  30.384  34.704  1.00  0.00     0.049 A 
ATOM     51  C   UNL A   1      42.608  27.231  30.134  1.00  0.00     0.074 A 
ATOM     52  C   UNL A   1      41.923  30.307  35.779  1.00  0.00     0.029 A 
ATOM     53  N   UNL A   1      41.596  29.582  33.694  1.00  0.00    -0.354 N 
ATOM     54  N   UNL A   1      42.349  27.903  31.235  1.00  0.00    -0.248 NA
ATOM     55  C   UNL A   1      43.875  26.499  30.158  1.00  0.00     0.031 C 
ATOM     56  C   UNL A   1      43.008  29.517  35.396  1.00  0.00     0.029 A 
ATOM     57  C   UNL A   1      42.790  29.029  34.111  1.00  0.00     0.049 A 
ATOM     58  H   UNL A   1      41.180  29.431  32.816  1.00  0.00     0.167 HD
ATOM     59  C   UNL A   1      43.406  27.660  32.094  1.00  0.00     0.074 A 
ATOM     60  C   UNL A   1      44.305  26.764  31.385  1.00  0.00     0.031 C 
ATOM     61  C   UNL A   1      43.625  28.129  33.348  1.00  0.00     0.037 A 
BRANCH  48  62
ATOM     62  C   UNL A   1      39.371  31.993  35.702  1.00  0.00     0.064 A 
ATOM     63  C   UNL A   1      38.440  31.485  36.620  1.00  0.00     0.173 A 
ATOM     64  C   UNL A   1      39.820  33.309  35.877  1.00  0.00     0.173 A 
ATOM     65  F   UNL A   1      38.009  30.220  36.517  1.00  0.00    -0.203 F 
ATOM     66  C   UNL A   1      37.949  32.278  37.651  1.00  0.00     0.198 A 
ATOM     67  C   UNL A   1      39.351  34.089  36.931  1.00  0.00     0.198 A 
ATOM     68  F   UNL A   1      40.749  33.823  35.057  1.00  0.00    -0.203 F 
ATOM     69  F   UNL A   1      37.036  31.782  38.497  1.00  0.00    -0.200 F 
ATOM     70  C   UNL A   1      38.404  33.578  37.806  1.00  0.00     0.200 A 
ATOM     71  F   UNL A   1      39.827  35.329  37.107  1.00  0.00    -0.200 F 
ATOM     72  F   UNL A   1      37.937  34.337  38.807  1.00  0.00    -0.200 F 
ENDBRANCH  48  62
BRANCH  49  73
ATOM     73  C   UNL A   1      42.181  26.331  27.696  1.00  0.00     0.064 A 
ATOM     74  C   UNL A   1      41.653  25.049  27.468  1.00  0.00     0.173 A 
ATOM     75  C   UNL A   1      43.139  26.804  26.790  1.00  0.00     0.173 A 
ATOM     76  F   UNL A   1      40.739  24.538  28.308  1.00  0.00    -0.203 F 
ATOM     77  C   UNL A   1      42.081  24.267  26.397  1.00  0.00     0.198 A 
ATOM     78  C   UNL A   1      43.543  26.035  25.700  1.00  0.00     0.198 A 
ATOM     79  F   UNL A   1      43.671  28.024  26.956  1.00  0.00    -0.203 F 
ATOM     80  F   UNL A   1      41.588  23.032  26.232  1.00  0.00    -0.200 F 
ATOM     81  C   UNL A   1      43.021  24.764  25.509  1.00  0.00     0.200 A 
ATOM     82  F   UNL A   1      44.436  26.526  24.831  1.00  0.00    -0.200 F 
ATOM     83  F   UNL A   1      43.421  24.020  24.469  1.00  0.00    -0.200 F 
ENDBRANCH  49  73
BRANCH  61  84
ATOM     84  C   UNL A   1      44.867  27.663  34.038  1.00  0.00     0.064 A 
ATOM     85  C   UNL A   1      46.072  28.355  33.850  1.00  0.00     0.173 A 
ATOM     86  C   UNL A   1      44.891  26.462  34.757  1.00  0.00     0.173 A 
ATOM     87  F   UNL A   1      46.093  29.501  33.151  1.00  0.00    -0.203 F 
ATOM     88  C   UNL A   1      47.269  27.836  34.323  1.00  0.00     0.198 A 
ATOM     89  C   UNL A   1      46.087  25.968  35.266  1.00  0.00     0.198 A 
ATOM     90  F   UNL A   1      43.758  25.775  34.967  1.00  0.00    -0.203 F 
ATOM     91  F   UNL A   1      48.421  28.473  34.067  1.00  0.00    -0.200 F 
ATOM     92  C   UNL A   1      47.275  26.645  35.032  1.00  0.00     0.200 A 
ATOM     93  F   UNL A   1      46.090  24.829  35.973  1.00  0.00    -0.200 F 
ATOM     94  F   UNL A   1      48.431  26.143  35.486  1.00  0.00    -0.200 F 
ENDBRANCH  61  84
ENDBRANCH  35  36
ENDBRANCH  28  30
ENDBRANCH  27  28
ENDBRANCH  26  27
ENDBRANCH   1  26
TORSDOF 16
ENDMDL
MODEL 3
REMARK VINA RESULT:     -12.1      1.547      3.505
REMARK SMILES C[C@@]([NH2+]CC(=O)Nc1cccc(F)c1)(C(=O)OCCOC(=O)c1ccc(-c2c3nc(c(-c4c(F)c(F)c(F)c(F)c4F)c4ccc([nH]4)c(-c4c(F)c(F)c(F)c(F)c4F)c4nc(c(-c5c(F)c(F)c(F)c(F)c5F)c5ccc2[nH]5)C=C4)C=C3)cc1)C(F)(F)F
REMARK SMILES IDX 18 1 17 2 15 3 16 4 2 5 1 6 3 7 4 10 5 11 6 12 7 13 8 15
REMARK SMILES IDX 9 16 14 17 10 18 12 19 11 20 13 21 86 22 87 23 88 24 89 25
REMARK SMILES IDX 19 26 20 27 21 28 22 29 23 30 24 31 85 32 25 33 84 34 26 35
REMARK SMILES IDX 27 36 28 37 78 38 29 39 83 40 77 41 79 42 30 43 82 44 76 45
REMARK SMILES IDX 75 46 31 48 63 49 43 50 62 51 44 52 47 53 61 54 80 55 45 56
REMARK SMILES IDX 46 57 60 59 81 60 48 61 32 62 33 63 41 64 34 65 35 66 39 67
REMARK SMILES IDX 42 68 36 69 37 70 40 71 38 72 64 73 65 74 73 75 66 76 67 77
REMARK SMILES IDX 71 78 74 79 68 80 69 81 72 82 70 83 49 84 50 85 58 86 51 87
REMARK SMILES IDX 52 88 56 89 59 90 53 91 54 92 57 93 55 94
REMARK H PARENT 3 8 3 9 7 14 79 47 47 58
REMARK Flexibility Score: inf
ROOT
ATOM      1  C   UNL A   1      31.948  30.384  26.572  1.00  0.00     0.274 C 
ENDROOT
BRANCH   1   2
ATOM      2  O   UNL A   1      32.455  30.067  25.234  1.00  0.00    -0.457 OA
BRANCH   2   3
ATOM      3  C   UNL A   1      31.761  29.061  24.627  1.00  0.00     0.377 C 
ATOM      4  O   UNL A   1      30.680  29.358  24.112  1.00  0.00    -0.244 OA
BRANCH   3   5
ATOM      5  C   UNL A   1      32.270  27.518  24.846  1.00  0.00     0.287 C 
ATOM      6  C   UNL A   1      30.980  26.674  24.832  1.00  0.00     0.103 C 
BRANCH   5   7
ATOM      7  N   UNL A   1      33.176  27.367  23.659  1.00  0.00    -0.317 N 
ATOM      8  H   UNL A   1      33.932  26.728  23.902  1.00  0.00     0.347 HD
ATOM      9  H   UNL A   1      33.534  28.291  23.420  1.00  0.00     0.347 HD
BRANCH   7  10
ATOM     10  C   UNL A   1      32.449  26.824  22.453  1.00  0.00     0.363 C 
BRANCH  10  11
ATOM     11  C   UNL A   1      32.903  25.573  21.595  1.00  0.00     0.279 C 
ATOM     12  O   UNL A   1      33.055  25.807  20.375  1.00  0.00    -0.268 OA
ATOM     13  N   UNL A   1      33.351  24.312  21.927  1.00  0.00    -0.321 N 
ATOM     14  H   UNL A   1      33.807  23.948  21.134  1.00  0.00     0.170 HD
BRANCH  13  15
ATOM     15  C   UNL A   1      33.424  23.307  22.967  1.00  0.00     0.044 A 
ATOM     16  C   UNL A   1      32.154  22.013  23.340  1.00  0.00     0.026 A 
ATOM     17  C   UNL A   1      35.124  23.018  23.523  1.00  0.00     0.065 A 
ATOM     18  C   UNL A   1      32.597  20.480  24.255  1.00  0.00     0.005 A 
ATOM     19  C   UNL A   1      35.506  21.623  24.622  1.00  0.00     0.125 A 
ATOM     20  C   UNL A   1      34.243  20.362  25.006  1.00  0.00     0.039 A 
ATOM     21  F   UNL A   1      36.761  21.447  25.056  1.00  0.00    -0.207 F 
ENDBRANCH  13  15
ENDBRANCH  10  11
ENDBRANCH   7  10
ENDBRANCH   5   7
BRANCH   5  22
ATOM     22  C   UNL A   1      33.094  26.713  25.964  1.00  0.00     0.455 C 
ATOM     23  F   UNL A   1      34.080  25.909  25.507  1.00  0.00    -0.164 F 
ATOM     24  F   UNL A   1      33.776  27.646  26.721  1.00  0.00    -0.164 F 
ATOM     25  F   UNL A   1      32.399  26.013  26.873  1.00  0.00    -0.164 F 
ENDBRANCH   5  22
ENDBRANCH   3   5
ENDBRANCH   2   3
ENDBRANCH   1   2
BRANCH   1  26
ATOM     26  C   UNL A   1      31.218  31.734  26.722  1.00  0.00     0.275 C 
BRANCH  26  27
ATOM     27  O   UNL A   1      32.065  32.894  26.505  1.00  0.00    -0.458 OA
BRANCH  27  28
ATOM     28  C   UNL A   1      33.003  33.254  27.592  1.00  0.00     0.338 C 
ATOM     29  O   UNL A   1      32.476  34.335  28.001  1.00  0.00    -0.246 OA
BRANCH  28  30
ATOM     30  C   UNL A   1      34.751  32.195  28.230  1.00  0.00     0.060 A 
ATOM     31  C   UNL A   1      36.165  32.746  28.514  1.00  0.00     0.016 A 
ATOM     32  C   UNL A   1      34.977  30.723  28.497  1.00  0.00     0.016 A 
ATOM     33  C   UNL A   1      37.257  32.162  29.124  1.00  0.00     0.010 A 
ATOM     34  C   UNL A   1      36.059  30.108  29.140  1.00  0.00     0.010 A 
ATOM     35  C   UNL A   1      37.144  30.865  29.518  1.00  0.00    -0.014 A 
BRANCH  35  36
ATOM     36  C   UNL A   1      38.261  30.297  30.231  1.00  0.00     0.031 A 
ATOM     37  C   UNL A   1      38.414  30.702  31.642  1.00  0.00     0.074 A 
ATOM     38  C   UNL A   1      38.996  29.382  29.584  1.00  0.00     0.049 A 
ATOM     39  N   UNL A   1      39.364  30.399  32.470  1.00  0.00    -0.248 NA
ATOM     40  C   UNL A   1      37.359  31.570  32.204  1.00  0.00     0.031 C 
ATOM     41  C   UNL A   1      38.742  28.908  28.216  1.00  0.00     0.029 A 
ATOM     42  N   UNL A   1      40.082  28.674  29.988  1.00  0.00    -0.354 N 
ATOM     43  C   UNL A   1      39.039  31.057  33.641  1.00  0.00     0.074 A 
ATOM     44  C   UNL A   1      37.822  31.798  33.421  1.00  0.00     0.031 C 
ATOM     45  C   UNL A   1      39.657  27.979  27.899  1.00  0.00     0.029 A 
ATOM     46  C   UNL A   1      40.588  27.855  29.011  1.00  0.00     0.049 A 
ATOM     47  H   UNL A   1      40.469  28.742  30.890  1.00  0.00     0.167 HD
ATOM     48  C   UNL A   1      39.731  31.014  34.793  1.00  0.00     0.037 A 
ATOM     49  C   UNL A   1      41.716  27.128  29.033  1.00  0.00     0.037 A 
ATOM     50  C   UNL A   1      40.932  30.242  34.922  1.00  0.00     0.049 A 
ATOM     51  C   UNL A   1      42.517  27.182  30.304  1.00  0.00     0.074 A 
ATOM     52  C   UNL A   1      41.764  30.122  36.013  1.00  0.00     0.029 A 
ATOM     53  N   UNL A   1      41.469  29.457  33.903  1.00  0.00    -0.354 N 
ATOM     54  N   UNL A   1      42.246  27.829  31.417  1.00  0.00    -0.248 NA
ATOM     55  C   UNL A   1      43.770  26.427  30.336  1.00  0.00     0.031 C 
ATOM     56  C   UNL A   1      42.843  29.324  35.631  1.00  0.00     0.029 A 
ATOM     57  C   UNL A   1      42.644  28.873  34.330  1.00  0.00     0.049 A 
ATOM     58  H   UNL A   1      41.069  29.336  33.013  1.00  0.00     0.167 HD
ATOM     59  C   UNL A   1      43.279  27.546  32.291  1.00  0.00     0.074 A 
ATOM     60  C   UNL A   1      44.178  26.654  31.578  1.00  0.00     0.031 C 
ATOM     61  C   UNL A   1      43.480  27.979  33.561  1.00  0.00     0.037 A 
BRANCH  48  62
ATOM     62  C   UNL A   1      39.243  31.853  35.927  1.00  0.00     0.064 A 
ATOM     63  C   UNL A   1      38.273  31.345  36.802  1.00  0.00     0.173 A 
ATOM     64  C   UNL A   1      39.722  33.152  36.155  1.00  0.00     0.173 A 
ATOM     65  F   UNL A   1      37.811  30.096  36.648  1.00  0.00    -0.203 F 
ATOM     66  C   UNL A   1      37.773  32.120  37.843  1.00  0.00     0.198 A 
ATOM     67  C   UNL A   1      39.244  33.912  37.219  1.00  0.00     0.198 A 
ATOM     68  F   UNL A   1      40.688  33.664  35.378  1.00  0.00    -0.203 F 
ATOM     69  F   UNL A   1      36.823  31.624  38.647  1.00  0.00    -0.200 F 
ATOM     70  C   UNL A   1      38.258  33.402  38.050  1.00  0.00     0.200 A 
ATOM     71  F   UNL A   1      39.747  35.133  37.447  1.00  0.00    -0.200 F 
ATOM     72  F   UNL A   1      37.783  34.143  39.060  1.00  0.00    -0.200 F 
ENDBRANCH  48  62
BRANCH  49  73
ATOM     73  C   UNL A   1      42.127  26.353  27.835  1.00  0.00     0.064 A 
ATOM     74  C   UNL A   1      41.616  25.067  27.587  1.00  0.00     0.173 A 
ATOM     75  C   UNL A   1      43.077  26.853  26.937  1.00  0.00     0.173 A 
ATOM     76  F   UNL A   1      40.709  24.531  28.419  1.00  0.00    -0.203 F 
ATOM     77  C   UNL A   1      42.055  24.308  26.504  1.00  0.00     0.198 A 
ATOM     78  C   UNL A   1      43.493  26.107  25.835  1.00  0.00     0.198 A 
ATOM     79  F   UNL A   1      43.592  28.078  27.122  1.00  0.00    -0.203 F 
ATOM     80  F   UNL A   1      41.580  23.069  26.320  1.00  0.00    -0.200 F 
ATOM     81  C   UNL A   1      42.989  24.831  25.624  1.00  0.00     0.200 A 
ATOM     82  F   UNL A   1      44.380  26.624  24.975  1.00  0.00    -0.200 F 
ATOM     83  F   UNL A   1      43.399  24.109  24.573  1.00  0.00    -0.200 F 
ENDBRANCH  49  73
BRANCH  61  84
ATOM     84  C   UNL A   1      44.699  27.473  34.265  1.00  0.00     0.064 A 
ATOM     85  C   UNL A   1      45.917  28.154  34.127  1.00  0.00     0.173 A 
ATOM     86  C   UNL A   1      44.690  26.249  34.945  1.00  0.00     0.173 A 
ATOM     87  F   UNL A   1      45.970  29.321  33.466  1.00  0.00    -0.203 F 
ATOM     88  C   UNL A   1      47.096  27.604  34.611  1.00  0.00     0.198 A 
ATOM     89  C   UNL A   1      45.867  25.722  35.465  1.00  0.00     0.198 A 
ATOM     90  F   UNL A   1      43.544  25.572  35.106  1.00  0.00    -0.203 F 
ATOM     91  F   UNL A   1      48.262  28.232  34.402  1.00  0.00    -0.200 F 
ATOM     92  C   UNL A   1      47.069  26.390  35.281  1.00  0.00     0.200 A 
ATOM     93  F   UNL A   1      45.838  24.562  36.134  1.00  0.00    -0.200 F 
ATOM     94  F   UNL A   1      48.207  25.857  35.745  1.00  0.00    -0.200 F 
ENDBRANCH  61  84
ENDBRANCH  35  36
ENDBRANCH  28  30
ENDBRANCH  27  28
ENDBRANCH  26  27
ENDBRANCH   1  26
TORSDOF 16
ENDMDL
