MODEL 1
REMARK VINA RESULT:     -12.3      0.000      0.000
REMARK SMILES O=C(OCCOC(=O)[C@@H](Cc1ccccc1)Nc1ccc(Cl)c(Br)c1)c1ccc(-c2c3nc(c(-c4c(F)c(F)c(F)c(F)c4F)c4ccc([nH]4)c(-c4c(F)c(F)c(F)c(F)c4F)c4nc(c(-c5c(F)c(F)c(F)c(F)c5F)c5ccc2[nH]5)C=C4)C=C3)cc1
REMARK SMILES IDX 4 1 3 2 2 3 1 4 26 5 27 6 88 7 28 8 87 9 29 10 30 11 31 12
REMARK SMILES IDX 81 13 32 14 86 15 80 16 82 17 33 18 85 19 79 20 78 21 34 23
REMARK SMILES IDX 66 24 46 25 65 26 47 27 50 28 64 29 83 30 48 31 49 32 63 34
REMARK SMILES IDX 84 35 51 36 35 37 36 38 44 39 37 40 38 41 42 42 45 43 39 44
REMARK SMILES IDX 40 45 43 46 41 47 67 48 68 49 76 50 69 51 70 52 74 53 77 54
REMARK SMILES IDX 71 55 72 56 75 57 73 58 52 59 53 60 61 61 54 62 55 63 59 64
REMARK SMILES IDX 62 65 56 66 57 67 60 68 58 69 5 70 6 71 7 72 8 73 9 74 10 75
REMARK SMILES IDX 11 76 12 77 16 78 13 79 15 80 14 81 17 82 18 84 19 85 25 86
REMARK SMILES IDX 20 87 23 88 21 89 24 90 22 91
REMARK H PARENT 82 22 50 33 17 83
REMARK Flexibility Score: inf
ROOT
ATOM      1  C   UNL A   1      41.965  20.237  26.053  1.00  0.00     0.275 C 
ENDROOT
BRANCH   1   2
ATOM      2  O   UNL A   1      42.934  21.244  26.319  1.00  0.00    -0.458 OA
BRANCH   2   3
ATOM      3  C   UNL A   1      42.916  22.495  25.843  1.00  0.00     0.338 C 
ATOM      4  O   UNL A   1      42.909  22.672  24.626  1.00  0.00    -0.246 OA
BRANCH   3   5
ATOM      5  C   UNL A   1      42.960  23.724  26.690  1.00  0.00     0.060 A 
ATOM      6  C   UNL A   1      43.914  25.305  26.519  1.00  0.00     0.016 A 
ATOM      7  C   UNL A   1      41.580  23.661  27.860  1.00  0.00     0.016 A 
ATOM      8  C   UNL A   1      43.501  26.733  27.604  1.00  0.00     0.010 A 
ATOM      9  C   UNL A   1      41.085  25.146  28.761  1.00  0.00     0.010 A 
ATOM     10  C   UNL A   1      42.098  26.643  28.763  1.00  0.00    -0.014 A 
BRANCH  10  11
ATOM     11  C   UNL A   1      41.832  27.735  29.766  1.00  0.00     0.031 A 
ATOM     12  C   UNL A   1      40.710  28.749  29.600  1.00  0.00     0.074 A 
ATOM     13  C   UNL A   1      42.538  27.776  30.908  1.00  0.00     0.049 A 
ATOM     14  N   UNL A   1      39.962  29.314  30.523  1.00  0.00    -0.248 NA
ATOM     15  C   UNL A   1      40.324  29.166  28.249  1.00  0.00     0.031 C 
ATOM     16  C   UNL A   1      43.695  26.944  31.213  1.00  0.00     0.029 A 
ATOM     17  N   UNL A   1      42.390  28.557  32.028  1.00  0.00    -0.354 N 
ATOM     18  C   UNL A   1      38.933  29.956  29.838  1.00  0.00     0.074 A 
ATOM     19  C   UNL A   1      39.159  29.759  28.434  1.00  0.00     0.031 C 
ATOM     20  C   UNL A   1      44.131  27.219  32.449  1.00  0.00     0.029 A 
ATOM     21  C   UNL A   1      43.314  28.289  33.008  1.00  0.00     0.049 A 
ATOM     22  H   UNL A   1      41.689  29.242  32.119  1.00  0.00     0.167 HD
ATOM     23  C   UNL A   1      37.934  30.743  30.301  1.00  0.00     0.037 A 
ATOM     24  C   UNL A   1      43.494  28.861  34.213  1.00  0.00     0.037 A 
ATOM     25  C   UNL A   1      37.982  31.354  31.595  1.00  0.00     0.049 A 
ATOM     26  C   UNL A   1      42.529  29.927  34.650  1.00  0.00     0.074 A 
ATOM     27  C   UNL A   1      37.179  32.350  32.112  1.00  0.00     0.029 A 
ATOM     28  N   UNL A   1      38.998  31.125  32.513  1.00  0.00    -0.354 N 
ATOM     29  N   UNL A   1      41.449  30.359  34.041  1.00  0.00    -0.248 NA
ATOM     30  C   UNL A   1      42.806  30.594  35.927  1.00  0.00     0.031 C 
ATOM     31  C   UNL A   1      37.787  32.815  33.284  1.00  0.00     0.029 A 
ATOM     32  C   UNL A   1      38.903  32.031  33.550  1.00  0.00     0.049 A 
ATOM     33  H   UNL A   1      39.683  30.422  32.436  1.00  0.00     0.167 HD
ATOM     34  C   UNL A   1      40.914  31.344  34.857  1.00  0.00     0.074 A 
ATOM     35  C   UNL A   1      41.784  31.437  36.015  1.00  0.00     0.031 C 
ATOM     36  C   UNL A   1      39.804  32.103  34.673  1.00  0.00     0.037 A 
BRANCH  23  37
ATOM     37  C   UNL A   1      36.864  31.125  29.314  1.00  0.00     0.064 A 
ATOM     38  C   UNL A   1      36.769  32.442  28.831  1.00  0.00     0.173 A 
ATOM     39  C   UNL A   1      35.875  30.213  28.921  1.00  0.00     0.173 A 
ATOM     40  F   UNL A   1      37.671  33.365  29.200  1.00  0.00    -0.203 F 
ATOM     41  C   UNL A   1      35.712  32.832  28.008  1.00  0.00     0.198 A 
ATOM     42  C   UNL A   1      34.825  30.605  28.090  1.00  0.00     0.198 A 
ATOM     43  F   UNL A   1      35.898  28.953  29.378  1.00  0.00    -0.203 F 
ATOM     44  F   UNL A   1      35.615  34.105  27.600  1.00  0.00    -0.200 F 
ATOM     45  C   UNL A   1      34.740  31.914  27.642  1.00  0.00     0.200 A 
ATOM     46  F   UNL A   1      33.876  29.721  27.752  1.00  0.00    -0.200 F 
ATOM     47  F   UNL A   1      33.708  32.297  26.878  1.00  0.00    -0.200 F 
ENDBRANCH  23  37
BRANCH  24  48
ATOM     48  C   UNL A   1      44.656  28.436  35.040  1.00  0.00     0.064 A 
ATOM     49  C   UNL A   1      45.896  29.080  34.960  1.00  0.00     0.173 A 
ATOM     50  C   UNL A   1      44.510  27.428  36.010  1.00  0.00     0.173 A 
ATOM     51  F   UNL A   1      46.098  30.036  34.041  1.00  0.00    -0.203 F 
ATOM     52  C   UNL A   1      46.937  28.746  35.826  1.00  0.00     0.198 A 
ATOM     53  C   UNL A   1      45.537  27.118  36.896  1.00  0.00     0.198 A 
ATOM     54  F   UNL A   1      43.340  26.781  36.132  1.00  0.00    -0.203 F 
ATOM     55  F   UNL A   1      48.118  29.371  35.725  1.00  0.00    -0.200 F 
ATOM     56  C   UNL A   1      46.752  27.779  36.804  1.00  0.00     0.200 A 
ATOM     57  F   UNL A   1      45.342  26.202  37.853  1.00  0.00    -0.200 F 
ATOM     58  F   UNL A   1      47.741  27.488  37.661  1.00  0.00    -0.200 F 
ENDBRANCH  24  48
BRANCH  36  59
ATOM     59  C   UNL A   1      39.459  33.097  35.736  1.00  0.00     0.064 A 
ATOM     60  C   UNL A   1      38.693  32.743  36.855  1.00  0.00     0.173 A 
ATOM     61  C   UNL A   1      40.006  34.388  35.686  1.00  0.00     0.173 A 
ATOM     62  F   UNL A   1      38.148  31.521  36.942  1.00  0.00    -0.203 F 
ATOM     63  C   UNL A   1      38.481  33.653  37.886  1.00  0.00     0.198 A 
ATOM     64  C   UNL A   1      39.817  35.283  36.732  1.00  0.00     0.198 A 
ATOM     65  F   UNL A   1      40.759  34.763  34.640  1.00  0.00    -0.203 F 
ATOM     66  F   UNL A   1      37.728  33.306  38.938  1.00  0.00    -0.200 F 
ATOM     67  C   UNL A   1      39.053  34.916  37.829  1.00  0.00     0.200 A 
ATOM     68  F   UNL A   1      40.388  36.494  36.685  1.00  0.00    -0.200 F 
ATOM     69  F   UNL A   1      38.869  35.781  38.836  1.00  0.00    -0.200 F 
ENDBRANCH  36  59
ENDBRANCH  10  11
ENDBRANCH   3   5
ENDBRANCH   2   3
ENDBRANCH   1   2
BRANCH   1  70
ATOM     70  C   UNL A   1      40.594  20.634  26.617  1.00  0.00     0.274 C 
BRANCH  70  71
ATOM     71  O   UNL A   1      39.598  20.831  25.583  1.00  0.00    -0.461 OA
BRANCH  71  72
ATOM     72  C   UNL A   1      38.662  21.820  25.750  1.00  0.00     0.329 C 
ATOM     73  O   UNL A   1      38.828  22.793  26.471  1.00  0.00    -0.250 OA
BRANCH  72  74
ATOM     74  C   UNL A   1      37.397  21.590  24.831  1.00  0.00     0.194 C 
BRANCH  74  75
ATOM     75  C   UNL A   1      35.868  20.733  25.426  1.00  0.00     0.072 C 
BRANCH  75  76
ATOM     76  C   UNL A   1      33.845  21.258  25.992  1.00  0.00    -0.045 A 
ATOM     77  C   UNL A   1      33.360  22.153  27.156  1.00  0.00     0.004 A 
ATOM     78  C   UNL A   1      32.539  21.029  25.319  1.00  0.00     0.004 A 
ATOM     79  C   UNL A   1      32.227  22.998  27.220  1.00  0.00     0.000 A 
ATOM     80  C   UNL A   1      31.381  21.872  25.368  1.00  0.00     0.000 A 
ATOM     81  C   UNL A   1      31.283  22.934  26.237  1.00  0.00     0.000 A 
ENDBRANCH  75  76
ENDBRANCH  74  75
BRANCH  74  82
ATOM     82  N   UNL A   1      37.086  22.834  24.070  1.00  0.00    -0.372 N 
ATOM     83  H   UNL A   1      37.832  23.289  23.618  1.00  0.00     0.161 HD
BRANCH  82  84
ATOM     84  C   UNL A   1      35.827  23.397  23.948  1.00  0.00     0.036 A 
ATOM     85  C   UNL A   1      34.997  22.962  22.904  1.00  0.00     0.027 A 
ATOM     86  C   UNL A   1      35.341  24.413  24.779  1.00  0.00     0.043 A 
ATOM     87  C   UNL A   1      33.722  23.503  22.707  1.00  0.00     0.024 A 
ATOM     88  C   UNL A   1      34.067  24.973  24.581  1.00  0.00     0.038 A 
ATOM     89  C   UNL A   1      33.252  24.513  23.545  1.00  0.00     0.055 A 
ATOM     90  Br  UNL A   1      33.532  26.369  25.754  1.00  0.00    -0.049 Br
ATOM     91  Cl  UNL A   1      31.676  25.143  23.232  1.00  0.00    -0.083 Cl
ENDBRANCH  82  84
ENDBRANCH  74  82
ENDBRANCH  72  74
ENDBRANCH  71  72
ENDBRANCH  70  71
ENDBRANCH   1  70
TORSDOF 15
ENDMDL
MODEL 2
REMARK VINA RESULT:     -12.2      3.701      8.486
REMARK SMILES O=C(OCCOC(=O)[C@@H](Cc1ccccc1)Nc1ccc(Cl)c(Br)c1)c1ccc(-c2c3nc(c(-c4c(F)c(F)c(F)c(F)c4F)c4ccc([nH]4)c(-c4c(F)c(F)c(F)c(F)c4F)c4nc(c(-c5c(F)c(F)c(F)c(F)c5F)c5ccc2[nH]5)C=C4)C=C3)cc1
REMARK SMILES IDX 4 1 3 2 2 3 1 4 26 5 27 6 88 7 28 8 87 9 29 10 30 11 31 12
REMARK SMILES IDX 81 13 32 14 86 15 80 16 82 17 33 18 85 19 79 20 78 21 34 23
REMARK SMILES IDX 66 24 46 25 65 26 47 27 50 28 64 29 83 30 48 31 49 32 63 34
REMARK SMILES IDX 84 35 51 36 35 37 36 38 44 39 37 40 38 41 42 42 45 43 39 44
REMARK SMILES IDX 40 45 43 46 41 47 67 48 68 49 76 50 69 51 70 52 74 53 77 54
REMARK SMILES IDX 71 55 72 56 75 57 73 58 52 59 53 60 61 61 54 62 55 63 59 64
REMARK SMILES IDX 62 65 56 66 57 67 60 68 58 69 5 70 6 71 7 72 8 73 9 74 10 75
REMARK SMILES IDX 11 76 12 77 16 78 13 79 15 80 14 81 17 82 18 84 19 85 25 86
REMARK SMILES IDX 20 87 23 88 21 89 24 90 22 91
REMARK H PARENT 82 22 50 33 17 83
REMARK Flexibility Score: inf
ROOT
ATOM      1  C   UNL A   1      31.759  29.348  25.742  1.00  0.00     0.275 C 
ENDROOT
BRANCH   1   2
ATOM      2  O   UNL A   1      32.625  30.476  25.700  1.00  0.00    -0.458 OA
BRANCH   2   3
ATOM      3  C   UNL A   1      32.986  31.227  26.748  1.00  0.00     0.338 C 
ATOM      4  O   UNL A   1      32.163  31.995  27.244  1.00  0.00    -0.246 OA
BRANCH   3   5
ATOM      5  C   UNL A   1      34.354  31.249  27.344  1.00  0.00     0.060 A 
ATOM      6  C   UNL A   1      35.485  32.652  27.784  1.00  0.00     0.016 A 
ATOM      7  C   UNL A   1      34.724  29.598  27.986  1.00  0.00     0.016 A 
ATOM      8  C   UNL A   1      36.998  32.318  28.776  1.00  0.00     0.010 A 
ATOM      9  C   UNL A   1      36.110  29.353  29.118  1.00  0.00     0.010 A 
ATOM     10  C   UNL A   1      37.336  30.647  29.419  1.00  0.00    -0.014 A 
BRANCH  10  11
ATOM     11  C   UNL A   1      38.637  30.312  30.101  1.00  0.00     0.031 A 
ATOM     12  C   UNL A   1      39.003  30.844  31.479  1.00  0.00     0.074 A 
ATOM     13  C   UNL A   1      39.480  29.434  29.533  1.00  0.00     0.049 A 
ATOM     14  N   UNL A   1      39.690  30.259  32.435  1.00  0.00    -0.248 NA
ATOM     15  C   UNL A   1      38.521  32.168  31.880  1.00  0.00     0.031 C 
ATOM     16  C   UNL A   1      39.340  28.880  28.193  1.00  0.00     0.029 A 
ATOM     17  N   UNL A   1      40.630  28.856  30.011  1.00  0.00    -0.354 N 
ATOM     18  C   UNL A   1      39.524  31.057  33.565  1.00  0.00     0.074 A 
ATOM     19  C   UNL A   1      38.719  32.182  33.186  1.00  0.00     0.031 C 
ATOM     20  C   UNL A   1      40.332  28.010  27.963  1.00  0.00     0.029 A 
ATOM     21  C   UNL A   1      41.213  27.984  29.125  1.00  0.00     0.049 A 
ATOM     22  H   UNL A   1      41.001  29.047  30.902  1.00  0.00     0.167 HD
ATOM     23  C   UNL A   1      40.072  30.949  34.799  1.00  0.00     0.037 A 
ATOM     24  C   UNL A   1      42.345  27.262  29.230  1.00  0.00     0.037 A 
ATOM     25  C   UNL A   1      41.238  30.157  35.049  1.00  0.00     0.049 A 
ATOM     26  C   UNL A   1      43.112  27.323  30.522  1.00  0.00     0.074 A 
ATOM     27  C   UNL A   1      42.042  30.131  36.170  1.00  0.00     0.029 A 
ATOM     28  N   UNL A   1      41.849  29.368  34.084  1.00  0.00    -0.354 N 
ATOM     29  N   UNL A   1      42.801  27.943  31.636  1.00  0.00    -0.248 NA
ATOM     30  C   UNL A   1      44.388  26.599  30.573  1.00  0.00     0.031 C 
ATOM     31  C   UNL A   1      43.207  29.431  35.835  1.00  0.00     0.029 A 
ATOM     32  C   UNL A   1      43.073  28.929  34.546  1.00  0.00     0.049 A 
ATOM     33  H   UNL A   1      41.467  29.153  33.202  1.00  0.00     0.167 HD
ATOM     34  C   UNL A   1      43.835  27.685  32.523  1.00  0.00     0.074 A 
ATOM     35  C   UNL A   1      44.779  26.838  31.819  1.00  0.00     0.031 C 
ATOM     36  C   UNL A   1      43.993  28.105  33.803  1.00  0.00     0.037 A 
BRANCH  23  37
ATOM     37  C   UNL A   1      39.530  31.869  35.859  1.00  0.00     0.064 A 
ATOM     38  C   UNL A   1      40.139  33.110  36.115  1.00  0.00     0.173 A 
ATOM     39  C   UNL A   1      38.468  31.481  36.688  1.00  0.00     0.173 A 
ATOM     40  F   UNL A   1      41.182  33.517  35.373  1.00  0.00    -0.203 F 
ATOM     41  C   UNL A   1      39.716  33.915  37.172  1.00  0.00     0.198 A 
ATOM     42  C   UNL A   1      38.042  32.294  37.739  1.00  0.00     0.198 A 
ATOM     43  F   UNL A   1      37.872  30.293  36.511  1.00  0.00    -0.203 F 
ATOM     44  F   UNL A   1      40.345  35.072  37.427  1.00  0.00    -0.200 F 
ATOM     45  C   UNL A   1      38.671  33.505  37.985  1.00  0.00     0.200 A 
ATOM     46  F   UNL A   1      37.043  31.887  38.534  1.00  0.00    -0.200 F 
ATOM     47  F   UNL A   1      38.286  34.263  39.020  1.00  0.00    -0.200 F 
ENDBRANCH  23  37
BRANCH  24  48
ATOM     48  C   UNL A   1      42.800  26.468  28.058  1.00  0.00     0.064 A 
ATOM     49  C   UNL A   1      42.314  25.180  27.804  1.00  0.00     0.173 A 
ATOM     50  C   UNL A   1      43.667  27.034  27.105  1.00  0.00     0.173 A 
ATOM     51  F   UNL A   1      41.500  24.583  28.686  1.00  0.00    -0.203 F 
ATOM     52  C   UNL A   1      42.661  24.498  26.637  1.00  0.00     0.198 A 
ATOM     53  C   UNL A   1      43.986  26.367  25.927  1.00  0.00     0.198 A 
ATOM     54  F   UNL A   1      44.159  28.267  27.299  1.00  0.00    -0.203 F 
ATOM     55  F   UNL A   1      42.189  23.263  26.419  1.00  0.00    -0.200 F 
ATOM     56  C   UNL A   1      43.482  25.098  25.693  1.00  0.00     0.200 A 
ATOM     57  F   UNL A   1      44.757  26.964  25.009  1.00  0.00    -0.200 F 
ATOM     58  F   UNL A   1      43.781  24.457  24.554  1.00  0.00    -0.200 F 
ENDBRANCH  24  48
BRANCH  36  59
ATOM     59  C   UNL A   1      45.222  27.661  34.533  1.00  0.00     0.064 A 
ATOM     60  C   UNL A   1      46.377  28.453  34.580  1.00  0.00     0.173 A 
ATOM     61  C   UNL A   1      45.193  26.480  35.290  1.00  0.00     0.173 A 
ATOM     62  F   UNL A   1      46.449  29.588  33.869  1.00  0.00    -0.203 F 
ATOM     63  C   UNL A   1      47.466  28.072  35.359  1.00  0.00     0.198 A 
ATOM     64  C   UNL A   1      46.271  26.120  36.089  1.00  0.00     0.198 A 
ATOM     65  F   UNL A   1      44.100  25.701  35.286  1.00  0.00    -0.203 F 
ATOM     66  F   UNL A   1      48.571  28.829  35.375  1.00  0.00    -0.200 F 
ATOM     67  C   UNL A   1      47.407  26.914  36.121  1.00  0.00     0.200 A 
ATOM     68  F   UNL A   1      46.203  25.013  36.841  1.00  0.00    -0.200 F 
ATOM     69  F   UNL A   1      48.447  26.564  36.889  1.00  0.00    -0.200 F 
ENDBRANCH  36  59
ENDBRANCH  10  11
ENDBRANCH   3   5
ENDBRANCH   2   3
ENDBRANCH   1   2
BRANCH   1  70
ATOM     70  C   UNL A   1      30.986  29.201  24.424  1.00  0.00     0.274 C 
BRANCH  70  71
ATOM     71  O   UNL A   1      31.826  28.763  23.327  1.00  0.00    -0.461 OA
BRANCH  71  72
ATOM     72  C   UNL A   1      31.429  27.679  22.586  1.00  0.00     0.329 C 
ATOM     73  O   UNL A   1      30.370  27.626  21.978  1.00  0.00    -0.250 OA
BRANCH  72  74
ATOM     74  C   UNL A   1      32.545  26.560  22.542  1.00  0.00     0.194 C 
BRANCH  74  75
ATOM     75  C   UNL A   1      33.825  26.370  23.866  1.00  0.00     0.072 C 
BRANCH  75  76
ATOM     76  C   UNL A   1      34.791  24.765  24.952  1.00  0.00    -0.045 A 
ATOM     77  C   UNL A   1      34.421  24.156  26.325  1.00  0.00     0.004 A 
ATOM     78  C   UNL A   1      35.869  23.816  24.564  1.00  0.00     0.004 A 
ATOM     79  C   UNL A   1      34.567  22.824  26.779  1.00  0.00     0.000 A 
ATOM     80  C   UNL A   1      36.033  22.464  25.009  1.00  0.00     0.000 A 
ATOM     81  C   UNL A   1      35.289  21.935  26.038  1.00  0.00     0.000 A 
ENDBRANCH  75  76
ENDBRANCH  74  75
BRANCH  74  82
ATOM     82  N   UNL A   1      31.944  25.254  22.147  1.00  0.00    -0.372 N 
ATOM     83  H   UNL A   1      31.475  25.213  21.283  1.00  0.00     0.161 HD
BRANCH  82  84
ATOM     84  C   UNL A   1      31.995  24.094  22.902  1.00  0.00     0.036 A 
ATOM     85  C   UNL A   1      32.734  23.008  22.411  1.00  0.00     0.027 A 
ATOM     86  C   UNL A   1      31.316  23.919  24.113  1.00  0.00     0.043 A 
ATOM     87  C   UNL A   1      32.811  21.798  23.109  1.00  0.00     0.024 A 
ATOM     88  C   UNL A   1      31.376  22.703  24.815  1.00  0.00     0.038 A 
ATOM     89  C   UNL A   1      32.130  21.640  24.315  1.00  0.00     0.055 A 
ATOM     90  Br  UNL A   1      30.384  22.575  26.431  1.00  0.00    -0.049 Br
ATOM     91  Cl  UNL A   1      32.260  20.115  25.112  1.00  0.00    -0.083 Cl
ENDBRANCH  82  84
ENDBRANCH  74  82
ENDBRANCH  72  74
ENDBRANCH  71  72
ENDBRANCH  70  71
ENDBRANCH   1  70
TORSDOF 15
ENDMDL
MODEL 3
REMARK VINA RESULT:     -12.2      1.269      2.295
REMARK SMILES O=C(OCCOC(=O)[C@@H](Cc1ccccc1)Nc1ccc(Cl)c(Br)c1)c1ccc(-c2c3nc(c(-c4c(F)c(F)c(F)c(F)c4F)c4ccc([nH]4)c(-c4c(F)c(F)c(F)c(F)c4F)c4nc(c(-c5c(F)c(F)c(F)c(F)c5F)c5ccc2[nH]5)C=C4)C=C3)cc1
REMARK SMILES IDX 4 1 3 2 2 3 1 4 26 5 27 6 88 7 28 8 87 9 29 10 30 11 31 12
REMARK SMILES IDX 81 13 32 14 86 15 80 16 82 17 33 18 85 19 79 20 78 21 34 23
REMARK SMILES IDX 66 24 46 25 65 26 47 27 50 28 64 29 83 30 48 31 49 32 63 34
REMARK SMILES IDX 84 35 51 36 35 37 36 38 44 39 37 40 38 41 42 42 45 43 39 44
REMARK SMILES IDX 40 45 43 46 41 47 67 48 68 49 76 50 69 51 70 52 74 53 77 54
REMARK SMILES IDX 71 55 72 56 75 57 73 58 52 59 53 60 61 61 54 62 55 63 59 64
REMARK SMILES IDX 62 65 56 66 57 67 60 68 58 69 5 70 6 71 7 72 8 73 9 74 10 75
REMARK SMILES IDX 11 76 12 77 16 78 13 79 15 80 14 81 17 82 18 84 19 85 25 86
REMARK SMILES IDX 20 87 23 88 21 89 24 90 22 91
REMARK H PARENT 82 22 50 33 17 83
REMARK Flexibility Score: inf
ROOT
ATOM      1  C   UNL A   1      42.358  20.133  25.893  1.00  0.00     0.275 C 
ENDROOT
BRANCH   1   2
ATOM      2  O   UNL A   1      43.245  21.198  26.218  1.00  0.00    -0.458 OA
BRANCH   2   3
ATOM      3  C   UNL A   1      43.133  22.465  25.803  1.00  0.00     0.338 C 
ATOM      4  O   UNL A   1      43.024  22.693  24.599  1.00  0.00    -0.246 OA
BRANCH   3   5
ATOM      5  C   UNL A   1      43.187  23.659  26.699  1.00  0.00     0.060 A 
ATOM      6  C   UNL A   1      44.128  25.252  26.574  1.00  0.00     0.016 A 
ATOM      7  C   UNL A   1      41.832  23.538  27.893  1.00  0.00     0.016 A 
ATOM      8  C   UNL A   1      43.729  26.631  27.726  1.00  0.00     0.010 A 
ATOM      9  C   UNL A   1      41.347  24.980  28.865  1.00  0.00     0.010 A 
ATOM     10  C   UNL A   1      42.350  26.484  28.908  1.00  0.00    -0.014 A 
BRANCH  10  11
ATOM     11  C   UNL A   1      42.099  27.531  29.961  1.00  0.00     0.031 A 
ATOM     12  C   UNL A   1      41.006  28.582  29.830  1.00  0.00     0.074 A 
ATOM     13  C   UNL A   1      42.789  27.496  31.113  1.00  0.00     0.049 A 
ATOM     14  N   UNL A   1      40.260  29.120  30.770  1.00  0.00    -0.248 NA
ATOM     15  C   UNL A   1      40.652  29.076  28.498  1.00  0.00     0.031 C 
ATOM     16  C   UNL A   1      43.919  26.619  31.391  1.00  0.00     0.029 A 
ATOM     17  N   UNL A   1      42.645  28.224  32.268  1.00  0.00    -0.354 N 
ATOM     18  C   UNL A   1      39.259  29.824  30.105  1.00  0.00     0.074 A 
ATOM     19  C   UNL A   1      39.500  29.691  28.696  1.00  0.00     0.031 C 
ATOM     20  C   UNL A   1      44.344  26.820  32.645  1.00  0.00     0.029 A 
ATOM     21  C   UNL A   1      43.547  27.884  33.246  1.00  0.00     0.049 A 
ATOM     22  H   UNL A   1      41.962  28.923  32.384  1.00  0.00     0.167 HD
ATOM     23  C   UNL A   1      38.274  30.613  30.593  1.00  0.00     0.037 A 
ATOM     24  C   UNL A   1      43.725  28.390  34.481  1.00  0.00     0.037 A 
ATOM     25  C   UNL A   1      38.319  31.158  31.916  1.00  0.00     0.049 A 
ATOM     26  C   UNL A   1      42.781  29.459  34.957  1.00  0.00     0.074 A 
ATOM     27  C   UNL A   1      37.535  32.149  32.472  1.00  0.00     0.029 A 
ATOM     28  N   UNL A   1      39.315  30.857  32.835  1.00  0.00    -0.354 N 
ATOM     29  N   UNL A   1      41.722  29.950  34.356  1.00  0.00    -0.248 NA
ATOM     30  C   UNL A   1      43.058  30.054  36.269  1.00  0.00     0.031 C 
ATOM     31  C   UNL A   1      38.138  32.538  33.673  1.00  0.00     0.029 A 
ATOM     32  C   UNL A   1      39.229  31.712  33.915  1.00  0.00     0.049 A 
ATOM     33  H   UNL A   1      39.983  30.140  32.733  1.00  0.00     0.167 HD
ATOM     34  C   UNL A   1      41.201  30.907  35.213  1.00  0.00     0.074 A 
ATOM     35  C   UNL A   1      42.056  30.919  36.385  1.00  0.00     0.031 C 
ATOM     36  C   UNL A   1      40.115  31.704  35.052  1.00  0.00     0.037 A 
BRANCH  23  37
ATOM     37  C   UNL A   1      37.229  31.073  29.613  1.00  0.00     0.064 A 
ATOM     38  C   UNL A   1      37.203  32.404  29.161  1.00  0.00     0.173 A 
ATOM     39  C   UNL A   1      36.197  30.222  29.194  1.00  0.00     0.173 A 
ATOM     40  F   UNL A   1      38.148  33.271  29.556  1.00  0.00    -0.203 F 
ATOM     41  C   UNL A   1      36.171  32.866  28.344  1.00  0.00     0.198 A 
ATOM     42  C   UNL A   1      35.172  30.686  28.369  1.00  0.00     0.198 A 
ATOM     43  F   UNL A   1      36.154  28.951  29.621  1.00  0.00    -0.203 F 
ATOM     44  F   UNL A   1      36.140  34.153  27.967  1.00  0.00    -0.200 F 
ATOM     45  C   UNL A   1      35.155  32.008  27.953  1.00  0.00     0.200 A 
ATOM     46  F   UNL A   1      34.182  29.859  28.007  1.00  0.00    -0.200 F 
ATOM     47  F   UNL A   1      34.146  32.461  27.195  1.00  0.00    -0.200 F 
ENDBRANCH  23  37
BRANCH  24  48
ATOM     48  C   UNL A   1      44.862  27.894  35.301  1.00  0.00     0.064 A 
ATOM     49  C   UNL A   1      44.728  26.805  36.170  1.00  0.00     0.173 A 
ATOM     50  C   UNL A   1      46.146  28.449  35.150  1.00  0.00     0.173 A 
ATOM     51  F   UNL A   1      43.524  26.248  36.367  1.00  0.00    -0.203 F 
ATOM     52  C   UNL A   1      45.833  26.279  36.841  1.00  0.00     0.198 A 
ATOM     53  C   UNL A   1      47.253  27.904  35.794  1.00  0.00     0.198 A 
ATOM     54  F   UNL A   1      46.331  29.493  34.328  1.00  0.00    -0.203 F 
ATOM     55  F   UNL A   1      45.678  25.241  37.673  1.00  0.00    -0.200 F 
ATOM     56  C   UNL A   1      47.096  26.818  36.639  1.00  0.00     0.200 A 
ATOM     57  F   UNL A   1      48.472  28.413  35.573  1.00  0.00    -0.200 F 
ATOM     58  F   UNL A   1      48.162  26.286  37.253  1.00  0.00    -0.200 F 
ENDBRANCH  24  48
BRANCH  36  59
ATOM     59  C   UNL A   1      39.780  32.653  36.159  1.00  0.00     0.064 A 
ATOM     60  C   UNL A   1      40.375  33.918  36.250  1.00  0.00     0.173 A 
ATOM     61  C   UNL A   1      38.762  32.330  37.069  1.00  0.00     0.173 A 
ATOM     62  F   UNL A   1      41.355  34.267  35.403  1.00  0.00    -0.203 F 
ATOM     63  C   UNL A   1      39.965  34.827  37.220  1.00  0.00     0.198 A 
ATOM     64  C   UNL A   1      38.335  33.252  38.017  1.00  0.00     0.198 A 
ATOM     65  F   UNL A   1      38.154  31.135  37.007  1.00  0.00    -0.203 F 
ATOM     66  F   UNL A   1      40.561  36.024  37.308  1.00  0.00    -0.200 F 
ATOM     67  C   UNL A   1      38.939  34.498  38.094  1.00  0.00     0.200 A 
ATOM     68  F   UNL A   1      37.329  32.940  38.844  1.00  0.00    -0.200 F 
ATOM     69  F   UNL A   1      38.528  35.385  39.011  1.00  0.00    -0.200 F 
ENDBRANCH  36  59
ENDBRANCH  10  11
ENDBRANCH   3   5
ENDBRANCH   2   3
ENDBRANCH   1   2
BRANCH   1  70
ATOM     70  C   UNL A   1      41.028  20.279  26.645  1.00  0.00     0.274 C 
BRANCH  70  71
ATOM     71  O   UNL A   1      39.893  20.414  25.754  1.00  0.00    -0.461 OA
BRANCH  71  72
ATOM     72  C   UNL A   1      39.065  21.498  25.901  1.00  0.00     0.329 C 
ATOM     73  O   UNL A   1      39.432  22.572  26.354  1.00  0.00    -0.250 OA
BRANCH  72  74
ATOM     74  C   UNL A   1      37.620  21.214  25.328  1.00  0.00     0.194 C 
BRANCH  74  75
ATOM     75  C   UNL A   1      36.992  19.503  25.000  1.00  0.00     0.072 C 
BRANCH  75  76
ATOM     76  C   UNL A   1      35.101  18.536  24.577  1.00  0.00    -0.045 A 
ATOM     77  C   UNL A   1      33.666  19.089  24.739  1.00  0.00     0.004 A 
ATOM     78  C   UNL A   1      34.778  17.250  23.903  1.00  0.00     0.004 A 
ATOM     79  C   UNL A   1      32.512  18.817  23.967  1.00  0.00     0.000 A 
ATOM     80  C   UNL A   1      33.617  16.955  23.115  1.00  0.00     0.000 A 
ATOM     81  C   UNL A   1      32.538  17.804  23.052  1.00  0.00     0.000 A 
ENDBRANCH  75  76
ENDBRANCH  74  75
BRANCH  74  82
ATOM     82  N   UNL A   1      36.615  22.058  26.034  1.00  0.00    -0.372 N 
ATOM     83  H   UNL A   1      36.637  22.064  27.018  1.00  0.00     0.161 HD
BRANCH  82  84
ATOM     84  C   UNL A   1      35.652  22.836  25.412  1.00  0.00     0.036 A 
ATOM     85  C   UNL A   1      35.566  24.193  25.752  1.00  0.00     0.027 A 
ATOM     86  C   UNL A   1      34.723  22.341  24.490  1.00  0.00     0.043 A 
ATOM     87  C   UNL A   1      34.604  25.033  25.181  1.00  0.00     0.024 A 
ATOM     88  C   UNL A   1      33.744  23.173  23.921  1.00  0.00     0.038 A 
ATOM     89  C   UNL A   1      33.687  24.525  24.263  1.00  0.00     0.055 A 
ATOM     90  Br  UNL A   1      32.517  22.378  22.706  1.00  0.00    -0.049 Br
ATOM     91  Cl  UNL A   1      32.520  25.617  23.612  1.00  0.00    -0.083 Cl
ENDBRANCH  82  84
ENDBRANCH  74  82
ENDBRANCH  72  74
ENDBRANCH  71  72
ENDBRANCH  70  71
ENDBRANCH   1  70
TORSDOF 15
ENDMDL
