MODEL 1
REMARK VINA RESULT:     -11.0      0.000      0.000
REMARK SMILES CCNC(=O)N1CC[C@@H](C(=O)OCCOC(=O)c2ccc(-c3c4nc(c(-c5c(F)c(F)c(F)c(F)c5F)c5ccc([nH]5)c(-c5c(F)c(F)c(F)c(F)c5F)c5nc(c(-c6c(F)c(F)c(F)c(F)c6F)c6ccc3[nH]6)C=C5)C=C4)cc2)[C@H]1C
REMARK SMILES IDX 13 1 12 2 10 3 11 4 9 5 6 6 7 7 81 8 8 9 82 10 4 11 3 12
REMARK SMILES IDX 5 14 2 15 1 16 14 17 15 18 16 19 17 20 18 21 19 22 80 23
REMARK SMILES IDX 20 24 79 25 21 26 22 27 23 28 73 29 24 30 78 31 72 32 74 33
REMARK SMILES IDX 25 34 77 35 71 36 70 37 26 39 58 40 38 41 57 42 39 43 42 44
REMARK SMILES IDX 56 45 75 46 40 47 41 48 55 50 76 51 43 52 27 53 28 54 36 55
REMARK SMILES IDX 29 56 30 57 34 58 37 59 31 60 32 61 35 62 33 63 59 64 60 65
REMARK SMILES IDX 68 66 61 67 62 68 66 69 69 70 63 71 64 72 67 73 65 74 44 75
REMARK SMILES IDX 45 76 53 77 46 78 47 79 51 80 54 81 48 82 49 83 52 84 50 85
REMARK H PARENT 3 13 74 38 42 49
REMARK Flexibility Score: inf
ROOT
ATOM      1  C   UNL A   1      31.648  28.595  24.902  1.00  0.00     0.274 C 
ENDROOT
BRANCH   1   2
ATOM      2  O   UNL A   1      32.424  27.661  25.679  1.00  0.00    -0.462 OA
BRANCH   2   3
ATOM      3  C   UNL A   1      33.150  26.754  24.989  1.00  0.00     0.311 C 
ATOM      4  O   UNL A   1      33.515  26.903  23.828  1.00  0.00    -0.252 OA
BRANCH   3   5
ATOM      5  C   UNL A   1      33.472  25.501  25.771  1.00  0.00     0.123 C 
ATOM      6  N   UNL A   1      33.308  23.169  26.205  1.00  0.00    -0.321 N 
ATOM      7  C   UNL A   1      34.710  23.556  26.158  1.00  0.00     0.122 C 
ATOM      8  C   UNL A   1      32.446  24.352  25.934  1.00  0.00     0.098 C 
ATOM      9  C   UNL A   1      34.737  24.803  25.296  1.00  0.00     0.039 C 
ATOM     10  C   UNL A   1      31.493  24.124  24.769  1.00  0.00     0.032 C 
BRANCH   6  11
ATOM     11  C   UNL A   1      32.957  22.187  27.097  1.00  0.00     0.317 C 
ATOM     12  N   UNL A   1      32.835  20.915  26.652  1.00  0.00    -0.338 N 
ATOM     13  H   UNL A   1      32.298  20.317  27.221  1.00  0.00     0.165 HD
ATOM     14  O   UNL A   1      32.803  22.406  28.298  1.00  0.00    -0.249 OA
BRANCH  12  15
ATOM     15  C   UNL A   1      33.382  20.306  25.457  1.00  0.00     0.114 C 
ATOM     16  C   UNL A   1      32.433  20.415  24.278  1.00  0.00     0.027 C 
ENDBRANCH  12  15
ENDBRANCH   6  11
ENDBRANCH   3   5
ENDBRANCH   2   3
ENDBRANCH   1   2
BRANCH   1  17
ATOM     17  C   UNL A   1      31.834  30.030  25.412  1.00  0.00     0.275 C 
BRANCH  17  18
ATOM     18  O   UNL A   1      33.169  30.237  25.918  1.00  0.00    -0.458 OA
BRANCH  18  19
ATOM     19  C   UNL A   1      33.317  31.192  26.861  1.00  0.00     0.338 C 
ATOM     20  O   UNL A   1      32.527  32.070  27.171  1.00  0.00    -0.246 OA
BRANCH  19  21
ATOM     21  C   UNL A   1      34.558  30.950  27.607  1.00  0.00     0.060 A 
ATOM     22  C   UNL A   1      34.823  29.649  28.042  1.00  0.00     0.016 A 
ATOM     23  C   UNL A   1      35.422  31.996  27.924  1.00  0.00     0.016 A 
ATOM     24  C   UNL A   1      35.973  29.376  28.772  1.00  0.00     0.010 A 
ATOM     25  C   UNL A   1      36.579  31.723  28.659  1.00  0.00     0.010 A 
ATOM     26  C   UNL A   1      36.863  30.411  29.079  1.00  0.00    -0.014 A 
BRANCH  26  27
ATOM     27  C   UNL A   1      38.094  30.114  29.844  1.00  0.00     0.031 A 
ATOM     28  C   UNL A   1      39.129  29.196  29.271  1.00  0.00     0.074 A 
ATOM     29  C   UNL A   1      38.274  30.682  31.050  1.00  0.00     0.049 A 
ATOM     30  N   UNL A   1      40.213  28.722  29.829  1.00  0.00    -0.248 NA
ATOM     31  C   UNL A   1      38.916  28.751  27.886  1.00  0.00     0.031 C 
ATOM     32  C   UNL A   1      37.355  31.633  31.676  1.00  0.00     0.029 A 
ATOM     33  N   UNL A   1      39.284  30.537  31.964  1.00  0.00    -0.354 N 
ATOM     34  C   UNL A   1      40.802  27.906  28.873  1.00  0.00     0.074 A 
ATOM     35  C   UNL A   1      39.950  27.942  27.702  1.00  0.00     0.031 C 
ATOM     36  C   UNL A   1      37.840  31.980  32.878  1.00  0.00     0.029 A 
ATOM     37  C   UNL A   1      39.074  31.238  33.125  1.00  0.00     0.049 A 
ATOM     38  H   UNL A   1      40.082  29.983  31.804  1.00  0.00     0.167 HD
ATOM     39  C   UNL A   1      41.948  27.194  28.972  1.00  0.00     0.037 A 
ATOM     40  C   UNL A   1      39.777  31.248  34.272  1.00  0.00     0.037 A 
ATOM     41  C   UNL A   1      42.794  27.179  30.137  1.00  0.00     0.049 A 
ATOM     42  C   UNL A   1      41.008  30.393  34.381  1.00  0.00     0.074 A 
ATOM     43  C   UNL A   1      43.991  26.512  30.330  1.00  0.00     0.029 A 
ATOM     44  N   UNL A   1      42.527  27.867  31.313  1.00  0.00    -0.354 N 
ATOM     45  N   UNL A   1      41.555  29.614  33.480  1.00  0.00    -0.248 NA
ATOM     46  C   UNL A   1      41.714  30.408  35.669  1.00  0.00     0.031 C 
ATOM     47  C   UNL A   1      44.424  26.759  31.638  1.00  0.00     0.029 A 
ATOM     48  C   UNL A   1      43.520  27.615  32.246  1.00  0.00     0.049 A 
ATOM     49  H   UNL A   1      41.747  28.448  31.462  1.00  0.00     0.167 HD
ATOM     50  C   UNL A   1      42.668  29.050  34.086  1.00  0.00     0.074 A 
ATOM     51  C   UNL A   1      42.733  29.595  35.427  1.00  0.00     0.031 C 
ATOM     52  C   UNL A   1      43.554  28.157  33.581  1.00  0.00     0.037 A 
BRANCH  39  53
ATOM     53  C   UNL A   1      42.336  26.341  27.801  1.00  0.00     0.064 A 
ATOM     54  C   UNL A   1      41.782  25.069  27.597  1.00  0.00     0.173 A 
ATOM     55  C   UNL A   1      43.258  26.817  26.857  1.00  0.00     0.173 A 
ATOM     56  F   UNL A   1      40.908  24.563  28.480  1.00  0.00    -0.203 F 
ATOM     57  C   UNL A   1      42.153  24.296  26.499  1.00  0.00     0.198 A 
ATOM     58  C   UNL A   1      43.608  26.051  25.748  1.00  0.00     0.198 A 
ATOM     59  F   UNL A   1      43.814  28.029  27.006  1.00  0.00    -0.203 F 
ATOM     60  F   UNL A   1      41.643  23.066  26.344  1.00  0.00    -0.200 F 
ATOM     61  C   UNL A   1      43.061  24.789  25.573  1.00  0.00     0.200 A 
ATOM     62  F   UNL A   1      44.480  26.533  24.850  1.00  0.00    -0.200 F 
ATOM     63  F   UNL A   1      43.415  24.044  24.518  1.00  0.00    -0.200 F 
ENDBRANCH  39  53
BRANCH  40  64
ATOM     64  C   UNL A   1      39.303  32.064  35.419  1.00  0.00     0.064 A 
ATOM     65  C   UNL A   1      39.648  33.415  35.537  1.00  0.00     0.173 A 
ATOM     66  C   UNL A   1      38.485  31.508  36.414  1.00  0.00     0.173 A 
ATOM     67  F   UNL A   1      40.450  33.983  34.624  1.00  0.00    -0.203 F 
ATOM     68  C   UNL A   1      39.197  34.182  36.610  1.00  0.00     0.198 A 
ATOM     69  C   UNL A   1      38.013  32.280  37.473  1.00  0.00     0.198 A 
ATOM     70  F   UNL A   1      38.130  30.216  36.349  1.00  0.00    -0.203 F 
ATOM     71  F   UNL A   1      39.569  35.464  36.718  1.00  0.00    -0.200 F 
ATOM     72  C   UNL A   1      38.373  33.616  37.572  1.00  0.00     0.200 A 
ATOM     73  F   UNL A   1      37.209  31.732  38.394  1.00  0.00    -0.200 F 
ATOM     74  F   UNL A   1      37.933  34.355  38.599  1.00  0.00    -0.200 F 
ENDBRANCH  40  64
BRANCH  52  75
ATOM     75  C   UNL A   1      44.667  27.719  34.485  1.00  0.00     0.064 A 
ATOM     76  C   UNL A   1      45.866  28.442  34.568  1.00  0.00     0.173 A 
ATOM     77  C   UNL A   1      44.522  26.586  35.297  1.00  0.00     0.173 A 
ATOM     78  F   UNL A   1      46.057  29.523  33.796  1.00  0.00    -0.203 F 
ATOM     79  C   UNL A   1      46.888  28.033  35.419  1.00  0.00     0.198 A 
ATOM     80  C   UNL A   1      45.537  26.195  36.166  1.00  0.00     0.198 A 
ATOM     81  F   UNL A   1      43.392  25.863  35.256  1.00  0.00    -0.203 F 
ATOM     82  F   UNL A   1      48.042  28.715  35.453  1.00  0.00    -0.200 F 
ATOM     83  C   UNL A   1      46.720  26.915  36.222  1.00  0.00     0.200 A 
ATOM     84  F   UNL A   1      45.371  25.119  36.948  1.00  0.00    -0.200 F 
ATOM     85  F   UNL A   1      47.705  26.526  37.044  1.00  0.00    -0.200 F 
ENDBRANCH  52  75
ENDBRANCH  26  27
ENDBRANCH  19  21
ENDBRANCH  18  19
ENDBRANCH  17  18
ENDBRANCH   1  17
TORSDOF 13
ENDMDL
MODEL 2
REMARK VINA RESULT:     -10.9      0.307      1.770
REMARK SMILES CCNC(=O)N1CC[C@@H](C(=O)OCCOC(=O)c2ccc(-c3c4nc(c(-c5c(F)c(F)c(F)c(F)c5F)c5ccc([nH]5)c(-c5c(F)c(F)c(F)c(F)c5F)c5nc(c(-c6c(F)c(F)c(F)c(F)c6F)c6ccc3[nH]6)C=C5)C=C4)cc2)[C@H]1C
REMARK SMILES IDX 13 1 12 2 10 3 11 4 9 5 6 6 7 7 81 8 8 9 82 10 4 11 3 12
REMARK SMILES IDX 5 14 2 15 1 16 14 17 15 18 16 19 17 20 18 21 19 22 80 23
REMARK SMILES IDX 20 24 79 25 21 26 22 27 23 28 73 29 24 30 78 31 72 32 74 33
REMARK SMILES IDX 25 34 77 35 71 36 70 37 26 39 58 40 38 41 57 42 39 43 42 44
REMARK SMILES IDX 56 45 75 46 40 47 41 48 55 50 76 51 43 52 27 53 28 54 36 55
REMARK SMILES IDX 29 56 30 57 34 58 37 59 31 60 32 61 35 62 33 63 59 64 60 65
REMARK SMILES IDX 68 66 61 67 62 68 66 69 69 70 63 71 64 72 67 73 65 74 44 75
REMARK SMILES IDX 45 76 53 77 46 78 47 79 51 80 54 81 48 82 49 83 52 84 50 85
REMARK H PARENT 3 13 74 38 42 49
REMARK Flexibility Score: inf
ROOT
ATOM      1  C   UNL A   1      31.429  29.150  24.932  1.00  0.00     0.274 C 
ENDROOT
BRANCH   1   2
ATOM      2  O   UNL A   1      31.715  27.862  25.515  1.00  0.00    -0.462 OA
BRANCH   2   3
ATOM      3  C   UNL A   1      32.742  27.167  24.978  1.00  0.00     0.311 C 
ATOM      4  O   UNL A   1      33.350  27.507  23.969  1.00  0.00    -0.252 OA
BRANCH   3   5
ATOM      5  C   UNL A   1      33.083  25.897  25.725  1.00  0.00     0.123 C 
ATOM      6  N   UNL A   1      33.002  23.546  26.059  1.00  0.00    -0.321 N 
ATOM      7  C   UNL A   1      34.386  23.992  26.093  1.00  0.00     0.122 C 
ATOM      8  C   UNL A   1      32.102  24.701  25.794  1.00  0.00     0.098 C 
ATOM      9  C   UNL A   1      34.397  25.273  25.282  1.00  0.00     0.039 C 
ATOM     10  C   UNL A   1      31.213  24.482  24.578  1.00  0.00     0.032 C 
BRANCH   6  11
ATOM     11  C   UNL A   1      32.655  22.514  26.894  1.00  0.00     0.317 C 
ATOM     12  N   UNL A   1      32.650  21.251  26.405  1.00  0.00    -0.338 N 
ATOM     13  H   UNL A   1      32.115  20.602  26.916  1.00  0.00     0.165 HD
ATOM     14  O   UNL A   1      32.401  22.682  28.086  1.00  0.00    -0.249 OA
BRANCH  12  15
ATOM     15  C   UNL A   1      33.321  20.720  25.237  1.00  0.00     0.114 C 
ATOM     16  C   UNL A   1      32.360  20.492  24.084  1.00  0.00     0.027 C 
ENDBRANCH  12  15
ENDBRANCH   6  11
ENDBRANCH   3   5
ENDBRANCH   2   3
ENDBRANCH   1   2
BRANCH   1  17
ATOM     17  C   UNL A   1      31.675  30.281  25.939  1.00  0.00     0.275 C 
BRANCH  17  18
ATOM     18  O   UNL A   1      33.081  30.438  26.217  1.00  0.00    -0.458 OA
BRANCH  18  19
ATOM     19  C   UNL A   1      33.425  31.462  27.029  1.00  0.00     0.338 C 
ATOM     20  O   UNL A   1      32.813  32.499  27.231  1.00  0.00    -0.246 OA
BRANCH  19  21
ATOM     21  C   UNL A   1      34.627  31.096  27.787  1.00  0.00     0.060 A 
ATOM     22  C   UNL A   1      35.603  32.075  27.991  1.00  0.00     0.016 A 
ATOM     23  C   UNL A   1      34.822  29.793  28.242  1.00  0.00     0.016 A 
ATOM     24  C   UNL A   1      36.768  31.769  28.683  1.00  0.00     0.010 A 
ATOM     25  C   UNL A   1      35.995  29.483  28.936  1.00  0.00     0.010 A 
ATOM     26  C   UNL A   1      36.968  30.472  29.166  1.00  0.00    -0.014 A 
BRANCH  26  27
ATOM     27  C   UNL A   1      38.204  30.153  29.915  1.00  0.00     0.031 A 
ATOM     28  C   UNL A   1      39.218  29.223  29.326  1.00  0.00     0.074 A 
ATOM     29  C   UNL A   1      38.406  30.712  31.121  1.00  0.00     0.049 A 
ATOM     30  N   UNL A   1      40.302  28.730  29.868  1.00  0.00    -0.248 NA
ATOM     31  C   UNL A   1      38.983  28.787  27.941  1.00  0.00     0.031 C 
ATOM     32  C   UNL A   1      37.509  31.673  31.763  1.00  0.00     0.029 A 
ATOM     33  N   UNL A   1      39.426  30.548  32.023  1.00  0.00    -0.354 N 
ATOM     34  C   UNL A   1      40.867  27.910  28.902  1.00  0.00     0.074 A 
ATOM     35  C   UNL A   1      40.002  27.964  27.741  1.00  0.00     0.031 C 
ATOM     36  C   UNL A   1      38.014  32.008  32.961  1.00  0.00     0.029 A 
ATOM     37  C   UNL A   1      39.239  31.246  33.189  1.00  0.00     0.049 A 
ATOM     38  H   UNL A   1      40.214  29.983  31.850  1.00  0.00     0.167 HD
ATOM     39  C   UNL A   1      42.004  27.181  28.983  1.00  0.00     0.037 A 
ATOM     40  C   UNL A   1      39.956  31.240  34.328  1.00  0.00     0.037 A 
ATOM     41  C   UNL A   1      42.863  27.148  30.138  1.00  0.00     0.049 A 
ATOM     42  C   UNL A   1      41.176  30.366  34.418  1.00  0.00     0.074 A 
ATOM     43  C   UNL A   1      44.052  26.462  30.314  1.00  0.00     0.029 A 
ATOM     44  N   UNL A   1      42.620  27.834  31.320  1.00  0.00    -0.354 N 
ATOM     45  N   UNL A   1      41.700  29.584  33.507  1.00  0.00    -0.248 NA
ATOM     46  C   UNL A   1      41.897  30.364  35.698  1.00  0.00     0.031 C 
ATOM     47  C   UNL A   1      44.504  26.696  31.617  1.00  0.00     0.029 A 
ATOM     48  C   UNL A   1      43.621  27.563  32.240  1.00  0.00     0.049 A 
ATOM     49  H   UNL A   1      41.851  28.426  31.481  1.00  0.00     0.167 HD
ATOM     50  C   UNL A   1      42.812  29.000  34.097  1.00  0.00     0.074 A 
ATOM     51  C   UNL A   1      42.901  29.538  35.440  1.00  0.00     0.031 C 
ATOM     52  C   UNL A   1      43.679  28.097  33.577  1.00  0.00     0.037 A 
BRANCH  39  53
ATOM     53  C   UNL A   1      42.365  26.328  27.804  1.00  0.00     0.064 A 
ATOM     54  C   UNL A   1      43.301  26.744  26.847  1.00  0.00     0.173 A 
ATOM     55  C   UNL A   1      41.780  25.062  27.645  1.00  0.00     0.173 A 
ATOM     56  F   UNL A   1      43.876  27.952  26.947  1.00  0.00    -0.203 F 
ATOM     57  C   UNL A   1      43.624  25.933  25.762  1.00  0.00     0.198 A 
ATOM     58  C   UNL A   1      42.123  24.244  26.572  1.00  0.00     0.198 A 
ATOM     59  F   UNL A   1      40.880  24.616  28.534  1.00  0.00    -0.203 F 
ATOM     60  F   UNL A   1      44.492  26.366  24.837  1.00  0.00    -0.200 F 
ATOM     61  C   UNL A   1      43.039  24.681  25.629  1.00  0.00     0.200 A 
ATOM     62  F   UNL A   1      41.563  23.032  26.449  1.00  0.00    -0.200 F 
ATOM     63  F   UNL A   1      43.353  23.902  24.586  1.00  0.00    -0.200 F 
ENDBRANCH  39  53
BRANCH  40  64
ATOM     64  C   UNL A   1      39.508  32.057  35.485  1.00  0.00     0.064 A 
ATOM     65  C   UNL A   1      39.968  33.367  35.666  1.00  0.00     0.173 A 
ATOM     66  C   UNL A   1      38.600  31.546  36.424  1.00  0.00     0.173 A 
ATOM     67  F   UNL A   1      40.857  33.889  34.809  1.00  0.00    -0.203 F 
ATOM     68  C   UNL A   1      39.542  34.135  36.748  1.00  0.00     0.198 A 
ATOM     69  C   UNL A   1      38.154  32.322  37.491  1.00  0.00     0.198 A 
ATOM     70  F   UNL A   1      38.134  30.294  36.297  1.00  0.00    -0.203 F 
ATOM     71  F   UNL A   1      40.023  35.373  36.919  1.00  0.00    -0.200 F 
ATOM     72  C   UNL A   1      38.629  33.615  37.654  1.00  0.00     0.200 A 
ATOM     73  F   UNL A   1      37.264  31.820  38.358  1.00  0.00    -0.200 F 
ATOM     74  F   UNL A   1      38.213  34.357  38.690  1.00  0.00    -0.200 F 
ENDBRANCH  40  64
BRANCH  52  75
ATOM     75  C   UNL A   1      44.795  27.638  34.465  1.00  0.00     0.064 A 
ATOM     76  C   UNL A   1      44.667  26.491  35.262  1.00  0.00     0.173 A 
ATOM     77  C   UNL A   1      46.014  28.329  34.497  1.00  0.00     0.173 A 
ATOM     78  F   UNL A   1      43.513  25.807  35.279  1.00  0.00    -0.203 F 
ATOM     79  C   UNL A   1      45.713  26.065  36.075  1.00  0.00     0.198 A 
ATOM     80  C   UNL A   1      47.068  27.886  35.291  1.00  0.00     0.198 A 
ATOM     81  F   UNL A   1      46.187  29.431  33.749  1.00  0.00    -0.203 F 
ATOM     82  F   UNL A   1      45.555  24.990  36.861  1.00  0.00    -0.200 F 
ATOM     83  C   UNL A   1      46.914  26.759  36.084  1.00  0.00     0.200 A 
ATOM     84  F   UNL A   1      48.231  28.552  35.293  1.00  0.00    -0.200 F 
ATOM     85  F   UNL A   1      47.922  26.345  36.864  1.00  0.00    -0.200 F 
ENDBRANCH  52  75
ENDBRANCH  26  27
ENDBRANCH  19  21
ENDBRANCH  18  19
ENDBRANCH  17  18
ENDBRANCH   1  17
TORSDOF 13
ENDMDL
MODEL 3
REMARK VINA RESULT:     -10.8      1.317      2.076
REMARK SMILES CCNC(=O)N1CC[C@@H](C(=O)OCCOC(=O)c2ccc(-c3c4nc(c(-c5c(F)c(F)c(F)c(F)c5F)c5ccc([nH]5)c(-c5c(F)c(F)c(F)c(F)c5F)c5nc(c(-c6c(F)c(F)c(F)c(F)c6F)c6ccc3[nH]6)C=C5)C=C4)cc2)[C@H]1C
REMARK SMILES IDX 13 1 12 2 10 3 11 4 9 5 6 6 7 7 81 8 8 9 82 10 4 11 3 12
REMARK SMILES IDX 5 14 2 15 1 16 14 17 15 18 16 19 17 20 18 21 19 22 80 23
REMARK SMILES IDX 20 24 79 25 21 26 22 27 23 28 73 29 24 30 78 31 72 32 74 33
REMARK SMILES IDX 25 34 77 35 71 36 70 37 26 39 58 40 38 41 57 42 39 43 42 44
REMARK SMILES IDX 56 45 75 46 40 47 41 48 55 50 76 51 43 52 27 53 28 54 36 55
REMARK SMILES IDX 29 56 30 57 34 58 37 59 31 60 32 61 35 62 33 63 59 64 60 65
REMARK SMILES IDX 68 66 61 67 62 68 66 69 69 70 63 71 64 72 67 73 65 74 44 75
REMARK SMILES IDX 45 76 53 77 46 78 47 79 51 80 54 81 48 82 49 83 52 84 50 85
REMARK H PARENT 3 13 74 38 42 49
REMARK Flexibility Score: inf
ROOT
ATOM      1  C   UNL A   1      31.151  29.567  24.603  1.00  0.00     0.274 C 
ENDROOT
BRANCH   1   2
ATOM      2  O   UNL A   1      30.584  28.292  24.238  1.00  0.00    -0.462 OA
BRANCH   2   3
ATOM      3  C   UNL A   1      30.640  27.955  22.931  1.00  0.00     0.311 C 
ATOM      4  O   UNL A   1      30.363  28.717  22.011  1.00  0.00    -0.252 OA
BRANCH   3   5
ATOM      5  C   UNL A   1      31.066  26.526  22.681  1.00  0.00     0.123 C 
ATOM      6  N   UNL A   1      32.527  24.670  22.946  1.00  0.00    -0.321 N 
ATOM      7  C   UNL A   1      31.163  24.261  23.247  1.00  0.00     0.122 C 
ATOM      8  C   UNL A   1      32.558  26.119  22.605  1.00  0.00     0.098 C 
ATOM      9  C   UNL A   1      30.461  25.537  23.666  1.00  0.00     0.039 C 
ATOM     10  C   UNL A   1      33.521  26.904  23.485  1.00  0.00     0.032 C 
BRANCH   6  11
ATOM     11  C   UNL A   1      33.338  23.748  22.334  1.00  0.00     0.317 C 
ATOM     12  N   UNL A   1      34.025  22.871  23.103  1.00  0.00    -0.338 N 
ATOM     13  H   UNL A   1      34.805  22.451  22.672  1.00  0.00     0.165 HD
ATOM     14  O   UNL A   1      33.425  23.649  21.111  1.00  0.00    -0.249 OA
BRANCH  12  15
ATOM     15  C   UNL A   1      33.776  22.460  24.469  1.00  0.00     0.114 C 
ATOM     16  C   UNL A   1      33.000  21.157  24.538  1.00  0.00     0.027 C 
ENDBRANCH  12  15
ENDBRANCH   6  11
ENDBRANCH   3   5
ENDBRANCH   2   3
ENDBRANCH   1   2
BRANCH   1  17
ATOM     17  C   UNL A   1      31.818  29.501  25.984  1.00  0.00     0.275 C 
BRANCH  17  18
ATOM     18  O   UNL A   1      33.117  30.126  25.967  1.00  0.00    -0.458 OA
BRANCH  18  19
ATOM     19  C   UNL A   1      33.311  31.142  26.836  1.00  0.00     0.338 C 
ATOM     20  O   UNL A   1      32.555  32.066  27.091  1.00  0.00    -0.246 OA
BRANCH  19  21
ATOM     21  C   UNL A   1      34.553  30.912  27.582  1.00  0.00     0.060 A 
ATOM     22  C   UNL A   1      34.807  29.624  28.061  1.00  0.00     0.016 A 
ATOM     23  C   UNL A   1      35.430  31.959  27.858  1.00  0.00     0.016 A 
ATOM     24  C   UNL A   1      35.959  29.364  28.794  1.00  0.00     0.010 A 
ATOM     25  C   UNL A   1      36.589  31.699  28.596  1.00  0.00     0.010 A 
ATOM     26  C   UNL A   1      36.861  30.400  29.059  1.00  0.00    -0.014 A 
BRANCH  26  27
ATOM     27  C   UNL A   1      38.094  30.116  29.827  1.00  0.00     0.031 A 
ATOM     28  C   UNL A   1      39.140  29.210  29.256  1.00  0.00     0.074 A 
ATOM     29  C   UNL A   1      38.265  30.687  31.032  1.00  0.00     0.049 A 
ATOM     30  N   UNL A   1      40.229  28.748  29.816  1.00  0.00    -0.248 NA
ATOM     31  C   UNL A   1      38.935  28.762  27.871  1.00  0.00     0.031 C 
ATOM     32  C   UNL A   1      37.335  31.627  31.657  1.00  0.00     0.029 A 
ATOM     33  N   UNL A   1      39.276  30.553  31.949  1.00  0.00    -0.354 N 
ATOM     34  C   UNL A   1      40.828  27.938  28.862  1.00  0.00     0.074 A 
ATOM     35  C   UNL A   1      39.978  27.964  27.689  1.00  0.00     0.031 C 
ATOM     36  C   UNL A   1      37.814  31.980  32.860  1.00  0.00     0.029 A 
ATOM     37  C   UNL A   1      39.055  31.252  33.109  1.00  0.00     0.049 A 
ATOM     38  H   UNL A   1      40.080  30.008  31.790  1.00  0.00     0.167 HD
ATOM     39  C   UNL A   1      41.982  27.238  28.963  1.00  0.00     0.037 A 
ATOM     40  C   UNL A   1      39.756  31.270  34.258  1.00  0.00     0.037 A 
ATOM     41  C   UNL A   1      42.825  27.233  30.130  1.00  0.00     0.049 A 
ATOM     42  C   UNL A   1      40.996  30.428  34.370  1.00  0.00     0.074 A 
ATOM     43  C   UNL A   1      44.029  26.578  30.326  1.00  0.00     0.029 A 
ATOM     44  N   UNL A   1      42.548  27.918  31.306  1.00  0.00    -0.354 N 
ATOM     45  N   UNL A   1      41.553  29.655  33.470  1.00  0.00    -0.248 NA
ATOM     46  C   UNL A   1      41.699  30.451  35.659  1.00  0.00     0.031 C 
ATOM     47  C   UNL A   1      44.456  26.830  31.634  1.00  0.00     0.029 A 
ATOM     48  C   UNL A   1      43.542  27.677  32.240  1.00  0.00     0.049 A 
ATOM     49  H   UNL A   1      41.762  28.491  31.453  1.00  0.00     0.167 HD
ATOM     50  C   UNL A   1      42.671  29.103  34.078  1.00  0.00     0.074 A 
ATOM     51  C   UNL A   1      42.727  29.649  35.420  1.00  0.00     0.031 C 
ATOM     52  C   UNL A   1      43.568  28.220  33.575  1.00  0.00     0.037 A 
BRANCH  39  53
ATOM     53  C   UNL A   1      42.381  26.389  27.794  1.00  0.00     0.064 A 
ATOM     54  C   UNL A   1      41.848  25.108  27.593  1.00  0.00     0.173 A 
ATOM     55  C   UNL A   1      43.293  26.878  26.846  1.00  0.00     0.173 A 
ATOM     56  F   UNL A   1      40.984  24.589  28.480  1.00  0.00    -0.203 F 
ATOM     57  C   UNL A   1      42.229  24.338  26.497  1.00  0.00     0.198 A 
ATOM     58  C   UNL A   1      43.653  26.115  25.738  1.00  0.00     0.198 A 
ATOM     59  F   UNL A   1      43.829  28.099  26.991  1.00  0.00    -0.203 F 
ATOM     60  F   UNL A   1      41.739  23.100  26.345  1.00  0.00    -0.200 F 
ATOM     61  C   UNL A   1      43.128  24.845  25.568  1.00  0.00     0.200 A 
ATOM     62  F   UNL A   1      44.515  26.610  24.838  1.00  0.00    -0.200 F 
ATOM     63  F   UNL A   1      43.491  24.103  24.513  1.00  0.00    -0.200 F 
ENDBRANCH  39  53
BRANCH  40  64
ATOM     64  C   UNL A   1      39.271  32.081  35.404  1.00  0.00     0.064 A 
ATOM     65  C   UNL A   1      38.463  31.516  36.399  1.00  0.00     0.173 A 
ATOM     66  C   UNL A   1      39.618  33.434  35.532  1.00  0.00     0.173 A 
ATOM     67  F   UNL A   1      38.084  30.233  36.305  1.00  0.00    -0.203 F 
ATOM     68  C   UNL A   1      38.014  32.277  37.477  1.00  0.00     0.198 A 
ATOM     69  C   UNL A   1      39.190  34.187  36.623  1.00  0.00     0.198 A 
ATOM     70  F   UNL A   1      40.386  34.022  34.603  1.00  0.00    -0.203 F 
ATOM     71  F   UNL A   1      37.214  31.723  38.397  1.00  0.00    -0.200 F 
ATOM     72  C   UNL A   1      38.386  33.608  37.593  1.00  0.00     0.200 A 
ATOM     73  F   UNL A   1      39.560  35.470  36.736  1.00  0.00    -0.200 F 
ATOM     74  F   UNL A   1      37.961  34.336  38.634  1.00  0.00    -0.200 F 
ENDBRANCH  40  64
BRANCH  52  75
ATOM     75  C   UNL A   1      44.683  27.793  34.481  1.00  0.00     0.064 A 
ATOM     76  C   UNL A   1      45.894  28.501  34.529  1.00  0.00     0.173 A 
ATOM     77  C   UNL A   1      44.530  26.690  35.332  1.00  0.00     0.173 A 
ATOM     78  F   UNL A   1      46.093  29.552  33.721  1.00  0.00    -0.203 F 
ATOM     79  C   UNL A   1      46.919  28.104  35.382  1.00  0.00     0.198 A 
ATOM     80  C   UNL A   1      45.548  26.312  36.203  1.00  0.00     0.198 A 
ATOM     81  F   UNL A   1      43.389  25.983  35.326  1.00  0.00    -0.203 F 
ATOM     82  F   UNL A   1      48.084  28.768  35.383  1.00  0.00    -0.200 F 
ATOM     83  C   UNL A   1      46.743  27.014  36.223  1.00  0.00     0.200 A 
ATOM     84  F   UNL A   1      45.374  25.264  37.021  1.00  0.00    -0.200 F 
ATOM     85  F   UNL A   1      47.730  26.637  37.047  1.00  0.00    -0.200 F 
ENDBRANCH  52  75
ENDBRANCH  26  27
ENDBRANCH  19  21
ENDBRANCH  18  19
ENDBRANCH  17  18
ENDBRANCH   1  17
TORSDOF 13
ENDMDL
