MODEL 1
REMARK VINA RESULT:     -10.9      0.000      0.000
REMARK SMILES CC(C)C[C@H](NC(=O)CNC(=O)[C@@H]([NH3+])C(C)C)C(=O)OCCOC(=O)c1ccc(-c2c3nc(c(-c4c(F)c(F)c(F)c(F)c4F)c4ccc([nH]4)c(-c4c(F)c(F)c(F)c(F)c4F)c4nc(c(-c5c(F)c(F)c(F)c(F)c5F)c5ccc2[nH]5)C=C4)C=C3)cc1
REMARK SMILES IDX 20 1 18 2 19 3 5 4 4 5 2 6 1 7 3 8 6 9 7 10 8 12 9 13 10 14
REMARK SMILES IDX 11 15 12 17 13 18 14 19 15 23 16 24 17 25 21 26 22 27 23 28
REMARK SMILES IDX 24 29 25 30 26 31 27 32 88 33 28 34 87 35 29 36 30 37 31 38
REMARK SMILES IDX 81 39 32 40 86 41 80 42 82 43 33 44 85 45 79 46 78 47 34 49
REMARK SMILES IDX 66 50 46 51 65 52 47 53 50 54 64 55 83 56 48 57 49 58 63 60
REMARK SMILES IDX 84 61 51 62 35 63 36 64 44 65 37 66 38 67 42 68 45 69 39 70
REMARK SMILES IDX 40 71 43 72 41 73 67 74 68 75 76 76 69 77 70 78 74 79 77 80
REMARK SMILES IDX 71 81 72 82 75 83 73 84 52 85 53 86 61 87 54 88 55 89 59 90
REMARK SMILES IDX 62 91 56 92 57 93 60 94 58 95
REMARK H PARENT 6 11 10 16 14 20 14 21 14 22 82 48 50 59
REMARK Flexibility Score: inf
ROOT
ATOM      1  O   UNL A   1      35.911  23.848  24.368  1.00  0.00    -0.461 OA
ENDROOT
BRANCH   1   2
ATOM      2  C   UNL A   1      34.667  24.305  24.062  1.00  0.00     0.328 C 
ATOM      3  O   UNL A   1      34.359  24.772  22.969  1.00  0.00    -0.250 OA
BRANCH   2   4
ATOM      4  C   UNL A   1      33.700  24.306  25.257  1.00  0.00     0.192 C 
BRANCH   4   5
ATOM      5  C   UNL A   1      33.558  25.736  25.810  1.00  0.00     0.040 C 
BRANCH   5   6
ATOM      6  C   UNL A   1      32.157  26.189  26.284  1.00  0.00    -0.015 C 
ATOM      7  C   UNL A   1      31.841  27.669  26.079  1.00  0.00     0.007 C 
ATOM      8  C   UNL A   1      31.088  25.364  25.560  1.00  0.00     0.007 C 
ENDBRANCH   5   6
ENDBRANCH   4   5
BRANCH   4   9
ATOM      9  N   UNL A   1      34.092  23.389  26.331  1.00  0.00    -0.341 N 
ATOM     10  C   UNL A   1      33.838  22.050  26.461  1.00  0.00     0.240 C 
ATOM     11  H   UNL A   1      34.612  23.793  27.063  1.00  0.00     0.164 HD
ATOM     12  O   UNL A   1      34.289  21.464  27.448  1.00  0.00    -0.273 OA
BRANCH  10  13
ATOM     13  C   UNL A   1      33.042  21.281  25.385  1.00  0.00     0.216 C 
BRANCH  13  14
ATOM     14  N   UNL A   1      32.589  19.988  25.875  1.00  0.00    -0.342 N 
ATOM     15  C   UNL A   1      32.895  18.710  25.531  1.00  0.00     0.278 C 
ATOM     16  H   UNL A   1      31.928  20.051  26.601  1.00  0.00     0.164 HD
ATOM     17  O   UNL A   1      32.243  17.823  26.095  1.00  0.00    -0.268 OA
BRANCH  15  18
ATOM     18  C   UNL A   1      34.014  18.312  24.531  1.00  0.00     0.273 C 
BRANCH  18  19
ATOM     19  N   UNL A   1      35.339  18.820  24.942  1.00  0.00    -0.347 N 
ATOM     20  H   UNL A   1      36.069  18.231  24.542  1.00  0.00     0.345 HD
ATOM     21  H   UNL A   1      35.408  18.803  25.960  1.00  0.00     0.345 HD
ATOM     22  H   UNL A   1      35.452  19.778  24.611  1.00  0.00     0.345 HD
ENDBRANCH  18  19
BRANCH  18  23
ATOM     23  C   UNL A   1      34.007  16.795  24.230  1.00  0.00     0.051 C 
ATOM     24  C   UNL A   1      34.309  16.549  22.743  1.00  0.00     0.014 C 
ATOM     25  C   UNL A   1      35.050  16.031  25.059  1.00  0.00     0.014 C 
ENDBRANCH  18  23
ENDBRANCH  15  18
ENDBRANCH  13  14
ENDBRANCH  10  13
ENDBRANCH   4   9
ENDBRANCH   2   4
ENDBRANCH   1   2
BRANCH   1  26
ATOM     26  C   UNL A   1      36.381  22.793  23.506  1.00  0.00     0.274 C 
BRANCH  26  27
ATOM     27  C   UNL A   1      37.066  21.648  24.263  1.00  0.00     0.275 C 
BRANCH  27  28
ATOM     28  O   UNL A   1      37.387  21.976  25.629  1.00  0.00    -0.458 OA
BRANCH  28  29
ATOM     29  C   UNL A   1      38.651  21.663  26.005  1.00  0.00     0.338 C 
ATOM     30  O   UNL A   1      39.232  20.610  25.803  1.00  0.00    -0.246 OA
BRANCH  29  31
ATOM     31  C   UNL A   1      39.327  22.835  26.592  1.00  0.00     0.060 A 
ATOM     32  C   UNL A   1      38.915  24.103  26.166  1.00  0.00     0.016 A 
ATOM     33  C   UNL A   1      40.405  22.703  27.470  1.00  0.00     0.016 A 
ATOM     34  C   UNL A   1      39.578  25.244  26.612  1.00  0.00     0.010 A 
ATOM     35  C   UNL A   1      41.077  23.850  27.910  1.00  0.00     0.010 A 
ATOM     36  C   UNL A   1      40.674  25.126  27.475  1.00  0.00    -0.014 A 
BRANCH  36  37
ATOM     37  C   UNL A   1      41.443  26.331  27.865  1.00  0.00     0.031 A 
ATOM     38  C   UNL A   1      40.770  27.419  28.650  1.00  0.00     0.074 A 
ATOM     39  C   UNL A   1      42.740  26.449  27.527  1.00  0.00     0.049 A 
ATOM     40  N   UNL A   1      41.221  28.602  28.984  1.00  0.00    -0.248 NA
ATOM     41  C   UNL A   1      39.407  27.134  29.126  1.00  0.00     0.031 C 
ATOM     42  C   UNL A   1      43.522  25.437  26.821  1.00  0.00     0.029 A 
ATOM     43  N   UNL A   1      43.622  27.484  27.720  1.00  0.00    -0.354 N 
ATOM     44  C   UNL A   1      40.192  29.211  29.688  1.00  0.00     0.074 A 
ATOM     45  C   UNL A   1      39.092  28.270  29.733  1.00  0.00     0.031 C 
ATOM     46  C   UNL A   1      44.765  25.909  26.621  1.00  0.00     0.029 A 
ATOM     47  C   UNL A   1      44.848  27.273  27.142  1.00  0.00     0.049 A 
ATOM     48  H   UNL A   1      43.396  28.298  28.226  1.00  0.00     0.167 HD
ATOM     49  C   UNL A   1      40.168  30.446  30.243  1.00  0.00     0.037 A 
ATOM     50  C   UNL A   1      45.901  28.102  27.006  1.00  0.00     0.037 A 
ATOM     51  C   UNL A   1      41.267  31.375  30.211  1.00  0.00     0.049 A 
ATOM     52  C   UNL A   1      45.818  29.502  27.557  1.00  0.00     0.074 A 
ATOM     53  C   UNL A   1      41.346  32.639  30.770  1.00  0.00     0.029 A 
ATOM     54  N   UNL A   1      42.478  31.141  29.578  1.00  0.00    -0.354 N 
ATOM     55  N   UNL A   1      44.843  30.074  28.220  1.00  0.00    -0.248 NA
ATOM     56  C   UNL A   1      46.978  30.377  27.329  1.00  0.00     0.031 C 
ATOM     57  C   UNL A   1      42.589  33.187  30.437  1.00  0.00     0.029 A 
ATOM     58  C   UNL A   1      43.300  32.249  29.707  1.00  0.00     0.049 A 
ATOM     59  H   UNL A   1      42.720  30.310  29.108  1.00  0.00     0.167 HD
ATOM     60  C   UNL A   1      45.276  31.363  28.501  1.00  0.00     0.074 A 
ATOM     61  C   UNL A   1      46.609  31.488  27.949  1.00  0.00     0.031 C 
ATOM     62  C   UNL A   1      44.625  32.357  29.154  1.00  0.00     0.037 A 
BRANCH  49  63
ATOM     63  C   UNL A   1      38.897  30.885  30.905  1.00  0.00     0.064 A 
ATOM     64  C   UNL A   1      38.699  30.751  32.286  1.00  0.00     0.173 A 
ATOM     65  C   UNL A   1      37.882  31.490  30.148  1.00  0.00     0.173 A 
ATOM     66  F   UNL A   1      39.635  30.167  33.049  1.00  0.00    -0.203 F 
ATOM     67  C   UNL A   1      37.520  31.192  32.884  1.00  0.00     0.198 A 
ATOM     68  C   UNL A   1      36.716  31.950  30.752  1.00  0.00     0.198 A 
ATOM     69  F   UNL A   1      38.028  31.644  28.823  1.00  0.00    -0.203 F 
ATOM     70  F   UNL A   1      37.336  31.024  34.201  1.00  0.00    -0.200 F 
ATOM     71  C   UNL A   1      36.534  31.797  32.118  1.00  0.00     0.200 A 
ATOM     72  F   UNL A   1      35.769  32.543  30.012  1.00  0.00    -0.200 F 
ATOM     73  F   UNL A   1      35.405  32.227  32.696  1.00  0.00    -0.200 F 
ENDBRANCH  49  63
BRANCH  50  74
ATOM     74  C   UNL A   1      47.110  27.652  26.269  1.00  0.00     0.064 A 
ATOM     75  C   UNL A   1      47.173  27.724  24.870  1.00  0.00     0.173 A 
ATOM     76  C   UNL A   1      48.217  27.121  26.946  1.00  0.00     0.173 A 
ATOM     77  F   UNL A   1      46.127  28.197  24.177  1.00  0.00    -0.203 F 
ATOM     78  C   UNL A   1      48.292  27.267  24.177  1.00  0.00     0.198 A 
ATOM     79  C   UNL A   1      49.345  26.690  26.255  1.00  0.00     0.198 A 
ATOM     80  F   UNL A   1      48.202  27.025  28.284  1.00  0.00    -0.203 F 
ATOM     81  F   UNL A   1      48.310  27.305  22.839  1.00  0.00    -0.200 F 
ATOM     82  C   UNL A   1      49.380  26.756  24.871  1.00  0.00     0.200 A 
ATOM     83  F   UNL A   1      50.398  26.206  26.929  1.00  0.00    -0.200 F 
ATOM     84  F   UNL A   1      50.457  26.320  24.203  1.00  0.00    -0.200 F 
ENDBRANCH  50  74
BRANCH  62  85
ATOM     85  C   UNL A   1      45.349  33.658  29.329  1.00  0.00     0.064 A 
ATOM     86  C   UNL A   1      46.198  33.883  30.422  1.00  0.00     0.173 A 
ATOM     87  C   UNL A   1      45.234  34.672  28.364  1.00  0.00     0.173 A 
ATOM     88  F   UNL A   1      46.327  32.951  31.378  1.00  0.00    -0.203 F 
ATOM     89  C   UNL A   1      46.895  35.082  30.551  1.00  0.00     0.198 A 
ATOM     90  C   UNL A   1      45.952  35.858  28.484  1.00  0.00     0.198 A 
ATOM     91  F   UNL A   1      44.439  34.503  27.299  1.00  0.00    -0.203 F 
ATOM     92  F   UNL A   1      47.676  35.290  31.621  1.00  0.00    -0.200 F 
ATOM     93  C   UNL A   1      46.778  36.064  29.579  1.00  0.00     0.200 A 
ATOM     94  F   UNL A   1      45.846  36.803  27.539  1.00  0.00    -0.200 F 
ATOM     95  F   UNL A   1      47.459  37.213  29.699  1.00  0.00    -0.200 F 
ENDBRANCH  62  85
ENDBRANCH  36  37
ENDBRANCH  29  31
ENDBRANCH  28  29
ENDBRANCH  27  28
ENDBRANCH  26  27
ENDBRANCH   1  26
TORSDOF 19
ENDMDL
MODEL 2
REMARK VINA RESULT:     -10.8      4.374      9.386
REMARK SMILES CC(C)C[C@H](NC(=O)CNC(=O)[C@@H]([NH3+])C(C)C)C(=O)OCCOC(=O)c1ccc(-c2c3nc(c(-c4c(F)c(F)c(F)c(F)c4F)c4ccc([nH]4)c(-c4c(F)c(F)c(F)c(F)c4F)c4nc(c(-c5c(F)c(F)c(F)c(F)c5F)c5ccc2[nH]5)C=C4)C=C3)cc1
REMARK SMILES IDX 20 1 18 2 19 3 5 4 4 5 2 6 1 7 3 8 6 9 7 10 8 12 9 13 10 14
REMARK SMILES IDX 11 15 12 17 13 18 14 19 15 23 16 24 17 25 21 26 22 27 23 28
REMARK SMILES IDX 24 29 25 30 26 31 27 32 88 33 28 34 87 35 29 36 30 37 31 38
REMARK SMILES IDX 81 39 32 40 86 41 80 42 82 43 33 44 85 45 79 46 78 47 34 49
REMARK SMILES IDX 66 50 46 51 65 52 47 53 50 54 64 55 83 56 48 57 49 58 63 60
REMARK SMILES IDX 84 61 51 62 35 63 36 64 44 65 37 66 38 67 42 68 45 69 39 70
REMARK SMILES IDX 40 71 43 72 41 73 67 74 68 75 76 76 69 77 70 78 74 79 77 80
REMARK SMILES IDX 71 81 72 82 75 83 73 84 52 85 53 86 61 87 54 88 55 89 59 90
REMARK SMILES IDX 62 91 56 92 57 93 60 94 58 95
REMARK H PARENT 6 11 10 16 14 20 14 21 14 22 82 48 50 59
REMARK Flexibility Score: inf
ROOT
ATOM      1  O   UNL A   1      32.098  28.254  25.686  1.00  0.00    -0.461 OA
ENDROOT
BRANCH   1   2
ATOM      2  C   UNL A   1      31.453  27.337  26.458  1.00  0.00     0.328 C 
ATOM      3  O   UNL A   1      31.049  27.564  27.595  1.00  0.00    -0.250 OA
BRANCH   2   4
ATOM      4  C   UNL A   1      31.388  25.938  25.827  1.00  0.00     0.192 C 
BRANCH   4   5
ATOM      5  C   UNL A   1      31.082  26.060  24.322  1.00  0.00     0.040 C 
BRANCH   5   6
ATOM      6  C   UNL A   1      32.088  25.431  23.331  1.00  0.00    -0.015 C 
ATOM      7  C   UNL A   1      31.842  25.749  21.856  1.00  0.00     0.007 C 
ATOM      8  C   UNL A   1      33.505  25.889  23.690  1.00  0.00     0.007 C 
ENDBRANCH   5   6
ENDBRANCH   4   5
BRANCH   4   9
ATOM      9  N   UNL A   1      30.414  25.049  26.467  1.00  0.00    -0.341 N 
ATOM     10  C   UNL A   1      30.567  23.751  26.878  1.00  0.00     0.240 C 
ATOM     11  H   UNL A   1      29.524  25.440  26.625  1.00  0.00     0.164 HD
ATOM     12  O   UNL A   1      29.608  23.196  27.421  1.00  0.00    -0.273 OA
BRANCH  10  13
ATOM     13  C   UNL A   1      31.910  23.012  26.705  1.00  0.00     0.216 C 
BRANCH  13  14
ATOM     14  N   UNL A   1      31.725  21.697  26.111  1.00  0.00    -0.342 N 
ATOM     15  C   UNL A   1      32.571  20.839  25.483  1.00  0.00     0.278 C 
ATOM     16  H   UNL A   1      30.803  21.361  26.176  1.00  0.00     0.164 HD
ATOM     17  O   UNL A   1      32.057  19.821  25.003  1.00  0.00    -0.268 OA
BRANCH  15  18
ATOM     18  C   UNL A   1      34.107  21.039  25.376  1.00  0.00     0.273 C 
BRANCH  18  19
ATOM     19  N   UNL A   1      34.810  19.788  25.024  1.00  0.00    -0.347 N 
ATOM     20  H   UNL A   1      35.408  19.503  25.800  1.00  0.00     0.345 HD
ATOM     21  H   UNL A   1      35.383  19.942  24.193  1.00  0.00     0.345 HD
ATOM     22  H   UNL A   1      34.126  19.056  24.834  1.00  0.00     0.345 HD
ENDBRANCH  18  19
BRANCH  18  23
ATOM     23  C   UNL A   1      34.472  22.227  24.457  1.00  0.00     0.051 C 
ATOM     24  C   UNL A   1      35.962  22.167  24.081  1.00  0.00     0.014 C 
ATOM     25  C   UNL A   1      33.654  22.229  23.156  1.00  0.00     0.014 C 
ENDBRANCH  18  23
ENDBRANCH  15  18
ENDBRANCH  13  14
ENDBRANCH  10  13
ENDBRANCH   4   9
ENDBRANCH   2   4
ENDBRANCH   1   2
BRANCH   1  26
ATOM     26  C   UNL A   1      31.315  29.426  25.383  1.00  0.00     0.274 C 
BRANCH  26  27
ATOM     27  C   UNL A   1      31.788  30.682  26.125  1.00  0.00     0.275 C 
BRANCH  27  28
ATOM     28  O   UNL A   1      33.201  30.681  26.410  1.00  0.00    -0.458 OA
BRANCH  28  29
ATOM     29  C   UNL A   1      33.611  31.664  27.248  1.00  0.00     0.338 C 
ATOM     30  O   UNL A   1      32.973  32.646  27.588  1.00  0.00    -0.246 OA
BRANCH  29  31
ATOM     31  C   UNL A   1      34.920  31.333  27.840  1.00  0.00     0.060 A 
ATOM     32  C   UNL A   1      35.108  30.028  28.312  1.00  0.00     0.016 A 
ATOM     33  C   UNL A   1      35.915  32.295  28.019  1.00  0.00     0.016 A 
ATOM     34  C   UNL A   1      36.287  29.680  28.967  1.00  0.00     0.010 A 
ATOM     35  C   UNL A   1      37.096  31.948  28.687  1.00  0.00     0.010 A 
ATOM     36  C   UNL A   1      37.284  30.641  29.173  1.00  0.00    -0.014 A 
BRANCH  36  37
ATOM     37  C   UNL A   1      38.492  30.298  29.960  1.00  0.00     0.031 A 
ATOM     38  C   UNL A   1      39.512  29.360  29.384  1.00  0.00     0.074 A 
ATOM     39  C   UNL A   1      38.680  30.829  31.182  1.00  0.00     0.049 A 
ATOM     40  N   UNL A   1      40.570  28.835  29.949  1.00  0.00    -0.248 NA
ATOM     41  C   UNL A   1      39.317  28.964  27.981  1.00  0.00     0.031 C 
ATOM     42  C   UNL A   1      37.796  31.797  31.826  1.00  0.00     0.029 A 
ATOM     43  N   UNL A   1      39.673  30.612  32.106  1.00  0.00    -0.354 N 
ATOM     44  C   UNL A   1      41.154  28.031  28.981  1.00  0.00     0.074 A 
ATOM     45  C   UNL A   1      40.333  28.134  27.792  1.00  0.00     0.031 C 
ATOM     46  C   UNL A   1      38.274  32.077  33.050  1.00  0.00     0.029 A 
ATOM     47  C   UNL A   1      39.470  31.271  33.292  1.00  0.00     0.049 A 
ATOM     48  H   UNL A   1      40.456  30.040  31.932  1.00  0.00     0.167 HD
ATOM     49  C   UNL A   1      42.271  27.273  29.079  1.00  0.00     0.037 A 
ATOM     50  C   UNL A   1      40.144  31.195  34.457  1.00  0.00     0.037 A 
ATOM     51  C   UNL A   1      43.094  27.183  30.256  1.00  0.00     0.049 A 
ATOM     52  C   UNL A   1      41.334  30.278  34.567  1.00  0.00     0.074 A 
ATOM     53  C   UNL A   1      44.262  26.462  30.440  1.00  0.00     0.029 A 
ATOM     54  N   UNL A   1      42.831  27.832  31.452  1.00  0.00    -0.354 N 
ATOM     55  N   UNL A   1      41.880  29.518  33.649  1.00  0.00    -0.248 NA
ATOM     56  C   UNL A   1      41.994  30.198  35.879  1.00  0.00     0.031 C 
ATOM     57  C   UNL A   1      44.681  26.640  31.763  1.00  0.00     0.029 A 
ATOM     58  C   UNL A   1      43.799  27.504  32.389  1.00  0.00     0.049 A 
ATOM     59  H   UNL A   1      42.072  28.437  31.613  1.00  0.00     0.167 HD
ATOM     60  C   UNL A   1      42.952  28.885  34.265  1.00  0.00     0.074 A 
ATOM     61  C   UNL A   1      42.990  29.360  35.632  1.00  0.00     0.031 C 
ATOM     62  C   UNL A   1      43.824  27.987  33.746  1.00  0.00     0.037 A 
BRANCH  49  63
ATOM     63  C   UNL A   1      42.654  26.444  27.889  1.00  0.00     0.064 A 
ATOM     64  C   UNL A   1      43.552  26.914  26.921  1.00  0.00     0.173 A 
ATOM     65  C   UNL A   1      42.146  25.145  27.744  1.00  0.00     0.173 A 
ATOM     66  F   UNL A   1      44.053  28.155  27.010  1.00  0.00    -0.203 F 
ATOM     67  C   UNL A   1      43.916  26.117  25.838  1.00  0.00     0.198 A 
ATOM     68  C   UNL A   1      42.530  24.342  26.673  1.00  0.00     0.198 A 
ATOM     69  F   UNL A   1      41.287  24.650  28.648  1.00  0.00    -0.203 F 
ATOM     70  F   UNL A   1      44.749  26.596  24.905  1.00  0.00    -0.200 F 
ATOM     71  C   UNL A   1      43.410  24.830  25.720  1.00  0.00     0.200 A 
ATOM     72  F   UNL A   1      42.048  23.096  26.566  1.00  0.00    -0.200 F 
ATOM     73  F   UNL A   1      43.766  24.061  24.682  1.00  0.00    -0.200 F 
ENDBRANCH  49  63
BRANCH  50  74
ATOM     74  C   UNL A   1      39.678  31.970  35.635  1.00  0.00     0.064 A 
ATOM     75  C   UNL A   1      38.653  31.487  36.461  1.00  0.00     0.173 A 
ATOM     76  C   UNL A   1      40.232  33.221  35.946  1.00  0.00     0.173 A 
ATOM     77  F   UNL A   1      38.073  30.310  36.186  1.00  0.00    -0.203 F 
ATOM     78  C   UNL A   1      38.192  32.232  37.545  1.00  0.00     0.198 A 
ATOM     79  C   UNL A   1      39.789  33.952  37.044  1.00  0.00     0.198 A 
ATOM     80  F   UNL A   1      41.210  33.730  35.182  1.00  0.00    -0.203 F 
ATOM     81  F   UNL A   1      37.182  31.768  38.291  1.00  0.00    -0.200 F 
ATOM     82  C   UNL A   1      38.764  33.461  37.839  1.00  0.00     0.200 A 
ATOM     83  F   UNL A   1      40.351  35.134  37.331  1.00  0.00    -0.200 F 
ATOM     84  F   UNL A   1      38.321  34.175  38.882  1.00  0.00    -0.200 F 
ENDBRANCH  50  74
BRANCH  62  85
ATOM     85  C   UNL A   1      44.907  27.474  34.647  1.00  0.00     0.064 A 
ATOM     86  C   UNL A   1      44.743  26.295  35.390  1.00  0.00     0.173 A 
ATOM     87  C   UNL A   1      46.140  28.138  34.728  1.00  0.00     0.173 A 
ATOM     88  F   UNL A   1      43.576  25.634  35.358  1.00  0.00    -0.203 F 
ATOM     89  C   UNL A   1      45.771  25.808  36.192  1.00  0.00     0.198 A 
ATOM     90  C   UNL A   1      47.174  27.634  35.513  1.00  0.00     0.198 A 
ATOM     91  F   UNL A   1      46.347  29.266  34.034  1.00  0.00    -0.203 F 
ATOM     92  F   UNL A   1      45.583  24.698  36.920  1.00  0.00    -0.200 F 
ATOM     93  C   UNL A   1      46.988  26.472  36.247  1.00  0.00     0.200 A 
ATOM     94  F   UNL A   1      48.352  28.272  35.556  1.00  0.00    -0.200 F 
ATOM     95  F   UNL A   1      47.980  25.995  37.012  1.00  0.00    -0.200 F 
ENDBRANCH  62  85
ENDBRANCH  36  37
ENDBRANCH  29  31
ENDBRANCH  28  29
ENDBRANCH  27  28
ENDBRANCH  26  27
ENDBRANCH   1  26
TORSDOF 19
ENDMDL
MODEL 3
REMARK VINA RESULT:     -10.8      1.078      2.036
REMARK SMILES CC(C)C[C@H](NC(=O)CNC(=O)[C@@H]([NH3+])C(C)C)C(=O)OCCOC(=O)c1ccc(-c2c3nc(c(-c4c(F)c(F)c(F)c(F)c4F)c4ccc([nH]4)c(-c4c(F)c(F)c(F)c(F)c4F)c4nc(c(-c5c(F)c(F)c(F)c(F)c5F)c5ccc2[nH]5)C=C4)C=C3)cc1
REMARK SMILES IDX 20 1 18 2 19 3 5 4 4 5 2 6 1 7 3 8 6 9 7 10 8 12 9 13 10 14
REMARK SMILES IDX 11 15 12 17 13 18 14 19 15 23 16 24 17 25 21 26 22 27 23 28
REMARK SMILES IDX 24 29 25 30 26 31 27 32 88 33 28 34 87 35 29 36 30 37 31 38
REMARK SMILES IDX 81 39 32 40 86 41 80 42 82 43 33 44 85 45 79 46 78 47 34 49
REMARK SMILES IDX 66 50 46 51 65 52 47 53 50 54 64 55 83 56 48 57 49 58 63 60
REMARK SMILES IDX 84 61 51 62 35 63 36 64 44 65 37 66 38 67 42 68 45 69 39 70
REMARK SMILES IDX 40 71 43 72 41 73 67 74 68 75 76 76 69 77 70 78 74 79 77 80
REMARK SMILES IDX 71 81 72 82 75 83 73 84 52 85 53 86 61 87 54 88 55 89 59 90
REMARK SMILES IDX 62 91 56 92 57 93 60 94 58 95
REMARK H PARENT 6 11 10 16 14 20 14 21 14 22 82 48 50 59
REMARK Flexibility Score: inf
ROOT
ATOM      1  O   UNL A   1      36.365  23.272  24.175  1.00  0.00    -0.461 OA
ENDROOT
BRANCH   1   2
ATOM      2  C   UNL A   1      35.581  23.939  25.065  1.00  0.00     0.328 C 
ATOM      3  O   UNL A   1      36.006  24.468  26.088  1.00  0.00    -0.250 OA
BRANCH   2   4
ATOM      4  C   UNL A   1      34.081  23.863  24.741  1.00  0.00     0.192 C 
BRANCH   4   5
ATOM      5  C   UNL A   1      33.684  25.042  23.833  1.00  0.00     0.040 C 
BRANCH   5   6
ATOM      6  C   UNL A   1      32.837  24.730  22.577  1.00  0.00    -0.015 C 
ATOM      7  C   UNL A   1      33.016  25.698  21.408  1.00  0.00     0.007 C 
ATOM      8  C   UNL A   1      33.163  23.317  22.086  1.00  0.00     0.007 C 
ENDBRANCH   5   6
ENDBRANCH   4   5
BRANCH   4   9
ATOM      9  N   UNL A   1      33.223  23.833  25.929  1.00  0.00    -0.341 N 
ATOM     10  C   UNL A   1      32.829  22.761  26.685  1.00  0.00     0.240 C 
ATOM     11  H   UNL A   1      32.882  24.708  26.227  1.00  0.00     0.164 HD
ATOM     12  O   UNL A   1      32.114  22.973  27.668  1.00  0.00    -0.273 OA
BRANCH  10  13
ATOM     13  C   UNL A   1      33.294  21.330  26.343  1.00  0.00     0.216 C 
BRANCH  13  14
ATOM     14  N   UNL A   1      32.710  20.860  25.096  1.00  0.00    -0.342 N 
ATOM     15  C   UNL A   1      32.700  19.650  24.479  1.00  0.00     0.278 C 
ATOM     16  H   UNL A   1      32.225  21.558  24.600  1.00  0.00     0.164 HD
ATOM     17  O   UNL A   1      32.180  19.616  23.356  1.00  0.00    -0.268 OA
BRANCH  15  18
ATOM     18  C   UNL A   1      33.249  18.339  25.103  1.00  0.00     0.273 C 
BRANCH  18  19
ATOM     19  N   UNL A   1      32.796  18.150  26.496  1.00  0.00    -0.347 N 
ATOM     20  H   UNL A   1      31.882  18.587  26.619  1.00  0.00     0.345 HD
ATOM     21  H   UNL A   1      33.467  18.582  27.133  1.00  0.00     0.345 HD
ATOM     22  H   UNL A   1      32.729  17.153  26.699  1.00  0.00     0.345 HD
ENDBRANCH  18  19
BRANCH  18  23
ATOM     23  C   UNL A   1      32.980  17.113  24.200  1.00  0.00     0.051 C 
ATOM     24  C   UNL A   1      34.110  16.956  23.170  1.00  0.00     0.014 C 
ATOM     25  C   UNL A   1      32.885  15.807  25.004  1.00  0.00     0.014 C 
ENDBRANCH  18  23
ENDBRANCH  15  18
ENDBRANCH  13  14
ENDBRANCH  10  13
ENDBRANCH   4   9
ENDBRANCH   2   4
ENDBRANCH   1   2
BRANCH   1  26
ATOM     26  C   UNL A   1      36.171  21.843  24.173  1.00  0.00     0.274 C 
BRANCH  26  27
ATOM     27  C   UNL A   1      37.401  21.062  24.653  1.00  0.00     0.275 C 
BRANCH  27  28
ATOM     28  O   UNL A   1      37.820  21.417  25.986  1.00  0.00    -0.458 OA
BRANCH  28  29
ATOM     29  C   UNL A   1      39.138  21.225  26.236  1.00  0.00     0.338 C 
ATOM     30  O   UNL A   1      39.792  20.228  25.978  1.00  0.00    -0.246 OA
BRANCH  29  31
ATOM     31  C   UNL A   1      39.757  22.459  26.754  1.00  0.00     0.060 A 
ATOM     32  C   UNL A   1      39.347  23.675  26.193  1.00  0.00     0.016 A 
ATOM     33  C   UNL A   1      40.783  22.430  27.699  1.00  0.00     0.016 A 
ATOM     34  C   UNL A   1      39.963  24.866  26.572  1.00  0.00     0.010 A 
ATOM     35  C   UNL A   1      41.408  23.627  28.073  1.00  0.00     0.010 A 
ATOM     36  C   UNL A   1      41.008  24.850  27.503  1.00  0.00    -0.014 A 
BRANCH  36  37
ATOM     37  C   UNL A   1      41.731  26.102  27.828  1.00  0.00     0.031 A 
ATOM     38  C   UNL A   1      41.036  27.179  28.610  1.00  0.00     0.074 A 
ATOM     39  C   UNL A   1      43.005  26.274  27.432  1.00  0.00     0.049 A 
ATOM     40  N   UNL A   1      41.441  28.392  28.891  1.00  0.00    -0.248 NA
ATOM     41  C   UNL A   1      39.711  26.842  29.151  1.00  0.00     0.031 C 
ATOM     42  C   UNL A   1      43.808  25.281  26.721  1.00  0.00     0.029 A 
ATOM     43  N   UNL A   1      43.841  27.356  27.559  1.00  0.00    -0.354 N 
ATOM     44  C   UNL A   1      40.412  28.971  29.622  1.00  0.00     0.074 A 
ATOM     45  C   UNL A   1      39.364  27.978  29.739  1.00  0.00     0.031 C 
ATOM     46  C   UNL A   1      45.016  25.807  26.455  1.00  0.00     0.029 A 
ATOM     47  C   UNL A   1      45.051  27.188  26.934  1.00  0.00     0.049 A 
ATOM     48  H   UNL A   1      43.595  28.173  28.051  1.00  0.00     0.167 HD
ATOM     49  C   UNL A   1      40.349  30.218  30.143  1.00  0.00     0.037 A 
ATOM     50  C   UNL A   1      46.055  28.064  26.731  1.00  0.00     0.037 A 
ATOM     51  C   UNL A   1      41.398  31.199  30.039  1.00  0.00     0.049 A 
ATOM     52  C   UNL A   1      45.925  29.474  27.247  1.00  0.00     0.074 A 
ATOM     53  C   UNL A   1      41.436  32.481  30.559  1.00  0.00     0.029 A 
ATOM     54  N   UNL A   1      42.592  31.006  29.362  1.00  0.00    -0.354 N 
ATOM     55  N   UNL A   1      44.950  30.016  27.935  1.00  0.00    -0.248 NA
ATOM     56  C   UNL A   1      47.029  30.397  26.946  1.00  0.00     0.031 C 
ATOM     57  C   UNL A   1      42.635  33.080  30.159  1.00  0.00     0.029 A 
ATOM     58  C   UNL A   1      43.362  32.157  29.425  1.00  0.00     0.049 A 
ATOM     59  H   UNL A   1      42.856  30.175  28.905  1.00  0.00     0.167 HD
ATOM     60  C   UNL A   1      45.329  31.333  28.161  1.00  0.00     0.074 A 
ATOM     61  C   UNL A   1      46.630  31.507  27.550  1.00  0.00     0.031 C 
ATOM     62  C   UNL A   1      44.656  32.313  28.814  1.00  0.00     0.037 A 
BRANCH  49  63
ATOM     63  C   UNL A   1      39.086  30.614  30.846  1.00  0.00     0.064 A 
ATOM     64  C   UNL A   1      38.946  30.498  32.235  1.00  0.00     0.173 A 
ATOM     65  C   UNL A   1      38.017  31.159  30.118  1.00  0.00     0.173 A 
ATOM     66  F   UNL A   1      39.936  29.971  32.972  1.00  0.00    -0.203 F 
ATOM     67  C   UNL A   1      37.773  30.898  32.871  1.00  0.00     0.198 A 
ATOM     68  C   UNL A   1      36.855  31.579  30.759  1.00  0.00     0.198 A 
ATOM     69  F   UNL A   1      38.105  31.294  28.786  1.00  0.00    -0.203 F 
ATOM     70  F   UNL A   1      37.646  30.748  34.197  1.00  0.00    -0.200 F 
ATOM     71  C   UNL A   1      36.732  31.444  32.133  1.00  0.00     0.200 A 
ATOM     72  F   UNL A   1      35.856  32.115  30.046  1.00  0.00    -0.200 F 
ATOM     73  F   UNL A   1      35.608  31.836  32.747  1.00  0.00    -0.200 F 
ENDBRANCH  49  63
BRANCH  50  74
ATOM     74  C   UNL A   1      47.254  27.653  25.956  1.00  0.00     0.064 A 
ATOM     75  C   UNL A   1      48.424  27.230  26.602  1.00  0.00     0.173 A 
ATOM     76  C   UNL A   1      47.260  27.695  24.554  1.00  0.00     0.173 A 
ATOM     77  F   UNL A   1      48.475  27.201  27.942  1.00  0.00    -0.203 F 
ATOM     78  C   UNL A   1      49.560  26.879  25.875  1.00  0.00     0.198 A 
ATOM     79  C   UNL A   1      48.386  27.319  23.828  1.00  0.00     0.198 A 
ATOM     80  F   UNL A   1      46.167  28.099  23.890  1.00  0.00    -0.203 F 
ATOM     81  F   UNL A   1      50.679  26.522  26.516  1.00  0.00    -0.200 F 
ATOM     82  C   UNL A   1      49.538  26.919  24.487  1.00  0.00     0.200 A 
ATOM     83  F   UNL A   1      48.358  27.349  22.488  1.00  0.00    -0.200 F 
ATOM     84  F   UNL A   1      50.630  26.579  23.789  1.00  0.00    -0.200 F 
ENDBRANCH  50  74
BRANCH  62  85
ATOM     85  C   UNL A   1      45.320  33.653  28.922  1.00  0.00     0.064 A 
ATOM     86  C   UNL A   1      45.081  34.666  27.982  1.00  0.00     0.173 A 
ATOM     87  C   UNL A   1      46.163  33.945  30.006  1.00  0.00     0.173 A 
ATOM     88  F   UNL A   1      44.297  34.429  26.920  1.00  0.00    -0.203 F 
ATOM     89  C   UNL A   1      45.673  35.919  28.116  1.00  0.00     0.198 A 
ATOM     90  C   UNL A   1      46.732  35.207  30.149  1.00  0.00     0.198 A 
ATOM     91  F   UNL A   1      46.419  33.011  30.933  1.00  0.00    -0.203 F 
ATOM     92  F   UNL A   1      45.458  36.863  27.189  1.00  0.00    -0.200 F 
ATOM     93  C   UNL A   1      46.491  36.191  29.203  1.00  0.00     0.200 A 
ATOM     94  F   UNL A   1      47.514  35.471  31.206  1.00  0.00    -0.200 F 
ATOM     95  F   UNL A   1      47.050  37.402  29.336  1.00  0.00    -0.200 F 
ENDBRANCH  62  85
ENDBRANCH  36  37
ENDBRANCH  29  31
ENDBRANCH  28  29
ENDBRANCH  27  28
ENDBRANCH  26  27
ENDBRANCH   1  26
TORSDOF 19
ENDMDL
