MODEL 1
REMARK VINA RESULT:     -12.8      0.000      0.000
REMARK SMILES COC(=O)c1c(NC(=O)[C@@H]2[C@H]3CC[C@H](CC3)[C@H]2C(=O)OCCOC(=O)c2ccc(-c3c4nc(c(-c5c(F)c(F)c(F)c(F)c5F)c5ccc([nH]5)c(-c5c(F)c(F)c(F)c(F)c5F)c5nc(c(-c6c(F)c(F)c(F)c(F)c6F)c6ccc3[nH]6)C=C5)C=C4)cc2)sc(C)c1-c1ccc(C)cc1
REMARK SMILES IDX 21 1 20 2 18 3 19 4 17 5 10 6 11 7 12 8 16 9 14 10 13 11
REMARK SMILES IDX 15 12 8 13 7 14 9 16 6 17 5 18 92 19 89 20 90 21 91 22 3 23
REMARK SMILES IDX 4 24 2 25 1 26 93 27 94 28 99 29 95 30 98 31 96 32 97 33
REMARK SMILES IDX 22 34 23 35 24 36 25 37 26 38 27 39 88 40 28 41 87 42 29 43
REMARK SMILES IDX 30 44 31 45 81 46 32 47 86 48 80 49 82 50 33 51 85 52 79 53
REMARK SMILES IDX 78 54 34 56 66 57 46 58 65 59 47 60 50 61 64 62 83 63 48 64
REMARK SMILES IDX 49 65 63 67 84 68 51 69 35 70 36 71 44 72 37 73 38 74 42 75
REMARK SMILES IDX 45 76 39 77 40 78 43 79 41 80 67 81 68 82 76 83 69 84 70 85
REMARK SMILES IDX 74 86 77 87 71 88 72 89 75 90 73 91 52 92 53 93 61 94 54 95
REMARK SMILES IDX 55 96 59 97 62 98 56 99 57 100 60 101 58 102
REMARK H PARENT 7 15 82 55 50 66
REMARK Flexibility Score: inf
ROOT
ATOM      1  C   UNL A   1      31.519  31.215  26.521  1.00  0.00     0.274 C 
ENDROOT
BRANCH   1   2
ATOM      2  O   UNL A   1      31.795  29.964  25.851  1.00  0.00    -0.462 OA
BRANCH   2   3
ATOM      3  C   UNL A   1      31.128  29.757  24.685  1.00  0.00     0.310 C 
ATOM      4  O   UNL A   1      30.239  30.494  24.267  1.00  0.00    -0.252 OA
BRANCH   3   5
ATOM      5  C   UNL A   1      31.543  28.501  23.928  1.00  0.00     0.115 C 
ATOM      6  C   UNL A   1      31.847  27.211  24.758  1.00  0.00     0.096 C 
ATOM      7  C   UNL A   1      30.986  26.048  24.167  1.00  0.00     0.002 C 
ATOM      8  C   UNL A   1      29.501  26.441  24.308  1.00  0.00     0.005 C 
ATOM      9  C   UNL A   1      31.238  25.834  22.652  1.00  0.00     0.005 C 
ATOM     10  C   UNL A   1      30.493  28.223  22.825  1.00  0.00     0.004 C 
ATOM     11  C   UNL A   1      29.197  27.677  23.449  1.00  0.00     0.005 C 
ATOM     12  C   UNL A   1      31.070  27.152  21.886  1.00  0.00     0.005 C 
BRANCH   6  13
ATOM     13  C   UNL A   1      33.345  26.850  24.672  1.00  0.00     0.229 C 
ATOM     14  N   UNL A   1      33.927  25.630  24.819  1.00  0.00    -0.317 N 
ATOM     15  H   UNL A   1      34.884  25.648  24.591  1.00  0.00     0.170 HD
ATOM     16  O   UNL A   1      34.163  27.769  24.487  1.00  0.00    -0.274 OA
BRANCH  14  17
ATOM     17  C   UNL A   1      33.509  24.371  25.209  1.00  0.00     0.111 A 
ATOM     18  C   UNL A   1      33.532  23.223  24.418  1.00  0.00     0.102 A 
ATOM     19  C   UNL A   1      33.388  22.031  25.240  1.00  0.00     0.012 A 
ATOM     20  S   UNL A   1      32.825  24.047  26.724  1.00  0.00    -0.122 S 
ATOM     21  C   UNL A   1      33.144  22.366  26.565  1.00  0.00     0.012 A 
ATOM     22  C   UNL A   1      33.160  21.502  27.785  1.00  0.00     0.057 C 
BRANCH  18  23
ATOM     23  C   UNL A   1      33.815  23.256  22.983  1.00  0.00     0.341 C 
ATOM     24  O   UNL A   1      33.035  22.837  22.132  1.00  0.00    -0.246 OA
BRANCH  23  25
ATOM     25  O   UNL A   1      35.041  23.777  22.695  1.00  0.00    -0.465 OA
ATOM     26  C   UNL A   1      36.155  22.974  23.078  1.00  0.00     0.282 C 
ENDBRANCH  23  25
ENDBRANCH  18  23
BRANCH  19  27
ATOM     27  C   UNL A   1      33.617  20.636  24.838  1.00  0.00    -0.016 A 
ATOM     28  C   UNL A   1      32.557  19.834  24.393  1.00  0.00     0.009 A 
ATOM     29  C   UNL A   1      34.897  20.075  24.918  1.00  0.00     0.009 A 
ATOM     30  C   UNL A   1      32.773  18.495  24.043  1.00  0.00     0.004 A 
ATOM     31  C   UNL A   1      35.116  18.743  24.551  1.00  0.00     0.004 A 
ATOM     32  C   UNL A   1      34.058  17.944  24.107  1.00  0.00    -0.051 A 
ATOM     33  C   UNL A   1      34.282  16.500  23.762  1.00  0.00     0.044 C 
ENDBRANCH  19  27
ENDBRANCH  14  17
ENDBRANCH   6  13
ENDBRANCH   3   5
ENDBRANCH   2   3
ENDBRANCH   1   2
BRANCH   1  34
ATOM     34  C   UNL A   1      32.749  31.803  27.239  1.00  0.00     0.275 C 
BRANCH  34  35
ATOM     35  O   UNL A   1      32.843  33.244  27.174  1.00  0.00    -0.458 OA
BRANCH  35  36
ATOM     36  C   UNL A   1      33.254  33.793  28.332  1.00  0.00     0.338 C 
ATOM     37  O   UNL A   1      32.633  34.608  28.993  1.00  0.00    -0.246 OA
BRANCH  36  38
ATOM     38  C   UNL A   1      34.506  33.281  28.870  1.00  0.00     0.060 A 
ATOM     39  C   UNL A   1      34.411  32.429  29.977  1.00  0.00     0.016 A 
ATOM     40  C   UNL A   1      35.734  33.788  28.454  1.00  0.00     0.016 A 
ATOM     41  C   UNL A   1      35.549  32.057  30.668  1.00  0.00     0.010 A 
ATOM     42  C   UNL A   1      36.885  33.402  29.143  1.00  0.00     0.010 A 
ATOM     43  C   UNL A   1      36.794  32.527  30.241  1.00  0.00    -0.014 A 
BRANCH  43  44
ATOM     44  C   UNL A   1      38.012  31.984  30.866  1.00  0.00     0.031 A 
ATOM     45  C   UNL A   1      38.820  30.925  30.197  1.00  0.00     0.074 A 
ATOM     46  C   UNL A   1      38.366  32.485  32.062  1.00  0.00     0.049 A 
ATOM     47  N   UNL A   1      39.820  30.233  30.675  1.00  0.00    -0.248 NA
ATOM     48  C   UNL A   1      38.462  30.598  28.809  1.00  0.00     0.031 C 
ATOM     49  C   UNL A   1      37.669  33.572  32.753  1.00  0.00     0.029 A 
ATOM     50  N   UNL A   1      39.383  32.142  32.909  1.00  0.00    -0.354 N 
ATOM     51  C   UNL A   1      40.205  29.374  29.656  1.00  0.00     0.074 A 
ATOM     52  C   UNL A   1      39.328  29.631  28.532  1.00  0.00     0.031 C 
ATOM     53  C   UNL A   1      38.269  33.795  33.931  1.00  0.00     0.029 A 
ATOM     54  C   UNL A   1      39.353  32.833  34.094  1.00  0.00     0.049 A 
ATOM     55  H   UNL A   1      40.068  31.470  32.691  1.00  0.00     0.167 HD
ATOM     56  C   UNL A   1      41.202  28.458  29.674  1.00  0.00     0.037 A 
ATOM     57  C   UNL A   1      40.090  32.673  35.206  1.00  0.00     0.037 A 
ATOM     58  C   UNL A   1      42.073  28.239  30.801  1.00  0.00     0.049 A 
ATOM     59  C   UNL A   1      41.148  31.611  35.220  1.00  0.00     0.074 A 
ATOM     60  C   UNL A   1      43.115  27.336  30.928  1.00  0.00     0.029 A 
ATOM     61  N   UNL A   1      42.005  28.943  31.997  1.00  0.00    -0.354 N 
ATOM     62  N   UNL A   1      41.479  30.767  34.272  1.00  0.00    -0.248 NA
ATOM     63  C   UNL A   1      41.929  31.472  36.454  1.00  0.00     0.031 C 
ATOM     64  C   UNL A   1      43.656  27.472  32.212  1.00  0.00     0.029 A 
ATOM     65  C   UNL A   1      42.975  28.484  32.873  1.00  0.00     0.049 A 
ATOM     66  H   UNL A   1      41.362  29.662  32.192  1.00  0.00     0.167 HD
ATOM     67  C   UNL A   1      42.513  30.004  34.787  1.00  0.00     0.074 A 
ATOM     68  C   UNL A   1      42.762  30.493  36.130  1.00  0.00     0.031 C 
ATOM     69  C   UNL A   1      43.194  28.989  34.204  1.00  0.00     0.037 A 
BRANCH  56  70
ATOM     70  C   UNL A   1      41.382  27.600  28.460  1.00  0.00     0.064 A 
ATOM     71  C   UNL A   1      40.604  26.454  28.241  1.00  0.00     0.173 A 
ATOM     72  C   UNL A   1      42.320  27.955  27.478  1.00  0.00     0.173 A 
ATOM     73  F   UNL A   1      39.705  26.064  29.156  1.00  0.00    -0.203 F 
ATOM     74  C   UNL A   1      40.768  25.687  27.089  1.00  0.00     0.198 A 
ATOM     75  C   UNL A   1      42.467  27.198  26.319  1.00  0.00     0.198 A 
ATOM     76  F   UNL A   1      43.089  29.041  27.640  1.00  0.00    -0.203 F 
ATOM     77  F   UNL A   1      40.037  24.577  26.914  1.00  0.00    -0.200 F 
ATOM     78  C   UNL A   1      41.694  26.063  26.126  1.00  0.00     0.200 A 
ATOM     79  F   UNL A   1      43.358  27.565  25.388  1.00  0.00    -0.200 F 
ATOM     80  F   UNL A   1      41.848  25.327  25.018  1.00  0.00    -0.200 F 
ENDBRANCH  56  70
BRANCH  57  81
ATOM     81  C   UNL A   1      39.809  33.519  36.388  1.00  0.00     0.064 A 
ATOM     82  C   UNL A   1      40.438  34.758  36.555  1.00  0.00     0.173 A 
ATOM     83  C   UNL A   1      38.858  33.131  37.345  1.00  0.00     0.173 A 
ATOM     84  F   UNL A   1      41.365  35.162  35.673  1.00  0.00    -0.203 F 
ATOM     85  C   UNL A   1      40.129  35.578  37.638  1.00  0.00     0.198 A 
ATOM     86  C   UNL A   1      38.532  33.962  38.413  1.00  0.00     0.198 A 
ATOM     87  F   UNL A   1      38.223  31.955  37.223  1.00  0.00    -0.203 F 
ATOM     88  F   UNL A   1      40.761  36.751  37.788  1.00  0.00    -0.200 F 
ATOM     89  C   UNL A   1      39.170  35.185  38.560  1.00  0.00     0.200 A 
ATOM     90  F   UNL A   1      37.595  33.584  39.292  1.00  0.00    -0.200 F 
ATOM     91  F   UNL A   1      38.862  35.981  39.592  1.00  0.00    -0.200 F 
ENDBRANCH  57  81
BRANCH  69  92
ATOM     92  C   UNL A   1      44.282  28.356  35.015  1.00  0.00     0.064 A 
ATOM     93  C   UNL A   1      44.035  27.224  35.804  1.00  0.00     0.173 A 
ATOM     94  C   UNL A   1      45.586  28.870  34.978  1.00  0.00     0.173 A 
ATOM     95  F   UNL A   1      42.799  26.712  35.882  1.00  0.00    -0.203 F 
ATOM     96  C   UNL A   1      45.057  26.638  36.544  1.00  0.00     0.198 A 
ATOM     97  C   UNL A   1      46.609  28.268  35.703  1.00  0.00     0.198 A 
ATOM     98  F   UNL A   1      45.865  29.951  34.235  1.00  0.00    -0.203 F 
ATOM     99  F   UNL A   1      44.795  25.577  37.321  1.00  0.00    -0.200 F 
ATOM    100  C   UNL A   1      46.344  27.155  36.488  1.00  0.00     0.200 A 
ATOM    101  F   UNL A   1      47.852  28.765  35.645  1.00  0.00    -0.200 F 
ATOM    102  F   UNL A   1      47.326  26.587  37.199  1.00  0.00    -0.200 F 
ENDBRANCH  69  92
ENDBRANCH  43  44
ENDBRANCH  36  38
ENDBRANCH  35  36
ENDBRANCH  34  35
ENDBRANCH   1  34
TORSDOF 16
ENDMDL
MODEL 2
REMARK VINA RESULT:     -12.8      4.331     10.410
REMARK SMILES COC(=O)c1c(NC(=O)[C@@H]2[C@H]3CC[C@H](CC3)[C@H]2C(=O)OCCOC(=O)c2ccc(-c3c4nc(c(-c5c(F)c(F)c(F)c(F)c5F)c5ccc([nH]5)c(-c5c(F)c(F)c(F)c(F)c5F)c5nc(c(-c6c(F)c(F)c(F)c(F)c6F)c6ccc3[nH]6)C=C5)C=C4)cc2)sc(C)c1-c1ccc(C)cc1
REMARK SMILES IDX 21 1 20 2 18 3 19 4 17 5 10 6 11 7 12 8 16 9 14 10 13 11
REMARK SMILES IDX 15 12 8 13 7 14 9 16 6 17 5 18 92 19 89 20 90 21 91 22 3 23
REMARK SMILES IDX 4 24 2 25 1 26 93 27 94 28 99 29 95 30 98 31 96 32 97 33
REMARK SMILES IDX 22 34 23 35 24 36 25 37 26 38 27 39 88 40 28 41 87 42 29 43
REMARK SMILES IDX 30 44 31 45 81 46 32 47 86 48 80 49 82 50 33 51 85 52 79 53
REMARK SMILES IDX 78 54 34 56 66 57 46 58 65 59 47 60 50 61 64 62 83 63 48 64
REMARK SMILES IDX 49 65 63 67 84 68 51 69 35 70 36 71 44 72 37 73 38 74 42 75
REMARK SMILES IDX 45 76 39 77 40 78 43 79 41 80 67 81 68 82 76 83 69 84 70 85
REMARK SMILES IDX 74 86 77 87 71 88 72 89 75 90 73 91 52 92 53 93 61 94 54 95
REMARK SMILES IDX 55 96 59 97 62 98 56 99 57 100 60 101 58 102
REMARK H PARENT 7 15 82 55 50 66
REMARK Flexibility Score: inf
ROOT
ATOM      1  C   UNL A   1      36.727  19.859  24.700  1.00  0.00     0.274 C 
ENDROOT
BRANCH   1   2
ATOM      2  O   UNL A   1      35.602  20.318  25.485  1.00  0.00    -0.462 OA
BRANCH   2   3
ATOM      3  C   UNL A   1      34.582  20.880  24.785  1.00  0.00     0.310 C 
ATOM      4  O   UNL A   1      33.683  20.235  24.251  1.00  0.00    -0.252 OA
BRANCH   3   5
ATOM      5  C   UNL A   1      34.646  22.399  24.673  1.00  0.00     0.115 C 
ATOM      6  C   UNL A   1      33.317  23.171  24.386  1.00  0.00     0.096 C 
ATOM      7  C   UNL A   1      33.162  24.279  25.478  1.00  0.00     0.002 C 
ATOM      8  C   UNL A   1      33.095  23.582  26.852  1.00  0.00     0.005 C 
ATOM      9  C   UNL A   1      34.384  25.232  25.533  1.00  0.00     0.005 C 
ATOM     10  C   UNL A   1      35.356  22.954  25.931  1.00  0.00     0.004 C 
ATOM     11  C   UNL A   1      34.422  22.870  27.151  1.00  0.00     0.005 C 
ATOM     12  C   UNL A   1      35.686  24.432  25.671  1.00  0.00     0.005 C 
BRANCH   6  13
ATOM     13  C   UNL A   1      33.354  23.816  22.985  1.00  0.00     0.229 C 
ATOM     14  N   UNL A   1      32.698  24.925  22.551  1.00  0.00    -0.317 N 
ATOM     15  H   UNL A   1      32.991  25.200  21.653  1.00  0.00     0.170 HD
ATOM     16  O   UNL A   1      34.026  23.261  22.098  1.00  0.00    -0.274 OA
BRANCH  14  17
ATOM     17  C   UNL A   1      31.720  25.763  23.058  1.00  0.00     0.111 A 
ATOM     18  C   UNL A   1      31.742  27.156  23.019  1.00  0.00     0.102 A 
ATOM     19  C   UNL A   1      30.417  27.697  23.286  1.00  0.00     0.012 A 
ATOM     20  S   UNL A   1      30.352  25.202  23.882  1.00  0.00    -0.122 S 
ATOM     21  C   UNL A   1      29.527  26.687  23.627  1.00  0.00     0.012 A 
ATOM     22  C   UNL A   1      28.038  26.733  23.754  1.00  0.00     0.057 C 
BRANCH  18  23
ATOM     23  C   UNL A   1      32.923  27.919  22.614  1.00  0.00     0.341 C 
ATOM     24  O   UNL A   1      33.640  27.599  21.670  1.00  0.00    -0.246 OA
BRANCH  23  25
ATOM     25  O   UNL A   1      33.152  29.004  23.407  1.00  0.00    -0.465 OA
ATOM     26  C   UNL A   1      33.532  28.713  24.750  1.00  0.00     0.282 C 
ENDBRANCH  23  25
ENDBRANCH  18  23
BRANCH  19  27
ATOM     27  C   UNL A   1      29.961  29.079  23.088  1.00  0.00    -0.016 A 
ATOM     28  C   UNL A   1      29.983  30.002  24.143  1.00  0.00     0.009 A 
ATOM     29  C   UNL A   1      29.468  29.492  21.844  1.00  0.00     0.009 A 
ATOM     30  C   UNL A   1      29.515  31.309  23.958  1.00  0.00     0.004 A 
ATOM     31  C   UNL A   1      29.017  30.803  21.655  1.00  0.00     0.004 A 
ATOM     32  C   UNL A   1      29.040  31.723  22.708  1.00  0.00    -0.051 A 
ATOM     33  C   UNL A   1      28.510  33.115  22.521  1.00  0.00     0.044 C 
ENDBRANCH  19  27
ENDBRANCH  14  17
ENDBRANCH   6  13
ENDBRANCH   3   5
ENDBRANCH   2   3
ENDBRANCH   1   2
BRANCH   1  34
ATOM     34  C   UNL A   1      37.926  20.826  24.734  1.00  0.00     0.275 C 
BRANCH  34  35
ATOM     35  O   UNL A   1      38.146  21.455  26.017  1.00  0.00    -0.458 OA
BRANCH  35  36
ATOM     36  C   UNL A   1      39.418  21.338  26.443  1.00  0.00     0.338 C 
ATOM     37  O   UNL A   1      40.088  20.320  26.409  1.00  0.00    -0.246 OA
BRANCH  36  38
ATOM     38  C   UNL A   1      40.055  22.568  26.890  1.00  0.00     0.060 A 
ATOM     39  C   UNL A   1      39.740  23.731  26.176  1.00  0.00     0.016 A 
ATOM     40  C   UNL A   1      41.090  22.552  27.821  1.00  0.00     0.016 A 
ATOM     41  C   UNL A   1      40.445  24.899  26.404  1.00  0.00     0.010 A 
ATOM     42  C   UNL A   1      41.793  23.734  28.060  1.00  0.00     0.010 A 
ATOM     43  C   UNL A   1      41.462  24.909  27.362  1.00  0.00    -0.014 A 
BRANCH  43  44
ATOM     44  C   UNL A   1      42.081  26.195  27.728  1.00  0.00     0.031 A 
ATOM     45  C   UNL A   1      41.339  27.214  28.523  1.00  0.00     0.074 A 
ATOM     46  C   UNL A   1      43.343  26.408  27.317  1.00  0.00     0.049 A 
ATOM     47  N   UNL A   1      41.677  28.447  28.794  1.00  0.00    -0.248 NA
ATOM     48  C   UNL A   1      40.050  26.798  29.093  1.00  0.00     0.031 C 
ATOM     49  C   UNL A   1      44.164  25.434  26.594  1.00  0.00     0.029 A 
ATOM     50  N   UNL A   1      44.148  27.507  27.435  1.00  0.00    -0.354 N 
ATOM     51  C   UNL A   1      40.638  28.965  29.550  1.00  0.00     0.074 A 
ATOM     52  C   UNL A   1      39.654  27.912  29.696  1.00  0.00     0.031 C 
ATOM     53  C   UNL A   1      45.353  25.987  26.315  1.00  0.00     0.029 A 
ATOM     54  C   UNL A   1      45.351  27.365  26.793  1.00  0.00     0.049 A 
ATOM     55  H   UNL A   1      43.891  28.317  27.932  1.00  0.00     0.167 HD
ATOM     56  C   UNL A   1      40.528  30.212  30.068  1.00  0.00     0.037 A 
ATOM     57  C   UNL A   1      46.324  28.265  26.574  1.00  0.00     0.037 A 
ATOM     58  C   UNL A   1      41.534  31.234  29.925  1.00  0.00     0.049 A 
ATOM     59  C   UNL A   1      46.152  29.655  27.108  1.00  0.00     0.074 A 
ATOM     60  C   UNL A   1      41.526  32.531  30.408  1.00  0.00     0.029 A 
ATOM     61  N   UNL A   1      42.737  31.065  29.251  1.00  0.00    -0.354 N 
ATOM     62  N   UNL A   1      45.146  30.158  27.783  1.00  0.00    -0.248 NA
ATOM     63  C   UNL A   1      47.240  30.604  26.847  1.00  0.00     0.031 C 
ATOM     64  C   UNL A   1      42.709  33.156  29.998  1.00  0.00     0.029 A 
ATOM     65  C   UNL A   1      43.471  32.239  29.291  1.00  0.00     0.049 A 
ATOM     66  H   UNL A   1      43.024  30.233  28.810  1.00  0.00     0.167 HD
ATOM     67  C   UNL A   1      45.481  31.476  28.038  1.00  0.00     0.074 A 
ATOM     68  C   UNL A   1      46.791  31.694  27.454  1.00  0.00     0.031 C 
ATOM     69  C   UNL A   1      44.769  32.424  28.695  1.00  0.00     0.037 A 
BRANCH  56  70
ATOM     70  C   UNL A   1      39.268  30.553  30.803  1.00  0.00     0.064 A 
ATOM     71  C   UNL A   1      38.128  31.025  30.138  1.00  0.00     0.173 A 
ATOM     72  C   UNL A   1      39.188  30.363  32.192  1.00  0.00     0.173 A 
ATOM     73  F   UNL A   1      38.158  31.238  28.815  1.00  0.00    -0.203 F 
ATOM     74  C   UNL A   1      36.957  31.308  30.839  1.00  0.00     0.198 A 
ATOM     75  C   UNL A   1      38.010  30.627  32.885  1.00  0.00     0.198 A 
ATOM     76  F   UNL A   1      40.251  29.914  32.875  1.00  0.00    -0.203 F 
ATOM     77  F   UNL A   1      35.888  31.790  30.189  1.00  0.00    -0.200 F 
ATOM     78  C   UNL A   1      36.897  31.102  32.210  1.00  0.00     0.200 A 
ATOM     79  F   UNL A   1      37.953  30.423  34.209  1.00  0.00    -0.200 F 
ATOM     80  F   UNL A   1      35.769  31.371  32.881  1.00  0.00    -0.200 F 
ENDBRANCH  56  70
BRANCH  57  81
ATOM     81  C   UNL A   1      47.513  27.868  25.783  1.00  0.00     0.064 A 
ATOM     82  C   UNL A   1      48.695  27.463  26.412  1.00  0.00     0.173 A 
ATOM     83  C   UNL A   1      47.467  27.828  24.381  1.00  0.00     0.173 A 
ATOM     84  F   UNL A   1      48.788  27.500  27.750  1.00  0.00    -0.203 F 
ATOM     85  C   UNL A   1      49.792  27.034  25.668  1.00  0.00     0.198 A 
ATOM     86  C   UNL A   1      48.555  27.377  23.639  1.00  0.00     0.198 A 
ATOM     87  F   UNL A   1      46.352  28.200  23.734  1.00  0.00    -0.203 F 
ATOM     88  F   UNL A   1      50.922  26.672  26.291  1.00  0.00    -0.200 F 
ATOM     89  C   UNL A   1      49.718  26.983  24.283  1.00  0.00     0.200 A 
ATOM     90  F   UNL A   1      48.473  27.314  22.303  1.00  0.00    -0.200 F 
ATOM     91  F   UNL A   1      50.768  26.555  23.569  1.00  0.00    -0.200 F 
ENDBRANCH  57  81
BRANCH  69  92
ATOM     92  C   UNL A   1      45.407  33.772  28.825  1.00  0.00     0.064 A 
ATOM     93  C   UNL A   1      45.171  34.781  27.882  1.00  0.00     0.173 A 
ATOM     94  C   UNL A   1      46.234  34.064  29.919  1.00  0.00     0.173 A 
ATOM     95  F   UNL A   1      44.401  34.539  26.812  1.00  0.00    -0.203 F 
ATOM     96  C   UNL A   1      45.759  36.035  28.020  1.00  0.00     0.198 A 
ATOM     97  C   UNL A   1      46.803  35.325  30.064  1.00  0.00     0.198 A 
ATOM     98  F   UNL A   1      46.485  33.128  30.845  1.00  0.00    -0.203 F 
ATOM     99  F   UNL A   1      45.551  36.977  27.089  1.00  0.00    -0.200 F 
ATOM    100  C   UNL A   1      46.569  36.308  29.114  1.00  0.00     0.200 A 
ATOM    101  F   UNL A   1      47.581  35.590  31.123  1.00  0.00    -0.200 F 
ATOM    102  F   UNL A   1      47.131  37.517  29.247  1.00  0.00    -0.200 F 
ENDBRANCH  69  92
ENDBRANCH  43  44
ENDBRANCH  36  38
ENDBRANCH  35  36
ENDBRANCH  34  35
ENDBRANCH   1  34
TORSDOF 16
ENDMDL
MODEL 3
REMARK VINA RESULT:     -12.7      1.812      4.958
REMARK SMILES COC(=O)c1c(NC(=O)[C@@H]2[C@H]3CC[C@H](CC3)[C@H]2C(=O)OCCOC(=O)c2ccc(-c3c4nc(c(-c5c(F)c(F)c(F)c(F)c5F)c5ccc([nH]5)c(-c5c(F)c(F)c(F)c(F)c5F)c5nc(c(-c6c(F)c(F)c(F)c(F)c6F)c6ccc3[nH]6)C=C5)C=C4)cc2)sc(C)c1-c1ccc(C)cc1
REMARK SMILES IDX 21 1 20 2 18 3 19 4 17 5 10 6 11 7 12 8 16 9 14 10 13 11
REMARK SMILES IDX 15 12 8 13 7 14 9 16 6 17 5 18 92 19 89 20 90 21 91 22 3 23
REMARK SMILES IDX 4 24 2 25 1 26 93 27 94 28 99 29 95 30 98 31 96 32 97 33
REMARK SMILES IDX 22 34 23 35 24 36 25 37 26 38 27 39 88 40 28 41 87 42 29 43
REMARK SMILES IDX 30 44 31 45 81 46 32 47 86 48 80 49 82 50 33 51 85 52 79 53
REMARK SMILES IDX 78 54 34 56 66 57 46 58 65 59 47 60 50 61 64 62 83 63 48 64
REMARK SMILES IDX 49 65 63 67 84 68 51 69 35 70 36 71 44 72 37 73 38 74 42 75
REMARK SMILES IDX 45 76 39 77 40 78 43 79 41 80 67 81 68 82 76 83 69 84 70 85
REMARK SMILES IDX 74 86 77 87 71 88 72 89 75 90 73 91 52 92 53 93 61 94 54 95
REMARK SMILES IDX 55 96 59 97 62 98 56 99 57 100 60 101 58 102
REMARK H PARENT 7 15 82 55 50 66
REMARK Flexibility Score: inf
ROOT
ATOM      1  C   UNL A   1      31.767  27.603  26.211  1.00  0.00     0.274 C 
ENDROOT
BRANCH   1   2
ATOM      2  O   UNL A   1      32.490  26.422  26.628  1.00  0.00    -0.462 OA
BRANCH   2   3
ATOM      3  C   UNL A   1      33.413  25.952  25.749  1.00  0.00     0.310 C 
ATOM      4  O   UNL A   1      34.404  26.586  25.395  1.00  0.00    -0.252 OA
BRANCH   3   5
ATOM      5  C   UNL A   1      33.114  24.565  25.193  1.00  0.00     0.115 C 
ATOM      6  C   UNL A   1      34.049  24.007  24.069  1.00  0.00     0.096 C 
ATOM      7  C   UNL A   1      34.554  22.599  24.521  1.00  0.00     0.002 C 
ATOM      8  C   UNL A   1      35.340  22.779  25.836  1.00  0.00     0.005 C 
ATOM      9  C   UNL A   1      33.390  21.626  24.840  1.00  0.00     0.005 C 
ATOM     10  C   UNL A   1      33.009  23.573  26.376  1.00  0.00     0.004 C 
ATOM     11  C   UNL A   1      34.405  23.275  26.948  1.00  0.00     0.005 C 
ATOM     12  C   UNL A   1      32.414  22.262  25.838  1.00  0.00     0.005 C 
BRANCH   6  13
ATOM     13  C   UNL A   1      33.283  23.887  22.735  1.00  0.00     0.229 C 
ATOM     14  N   UNL A   1      32.202  24.598  22.317  1.00  0.00    -0.317 N 
ATOM     15  H   UNL A   1      31.983  24.418  21.376  1.00  0.00     0.170 HD
ATOM     16  O   UNL A   1      33.642  23.013  21.925  1.00  0.00    -0.274 OA
BRANCH  14  17
ATOM     17  C   UNL A   1      31.334  25.513  22.888  1.00  0.00     0.111 A 
ATOM     18  C   UNL A   1      31.451  26.900  22.818  1.00  0.00     0.102 A 
ATOM     19  C   UNL A   1      30.196  27.539  23.186  1.00  0.00     0.012 A 
ATOM     20  S   UNL A   1      30.006  25.065  23.838  1.00  0.00    -0.122 S 
ATOM     21  C   UNL A   1      29.270  26.602  23.623  1.00  0.00     0.012 A 
ATOM     22  C   UNL A   1      27.804  26.757  23.876  1.00  0.00     0.057 C 
BRANCH  18  23
ATOM     23  C   UNL A   1      32.643  27.569  22.297  1.00  0.00     0.341 C 
ATOM     24  O   UNL A   1      33.265  27.171  21.315  1.00  0.00    -0.246 OA
BRANCH  23  25
ATOM     25  O   UNL A   1      33.001  28.663  23.027  1.00  0.00    -0.465 OA
ATOM     26  C   UNL A   1      34.396  28.952  23.057  1.00  0.00     0.282 C 
ENDBRANCH  23  25
ENDBRANCH  18  23
BRANCH  19  27
ATOM     27  C   UNL A   1      29.823  28.947  22.997  1.00  0.00    -0.016 A 
ATOM     28  C   UNL A   1      29.916  29.863  24.054  1.00  0.00     0.009 A 
ATOM     29  C   UNL A   1      29.341  29.394  21.761  1.00  0.00     0.009 A 
ATOM     30  C   UNL A   1      29.527  31.197  23.880  1.00  0.00     0.004 A 
ATOM     31  C   UNL A   1      28.969  30.731  21.581  1.00  0.00     0.004 A 
ATOM     32  C   UNL A   1      29.062  31.644  22.637  1.00  0.00    -0.051 A 
ATOM     33  C   UNL A   1      28.616  33.067  22.461  1.00  0.00     0.044 C 
ENDBRANCH  19  27
ENDBRANCH  14  17
ENDBRANCH   6  13
ENDBRANCH   3   5
ENDBRANCH   2   3
ENDBRANCH   1   2
BRANCH   1  34
ATOM     34  C   UNL A   1      32.176  28.870  26.986  1.00  0.00     0.275 C 
BRANCH  34  35
ATOM     35  O   UNL A   1      33.035  29.768  26.246  1.00  0.00    -0.458 OA
BRANCH  35  36
ATOM     36  C   UNL A   1      33.488  30.791  26.995  1.00  0.00     0.338 C 
ATOM     37  O   UNL A   1      32.878  31.817  27.240  1.00  0.00    -0.246 OA
BRANCH  36  38
ATOM     38  C   UNL A   1      34.781  30.589  27.633  1.00  0.00     0.060 A 
ATOM     39  C   UNL A   1      34.954  29.387  28.331  1.00  0.00     0.016 A 
ATOM     40  C   UNL A   1      35.707  31.623  27.738  1.00  0.00     0.016 A 
ATOM     41  C   UNL A   1      36.070  29.199  29.126  1.00  0.00     0.010 A 
ATOM     42  C   UNL A   1      36.840  31.428  28.530  1.00  0.00     0.010 A 
ATOM     43  C   UNL A   1      37.027  30.212  29.213  1.00  0.00    -0.014 A 
BRANCH  43  44
ATOM     44  C   UNL A   1      38.294  29.936  29.912  1.00  0.00     0.031 A 
ATOM     45  C   UNL A   1      39.330  29.046  29.314  1.00  0.00     0.074 A 
ATOM     46  C   UNL A   1      38.478  30.522  31.107  1.00  0.00     0.049 A 
ATOM     47  N   UNL A   1      40.421  28.577  29.861  1.00  0.00    -0.248 NA
ATOM     48  C   UNL A   1      39.118  28.626  27.922  1.00  0.00     0.031 C 
ATOM     49  C   UNL A   1      37.544  31.462  31.731  1.00  0.00     0.029 A 
ATOM     50  N   UNL A   1      39.497  30.407  32.012  1.00  0.00    -0.354 N 
ATOM     51  C   UNL A   1      41.021  27.792  28.888  1.00  0.00     0.074 A 
ATOM     52  C   UNL A   1      40.172  27.846  27.716  1.00  0.00     0.031 C 
ATOM     53  C   UNL A   1      38.024  31.824  32.929  1.00  0.00     0.029 A 
ATOM     54  C   UNL A   1      39.267  31.102  33.172  1.00  0.00     0.049 A 
ATOM     55  H   UNL A   1      40.312  29.881  31.847  1.00  0.00     0.167 HD
ATOM     56  C   UNL A   1      42.178  27.094  28.982  1.00  0.00     0.037 A 
ATOM     57  C   UNL A   1      39.962  31.114  34.322  1.00  0.00     0.037 A 
ATOM     58  C   UNL A   1      43.015  27.076  30.155  1.00  0.00     0.049 A 
ATOM     59  C   UNL A   1      41.207  30.286  34.419  1.00  0.00     0.074 A 
ATOM     60  C   UNL A   1      44.206  26.403  30.359  1.00  0.00     0.029 A 
ATOM     61  N   UNL A   1      42.746  27.777  31.324  1.00  0.00    -0.354 N 
ATOM     62  N   UNL A   1      41.749  29.506  33.515  1.00  0.00    -0.248 NA
ATOM     63  C   UNL A   1      41.934  30.331  35.693  1.00  0.00     0.031 C 
ATOM     64  C   UNL A   1      44.641  26.670  31.663  1.00  0.00     0.029 A 
ATOM     65  C   UNL A   1      43.739  27.539  32.259  1.00  0.00     0.049 A 
ATOM     66  H   UNL A   1      41.963  28.357  31.466  1.00  0.00     0.167 HD
ATOM     67  C   UNL A   1      42.885  28.975  34.102  1.00  0.00     0.074 A 
ATOM     68  C   UNL A   1      42.961  29.532  35.439  1.00  0.00     0.031 C 
ATOM     69  C   UNL A   1      43.784  28.104  33.583  1.00  0.00     0.037 A 
BRANCH  56  70
ATOM     70  C   UNL A   1      42.588  26.264  27.804  1.00  0.00     0.064 A 
ATOM     71  C   UNL A   1      43.501  26.735  26.850  1.00  0.00     0.173 A 
ATOM     72  C   UNL A   1      42.091  24.960  27.652  1.00  0.00     0.173 A 
ATOM     73  F   UNL A   1      43.993  27.978  26.942  1.00  0.00    -0.203 F 
ATOM     74  C   UNL A   1      43.892  25.935  25.778  1.00  0.00     0.198 A 
ATOM     75  C   UNL A   1      42.499  24.157  26.591  1.00  0.00     0.198 A 
ATOM     76  F   UNL A   1      41.215  24.464  28.536  1.00  0.00    -0.203 F 
ATOM     77  F   UNL A   1      44.741  26.415  24.858  1.00  0.00    -0.200 F 
ATOM     78  C   UNL A   1      43.396  24.645  25.653  1.00  0.00     0.200 A 
ATOM     79  F   UNL A   1      42.023  22.909  26.474  1.00  0.00    -0.200 F 
ATOM     80  F   UNL A   1      43.776  23.876  24.624  1.00  0.00    -0.200 F 
ENDBRANCH  56  70
BRANCH  57  81
ATOM     81  C   UNL A   1      39.457  31.912  35.464  1.00  0.00     0.064 A 
ATOM     82  C   UNL A   1      39.828  33.251  35.629  1.00  0.00     0.173 A 
ATOM     83  C   UNL A   1      38.543  31.365  36.379  1.00  0.00     0.173 A 
ATOM     84  F   UNL A   1      40.710  33.810  34.787  1.00  0.00    -0.203 F 
ATOM     85  C   UNL A   1      39.305  34.016  36.670  1.00  0.00     0.198 A 
ATOM     86  C   UNL A   1      38.004  32.137  37.404  1.00  0.00     0.198 A 
ATOM     87  F   UNL A   1      38.152  30.088  36.256  1.00  0.00    -0.203 F 
ATOM     88  F   UNL A   1      39.692  35.290  36.821  1.00  0.00    -0.200 F 
ATOM     89  C   UNL A   1      38.388  33.462  37.550  1.00  0.00     0.200 A 
ATOM     90  F   UNL A   1      37.106  31.601  38.242  1.00  0.00    -0.200 F 
ATOM     91  F   UNL A   1      37.874  34.202  38.541  1.00  0.00    -0.200 F 
ENDBRANCH  57  81
BRANCH  69  92
ATOM     92  C   UNL A   1      44.930  27.718  34.464  1.00  0.00     0.064 A 
ATOM     93  C   UNL A   1      46.114  28.468  34.487  1.00  0.00     0.173 A 
ATOM     94  C   UNL A   1      44.830  26.607  35.314  1.00  0.00     0.173 A 
ATOM     95  F   UNL A   1      46.259  29.527  33.678  1.00  0.00    -0.203 F 
ATOM     96  C   UNL A   1      47.168  28.107  35.321  1.00  0.00     0.198 A 
ATOM     97  C   UNL A   1      45.878  26.262  36.160  1.00  0.00     0.198 A 
ATOM     98  F   UNL A   1      43.715  25.863  35.324  1.00  0.00    -0.203 F 
ATOM     99  F   UNL A   1      48.306  28.815  35.304  1.00  0.00    -0.200 F 
ATOM    100  C   UNL A   1      47.047  27.009  36.161  1.00  0.00     0.200 A 
ATOM    101  F   UNL A   1      45.759  25.204  36.975  1.00  0.00    -0.200 F 
ATOM    102  F   UNL A   1      48.062  26.665  36.964  1.00  0.00    -0.200 F 
ENDBRANCH  69  92
ENDBRANCH  43  44
ENDBRANCH  36  38
ENDBRANCH  35  36
ENDBRANCH  34  35
ENDBRANCH   1  34
TORSDOF 16
ENDMDL
