MODEL 1
REMARK VINA RESULT:     -10.5      0.000      0.000
REMARK SMILES CCCC1(CCC)CN(c2cncc(C(=O)OCCOC(=O)c3ccc(-c4c5nc(c(-c6c(F)c(F)c(F)c(F)c6F)c6ccc([nH]6)c(-c6c(F)c(F)c(F)c(F)c6F)c6nc(c(-c7c(F)c(F)c(F)c(F)c7F)c7ccc4[nH]7)C=C6)C=C5)cc3)c2)C1
REMARK SMILES IDX 18 1 17 2 15 3 16 4 14 5 10 6 11 7 86 8 12 9 13 10 9 11 4 12
REMARK SMILES IDX 8 13 87 14 3 15 2 16 1 17 5 18 6 19 7 20 19 21 20 22 21 23
REMARK SMILES IDX 22 24 23 25 24 26 85 27 25 28 84 29 26 30 27 31 28 32 78 33
REMARK SMILES IDX 29 34 83 35 77 36 79 37 30 38 82 39 76 40 75 41 31 43 63 44
REMARK SMILES IDX 43 45 62 46 44 47 47 48 61 49 80 50 45 51 46 52 60 54 81 55
REMARK SMILES IDX 48 56 32 57 33 58 41 59 34 60 35 61 39 62 42 63 36 64 37 65
REMARK SMILES IDX 40 66 38 67 64 68 65 69 73 70 66 71 67 72 71 73 74 74 68 75
REMARK SMILES IDX 69 76 72 77 70 78 49 79 50 80 58 81 51 82 52 83 56 84 59 85
REMARK SMILES IDX 53 86 54 87 57 88 55 89
REMARK H PARENT 79 42 47 53
REMARK Flexibility Score: inf
ROOT
ATOM      1  C   UNL A   1      33.526  33.947  28.055  1.00  0.00     0.275 C 
ENDROOT
BRANCH   1   2
ATOM      2  O   UNL A   1      32.944  34.357  29.308  1.00  0.00    -0.458 OA
BRANCH   2   3
ATOM      3  C   UNL A   1      32.818  35.689  29.525  1.00  0.00     0.339 C 
ATOM      4  O   UNL A   1      32.295  36.505  28.783  1.00  0.00    -0.246 OA
BRANCH   3   5
ATOM      5  C   UNL A   1      33.312  36.027  30.873  1.00  0.00     0.080 A 
ATOM      6  C   UNL A   1      34.572  35.529  32.871  1.00  0.00     0.056 A 
ATOM      7  C   UNL A   1      34.034  36.684  33.430  1.00  0.00     0.136 A 
ATOM      8  C   UNL A   1      34.166  35.190  31.578  1.00  0.00     0.044 A 
ATOM      9  N   UNL A   1      33.239  37.550  32.757  1.00  0.00    -0.262 NA
ATOM     10  C   UNL A   1      32.931  37.216  31.481  1.00  0.00     0.126 A 
BRANCH   6  11
ATOM     11  N   UNL A   1      35.528  34.730  33.497  1.00  0.00    -0.369 N 
ATOM     12  C   UNL A   1      36.840  33.296  34.186  1.00  0.00     0.005 C 
ATOM     13  C   UNL A   1      36.941  34.616  33.348  1.00  0.00     0.125 C 
ATOM     14  C   UNL A   1      35.350  33.336  33.778  1.00  0.00     0.125 C 
BRANCH  12  15
ATOM     15  C   UNL A   1      37.748  32.200  33.606  1.00  0.00     0.010 C 
BRANCH  15  16
ATOM     16  C   UNL A   1      37.026  30.972  33.035  1.00  0.00    -0.003 C 
ATOM     17  C   UNL A   1      37.706  29.642  33.333  1.00  0.00     0.004 C 
ENDBRANCH  15  16
ENDBRANCH  12  15
BRANCH  12  18
ATOM     18  C   UNL A   1      37.062  33.605  35.691  1.00  0.00     0.010 C 
BRANCH  18  19
ATOM     19  C   UNL A   1      37.985  32.614  36.405  1.00  0.00    -0.003 C 
ATOM     20  C   UNL A   1      37.608  32.412  37.864  1.00  0.00     0.004 C 
ENDBRANCH  18  19
ENDBRANCH  12  18
ENDBRANCH   6  11
ENDBRANCH   3   5
ENDBRANCH   2   3
ENDBRANCH   1   2
BRANCH   1  21
ATOM     21  C   UNL A   1      34.864  33.239  28.271  1.00  0.00     0.275 C 
BRANCH  21  22
ATOM     22  O   UNL A   1      34.668  31.998  28.975  1.00  0.00    -0.458 OA
BRANCH  22  23
ATOM     23  C   UNL A   1      34.658  30.892  28.199  1.00  0.00     0.338 C 
ATOM     24  O   UNL A   1      33.791  30.529  27.424  1.00  0.00    -0.246 OA
BRANCH  23  25
ATOM     25  C   UNL A   1      35.944  30.190  28.320  1.00  0.00     0.060 A 
ATOM     26  C   UNL A   1      36.206  29.537  29.520  1.00  0.00     0.016 A 
ATOM     27  C   UNL A   1      36.944  30.325  27.364  1.00  0.00     0.016 A 
ATOM     28  C   UNL A   1      37.488  29.102  29.824  1.00  0.00     0.010 A 
ATOM     29  C   UNL A   1      38.219  29.806  27.633  1.00  0.00     0.010 A 
ATOM     30  C   UNL A   1      38.516  29.228  28.884  1.00  0.00    -0.014 A 
BRANCH  30  31
ATOM     31  C   UNL A   1      39.907  28.835  29.248  1.00  0.00     0.031 A 
ATOM     32  C   UNL A   1      40.728  29.724  30.143  1.00  0.00     0.074 A 
ATOM     33  C   UNL A   1      40.427  27.667  28.820  1.00  0.00     0.049 A 
ATOM     34  N   UNL A   1      42.002  29.659  30.441  1.00  0.00    -0.248 NA
ATOM     35  C   UNL A   1      40.023  30.848  30.780  1.00  0.00     0.031 C 
ATOM     36  C   UNL A   1      39.726  26.676  28.003  1.00  0.00     0.029 A 
ATOM     37  N   UNL A   1      41.667  27.111  29.020  1.00  0.00    -0.354 N 
ATOM     38  C   UNL A   1      42.261  30.761  31.246  1.00  0.00     0.074 A 
ATOM     39  C   UNL A   1      41.017  31.485  31.383  1.00  0.00     0.031 C 
ATOM     40  C   UNL A   1      40.533  25.624  27.797  1.00  0.00     0.029 A 
ATOM     41  C   UNL A   1      41.836  25.902  28.391  1.00  0.00     0.049 A 
ATOM     42  H   UNL A   1      42.369  27.539  29.563  1.00  0.00     0.167 HD
ATOM     43  C   UNL A   1      43.432  31.133  31.819  1.00  0.00     0.037 A 
ATOM     44  C   UNL A   1      42.927  25.124  28.263  1.00  0.00     0.037 A 
ATOM     45  C   UNL A   1      44.654  30.376  31.728  1.00  0.00     0.049 A 
ATOM     46  C   UNL A   1      44.223  25.569  28.884  1.00  0.00     0.074 A 
ATOM     47  C   UNL A   1      45.894  30.666  32.272  1.00  0.00     0.029 A 
ATOM     48  N   UNL A   1      44.786  29.165  31.063  1.00  0.00    -0.354 N 
ATOM     49  N   UNL A   1      44.476  26.648  29.583  1.00  0.00    -0.248 NA
ATOM     50  C   UNL A   1      45.386  24.694  28.687  1.00  0.00     0.031 C 
ATOM     51  C   UNL A   1      46.783  29.650  31.905  1.00  0.00     0.029 A 
ATOM     52  C   UNL A   1      46.086  28.699  31.178  1.00  0.00     0.049 A 
ATOM     53  H   UNL A   1      44.061  28.704  30.581  1.00  0.00     0.167 HD
ATOM     54  C   UNL A   1      45.819  26.574  29.926  1.00  0.00     0.074 A 
ATOM     55  C   UNL A   1      46.323  25.334  29.372  1.00  0.00     0.031 C 
ATOM     56  C   UNL A   1      46.569  27.458  30.630  1.00  0.00     0.037 A 
BRANCH  43  57
ATOM     57  C   UNL A   1      43.457  32.435  32.566  1.00  0.00     0.064 A 
ATOM     58  C   UNL A   1      43.701  33.659  31.926  1.00  0.00     0.173 A 
ATOM     59  C   UNL A   1      43.206  32.459  33.948  1.00  0.00     0.173 A 
ATOM     60  F   UNL A   1      43.960  33.693  30.610  1.00  0.00    -0.203 F 
ATOM     61  C   UNL A   1      43.726  34.853  32.645  1.00  0.00     0.198 A 
ATOM     62  C   UNL A   1      43.199  33.657  34.658  1.00  0.00     0.198 A 
ATOM     63  F   UNL A   1      42.958  31.320  34.610  1.00  0.00    -0.203 F 
ATOM     64  F   UNL A   1      44.015  36.003  32.022  1.00  0.00    -0.200 F 
ATOM     65  C   UNL A   1      43.470  34.851  34.008  1.00  0.00     0.200 A 
ATOM     66  F   UNL A   1      42.937  33.655  35.971  1.00  0.00    -0.200 F 
ATOM     67  F   UNL A   1      43.488  36.002  34.697  1.00  0.00    -0.200 F 
ENDBRANCH  43  57
BRANCH  44  68
ATOM     68  C   UNL A   1      42.848  23.864  27.478  1.00  0.00     0.064 A 
ATOM     69  C   UNL A   1      43.146  23.841  26.109  1.00  0.00     0.173 A 
ATOM     70  C   UNL A   1      42.480  22.653  28.085  1.00  0.00     0.173 A 
ATOM     71  F   UNL A   1      43.476  24.977  25.476  1.00  0.00    -0.203 F 
ATOM     72  C   UNL A   1      43.069  22.658  25.376  1.00  0.00     0.198 A 
ATOM     73  C   UNL A   1      42.437  21.465  27.359  1.00  0.00     0.198 A 
ATOM     74  F   UNL A   1      42.183  22.619  29.393  1.00  0.00    -0.203 F 
ATOM     75  F   UNL A   1      43.317  22.671  24.059  1.00  0.00    -0.200 F 
ATOM     76  C   UNL A   1      42.724  21.470  26.003  1.00  0.00     0.200 A 
ATOM     77  F   UNL A   1      42.119  20.318  27.973  1.00  0.00    -0.200 F 
ATOM     78  F   UNL A   1      42.661  20.331  25.299  1.00  0.00    -0.200 F 
ENDBRANCH  44  68
BRANCH  56  79
ATOM     79  C   UNL A   1      48.003  27.091  30.882  1.00  0.00     0.064 A 
ATOM     80  C   UNL A   1      48.377  26.267  31.953  1.00  0.00     0.173 A 
ATOM     81  C   UNL A   1      49.011  27.549  30.020  1.00  0.00     0.173 A 
ATOM     82  F   UNL A   1      47.452  25.816  32.814  1.00  0.00    -0.203 F 
ATOM     83  C   UNL A   1      49.713  25.939  32.169  1.00  0.00     0.198 A 
ATOM     84  C   UNL A   1      50.341  27.196  30.222  1.00  0.00     0.198 A 
ATOM     85  F   UNL A   1      48.703  28.335  28.977  1.00  0.00    -0.203 F 
ATOM     86  F   UNL A   1      50.055  25.193  33.228  1.00  0.00    -0.200 F 
ATOM     87  C   UNL A   1      50.692  26.398  31.300  1.00  0.00     0.200 A 
ATOM     88  F   UNL A   1      51.284  27.630  29.374  1.00  0.00    -0.200 F 
ATOM     89  F   UNL A   1      51.977  26.079  31.507  1.00  0.00    -0.200 F 
ENDBRANCH  56  79
ENDBRANCH  30  31
ENDBRANCH  23  25
ENDBRANCH  22  23
ENDBRANCH  21  22
ENDBRANCH   1  21
TORSDOF 16
ENDMDL
MODEL 2
REMARK VINA RESULT:     -10.3      4.315     10.232
REMARK SMILES CCCC1(CCC)CN(c2cncc(C(=O)OCCOC(=O)c3ccc(-c4c5nc(c(-c6c(F)c(F)c(F)c(F)c6F)c6ccc([nH]6)c(-c6c(F)c(F)c(F)c(F)c6F)c6nc(c(-c7c(F)c(F)c(F)c(F)c7F)c7ccc4[nH]7)C=C6)C=C5)cc3)c2)C1
REMARK SMILES IDX 18 1 17 2 15 3 16 4 14 5 10 6 11 7 86 8 12 9 13 10 9 11 4 12
REMARK SMILES IDX 8 13 87 14 3 15 2 16 1 17 5 18 6 19 7 20 19 21 20 22 21 23
REMARK SMILES IDX 22 24 23 25 24 26 85 27 25 28 84 29 26 30 27 31 28 32 78 33
REMARK SMILES IDX 29 34 83 35 77 36 79 37 30 38 82 39 76 40 75 41 31 43 63 44
REMARK SMILES IDX 43 45 62 46 44 47 47 48 61 49 80 50 45 51 46 52 60 54 81 55
REMARK SMILES IDX 48 56 32 57 33 58 41 59 34 60 35 61 39 62 42 63 36 64 37 65
REMARK SMILES IDX 40 66 38 67 64 68 65 69 73 70 66 71 67 72 71 73 74 74 68 75
REMARK SMILES IDX 69 76 72 77 70 78 49 79 50 80 58 81 51 82 52 83 56 84 59 85
REMARK SMILES IDX 53 86 54 87 57 88 55 89
REMARK H PARENT 79 42 47 53
REMARK Flexibility Score: inf
ROOT
ATOM      1  C   UNL A   1      31.382  29.417  24.746  1.00  0.00     0.275 C 
ENDROOT
BRANCH   1   2
ATOM      2  O   UNL A   1      31.034  28.057  25.075  1.00  0.00    -0.458 OA
BRANCH   2   3
ATOM      3  C   UNL A   1      30.384  27.340  24.127  1.00  0.00     0.339 C 
ATOM      4  O   UNL A   1      29.193  27.386  23.862  1.00  0.00    -0.246 OA
BRANCH   3   5
ATOM      5  C   UNL A   1      31.352  26.547  23.346  1.00  0.00     0.080 A 
ATOM      6  C   UNL A   1      33.232  25.044  23.173  1.00  0.00     0.056 A 
ATOM      7  C   UNL A   1      33.197  25.248  21.797  1.00  0.00     0.136 A 
ATOM      8  C   UNL A   1      32.305  25.741  23.952  1.00  0.00     0.044 A 
ATOM      9  N   UNL A   1      32.252  25.986  21.166  1.00  0.00    -0.262 NA
ATOM     10  C   UNL A   1      31.330  26.585  21.958  1.00  0.00     0.126 A 
BRANCH   6  11
ATOM     11  N   UNL A   1      34.091  24.147  23.808  1.00  0.00    -0.369 N 
ATOM     12  C   UNL A   1      35.555  22.839  24.441  1.00  0.00     0.005 C 
ATOM     13  C   UNL A   1      35.147  24.320  24.749  1.00  0.00     0.125 C 
ATOM     14  C   UNL A   1      34.733  23.047  23.149  1.00  0.00     0.125 C 
BRANCH  12  15
ATOM     15  C   UNL A   1      37.082  22.694  24.344  1.00  0.00     0.010 C 
BRANCH  15  16
ATOM     16  C   UNL A   1      37.806  22.403  25.664  1.00  0.00    -0.003 C 
ATOM     17  C   UNL A   1      38.435  23.623  26.324  1.00  0.00     0.004 C 
ENDBRANCH  15  16
ENDBRANCH  12  15
BRANCH  12  18
ATOM     18  C   UNL A   1      34.866  21.879  25.448  1.00  0.00     0.010 C 
BRANCH  18  19
ATOM     19  C   UNL A   1      34.713  20.443  24.940  1.00  0.00    -0.003 C 
ATOM     20  C   UNL A   1      33.384  19.821  25.337  1.00  0.00     0.004 C 
ENDBRANCH  18  19
ENDBRANCH  12  18
ENDBRANCH   6  11
ENDBRANCH   3   5
ENDBRANCH   2   3
ENDBRANCH   1   2
BRANCH   1  21
ATOM     21  C   UNL A   1      32.740  29.799  25.339  1.00  0.00     0.275 C 
BRANCH  21  22
ATOM     22  O   UNL A   1      32.610  30.093  26.744  1.00  0.00    -0.458 OA
BRANCH  22  23
ATOM     23  C   UNL A   1      33.192  31.243  27.147  1.00  0.00     0.338 C 
ATOM     24  O   UNL A   1      32.683  32.345  27.247  1.00  0.00    -0.246 OA
BRANCH  23  25
ATOM     25  C   UNL A   1      34.568  30.973  27.588  1.00  0.00     0.060 A 
ATOM     26  C   UNL A   1      34.880  29.667  27.949  1.00  0.00     0.016 A 
ATOM     27  C   UNL A   1      35.475  32.000  27.825  1.00  0.00     0.016 A 
ATOM     28  C   UNL A   1      36.050  29.383  28.639  1.00  0.00     0.010 A 
ATOM     29  C   UNL A   1      36.698  31.700  28.442  1.00  0.00     0.010 A 
ATOM     30  C   UNL A   1      36.980  30.396  28.896  1.00  0.00    -0.014 A 
BRANCH  30  31
ATOM     31  C   UNL A   1      38.194  30.100  29.708  1.00  0.00     0.031 A 
ATOM     32  C   UNL A   1      39.275  29.216  29.146  1.00  0.00     0.074 A 
ATOM     33  C   UNL A   1      38.358  30.653  30.927  1.00  0.00     0.049 A 
ATOM     34  N   UNL A   1      40.320  28.697  29.742  1.00  0.00    -0.248 NA
ATOM     35  C   UNL A   1      39.157  28.855  27.725  1.00  0.00     0.031 C 
ATOM     36  C   UNL A   1      37.427  31.580  31.570  1.00  0.00     0.029 A 
ATOM     37  N   UNL A   1      39.375  30.519  31.841  1.00  0.00    -0.354 N 
ATOM     38  C   UNL A   1      40.946  27.904  28.788  1.00  0.00     0.074 A 
ATOM     39  C   UNL A   1      40.160  28.001  27.578  1.00  0.00     0.031 C 
ATOM     40  C   UNL A   1      37.927  31.954  32.757  1.00  0.00     0.029 A 
ATOM     41  C   UNL A   1      39.169  31.228  33.000  1.00  0.00     0.049 A 
ATOM     42  H   UNL A   1      40.175  29.967  31.682  1.00  0.00     0.167 HD
ATOM     43  C   UNL A   1      42.075  27.164  28.912  1.00  0.00     0.037 A 
ATOM     44  C   UNL A   1      39.872  31.256  34.148  1.00  0.00     0.037 A 
ATOM     45  C   UNL A   1      42.886  27.119  30.102  1.00  0.00     0.049 A 
ATOM     46  C   UNL A   1      41.106  30.407  34.274  1.00  0.00     0.074 A 
ATOM     47  C   UNL A   1      44.048  26.401  30.330  1.00  0.00     0.029 A 
ATOM     48  N   UNL A   1      42.630  27.838  31.261  1.00  0.00    -0.354 N 
ATOM     49  N   UNL A   1      41.651  29.605  33.391  1.00  0.00    -0.248 NA
ATOM     50  C   UNL A   1      41.816  30.457  35.559  1.00  0.00     0.031 C 
ATOM     51  C   UNL A   1      44.473  26.658  31.638  1.00  0.00     0.029 A 
ATOM     52  C   UNL A   1      43.607  27.576  32.208  1.00  0.00     0.049 A 
ATOM     53  H   UNL A   1      41.865  28.445  31.391  1.00  0.00     0.167 HD
ATOM     54  C   UNL A   1      42.775  29.070  34.006  1.00  0.00     0.074 A 
ATOM     55  C   UNL A   1      42.844  29.652  35.331  1.00  0.00     0.031 C 
ATOM     56  C   UNL A   1      43.667  28.172  33.518  1.00  0.00     0.037 A 
BRANCH  43  57
ATOM     57  C   UNL A   1      42.481  26.314  27.743  1.00  0.00     0.064 A 
ATOM     58  C   UNL A   1      41.950  25.033  27.531  1.00  0.00     0.173 A 
ATOM     59  C   UNL A   1      43.402  26.804  26.803  1.00  0.00     0.173 A 
ATOM     60  F   UNL A   1      41.077  24.511  28.405  1.00  0.00    -0.203 F 
ATOM     61  C   UNL A   1      42.351  24.262  26.441  1.00  0.00     0.198 A 
ATOM     62  C   UNL A   1      43.775  26.044  25.697  1.00  0.00     0.198 A 
ATOM     63  F   UNL A   1      43.936  28.026  26.951  1.00  0.00    -0.203 F 
ATOM     64  F   UNL A   1      41.871  23.020  26.288  1.00  0.00    -0.200 F 
ATOM     65  C   UNL A   1      43.257  24.770  25.523  1.00  0.00     0.200 A 
ATOM     66  F   UNL A   1      44.640  26.543  24.804  1.00  0.00    -0.200 F 
ATOM     67  F   UNL A   1      43.636  24.029  24.472  1.00  0.00    -0.200 F 
ENDBRANCH  43  57
BRANCH  44  68
ATOM     68  C   UNL A   1      39.397  32.089  35.284  1.00  0.00     0.064 A 
ATOM     69  C   UNL A   1      38.586  31.550  36.291  1.00  0.00     0.173 A 
ATOM     70  C   UNL A   1      39.752  33.443  35.389  1.00  0.00     0.173 A 
ATOM     71  F   UNL A   1      38.196  30.268  36.223  1.00  0.00    -0.203 F 
ATOM     72  C   UNL A   1      38.142  32.334  37.354  1.00  0.00     0.198 A 
ATOM     73  C   UNL A   1      39.336  34.217  36.469  1.00  0.00     0.198 A 
ATOM     74  F   UNL A   1      40.524  34.010  34.451  1.00  0.00    -0.203 F 
ATOM     75  F   UNL A   1      37.332  31.805  38.282  1.00  0.00    -0.200 F 
ATOM     76  C   UNL A   1      38.524  33.664  37.448  1.00  0.00     0.200 A 
ATOM     77  F   UNL A   1      39.721  35.497  36.563  1.00  0.00    -0.200 F 
ATOM     78  F   UNL A   1      38.104  34.414  38.476  1.00  0.00    -0.200 F 
ENDBRANCH  44  68
BRANCH  56  79
ATOM     79  C   UNL A   1      44.820  27.801  34.406  1.00  0.00     0.064 A 
ATOM     80  C   UNL A   1      46.013  28.538  34.414  1.00  0.00     0.173 A 
ATOM     81  C   UNL A   1      44.715  26.708  35.279  1.00  0.00     0.173 A 
ATOM     82  F   UNL A   1      46.168  29.582  33.585  1.00  0.00    -0.203 F 
ATOM     83  C   UNL A   1      47.070  28.176  35.244  1.00  0.00     0.198 A 
ATOM     84  C   UNL A   1      45.762  26.367  36.128  1.00  0.00     0.198 A 
ATOM     85  F   UNL A   1      43.591  25.975  35.314  1.00  0.00    -0.203 F 
ATOM     86  F   UNL A   1      48.220  28.863  35.199  1.00  0.00    -0.200 F 
ATOM     87  C   UNL A   1      46.941  27.096  36.105  1.00  0.00     0.200 A 
ATOM     88  F   UNL A   1      45.632  25.330  36.969  1.00  0.00    -0.200 F 
ATOM     89  F   UNL A   1      47.959  26.751  36.906  1.00  0.00    -0.200 F 
ENDBRANCH  56  79
ENDBRANCH  30  31
ENDBRANCH  23  25
ENDBRANCH  22  23
ENDBRANCH  21  22
ENDBRANCH   1  21
TORSDOF 16
ENDMDL
MODEL 3
REMARK VINA RESULT:     -10.2      6.316     11.471
REMARK SMILES CCCC1(CCC)CN(c2cncc(C(=O)OCCOC(=O)c3ccc(-c4c5nc(c(-c6c(F)c(F)c(F)c(F)c6F)c6ccc([nH]6)c(-c6c(F)c(F)c(F)c(F)c6F)c6nc(c(-c7c(F)c(F)c(F)c(F)c7F)c7ccc4[nH]7)C=C6)C=C5)cc3)c2)C1
REMARK SMILES IDX 18 1 17 2 15 3 16 4 14 5 10 6 11 7 86 8 12 9 13 10 9 11 4 12
REMARK SMILES IDX 8 13 87 14 3 15 2 16 1 17 5 18 6 19 7 20 19 21 20 22 21 23
REMARK SMILES IDX 22 24 23 25 24 26 85 27 25 28 84 29 26 30 27 31 28 32 78 33
REMARK SMILES IDX 29 34 83 35 77 36 79 37 30 38 82 39 76 40 75 41 31 43 63 44
REMARK SMILES IDX 43 45 62 46 44 47 47 48 61 49 80 50 45 51 46 52 60 54 81 55
REMARK SMILES IDX 48 56 32 57 33 58 41 59 34 60 35 61 39 62 42 63 36 64 37 65
REMARK SMILES IDX 40 66 38 67 64 68 65 69 73 70 66 71 67 72 71 73 74 74 68 75
REMARK SMILES IDX 69 76 72 77 70 78 49 79 50 80 58 81 51 82 52 83 56 84 59 85
REMARK SMILES IDX 53 86 54 87 57 88 55 89
REMARK H PARENT 79 42 47 53
REMARK Flexibility Score: inf
ROOT
ATOM      1  C   UNL A   1      42.132  19.366  27.094  1.00  0.00     0.275 C 
ENDROOT
BRANCH   1   2
ATOM      2  O   UNL A   1      41.465  20.477  26.461  1.00  0.00    -0.458 OA
BRANCH   2   3
ATOM      3  C   UNL A   1      40.186  20.282  26.060  1.00  0.00     0.339 C 
ATOM      4  O   UNL A   1      39.678  19.225  25.721  1.00  0.00    -0.246 OA
BRANCH   3   5
ATOM      5  C   UNL A   1      39.421  21.536  26.196  1.00  0.00     0.080 A 
ATOM      6  C   UNL A   1      37.467  22.897  25.800  1.00  0.00     0.056 A 
ATOM      7  C   UNL A   1      38.161  23.959  26.370  1.00  0.00     0.136 A 
ATOM      8  C   UNL A   1      38.137  21.676  25.688  1.00  0.00     0.044 A 
ATOM      9  N   UNL A   1      39.394  23.849  26.920  1.00  0.00    -0.262 NA
ATOM     10  C   UNL A   1      39.975  22.627  26.853  1.00  0.00     0.126 A 
BRANCH   6  11
ATOM     11  N   UNL A   1      36.135  22.963  25.393  1.00  0.00    -0.369 N 
ATOM     12  C   UNL A   1      34.097  23.146  25.137  1.00  0.00     0.005 C 
ATOM     13  C   UNL A   1      35.367  23.983  24.759  1.00  0.00     0.125 C 
ATOM     14  C   UNL A   1      35.032  22.488  26.176  1.00  0.00     0.125 C 
BRANCH  12  15
ATOM     15  C   UNL A   1      32.957  24.056  25.622  1.00  0.00     0.010 C 
BRANCH  15  16
ATOM     16  C   UNL A   1      32.093  23.490  26.756  1.00  0.00    -0.003 C 
ATOM     17  C   UNL A   1      30.827  22.779  26.293  1.00  0.00     0.004 C 
ENDBRANCH  15  16
ENDBRANCH  12  15
BRANCH  12  18
ATOM     18  C   UNL A   1      33.724  22.192  23.970  1.00  0.00     0.010 C 
BRANCH  18  19
ATOM     19  C   UNL A   1      32.631  22.731  23.044  1.00  0.00    -0.003 C 
ATOM     20  C   UNL A   1      33.193  23.528  21.878  1.00  0.00     0.004 C 
ENDBRANCH  18  19
ENDBRANCH  12  18
ENDBRANCH   6  11
ENDBRANCH   3   5
ENDBRANCH   2   3
ENDBRANCH   1   2
BRANCH   1  21
ATOM     21  C   UNL A   1      42.953  18.565  26.083  1.00  0.00     0.275 C 
BRANCH  21  22
ATOM     22  O   UNL A   1      43.101  19.306  24.856  1.00  0.00    -0.458 OA
BRANCH  22  23
ATOM     23  C   UNL A   1      44.369  19.424  24.404  1.00  0.00     0.338 C 
ATOM     24  O   UNL A   1      45.038  18.587  23.825  1.00  0.00    -0.246 OA
BRANCH  23  25
ATOM     25  C   UNL A   1      44.839  20.802  24.603  1.00  0.00     0.060 A 
ATOM     26  C   UNL A   1      45.454  21.099  25.814  1.00  0.00     0.016 A 
ATOM     27  C   UNL A   1      44.519  21.820  23.713  1.00  0.00     0.016 A 
ATOM     28  C   UNL A   1      45.666  22.416  26.197  1.00  0.00     0.010 A 
ATOM     29  C   UNL A   1      44.813  23.147  24.059  1.00  0.00     0.010 A 
ATOM     30  C   UNL A   1      45.349  23.463  25.324  1.00  0.00    -0.014 A 
BRANCH  30  31
ATOM     31  C   UNL A   1      45.501  24.876  25.773  1.00  0.00     0.031 A 
ATOM     32  C   UNL A   1      46.826  25.574  25.619  1.00  0.00     0.074 A 
ATOM     33  C   UNL A   1      44.452  25.554  26.278  1.00  0.00     0.049 A 
ATOM     34  N   UNL A   1      47.220  26.729  26.094  1.00  0.00    -0.248 NA
ATOM     35  C   UNL A   1      47.852  24.870  24.834  1.00  0.00     0.031 C 
ATOM     36  C   UNL A   1      43.094  25.030  26.425  1.00  0.00     0.029 A 
ATOM     37  N   UNL A   1      44.362  26.840  26.755  1.00  0.00    -0.354 N 
ATOM     38  C   UNL A   1      48.552  26.860  25.718  1.00  0.00     0.074 A 
ATOM     39  C   UNL A   1      48.903  25.664  24.984  1.00  0.00     0.031 C 
ATOM     40  C   UNL A   1      42.302  25.990  26.927  1.00  0.00     0.029 A 
ATOM     41  C   UNL A   1      43.111  27.168  27.219  1.00  0.00     0.049 A 
ATOM     42  H   UNL A   1      45.122  27.467  26.764  1.00  0.00     0.167 HD
ATOM     43  C   UNL A   1      49.402  27.887  25.963  1.00  0.00     0.037 A 
ATOM     44  C   UNL A   1      42.672  28.272  27.852  1.00  0.00     0.037 A 
ATOM     45  C   UNL A   1      49.029  29.101  26.643  1.00  0.00     0.049 A 
ATOM     46  C   UNL A   1      43.638  29.388  28.137  1.00  0.00     0.074 A 
ATOM     47  C   UNL A   1      49.815  30.202  26.941  1.00  0.00     0.029 A 
ATOM     48  N   UNL A   1      47.754  29.384  27.114  1.00  0.00    -0.354 N 
ATOM     49  N   UNL A   1      44.912  29.474  27.841  1.00  0.00    -0.248 NA
ATOM     50  C   UNL A   1      43.108  30.555  28.856  1.00  0.00     0.031 C 
ATOM     51  C   UNL A   1      49.026  31.133  27.624  1.00  0.00     0.029 A 
ATOM     52  C   UNL A   1      47.735  30.638  27.706  1.00  0.00     0.049 A 
ATOM     53  H   UNL A   1      46.979  28.783  27.039  1.00  0.00     0.167 HD
ATOM     54  C   UNL A   1      45.332  30.707  28.319  1.00  0.00     0.074 A 
ATOM     55  C   UNL A   1      44.172  31.344  28.909  1.00  0.00     0.031 C 
ATOM     56  C   UNL A   1      46.569  31.261  28.278  1.00  0.00     0.037 A 
BRANCH  43  57
ATOM     57  C   UNL A   1      50.829  27.727  25.525  1.00  0.00     0.064 A 
ATOM     58  C   UNL A   1      51.843  27.336  26.411  1.00  0.00     0.173 A 
ATOM     59  C   UNL A   1      51.182  27.946  24.183  1.00  0.00     0.173 A 
ATOM     60  F   UNL A   1      51.564  27.127  27.706  1.00  0.00    -0.203 F 
ATOM     61  C   UNL A   1      53.161  27.203  25.980  1.00  0.00     0.198 A 
ATOM     62  C   UNL A   1      52.494  27.780  23.748  1.00  0.00     0.198 A 
ATOM     63  F   UNL A   1      50.251  28.314  23.290  1.00  0.00    -0.203 F 
ATOM     64  F   UNL A   1      54.122  26.881  26.856  1.00  0.00    -0.200 F 
ATOM     65  C   UNL A   1      53.484  27.419  24.649  1.00  0.00     0.200 A 
ATOM     66  F   UNL A   1      52.801  27.975  22.459  1.00  0.00    -0.200 F 
ATOM     67  F   UNL A   1      54.752  27.284  24.234  1.00  0.00    -0.200 F 
ENDBRANCH  43  57
BRANCH  44  68
ATOM     68  C   UNL A   1      41.255  28.354  28.295  1.00  0.00     0.064 A 
ATOM     69  C   UNL A   1      40.262  28.881  27.459  1.00  0.00     0.173 A 
ATOM     70  C   UNL A   1      40.863  27.900  29.564  1.00  0.00     0.173 A 
ATOM     71  F   UNL A   1      40.589  29.354  26.247  1.00  0.00    -0.203 F 
ATOM     72  C   UNL A   1      38.935  28.958  27.877  1.00  0.00     0.198 A 
ATOM     73  C   UNL A   1      39.532  27.946  29.969  1.00  0.00     0.198 A 
ATOM     74  F   UNL A   1      41.774  27.389  30.406  1.00  0.00    -0.203 F 
ATOM     75  F   UNL A   1      38.012  29.506  27.075  1.00  0.00    -0.200 F 
ATOM     76  C   UNL A   1      38.569  28.483  29.128  1.00  0.00     0.200 A 
ATOM     77  F   UNL A   1      39.181  27.470  31.171  1.00  0.00    -0.200 F 
ATOM     78  F   UNL A   1      37.291  28.548  29.525  1.00  0.00    -0.200 F 
ENDBRANCH  44  68
BRANCH  56  79
ATOM     79  C   UNL A   1      46.721  32.642  28.847  1.00  0.00     0.064 A 
ATOM     80  C   UNL A   1      46.517  33.789  28.065  1.00  0.00     0.173 A 
ATOM     81  C   UNL A   1      47.048  32.817  30.200  1.00  0.00     0.173 A 
ATOM     82  F   UNL A   1      46.218  33.674  26.762  1.00  0.00    -0.203 F 
ATOM     83  C   UNL A   1      46.663  35.061  28.612  1.00  0.00     0.198 A 
ATOM     84  C   UNL A   1      47.164  34.090  30.750  1.00  0.00     0.198 A 
ATOM     85  F   UNL A   1      47.246  31.752  30.991  1.00  0.00    -0.203 F 
ATOM     86  F   UNL A   1      46.513  36.143  27.835  1.00  0.00    -0.200 F 
ATOM     87  C   UNL A   1      46.979  35.210  29.954  1.00  0.00     0.200 A 
ATOM     88  F   UNL A   1      47.458  34.233  32.050  1.00  0.00    -0.200 F 
ATOM     89  F   UNL A   1      47.116  36.436  30.479  1.00  0.00    -0.200 F 
ENDBRANCH  56  79
ENDBRANCH  30  31
ENDBRANCH  23  25
ENDBRANCH  22  23
ENDBRANCH  21  22
ENDBRANCH   1  21
TORSDOF 16
ENDMDL
