MODEL 1
REMARK VINA RESULT:     -13.2      0.000      0.000
REMARK SMILES Cc1cc(-c2cncc(C(=O)OCCOC(=O)c3ccc(-c4c5nc(c(-c6c(F)c(F)c(F)c(F)c6F)c6ccc([nH]6)c(-c6c(F)c(F)c(F)c(F)c6F)c6nc(c(-c7c(F)c(F)c(F)c(F)c7F)c7ccc4[nH]7)C=C6)C=C5)cc3)c2)ccc1F
REMARK SMILES IDX 14 1 13 2 12 3 10 4 11 5 9 6 5 7 6 8 81 9 7 10 8 11 4 12
REMARK SMILES IDX 1 13 2 14 3 15 84 16 83 17 85 18 82 19 15 20 16 21 17 22
REMARK SMILES IDX 18 23 19 24 80 25 20 26 79 27 21 28 22 29 23 30 73 31 24 32
REMARK SMILES IDX 78 33 72 34 74 35 25 36 77 37 71 38 70 39 26 41 58 42 38 43
REMARK SMILES IDX 57 44 39 45 42 46 56 47 75 48 40 49 41 50 55 52 76 53 43 54
REMARK SMILES IDX 27 55 28 56 36 57 29 58 30 59 34 60 37 61 31 62 32 63 35 64
REMARK SMILES IDX 33 65 59 66 60 67 68 68 61 69 62 70 66 71 69 72 63 73 64 74
REMARK SMILES IDX 67 75 65 76 44 77 45 78 53 79 46 80 47 81 51 82 54 83 48 84
REMARK SMILES IDX 49 85 52 86 50 87
REMARK H PARENT 74 40 42 51
REMARK Flexibility Score: inf
ROOT
ATOM      1  C   UNL A   1      34.197  31.583  28.185  1.00  0.00     0.275 C 
ENDROOT
BRANCH   1   2
ATOM      2  C   UNL A   1      33.295  30.836  27.199  1.00  0.00     0.275 C 
BRANCH   2   3
ATOM      3  O   UNL A   1      33.711  29.472  26.954  1.00  0.00    -0.458 OA
BRANCH   3   4
ATOM      4  C   UNL A   1      33.299  28.897  25.793  1.00  0.00     0.339 C 
ATOM      5  O   UNL A   1      33.336  29.412  24.682  1.00  0.00    -0.246 OA
BRANCH   4   6
ATOM      6  C   UNL A   1      32.863  27.501  26.002  1.00  0.00     0.079 A 
ATOM      7  C   UNL A   1      33.170  25.099  25.901  1.00  0.00     0.001 A 
ATOM      8  C   UNL A   1      31.911  24.976  26.492  1.00  0.00     0.119 A 
ATOM      9  C   UNL A   1      33.623  26.399  25.621  1.00  0.00     0.027 A 
ATOM     10  N   UNL A   1      31.144  26.021  26.874  1.00  0.00    -0.263 NA
ATOM     11  C   UNL A   1      31.656  27.255  26.646  1.00  0.00     0.126 A 
BRANCH   7  12
ATOM     12  C   UNL A   1      34.042  23.941  25.699  1.00  0.00    -0.016 A 
ATOM     13  C   UNL A   1      36.653  22.876  23.126  1.00  0.00     0.047 C 
ATOM     14  C   UNL A   1      35.767  22.867  24.331  1.00  0.00    -0.015 A 
ATOM     15  C   UNL A   1      34.876  23.918  24.565  1.00  0.00     0.015 A 
ATOM     16  C   UNL A   1      35.813  21.823  25.252  1.00  0.00     0.126 A 
ATOM     17  C   UNL A   1      34.997  21.817  26.380  1.00  0.00     0.040 A 
ATOM     18  F   UNL A   1      36.661  20.804  25.059  1.00  0.00    -0.207 F 
ATOM     19  C   UNL A   1      34.113  22.876  26.607  1.00  0.00     0.012 A 
ENDBRANCH   7  12
ENDBRANCH   4   6
ENDBRANCH   3   4
ENDBRANCH   2   3
ENDBRANCH   1   2
BRANCH   1  20
ATOM     20  O   UNL A   1      35.496  31.781  27.626  1.00  0.00    -0.458 OA
BRANCH  20  21
ATOM     21  C   UNL A   1      36.467  31.412  28.482  1.00  0.00     0.338 C 
ATOM     22  O   UNL A   1      37.084  32.121  29.265  1.00  0.00    -0.246 OA
BRANCH  21  23
ATOM     23  C   UNL A   1      36.837  30.016  28.279  1.00  0.00     0.060 A 
ATOM     24  C   UNL A   1      36.801  29.252  29.456  1.00  0.00     0.016 A 
ATOM     25  C   UNL A   1      37.845  29.886  27.329  1.00  0.00     0.016 A 
ATOM     26  C   UNL A   1      37.951  28.625  29.875  1.00  0.00     0.010 A 
ATOM     27  C   UNL A   1      38.992  29.269  27.746  1.00  0.00     0.010 A 
ATOM     28  C   UNL A   1      39.056  28.738  29.047  1.00  0.00    -0.014 A 
BRANCH  28  29
ATOM     29  C   UNL A   1      40.348  28.216  29.401  1.00  0.00     0.031 A 
ATOM     30  C   UNL A   1      40.680  26.894  28.860  1.00  0.00     0.074 A 
ATOM     31  C   UNL A   1      41.233  29.078  29.939  1.00  0.00     0.049 A 
ATOM     32  N   UNL A   1      41.740  26.244  29.166  1.00  0.00    -0.248 NA
ATOM     33  C   UNL A   1      39.803  26.171  27.938  1.00  0.00     0.031 C 
ATOM     34  C   UNL A   1      42.684  29.021  29.857  1.00  0.00     0.029 A 
ATOM     35  N   UNL A   1      40.972  30.147  30.814  1.00  0.00    -0.354 N 
ATOM     36  C   UNL A   1      41.845  25.203  28.276  1.00  0.00     0.074 A 
ATOM     37  C   UNL A   1      40.578  25.139  27.593  1.00  0.00     0.031 C 
ATOM     38  C   UNL A   1      43.207  29.806  30.814  1.00  0.00     0.029 A 
ATOM     39  C   UNL A   1      42.103  30.226  31.660  1.00  0.00     0.049 A 
ATOM     40  H   UNL A   1      40.171  30.720  30.833  1.00  0.00     0.167 HD
ATOM     41  C   UNL A   1      43.062  24.618  28.123  1.00  0.00     0.037 A 
ATOM     42  C   UNL A   1      42.007  29.913  32.987  1.00  0.00     0.037 A 
ATOM     43  C   UNL A   1      44.021  25.207  29.045  1.00  0.00     0.049 A 
ATOM     44  C   UNL A   1      42.874  28.742  33.386  1.00  0.00     0.074 A 
ATOM     45  C   UNL A   1      44.908  26.264  28.915  1.00  0.00     0.029 A 
ATOM     46  N   UNL A   1      43.851  24.993  30.404  1.00  0.00    -0.354 N 
ATOM     47  N   UNL A   1      43.211  27.778  32.573  1.00  0.00    -0.248 NA
ATOM     48  C   UNL A   1      43.462  28.587  34.713  1.00  0.00     0.031 C 
ATOM     49  C   UNL A   1      45.251  26.706  30.218  1.00  0.00     0.029 A 
ATOM     50  C   UNL A   1      44.585  25.907  31.130  1.00  0.00     0.049 A 
ATOM     51  H   UNL A   1      43.285  24.289  30.796  1.00  0.00     0.167 HD
ATOM     52  C   UNL A   1      44.066  26.918  33.214  1.00  0.00     0.074 A 
ATOM     53  C   UNL A   1      44.185  27.465  34.552  1.00  0.00     0.031 C 
ATOM     54  C   UNL A   1      44.613  25.838  32.580  1.00  0.00     0.037 A 
BRANCH  41  55
ATOM     55  C   UNL A   1      43.436  23.722  26.982  1.00  0.00     0.064 A 
ATOM     56  C   UNL A   1      43.004  22.379  26.965  1.00  0.00     0.173 A 
ATOM     57  C   UNL A   1      44.215  24.122  25.883  1.00  0.00     0.173 A 
ATOM     58  F   UNL A   1      42.243  21.874  27.945  1.00  0.00    -0.203 F 
ATOM     59  C   UNL A   1      43.356  21.494  25.947  1.00  0.00     0.198 A 
ATOM     60  C   UNL A   1      44.605  23.222  24.886  1.00  0.00     0.198 A 
ATOM     61  F   UNL A   1      44.590  25.398  25.726  1.00  0.00    -0.203 F 
ATOM     62  F   UNL A   1      42.905  20.232  25.979  1.00  0.00    -0.200 F 
ATOM     63  C   UNL A   1      44.171  21.910  24.915  1.00  0.00     0.200 A 
ATOM     64  F   UNL A   1      45.400  23.637  23.889  1.00  0.00    -0.200 F 
ATOM     65  F   UNL A   1      44.525  21.054  23.948  1.00  0.00    -0.200 F 
ENDBRANCH  41  55
BRANCH  42  66
ATOM     66  C   UNL A   1      40.664  30.229  33.546  1.00  0.00     0.064 A 
ATOM     67  C   UNL A   1      40.366  31.585  33.781  1.00  0.00     0.173 A 
ATOM     68  C   UNL A   1      39.590  29.344  33.385  1.00  0.00     0.173 A 
ATOM     69  F   UNL A   1      41.361  32.469  33.957  1.00  0.00    -0.203 F 
ATOM     70  C   UNL A   1      39.060  32.058  33.705  1.00  0.00     0.198 A 
ATOM     71  C   UNL A   1      38.281  29.824  33.310  1.00  0.00     0.198 A 
ATOM     72  F   UNL A   1      39.811  28.037  33.179  1.00  0.00    -0.203 F 
ATOM     73  F   UNL A   1      38.814  33.372  33.821  1.00  0.00    -0.200 F 
ATOM     74  C   UNL A   1      38.024  31.182  33.431  1.00  0.00     0.200 A 
ATOM     75  F   UNL A   1      37.275  28.977  33.047  1.00  0.00    -0.200 F 
ATOM     76  F   UNL A   1      36.783  31.654  33.269  1.00  0.00    -0.200 F 
ENDBRANCH  42  66
BRANCH  54  77
ATOM     77  C   UNL A   1      45.294  24.640  33.208  1.00  0.00     0.064 A 
ATOM     78  C   UNL A   1      46.614  24.642  33.682  1.00  0.00     0.173 A 
ATOM     79  C   UNL A   1      44.543  23.475  33.527  1.00  0.00     0.173 A 
ATOM     80  F   UNL A   1      47.407  25.712  33.545  1.00  0.00    -0.203 F 
ATOM     81  C   UNL A   1      47.152  23.557  34.380  1.00  0.00     0.198 A 
ATOM     82  C   UNL A   1      45.059  22.430  34.291  1.00  0.00     0.198 A 
ATOM     83  F   UNL A   1      43.269  23.321  33.142  1.00  0.00    -0.203 F 
ATOM     84  F   UNL A   1      48.432  23.595  34.773  1.00  0.00    -0.200 F 
ATOM     85  C   UNL A   1      46.370  22.464  34.705  1.00  0.00     0.200 A 
ATOM     86  F   UNL A   1      44.265  21.410  34.644  1.00  0.00    -0.200 F 
ATOM     87  F   UNL A   1      46.873  21.459  35.432  1.00  0.00    -0.200 F 
ENDBRANCH  54  77
ENDBRANCH  28  29
ENDBRANCH  21  23
ENDBRANCH  20  21
ENDBRANCH   1  20
TORSDOF 12
ENDMDL
MODEL 2
REMARK VINA RESULT:     -13.0      2.562      3.765
REMARK SMILES Cc1cc(-c2cncc(C(=O)OCCOC(=O)c3ccc(-c4c5nc(c(-c6c(F)c(F)c(F)c(F)c6F)c6ccc([nH]6)c(-c6c(F)c(F)c(F)c(F)c6F)c6nc(c(-c7c(F)c(F)c(F)c(F)c7F)c7ccc4[nH]7)C=C6)C=C5)cc3)c2)ccc1F
REMARK SMILES IDX 14 1 13 2 12 3 10 4 11 5 9 6 5 7 6 8 81 9 7 10 8 11 4 12
REMARK SMILES IDX 1 13 2 14 3 15 84 16 83 17 85 18 82 19 15 20 16 21 17 22
REMARK SMILES IDX 18 23 19 24 80 25 20 26 79 27 21 28 22 29 23 30 73 31 24 32
REMARK SMILES IDX 78 33 72 34 74 35 25 36 77 37 71 38 70 39 26 41 58 42 38 43
REMARK SMILES IDX 57 44 39 45 42 46 56 47 75 48 40 49 41 50 55 52 76 53 43 54
REMARK SMILES IDX 27 55 28 56 36 57 29 58 30 59 34 60 37 61 31 62 32 63 35 64
REMARK SMILES IDX 33 65 59 66 60 67 68 68 61 69 62 70 66 71 69 72 63 73 64 74
REMARK SMILES IDX 67 75 65 76 44 77 45 78 53 79 46 80 47 81 51 82 54 83 48 84
REMARK SMILES IDX 49 85 52 86 50 87
REMARK H PARENT 74 40 42 51
REMARK Flexibility Score: inf
ROOT
ATOM      1  C   UNL A   1      34.221  32.086  27.928  1.00  0.00     0.275 C 
ENDROOT
BRANCH   1   2
ATOM      2  C   UNL A   1      33.319  30.871  27.697  1.00  0.00     0.275 C 
BRANCH   2   3
ATOM      3  O   UNL A   1      33.380  30.353  26.348  1.00  0.00    -0.458 OA
BRANCH   3   4
ATOM      4  C   UNL A   1      33.354  29.002  26.200  1.00  0.00     0.339 C 
ATOM      5  O   UNL A   1      34.094  28.203  26.760  1.00  0.00    -0.246 OA
BRANCH   4   6
ATOM      6  C   UNL A   1      32.244  28.571  25.324  1.00  0.00     0.079 A 
ATOM      7  C   UNL A   1      30.342  28.983  23.880  1.00  0.00     0.001 A 
ATOM      8  C   UNL A   1      30.258  27.601  23.701  1.00  0.00     0.119 A 
ATOM      9  C   UNL A   1      31.340  29.458  24.747  1.00  0.00     0.027 A 
ATOM     10  N   UNL A   1      31.116  26.709  24.246  1.00  0.00    -0.263 NA
ATOM     11  C   UNL A   1      32.104  27.223  25.019  1.00  0.00     0.126 A 
BRANCH   7  12
ATOM     12  C   UNL A   1      29.519  29.910  23.104  1.00  0.00    -0.016 A 
ATOM     13  C   UNL A   1      28.835  33.666  23.127  1.00  0.00     0.047 C 
ATOM     14  C   UNL A   1      28.798  32.222  22.736  1.00  0.00    -0.015 A 
ATOM     15  C   UNL A   1      29.525  31.273  23.460  1.00  0.00     0.015 A 
ATOM     16  C   UNL A   1      28.054  31.791  21.641  1.00  0.00     0.126 A 
ATOM     17  C   UNL A   1      28.027  30.450  21.267  1.00  0.00     0.040 A 
ATOM     18  F   UNL A   1      27.353  32.679  20.923  1.00  0.00    -0.207 F 
ATOM     19  C   UNL A   1      28.761  29.509  21.996  1.00  0.00     0.012 A 
ENDBRANCH   7  12
ENDBRANCH   4   6
ENDBRANCH   3   4
ENDBRANCH   2   3
ENDBRANCH   1   2
BRANCH   1  20
ATOM     20  O   UNL A   1      35.544  31.825  27.459  1.00  0.00    -0.458 OA
BRANCH  20  21
ATOM     21  C   UNL A   1      36.343  31.381  28.447  1.00  0.00     0.338 C 
ATOM     22  O   UNL A   1      36.810  32.024  29.378  1.00  0.00    -0.246 OA
BRANCH  21  23
ATOM     23  C   UNL A   1      36.740  29.997  28.214  1.00  0.00     0.060 A 
ATOM     24  C   UNL A   1      36.691  29.200  29.369  1.00  0.00     0.016 A 
ATOM     25  C   UNL A   1      37.770  29.909  27.284  1.00  0.00     0.016 A 
ATOM     26  C   UNL A   1      37.840  28.580  29.796  1.00  0.00     0.010 A 
ATOM     27  C   UNL A   1      38.918  29.299  27.710  1.00  0.00     0.010 A 
ATOM     28  C   UNL A   1      38.961  28.732  28.997  1.00  0.00    -0.014 A 
BRANCH  28  29
ATOM     29  C   UNL A   1      40.253  28.221  29.365  1.00  0.00     0.031 A 
ATOM     30  C   UNL A   1      40.603  26.902  28.827  1.00  0.00     0.074 A 
ATOM     31  C   UNL A   1      41.125  29.090  29.914  1.00  0.00     0.049 A 
ATOM     32  N   UNL A   1      41.664  26.260  29.145  1.00  0.00    -0.248 NA
ATOM     33  C   UNL A   1      39.742  26.173  27.895  1.00  0.00     0.031 C 
ATOM     34  C   UNL A   1      42.578  29.044  29.848  1.00  0.00     0.029 A 
ATOM     35  N   UNL A   1      40.845  30.156  30.786  1.00  0.00    -0.354 N 
ATOM     36  C   UNL A   1      41.788  25.221  28.256  1.00  0.00     0.074 A 
ATOM     37  C   UNL A   1      40.529  25.146  27.558  1.00  0.00     0.031 C 
ATOM     38  C   UNL A   1      43.083  29.832  30.811  1.00  0.00     0.029 A 
ATOM     39  C   UNL A   1      41.966  30.243  31.645  1.00  0.00     0.049 A 
ATOM     40  H   UNL A   1      40.040  30.722  30.797  1.00  0.00     0.167 HD
ATOM     41  C   UNL A   1      43.011  24.646  28.116  1.00  0.00     0.037 A 
ATOM     42  C   UNL A   1      41.858  29.928  32.971  1.00  0.00     0.037 A 
ATOM     43  C   UNL A   1      43.955  25.242  29.049  1.00  0.00     0.049 A 
ATOM     44  C   UNL A   1      42.729  28.764  33.379  1.00  0.00     0.074 A 
ATOM     45  C   UNL A   1      44.834  26.306  28.931  1.00  0.00     0.029 A 
ATOM     46  N   UNL A   1      43.771  25.026  30.407  1.00  0.00    -0.354 N 
ATOM     47  N   UNL A   1      43.084  27.804  32.570  1.00  0.00    -0.248 NA
ATOM     48  C   UNL A   1      43.303  28.613  34.712  1.00  0.00     0.031 C 
ATOM     49  C   UNL A   1      45.159  26.750  30.237  1.00  0.00     0.029 A 
ATOM     50  C   UNL A   1      44.489  25.945  31.141  1.00  0.00     0.049 A 
ATOM     51  H   UNL A   1      43.206  24.317  30.792  1.00  0.00     0.167 HD
ATOM     52  C   UNL A   1      43.938  26.950  33.220  1.00  0.00     0.074 A 
ATOM     53  C   UNL A   1      44.037  27.497  34.560  1.00  0.00     0.031 C 
ATOM     54  C   UNL A   1      44.501  25.875  32.592  1.00  0.00     0.037 A 
BRANCH  41  55
ATOM     55  C   UNL A   1      43.405  23.754  26.979  1.00  0.00     0.064 A 
ATOM     56  C   UNL A   1      43.001  22.401  26.967  1.00  0.00     0.173 A 
ATOM     57  C   UNL A   1      44.178  24.165  25.880  1.00  0.00     0.173 A 
ATOM     58  F   UNL A   1      42.249  21.885  27.947  1.00  0.00    -0.203 F 
ATOM     59  C   UNL A   1      43.373  21.520  25.952  1.00  0.00     0.198 A 
ATOM     60  C   UNL A   1      44.588  23.270  24.886  1.00  0.00     0.198 A 
ATOM     61  F   UNL A   1      44.527  25.448  25.719  1.00  0.00    -0.203 F 
ATOM     62  F   UNL A   1      42.948  20.249  25.988  1.00  0.00    -0.200 F 
ATOM     63  C   UNL A   1      44.181  21.950  24.920  1.00  0.00     0.200 A 
ATOM     64  F   UNL A   1      45.375  23.698  23.889  1.00  0.00    -0.200 F 
ATOM     65  F   UNL A   1      44.554  21.098  23.956  1.00  0.00    -0.200 F 
ENDBRANCH  41  55
BRANCH  42  66
ATOM     66  C   UNL A   1      40.506  30.233  33.515  1.00  0.00     0.064 A 
ATOM     67  C   UNL A   1      40.218  31.579  33.812  1.00  0.00     0.173 A 
ATOM     68  C   UNL A   1      39.425  29.372  33.285  1.00  0.00     0.173 A 
ATOM     69  F   UNL A   1      41.220  32.441  34.054  1.00  0.00    -0.203 F 
ATOM     70  C   UNL A   1      38.920  32.073  33.730  1.00  0.00     0.198 A 
ATOM     71  C   UNL A   1      38.124  29.871  33.205  1.00  0.00     0.198 A 
ATOM     72  F   UNL A   1      39.636  28.074  33.018  1.00  0.00    -0.203 F 
ATOM     73  F   UNL A   1      38.687  33.382  33.907  1.00  0.00    -0.200 F 
ATOM     74  C   UNL A   1      37.881  31.225  33.389  1.00  0.00     0.200 A 
ATOM     75  F   UNL A   1      37.115  29.052  32.877  1.00  0.00    -0.200 F 
ATOM     76  F   UNL A   1      36.649  31.721  33.223  1.00  0.00    -0.200 F 
ENDBRANCH  42  66
BRANCH  54  77
ATOM     77  C   UNL A   1      45.185  24.682  33.227  1.00  0.00     0.064 A 
ATOM     78  C   UNL A   1      46.514  24.680  33.672  1.00  0.00     0.173 A 
ATOM     79  C   UNL A   1      44.430  23.530  33.583  1.00  0.00     0.173 A 
ATOM     80  F   UNL A   1      47.314  25.740  33.499  1.00  0.00    -0.203 F 
ATOM     81  C   UNL A   1      47.057  23.603  34.378  1.00  0.00     0.198 A 
ATOM     82  C   UNL A   1      44.953  22.495  34.355  1.00  0.00     0.198 A 
ATOM     83  F   UNL A   1      43.146  23.381  33.228  1.00  0.00    -0.203 F 
ATOM     84  F   UNL A   1      48.346  23.636  34.743  1.00  0.00    -0.200 F 
ATOM     85  C   UNL A   1      46.272  22.524  34.740  1.00  0.00     0.200 A 
ATOM     86  F   UNL A   1      44.157  21.489  34.743  1.00  0.00    -0.200 F 
ATOM     87  F   UNL A   1      46.782  21.527  35.474  1.00  0.00    -0.200 F 
ENDBRANCH  54  77
ENDBRANCH  28  29
ENDBRANCH  21  23
ENDBRANCH  20  21
ENDBRANCH   1  20
TORSDOF 12
ENDMDL
MODEL 3
REMARK VINA RESULT:     -12.9      4.201     10.029
REMARK SMILES Cc1cc(-c2cncc(C(=O)OCCOC(=O)c3ccc(-c4c5nc(c(-c6c(F)c(F)c(F)c(F)c6F)c6ccc([nH]6)c(-c6c(F)c(F)c(F)c(F)c6F)c6nc(c(-c7c(F)c(F)c(F)c(F)c7F)c7ccc4[nH]7)C=C6)C=C5)cc3)c2)ccc1F
REMARK SMILES IDX 14 1 13 2 12 3 10 4 11 5 9 6 5 7 6 8 81 9 7 10 8 11 4 12
REMARK SMILES IDX 1 13 2 14 3 15 84 16 83 17 85 18 82 19 15 20 16 21 17 22
REMARK SMILES IDX 18 23 19 24 80 25 20 26 79 27 21 28 22 29 23 30 73 31 24 32
REMARK SMILES IDX 78 33 72 34 74 35 25 36 77 37 71 38 70 39 26 41 58 42 38 43
REMARK SMILES IDX 57 44 39 45 42 46 56 47 75 48 40 49 41 50 55 52 76 53 43 54
REMARK SMILES IDX 27 55 28 56 36 57 29 58 30 59 34 60 37 61 31 62 32 63 35 64
REMARK SMILES IDX 33 65 59 66 60 67 68 68 61 69 62 70 66 71 69 72 63 73 64 74
REMARK SMILES IDX 67 75 65 76 44 77 45 78 53 79 46 80 47 81 51 82 54 83 48 84
REMARK SMILES IDX 49 85 52 86 50 87
REMARK H PARENT 74 40 42 51
REMARK Flexibility Score: inf
ROOT
ATOM      1  C   UNL A   1      39.285  22.017  26.529  1.00  0.00     0.275 C 
ENDROOT
BRANCH   1   2
ATOM      2  C   UNL A   1      38.252  21.990  25.401  1.00  0.00     0.275 C 
BRANCH   2   3
ATOM      3  O   UNL A   1      37.356  23.126  25.408  1.00  0.00    -0.458 OA
BRANCH   3   4
ATOM      4  C   UNL A   1      36.041  22.878  25.650  1.00  0.00     0.339 C 
ATOM      5  O   UNL A   1      35.597  22.122  26.505  1.00  0.00    -0.246 OA
BRANCH   4   6
ATOM      6  C   UNL A   1      35.165  23.709  24.798  1.00  0.00     0.079 A 
ATOM      7  C   UNL A   1      33.711  25.605  24.388  1.00  0.00     0.001 A 
ATOM      8  C   UNL A   1      33.601  25.155  23.071  1.00  0.00     0.119 A 
ATOM      9  C   UNL A   1      34.484  24.829  25.269  1.00  0.00     0.027 A 
ATOM     10  N   UNL A   1      34.245  24.073  22.579  1.00  0.00    -0.263 NA
ATOM     11  C   UNL A   1      35.034  23.398  23.450  1.00  0.00     0.126 A 
BRANCH   7  12
ATOM     12  C   UNL A   1      33.160  26.892  24.811  1.00  0.00    -0.016 A 
ATOM     13  C   UNL A   1      34.168  29.654  27.246  1.00  0.00     0.047 C 
ATOM     14  C   UNL A   1      33.407  28.886  26.213  1.00  0.00    -0.015 A 
ATOM     15  C   UNL A   1      33.850  27.629  25.793  1.00  0.00     0.015 A 
ATOM     16  C   UNL A   1      32.250  29.405  25.636  1.00  0.00     0.126 A 
ATOM     17  C   UNL A   1      31.546  28.698  24.665  1.00  0.00     0.040 A 
ATOM     18  F   UNL A   1      31.804  30.611  26.012  1.00  0.00    -0.207 F 
ATOM     19  C   UNL A   1      32.000  27.443  24.250  1.00  0.00     0.012 A 
ENDBRANCH   7  12
ENDBRANCH   4   6
ENDBRANCH   3   4
ENDBRANCH   2   3
ENDBRANCH   1   2
BRANCH   1  20
ATOM     20  O   UNL A   1      40.344  22.923  26.217  1.00  0.00    -0.458 OA
BRANCH  20  21
ATOM     21  C   UNL A   1      40.609  23.752  27.244  1.00  0.00     0.338 C 
ATOM     22  O   UNL A   1      41.380  23.568  28.175  1.00  0.00    -0.246 OA
BRANCH  21  23
ATOM     23  C   UNL A   1      39.727  24.914  27.215  1.00  0.00     0.060 A 
ATOM     24  C   UNL A   1      40.131  25.899  26.300  1.00  0.00     0.016 A 
ATOM     25  C   UNL A   1      39.240  25.219  28.481  1.00  0.00     0.016 A 
ATOM     26  C   UNL A   1      40.404  27.163  26.764  1.00  0.00     0.010 A 
ATOM     27  C   UNL A   1      39.517  26.474  28.948  1.00  0.00     0.010 A 
ATOM     28  C   UNL A   1      40.182  27.390  28.113  1.00  0.00    -0.014 A 
BRANCH  28  29
ATOM     29  C   UNL A   1      40.511  28.633  28.756  1.00  0.00     0.031 A 
ATOM     30  C   UNL A   1      39.431  29.620  28.843  1.00  0.00     0.074 A 
ATOM     31  C   UNL A   1      41.658  28.675  29.462  1.00  0.00     0.049 A 
ATOM     32  N   UNL A   1      39.586  30.812  29.286  1.00  0.00    -0.248 NA
ATOM     33  C   UNL A   1      38.065  29.344  28.392  1.00  0.00     0.031 C 
ATOM     34  C   UNL A   1      41.955  29.508  30.617  1.00  0.00     0.029 A 
ATOM     35  N   UNL A   1      42.874  28.033  29.169  1.00  0.00    -0.354 N 
ATOM     36  C   UNL A   1      38.333  31.339  29.475  1.00  0.00     0.074 A 
ATOM     37  C   UNL A   1      37.421  30.434  28.822  1.00  0.00     0.031 C 
ATOM     38  C   UNL A   1      43.286  29.550  30.794  1.00  0.00     0.029 A 
ATOM     39  C   UNL A   1      43.883  28.908  29.635  1.00  0.00     0.049 A 
ATOM     40  H   UNL A   1      42.997  27.160  28.732  1.00  0.00     0.167 HD
ATOM     41  C   UNL A   1      38.211  32.410  30.302  1.00  0.00     0.037 A 
ATOM     42  C   UNL A   1      44.712  29.552  28.759  1.00  0.00     0.037 A 
ATOM     43  C   UNL A   1      39.522  32.832  30.771  1.00  0.00     0.049 A 
ATOM     44  C   UNL A   1      44.593  31.056  28.824  1.00  0.00     0.074 A 
ATOM     45  C   UNL A   1      40.261  32.497  31.894  1.00  0.00     0.029 A 
ATOM     46  N   UNL A   1      40.412  33.371  29.854  1.00  0.00    -0.354 N 
ATOM     47  N   UNL A   1      43.505  31.684  29.180  1.00  0.00    -0.248 NA
ATOM     48  C   UNL A   1      45.696  31.967  28.535  1.00  0.00     0.031 C 
ATOM     49  C   UNL A   1      41.618  32.814  31.633  1.00  0.00     0.029 A 
ATOM     50  C   UNL A   1      41.694  33.355  30.362  1.00  0.00     0.049 A 
ATOM     51  H   UNL A   1      40.164  33.715  28.966  1.00  0.00     0.167 HD
ATOM     52  C   UNL A   1      43.748  33.033  29.216  1.00  0.00     0.074 A 
ATOM     53  C   UNL A   1      45.131  33.158  28.797  1.00  0.00     0.031 C 
ATOM     54  C   UNL A   1      42.790  33.928  29.602  1.00  0.00     0.037 A 
BRANCH  41  55
ATOM     55  C   UNL A   1      36.917  32.893  30.882  1.00  0.00     0.064 A 
ATOM     56  C   UNL A   1      36.026  33.651  30.093  1.00  0.00     0.173 A 
ATOM     57  C   UNL A   1      36.499  32.648  32.201  1.00  0.00     0.173 A 
ATOM     58  F   UNL A   1      36.297  33.943  28.814  1.00  0.00    -0.203 F 
ATOM     59  C   UNL A   1      34.827  34.156  30.595  1.00  0.00     0.198 A 
ATOM     60  C   UNL A   1      35.319  33.193  32.717  1.00  0.00     0.198 A 
ATOM     61  F   UNL A   1      37.201  31.847  33.014  1.00  0.00    -0.203 F 
ATOM     62  F   UNL A   1      34.016  34.859  29.793  1.00  0.00    -0.200 F 
ATOM     63  C   UNL A   1      34.481  33.942  31.913  1.00  0.00     0.200 A 
ATOM     64  F   UNL A   1      34.993  32.980  34.000  1.00  0.00    -0.200 F 
ATOM     65  F   UNL A   1      33.339  34.444  32.400  1.00  0.00    -0.200 F 
ENDBRANCH  41  55
BRANCH  42  66
ATOM     66  C   UNL A   1      44.962  28.753  27.528  1.00  0.00     0.064 A 
ATOM     67  C   UNL A   1      45.891  27.698  27.621  1.00  0.00     0.173 A 
ATOM     68  C   UNL A   1      44.011  28.695  26.501  1.00  0.00     0.173 A 
ATOM     69  F   UNL A   1      46.830  27.716  28.581  1.00  0.00    -0.203 F 
ATOM     70  C   UNL A   1      45.776  26.566  26.821  1.00  0.00     0.198 A 
ATOM     71  C   UNL A   1      43.901  27.557  25.700  1.00  0.00     0.198 A 
ATOM     72  F   UNL A   1      43.114  29.681  26.350  1.00  0.00    -0.203 F 
ATOM     73  F   UNL A   1      46.604  25.527  27.006  1.00  0.00    -0.200 F 
ATOM     74  C   UNL A   1      44.757  26.482  25.888  1.00  0.00     0.200 A 
ATOM     75  F   UNL A   1      42.916  27.474  24.794  1.00  0.00    -0.200 F 
ATOM     76  F   UNL A   1      44.596  25.355  25.185  1.00  0.00    -0.200 F 
ENDBRANCH  42  66
BRANCH  54  77
ATOM     77  C   UNL A   1      42.783  35.429  29.393  1.00  0.00     0.064 A 
ATOM     78  C   UNL A   1      43.438  36.344  30.228  1.00  0.00     0.173 A 
ATOM     79  C   UNL A   1      42.251  35.982  28.195  1.00  0.00     0.173 A 
ATOM     80  F   UNL A   1      44.075  35.951  31.338  1.00  0.00    -0.203 F 
ATOM     81  C   UNL A   1      43.521  37.704  29.916  1.00  0.00     0.198 A 
ATOM     82  C   UNL A   1      42.405  37.323  27.850  1.00  0.00     0.198 A 
ATOM     83  F   UNL A   1      41.593  35.236  27.296  1.00  0.00    -0.203 F 
ATOM     84  F   UNL A   1      44.123  38.542  30.771  1.00  0.00    -0.200 F 
ATOM     85  C   UNL A   1      43.027  38.188  28.719  1.00  0.00     0.200 A 
ATOM     86  F   UNL A   1      41.971  37.757  26.659  1.00  0.00    -0.200 F 
ATOM     87  F   UNL A   1      43.170  39.480  28.396  1.00  0.00    -0.200 F 
ENDBRANCH  54  77
ENDBRANCH  28  29
ENDBRANCH  21  23
ENDBRANCH  20  21
ENDBRANCH   1  20
TORSDOF 12
ENDMDL
