MODEL 1
REMARK VINA RESULT:     -10.8      0.000      0.000
REMARK SMILES Cc1ccc(C)c(Oc2cccc(F)c2C(=O)OCCOC(=O)c2ccc(-c3c4nc(c(-c5c(F)c(F)c(F)c(F)c5F)c5ccc([nH]5)c(-c5c(F)c(F)c(F)c(F)c5F)c5nc(c(-c6c(F)c(F)c(F)c(F)c6F)c6ccc3[nH]6)C=C5)C=C4)cc2)c1
REMARK SMILES IDX 19 1 18 2 16 3 17 4 15 5 9 6 10 7 11 8 13 9 12 10 14 11 8 12
REMARK SMILES IDX 7 13 1 14 2 15 3 16 87 17 4 18 5 19 6 20 20 21 21 22 22 23
REMARK SMILES IDX 23 24 24 25 25 26 86 27 26 28 85 29 27 30 28 31 29 32 79 33
REMARK SMILES IDX 30 34 84 35 78 36 80 37 31 38 83 39 77 40 76 41 32 43 64 44
REMARK SMILES IDX 44 45 63 46 45 47 48 48 62 49 81 50 46 51 47 52 61 54 82 55
REMARK SMILES IDX 49 56 33 57 34 58 42 59 35 60 36 61 40 62 43 63 37 64 38 65
REMARK SMILES IDX 41 66 39 67 65 68 66 69 74 70 67 71 68 72 72 73 75 74 69 75
REMARK SMILES IDX 70 76 73 77 71 78 50 79 51 80 59 81 52 82 53 83 57 84 60 85
REMARK SMILES IDX 54 86 55 87 58 88 56 89
REMARK H PARENT 80 42 48 53
REMARK Flexibility Score: inf
ROOT
ATOM      1  C   UNL A   1      34.051  34.993  31.134  1.00  0.00     0.275 C 
ENDROOT
BRANCH   1   2
ATOM      2  O   UNL A   1      33.654  33.840  30.366  1.00  0.00    -0.458 OA
BRANCH   2   3
ATOM      3  C   UNL A   1      34.453  33.503  29.136  1.00  0.00     0.345 C 
ATOM      4  O   UNL A   1      35.179  34.533  29.087  1.00  0.00    -0.246 OA
BRANCH   3   5
ATOM      5  C   UNL A   1      34.311  31.699  27.945  1.00  0.00     0.138 A 
ATOM      6  C   UNL A   1      35.354  30.542  27.625  1.00  0.00     0.144 A 
ATOM      7  C   UNL A   1      35.085  29.154  27.286  1.00  0.00     0.048 A 
ATOM      8  C   UNL A   1      33.839  28.687  26.987  1.00  0.00     0.007 A 
ATOM      9  C   UNL A   1      33.078  31.005  27.293  1.00  0.00     0.141 A 
ATOM     10  C   UNL A   1      32.861  29.633  26.923  1.00  0.00     0.040 A 
ATOM     11  F   UNL A   1      31.946  31.655  26.946  1.00  0.00    -0.206 F 
BRANCH   6  12
ATOM     12  O   UNL A   1      36.757  30.590  27.800  1.00  0.00    -0.456 OA
BRANCH  12  13
ATOM     13  C   UNL A   1      37.405  29.868  28.793  1.00  0.00     0.130 A 
ATOM     14  C   UNL A   1      37.400  28.955  32.505  1.00  0.00     0.044 C 
ATOM     15  C   UNL A   1      37.758  29.009  31.048  1.00  0.00    -0.047 A 
ATOM     16  C   UNL A   1      38.853  28.272  30.589  1.00  0.00     0.004 A 
ATOM     17  C   UNL A   1      37.009  29.772  30.135  1.00  0.00     0.050 A 
ATOM     18  C   UNL A   1      39.256  28.368  29.260  1.00  0.00     0.007 A 
ATOM     19  C   UNL A   1      38.573  29.204  28.367  1.00  0.00    -0.008 A 
ATOM     20  C   UNL A   1      39.102  29.324  26.963  1.00  0.00     0.048 C 
ENDBRANCH  12  13
ENDBRANCH   6  12
ENDBRANCH   3   5
ENDBRANCH   2   3
ENDBRANCH   1   2
BRANCH   1  21
ATOM     21  C   UNL A   1      34.631  34.496  32.461  1.00  0.00     0.275 C 
BRANCH  21  22
ATOM     22  O   UNL A   1      36.072  34.335  32.429  1.00  0.00    -0.458 OA
BRANCH  22  23
ATOM     23  C   UNL A   1      36.535  33.058  32.392  1.00  0.00     0.338 C 
ATOM     24  O   UNL A   1      35.874  32.044  32.495  1.00  0.00    -0.246 OA
BRANCH  23  25
ATOM     25  C   UNL A   1      37.989  33.078  32.187  1.00  0.00     0.060 A 
ATOM     26  C   UNL A   1      38.635  32.799  30.505  1.00  0.00     0.016 A 
ATOM     27  C   UNL A   1      38.934  32.529  33.620  1.00  0.00     0.016 A 
ATOM     28  C   UNL A   1      40.261  31.980  30.257  1.00  0.00     0.010 A 
ATOM     29  C   UNL A   1      40.425  31.501  33.352  1.00  0.00     0.010 A 
ATOM     30  C   UNL A   1      41.088  31.222  31.673  1.00  0.00    -0.014 A 
BRANCH  30  31
ATOM     31  C   UNL A   1      42.049  30.084  31.511  1.00  0.00     0.031 A 
ATOM     32  C   UNL A   1      43.286  30.533  30.841  1.00  0.00     0.074 A 
ATOM     33  C   UNL A   1      42.104  28.869  32.133  1.00  0.00     0.049 A 
ATOM     34  N   UNL A   1      43.581  30.473  29.582  1.00  0.00    -0.248 NA
ATOM     35  C   UNL A   1      44.226  31.336  31.640  1.00  0.00     0.031 C 
ATOM     36  C   UNL A   1      41.233  28.339  33.185  1.00  0.00     0.029 A 
ATOM     37  N   UNL A   1      43.052  27.857  32.023  1.00  0.00    -0.354 N 
ATOM     38  C   UNL A   1      44.836  31.064  29.516  1.00  0.00     0.074 A 
ATOM     39  C   UNL A   1      44.942  31.903  30.670  1.00  0.00     0.031 C 
ATOM     40  C   UNL A   1      41.785  27.233  33.745  1.00  0.00     0.029 A 
ATOM     41  C   UNL A   1      42.991  26.869  33.021  1.00  0.00     0.049 A 
ATOM     42  H   UNL A   1      43.718  27.834  31.298  1.00  0.00     0.167 HD
ATOM     43  C   UNL A   1      45.865  30.469  28.852  1.00  0.00     0.037 A 
ATOM     44  C   UNL A   1      43.850  25.829  33.243  1.00  0.00     0.037 A 
ATOM     45  C   UNL A   1      45.393  29.365  28.058  1.00  0.00     0.049 A 
ATOM     46  C   UNL A   1      44.628  25.608  32.008  1.00  0.00     0.074 A 
ATOM     47  C   UNL A   1      44.668  29.183  26.904  1.00  0.00     0.029 A 
ATOM     48  N   UNL A   1      45.388  28.175  28.730  1.00  0.00    -0.354 N 
ATOM     49  N   UNL A   1      44.142  25.066  30.930  1.00  0.00    -0.248 NA
ATOM     50  C   UNL A   1      45.970  26.170  31.885  1.00  0.00     0.031 C 
ATOM     51  C   UNL A   1      44.183  27.842  26.931  1.00  0.00     0.029 A 
ATOM     52  C   UNL A   1      44.640  27.227  28.089  1.00  0.00     0.049 A 
ATOM     53  H   UNL A   1      45.868  28.019  29.575  1.00  0.00     0.167 HD
ATOM     54  C   UNL A   1      44.895  25.620  29.925  1.00  0.00     0.074 A 
ATOM     55  C   UNL A   1      46.109  26.109  30.560  1.00  0.00     0.031 C 
ATOM     56  C   UNL A   1      44.288  26.007  28.773  1.00  0.00     0.037 A 
BRANCH  43  57
ATOM     57  C   UNL A   1      47.329  30.543  29.271  1.00  0.00     0.064 A 
ATOM     58  C   UNL A   1      47.898  29.944  30.419  1.00  0.00     0.173 A 
ATOM     59  C   UNL A   1      48.264  31.037  28.341  1.00  0.00     0.173 A 
ATOM     60  F   UNL A   1      47.180  29.279  31.329  1.00  0.00    -0.203 F 
ATOM     61  C   UNL A   1      49.272  29.888  30.645  1.00  0.00     0.198 A 
ATOM     62  C   UNL A   1      49.645  30.919  28.537  1.00  0.00     0.198 A 
ATOM     63  F   UNL A   1      47.853  31.585  27.187  1.00  0.00    -0.203 F 
ATOM     64  F   UNL A   1      49.731  29.307  31.763  1.00  0.00    -0.200 F 
ATOM     65  C   UNL A   1      50.148  30.353  29.693  1.00  0.00     0.200 A 
ATOM     66  F   UNL A   1      50.489  31.310  27.574  1.00  0.00    -0.200 F 
ATOM     67  F   UNL A   1      51.467  30.208  29.871  1.00  0.00    -0.200 F 
ENDBRANCH  43  57
BRANCH  44  68
ATOM     68  C   UNL A   1      44.191  24.971  34.421  1.00  0.00     0.064 A 
ATOM     69  C   UNL A   1      45.014  25.444  35.456  1.00  0.00     0.173 A 
ATOM     70  C   UNL A   1      44.005  23.567  34.379  1.00  0.00     0.173 A 
ATOM     71  F   UNL A   1      45.287  26.752  35.558  1.00  0.00    -0.203 F 
ATOM     72  C   UNL A   1      45.661  24.570  36.342  1.00  0.00     0.198 A 
ATOM     73  C   UNL A   1      44.659  22.696  35.258  1.00  0.00     0.198 A 
ATOM     74  F   UNL A   1      43.249  23.009  33.421  1.00  0.00    -0.203 F 
ATOM     75  F   UNL A   1      46.502  25.060  37.264  1.00  0.00    -0.200 F 
ATOM     76  C   UNL A   1      45.504  23.198  36.228  1.00  0.00     0.200 A 
ATOM     77  F   UNL A   1      44.525  21.370  35.113  1.00  0.00    -0.200 F 
ATOM     78  F   UNL A   1      46.197  22.366  37.019  1.00  0.00    -0.200 F 
ENDBRANCH  44  68
BRANCH  56  79
ATOM     79  C   UNL A   1      43.097  25.230  28.315  1.00  0.00     0.064 A 
ATOM     80  C   UNL A   1      43.337  24.129  27.481  1.00  0.00     0.173 A 
ATOM     81  C   UNL A   1      41.761  25.554  28.600  1.00  0.00     0.173 A 
ATOM     82  F   UNL A   1      44.597  23.784  27.169  1.00  0.00    -0.203 F 
ATOM     83  C   UNL A   1      42.292  23.396  26.932  1.00  0.00     0.198 A 
ATOM     84  C   UNL A   1      40.715  24.790  28.082  1.00  0.00     0.198 A 
ATOM     85  F   UNL A   1      41.449  26.627  29.342  1.00  0.00    -0.203 F 
ATOM     86  F   UNL A   1      42.557  22.389  26.090  1.00  0.00    -0.200 F 
ATOM     87  C   UNL A   1      40.981  23.722  27.238  1.00  0.00     0.200 A 
ATOM     88  F   UNL A   1      39.445  25.101  28.378  1.00  0.00    -0.200 F 
ATOM     89  F   UNL A   1      39.975  23.020  26.701  1.00  0.00    -0.200 F 
ENDBRANCH  56  79
ENDBRANCH  30  31
ENDBRANCH  23  25
ENDBRANCH  22  23
ENDBRANCH  21  22
ENDBRANCH   1  21
TORSDOF 13
ENDMDL
MODEL 2
REMARK VINA RESULT:     -10.7      6.506     12.575
REMARK SMILES Cc1ccc(C)c(Oc2cccc(F)c2C(=O)OCCOC(=O)c2ccc(-c3c4nc(c(-c5c(F)c(F)c(F)c(F)c5F)c5ccc([nH]5)c(-c5c(F)c(F)c(F)c(F)c5F)c5nc(c(-c6c(F)c(F)c(F)c(F)c6F)c6ccc3[nH]6)C=C5)C=C4)cc2)c1
REMARK SMILES IDX 19 1 18 2 16 3 17 4 15 5 9 6 10 7 11 8 13 9 12 10 14 11 8 12
REMARK SMILES IDX 7 13 1 14 2 15 3 16 87 17 4 18 5 19 6 20 20 21 21 22 22 23
REMARK SMILES IDX 23 24 24 25 25 26 86 27 26 28 85 29 27 30 28 31 29 32 79 33
REMARK SMILES IDX 30 34 84 35 78 36 80 37 31 38 83 39 77 40 76 41 32 43 64 44
REMARK SMILES IDX 44 45 63 46 45 47 48 48 62 49 81 50 46 51 47 52 61 54 82 55
REMARK SMILES IDX 49 56 33 57 34 58 42 59 35 60 36 61 40 62 43 63 37 64 38 65
REMARK SMILES IDX 41 66 39 67 65 68 66 69 74 70 67 71 68 72 72 73 75 74 69 75
REMARK SMILES IDX 70 76 73 77 71 78 50 79 51 80 59 81 52 82 53 83 57 84 60 85
REMARK SMILES IDX 54 86 55 87 58 88 56 89
REMARK H PARENT 80 42 48 53
REMARK Flexibility Score: inf
ROOT
ATOM      1  C   UNL A   1      46.778  20.922  39.735  1.00  0.00     0.275 C 
ENDROOT
BRANCH   1   2
ATOM      2  O   UNL A   1      46.057  20.317  40.826  1.00  0.00    -0.458 OA
BRANCH   2   3
ATOM      3  C   UNL A   1      45.813  18.833  40.774  1.00  0.00     0.345 C 
ATOM      4  O   UNL A   1      45.653  18.705  39.529  1.00  0.00    -0.246 OA
BRANCH   3   5
ATOM      5  C   UNL A   1      45.823  17.451  42.442  1.00  0.00     0.138 A 
ATOM      6  C   UNL A   1      44.750  16.404  42.972  1.00  0.00     0.144 A 
ATOM      7  C   UNL A   1      44.979  15.180  43.722  1.00  0.00     0.048 A 
ATOM      8  C   UNL A   1      46.185  14.855  44.270  1.00  0.00     0.007 A 
ATOM      9  C   UNL A   1      46.978  17.009  43.389  1.00  0.00     0.141 A 
ATOM     10  C   UNL A   1      47.152  15.808  44.159  1.00  0.00     0.040 A 
ATOM     11  F   UNL A   1      48.068  17.764  43.649  1.00  0.00    -0.206 F 
BRANCH   6  12
ATOM     12  O   UNL A   1      43.374  16.359  42.647  1.00  0.00    -0.456 OA
BRANCH  12  13
ATOM     13  C   UNL A   1      42.770  15.217  42.139  1.00  0.00     0.130 A 
ATOM     14  C   UNL A   1      41.427  11.743  43.001  1.00  0.00     0.044 C 
ATOM     15  C   UNL A   1      41.780  12.991  42.243  1.00  0.00    -0.047 A 
ATOM     16  C   UNL A   1      41.493  13.061  40.877  1.00  0.00     0.004 A 
ATOM     17  C   UNL A   1      42.380  14.091  42.880  1.00  0.00     0.050 A 
ATOM     18  C   UNL A   1      41.883  14.172  40.135  1.00  0.00     0.007 A 
ATOM     19  C   UNL A   1      42.570  15.230  40.743  1.00  0.00    -0.008 A 
ATOM     20  C   UNL A   1      43.032  16.369  39.874  1.00  0.00     0.048 C 
ENDBRANCH  12  13
ENDBRANCH   6  12
ENDBRANCH   3   5
ENDBRANCH   2   3
ENDBRANCH   1   2
BRANCH   1  21
ATOM     21  C   UNL A   1      46.028  22.191  39.322  1.00  0.00     0.275 C 
BRANCH  21  22
ATOM     22  O   UNL A   1      46.633  22.868  38.191  1.00  0.00    -0.458 OA
BRANCH  22  23
ATOM     23  C   UNL A   1      46.116  22.576  36.968  1.00  0.00     0.338 C 
ATOM     24  O   UNL A   1      45.653  21.511  36.612  1.00  0.00    -0.246 OA
BRANCH  23  25
ATOM     25  C   UNL A   1      46.186  23.771  36.118  1.00  0.00     0.060 A 
ATOM     26  C   UNL A   1      44.636  24.648  35.723  1.00  0.00     0.016 A 
ATOM     27  C   UNL A   1      47.534  23.739  34.924  1.00  0.00     0.016 A 
ATOM     28  C   UNL A   1      44.447  25.525  34.119  1.00  0.00     0.010 A 
ATOM     29  C   UNL A   1      47.241  24.402  33.243  1.00  0.00     0.010 A 
ATOM     30  C   UNL A   1      45.698  25.291  32.837  1.00  0.00    -0.014 A 
BRANCH  30  31
ATOM     31  C   UNL A   1      45.378  25.452  31.383  1.00  0.00     0.031 A 
ATOM     32  C   UNL A   1      46.301  26.413  30.745  1.00  0.00     0.074 A 
ATOM     33  C   UNL A   1      44.647  24.665  30.539  1.00  0.00     0.049 A 
ATOM     34  N   UNL A   1      46.122  27.679  30.542  1.00  0.00    -0.248 NA
ATOM     35  C   UNL A   1      47.674  25.952  30.488  1.00  0.00     0.031 C 
ATOM     36  C   UNL A   1      43.979  23.393  30.823  1.00  0.00     0.029 A 
ATOM     37  N   UNL A   1      44.427  24.793  29.171  1.00  0.00    -0.354 N 
ATOM     38  C   UNL A   1      47.312  28.083  29.951  1.00  0.00     0.074 A 
ATOM     39  C   UNL A   1      48.297  27.121  30.343  1.00  0.00     0.031 C 
ATOM     40  C   UNL A   1      43.614  22.780  29.668  1.00  0.00     0.029 A 
ATOM     41  C   UNL A   1      43.889  23.657  28.542  1.00  0.00     0.049 A 
ATOM     42  H   UNL A   1      44.633  25.620  28.679  1.00  0.00     0.167 HD
ATOM     43  C   UNL A   1      47.321  28.829  28.812  1.00  0.00     0.037 A 
ATOM     44  C   UNL A   1      43.676  23.442  27.209  1.00  0.00     0.037 A 
ATOM     45  C   UNL A   1      46.003  29.328  28.517  1.00  0.00     0.049 A 
ATOM     46  C   UNL A   1      43.674  24.753  26.530  1.00  0.00     0.074 A 
ATOM     47  C   UNL A   1      45.140  30.275  29.019  1.00  0.00     0.029 A 
ATOM     48  N   UNL A   1      45.266  28.486  27.733  1.00  0.00    -0.354 N 
ATOM     49  N   UNL A   1      42.703  25.614  26.616  1.00  0.00    -0.248 NA
ATOM     50  C   UNL A   1      44.881  25.223  25.857  1.00  0.00     0.031 C 
ATOM     51  C   UNL A   1      43.839  29.938  28.543  1.00  0.00     0.029 A 
ATOM     52  C   UNL A   1      43.936  28.808  27.742  1.00  0.00     0.049 A 
ATOM     53  H   UNL A   1      45.647  27.736  27.222  1.00  0.00     0.167 HD
ATOM     54  C   UNL A   1      43.329  26.822  26.436  1.00  0.00     0.074 A 
ATOM     55  C   UNL A   1      44.591  26.523  25.777  1.00  0.00     0.031 C 
ATOM     56  C   UNL A   1      42.970  27.881  27.208  1.00  0.00     0.037 A 
BRANCH  43  57
ATOM     57  C   UNL A   1      48.365  28.721  27.708  1.00  0.00     0.064 A 
ATOM     58  C   UNL A   1      49.411  29.641  27.457  1.00  0.00     0.173 A 
ATOM     59  C   UNL A   1      48.475  27.502  27.011  1.00  0.00     0.173 A 
ATOM     60  F   UNL A   1      49.564  30.778  28.144  1.00  0.00    -0.203 F 
ATOM     61  C   UNL A   1      50.443  29.391  26.556  1.00  0.00     0.198 A 
ATOM     62  C   UNL A   1      49.550  27.225  26.158  1.00  0.00     0.198 A 
ATOM     63  F   UNL A   1      47.573  26.526  27.198  1.00  0.00    -0.203 F 
ATOM     64  F   UNL A   1      51.394  30.318  26.372  1.00  0.00    -0.200 F 
ATOM     65  C   UNL A   1      50.528  28.173  25.924  1.00  0.00     0.200 A 
ATOM     66  F   UNL A   1      49.662  26.012  25.603  1.00  0.00    -0.200 F 
ATOM     67  F   UNL A   1      51.575  27.901  25.135  1.00  0.00    -0.200 F 
ENDBRANCH  43  57
BRANCH  44  68
ATOM     68  C   UNL A   1      43.526  22.230  26.344  1.00  0.00     0.064 A 
ATOM     69  C   UNL A   1      42.344  21.473  26.343  1.00  0.00     0.173 A 
ATOM     70  C   UNL A   1      44.658  21.599  25.771  1.00  0.00     0.173 A 
ATOM     71  F   UNL A   1      41.227  21.964  26.899  1.00  0.00    -0.203 F 
ATOM     72  C   UNL A   1      42.312  20.154  25.869  1.00  0.00     0.198 A 
ATOM     73  C   UNL A   1      44.628  20.279  25.307  1.00  0.00     0.198 A 
ATOM     74  F   UNL A   1      45.843  22.228  25.734  1.00  0.00    -0.203 F 
ATOM     75  F   UNL A   1      41.181  19.440  25.962  1.00  0.00    -0.200 F 
ATOM     76  C   UNL A   1      43.457  19.549  25.374  1.00  0.00     0.200 A 
ATOM     77  F   UNL A   1      45.751  19.696  24.865  1.00  0.00    -0.200 F 
ATOM     78  F   UNL A   1      43.442  18.259  25.009  1.00  0.00    -0.200 F 
ENDBRANCH  44  68
BRANCH  56  79
ATOM     79  C   UNL A   1      41.548  27.967  27.657  1.00  0.00     0.064 A 
ATOM     80  C   UNL A   1      40.676  28.732  26.870  1.00  0.00     0.173 A 
ATOM     81  C   UNL A   1      41.036  27.399  28.835  1.00  0.00     0.173 A 
ATOM     82  F   UNL A   1      41.120  29.306  25.740  1.00  0.00    -0.203 F 
ATOM     83  C   UNL A   1      39.358  28.946  27.251  1.00  0.00     0.198 A 
ATOM     84  C   UNL A   1      39.700  27.579  29.191  1.00  0.00     0.198 A 
ATOM     85  F   UNL A   1      41.822  26.702  29.669  1.00  0.00    -0.203 F 
ATOM     86  F   UNL A   1      38.570  29.734  26.506  1.00  0.00    -0.200 F 
ATOM     87  C   UNL A   1      38.867  28.364  28.408  1.00  0.00     0.200 A 
ATOM     88  F   UNL A   1      39.221  27.015  30.310  1.00  0.00    -0.200 F 
ATOM     89  F   UNL A   1      37.597  28.578  28.778  1.00  0.00    -0.200 F 
ENDBRANCH  56  79
ENDBRANCH  30  31
ENDBRANCH  23  25
ENDBRANCH  22  23
ENDBRANCH  21  22
ENDBRANCH   1  21
TORSDOF 13
ENDMDL
MODEL 3
REMARK VINA RESULT:     -10.7      6.525     12.551
REMARK SMILES Cc1ccc(C)c(Oc2cccc(F)c2C(=O)OCCOC(=O)c2ccc(-c3c4nc(c(-c5c(F)c(F)c(F)c(F)c5F)c5ccc([nH]5)c(-c5c(F)c(F)c(F)c(F)c5F)c5nc(c(-c6c(F)c(F)c(F)c(F)c6F)c6ccc3[nH]6)C=C5)C=C4)cc2)c1
REMARK SMILES IDX 19 1 18 2 16 3 17 4 15 5 9 6 10 7 11 8 13 9 12 10 14 11 8 12
REMARK SMILES IDX 7 13 1 14 2 15 3 16 87 17 4 18 5 19 6 20 20 21 21 22 22 23
REMARK SMILES IDX 23 24 24 25 25 26 86 27 26 28 85 29 27 30 28 31 29 32 79 33
REMARK SMILES IDX 30 34 84 35 78 36 80 37 31 38 83 39 77 40 76 41 32 43 64 44
REMARK SMILES IDX 44 45 63 46 45 47 48 48 62 49 81 50 46 51 47 52 61 54 82 55
REMARK SMILES IDX 49 56 33 57 34 58 42 59 35 60 36 61 40 62 43 63 37 64 38 65
REMARK SMILES IDX 41 66 39 67 65 68 66 69 74 70 67 71 68 72 72 73 75 74 69 75
REMARK SMILES IDX 70 76 73 77 71 78 50 79 51 80 59 81 52 82 53 83 57 84 60 85
REMARK SMILES IDX 54 86 55 87 58 88 56 89
REMARK H PARENT 80 42 48 53
REMARK Flexibility Score: inf
ROOT
ATOM      1  C   UNL A   1      46.554  20.918  39.805  1.00  0.00     0.275 C 
ENDROOT
BRANCH   1   2
ATOM      2  O   UNL A   1      45.826  20.251  40.855  1.00  0.00    -0.458 OA
BRANCH   2   3
ATOM      3  C   UNL A   1      45.693  18.754  40.779  1.00  0.00     0.345 C 
ATOM      4  O   UNL A   1      45.637  18.626  39.525  1.00  0.00    -0.246 OA
BRANCH   3   5
ATOM      5  C   UNL A   1      45.675  17.362  42.439  1.00  0.00     0.138 A 
ATOM      6  C   UNL A   1      44.586  16.324  42.955  1.00  0.00     0.144 A 
ATOM      7  C   UNL A   1      44.795  15.093  43.699  1.00  0.00     0.048 A 
ATOM      8  C   UNL A   1      45.994  14.751  44.254  1.00  0.00     0.007 A 
ATOM      9  C   UNL A   1      46.817  16.901  43.392  1.00  0.00     0.141 A 
ATOM     10  C   UNL A   1      46.972  15.693  44.156  1.00  0.00     0.040 A 
ATOM     11  F   UNL A   1      47.914  17.642  43.665  1.00  0.00    -0.206 F 
BRANCH   6  12
ATOM     12  O   UNL A   1      43.212  16.297  42.619  1.00  0.00    -0.456 OA
BRANCH  12  13
ATOM     13  C   UNL A   1      42.592  15.155  42.129  1.00  0.00     0.130 A 
ATOM     14  C   UNL A   1      41.098  11.763  43.062  1.00  0.00     0.044 C 
ATOM     15  C   UNL A   1      41.525  12.967  42.273  1.00  0.00    -0.047 A 
ATOM     16  C   UNL A   1      41.298  12.994  40.895  1.00  0.00     0.004 A 
ATOM     17  C   UNL A   1      42.134  14.072  42.893  1.00  0.00     0.050 A 
ATOM     18  C   UNL A   1      41.756  14.061  40.128  1.00  0.00     0.007 A 
ATOM     19  C   UNL A   1      42.452  15.120  40.726  1.00  0.00    -0.008 A 
ATOM     20  C   UNL A   1      42.989  16.208  39.836  1.00  0.00     0.048 C 
ENDBRANCH  12  13
ENDBRANCH   6  12
ENDBRANCH   3   5
ENDBRANCH   2   3
ENDBRANCH   1   2
BRANCH   1  21
ATOM     21  C   UNL A   1      45.734  22.132  39.362  1.00  0.00     0.275 C 
BRANCH  21  22
ATOM     22  O   UNL A   1      46.377  22.903  38.315  1.00  0.00    -0.458 OA
BRANCH  22  23
ATOM     23  C   UNL A   1      46.032  22.590  37.038  1.00  0.00     0.338 C 
ATOM     24  O   UNL A   1      45.665  21.506  36.631  1.00  0.00    -0.246 OA
BRANCH  23  25
ATOM     25  C   UNL A   1      46.153  23.790  36.200  1.00  0.00     0.060 A 
ATOM     26  C   UNL A   1      44.632  24.673  35.718  1.00  0.00     0.016 A 
ATOM     27  C   UNL A   1      47.569  23.759  35.085  1.00  0.00     0.016 A 
ATOM     28  C   UNL A   1      44.539  25.557  34.111  1.00  0.00     0.010 A 
ATOM     29  C   UNL A   1      47.376  24.431  33.394  1.00  0.00     0.010 A 
ATOM     30  C   UNL A   1      45.862  25.326  32.903  1.00  0.00    -0.014 A 
BRANCH  30  31
ATOM     31  C   UNL A   1      45.628  25.495  31.433  1.00  0.00     0.031 A 
ATOM     32  C   UNL A   1      46.646  26.382  30.837  1.00  0.00     0.074 A 
ATOM     33  C   UNL A   1      44.886  24.752  30.558  1.00  0.00     0.049 A 
ATOM     34  N   UNL A   1      46.568  27.655  30.617  1.00  0.00    -0.248 NA
ATOM     35  C   UNL A   1      47.995  25.824  30.653  1.00  0.00     0.031 C 
ATOM     36  C   UNL A   1      44.117  23.532  30.816  1.00  0.00     0.029 A 
ATOM     37  N   UNL A   1      44.744  24.881  29.180  1.00  0.00    -0.354 N 
ATOM     38  C   UNL A   1      47.812  27.969  30.084  1.00  0.00     0.074 A 
ATOM     39  C   UNL A   1      48.705  26.945  30.533  1.00  0.00     0.031 C 
ATOM     40  C   UNL A   1      43.768  22.935  29.648  1.00  0.00     0.029 A 
ATOM     41  C   UNL A   1      44.160  23.780  28.532  1.00  0.00     0.049 A 
ATOM     42  H   UNL A   1      45.033  25.687  28.694  1.00  0.00     0.167 HD
ATOM     43  C   UNL A   1      47.930  28.701  28.943  1.00  0.00     0.037 A 
ATOM     44  C   UNL A   1      44.000  23.567  27.192  1.00  0.00     0.037 A 
ATOM     45  C   UNL A   1      46.667  29.288  28.578  1.00  0.00     0.049 A 
ATOM     46  C   UNL A   1      44.125  24.868  26.505  1.00  0.00     0.074 A 
ATOM     47  C   UNL A   1      45.849  30.298  29.030  1.00  0.00     0.029 A 
ATOM     48  N   UNL A   1      45.913  28.492  27.763  1.00  0.00    -0.354 N 
ATOM     49  N   UNL A   1      43.214  25.796  26.536  1.00  0.00    -0.248 NA
ATOM     50  C   UNL A   1      45.394  25.246  25.891  1.00  0.00     0.031 C 
ATOM     51  C   UNL A   1      44.553  30.049  28.490  1.00  0.00     0.029 A 
ATOM     52  C   UNL A   1      44.611  28.906  27.702  1.00  0.00     0.049 A 
ATOM     53  H   UNL A   1      46.266  27.712  27.277  1.00  0.00     0.167 HD
ATOM     54  C   UNL A   1      43.932  26.955  26.379  1.00  0.00     0.074 A 
ATOM     55  C   UNL A   1      45.201  26.562  25.788  1.00  0.00     0.031 C 
ATOM     56  C   UNL A   1      43.609  28.044  27.125  1.00  0.00     0.037 A 
BRANCH  43  57
ATOM     57  C   UNL A   1      49.018  28.509  27.894  1.00  0.00     0.064 A 
ATOM     58  C   UNL A   1      49.162  27.393  27.036  1.00  0.00     0.173 A 
ATOM     59  C   UNL A   1      49.824  29.615  27.559  1.00  0.00     0.173 A 
ATOM     60  F   UNL A   1      48.369  26.318  27.097  1.00  0.00    -0.203 F 
ATOM     61  C   UNL A   1      50.061  27.362  25.974  1.00  0.00     0.198 A 
ATOM     62  C   UNL A   1      50.677  29.607  26.450  1.00  0.00     0.198 A 
ATOM     63  F   UNL A   1      49.746  30.753  28.266  1.00  0.00    -0.203 F 
ATOM     64  F   UNL A   1      50.139  26.262  25.210  1.00  0.00    -0.200 F 
ATOM     65  C   UNL A   1      50.803  28.477  25.664  1.00  0.00     0.200 A 
ATOM     66  F   UNL A   1      51.341  30.720  26.114  1.00  0.00    -0.200 F 
ATOM     67  F   UNL A   1      51.592  28.476  24.582  1.00  0.00    -0.200 F 
ENDBRANCH  43  57
BRANCH  44  68
ATOM     68  C   UNL A   1      43.809  22.360  26.327  1.00  0.00     0.064 A 
ATOM     69  C   UNL A   1      42.599  21.648  26.322  1.00  0.00     0.173 A 
ATOM     70  C   UNL A   1      44.919  21.686  25.761  1.00  0.00     0.173 A 
ATOM     71  F   UNL A   1      41.499  22.181  26.871  1.00  0.00    -0.203 F 
ATOM     72  C   UNL A   1      42.520  20.329  25.850  1.00  0.00     0.198 A 
ATOM     73  C   UNL A   1      44.841  20.367  25.299  1.00  0.00     0.198 A 
ATOM     74  F   UNL A   1      46.126  22.270  25.729  1.00  0.00    -0.203 F 
ATOM     75  F   UNL A   1      41.362  19.659  25.938  1.00  0.00    -0.200 F 
ATOM     76  C   UNL A   1      43.644  19.682  25.362  1.00  0.00     0.200 A 
ATOM     77  F   UNL A   1      45.944  19.742  24.863  1.00  0.00    -0.200 F 
ATOM     78  F   UNL A   1      43.582  18.393  24.998  1.00  0.00    -0.200 F 
ENDBRANCH  44  68
BRANCH  56  79
ATOM     79  C   UNL A   1      42.176  28.234  27.502  1.00  0.00     0.064 A 
ATOM     80  C   UNL A   1      41.768  27.717  28.739  1.00  0.00     0.173 A 
ATOM     81  C   UNL A   1      41.199  28.831  26.689  1.00  0.00     0.173 A 
ATOM     82  F   UNL A   1      42.662  27.127  29.549  1.00  0.00    -0.203 F 
ATOM     83  C   UNL A   1      40.439  27.766  29.140  1.00  0.00     0.198 A 
ATOM     84  C   UNL A   1      39.873  28.917  27.114  1.00  0.00     0.198 A 
ATOM     85  F   UNL A   1      41.501  29.297  25.468  1.00  0.00    -0.203 F 
ATOM     86  F   UNL A   1      40.074  27.206  30.301  1.00  0.00    -0.200 F 
ATOM     87  C   UNL A   1      39.493  28.372  28.331  1.00  0.00     0.200 A 
ATOM     88  F   UNL A   1      38.955  29.506  26.334  1.00  0.00    -0.200 F 
ATOM     89  F   UNL A   1      38.210  28.411  28.716  1.00  0.00    -0.200 F 
ENDBRANCH  56  79
ENDBRANCH  30  31
ENDBRANCH  23  25
ENDBRANCH  22  23
ENDBRANCH  21  22
ENDBRANCH   1  21
TORSDOF 13
ENDMDL
