MODEL 1
REMARK VINA RESULT:     -11.8      0.000      0.000
REMARK SMILES O=C1CC[C@H](CNC(=O)N[C@@H]2C=C[C@@H](C(=O)OCCOC(=O)c3ccc(-c4c5nc(c(-c6c(F)c(F)c(F)c(F)c6F)c6ccc([nH]6)c(-c6c(F)c(F)c(F)c(F)c6F)c6nc(c(-c7c(F)c(F)c(F)c(F)c7F)c7ccc4[nH]7)C=C6)C=C5)cc3)C2)N1
REMARK SMILES IDX 18 1 17 2 15 3 16 4 14 5 11 6 12 7 86 8 13 9 10 10 7 11 8 12
REMARK SMILES IDX 9 14 6 16 5 17 1 18 2 19 3 20 87 21 4 22 19 24 20 25 21 26
REMARK SMILES IDX 22 27 23 28 24 29 85 30 25 31 84 32 26 33 27 34 28 35 78 36
REMARK SMILES IDX 29 37 83 38 77 39 79 40 30 41 82 42 76 43 75 44 31 46 63 47
REMARK SMILES IDX 43 48 62 49 44 50 47 51 61 52 80 53 45 54 46 55 60 57 81 58
REMARK SMILES IDX 48 59 32 60 33 61 41 62 34 63 35 64 39 65 42 66 36 67 37 68
REMARK SMILES IDX 40 69 38 70 64 71 65 72 73 73 66 74 67 75 71 76 74 77 68 78
REMARK SMILES IDX 69 79 72 80 70 81 49 82 50 83 58 84 51 85 52 86 56 87 59 88
REMARK SMILES IDX 53 89 54 90 57 91 55 92
REMARK H PARENT 7 13 10 15 87 23 79 45 47 56
REMARK Flexibility Score: inf
ROOT
ATOM      1  C   UNL A   1      33.289  34.876  28.625  1.00  0.00     0.274 C 
ENDROOT
BRANCH   1   2
ATOM      2  O   UNL A   1      34.288  33.992  29.163  1.00  0.00    -0.462 OA
BRANCH   2   3
ATOM      3  C   UNL A   1      34.916  33.129  28.324  1.00  0.00     0.312 C 
ATOM      4  O   UNL A   1      35.838  33.431  27.576  1.00  0.00    -0.252 OA
BRANCH   3   5
ATOM      5  C   UNL A   1      34.393  31.695  28.476  1.00  0.00     0.124 C 
ATOM      6  C   UNL A   1      33.407  30.038  26.908  1.00  0.00     0.107 C 
ATOM      7  C   UNL A   1      34.811  29.706  27.293  1.00  0.00    -0.006 C 
ATOM      8  C   UNL A   1      33.155  31.353  27.640  1.00  0.00     0.048 C 
ATOM      9  C   UNL A   1      35.364  30.625  28.094  1.00  0.00    -0.014 C 
BRANCH   6  10
ATOM     10  N   UNL A   1      32.494  28.998  27.322  1.00  0.00    -0.332 N 
ATOM     11  N   UNL A   1      31.702  28.041  25.293  1.00  0.00    -0.336 N 
ATOM     12  C   UNL A   1      31.777  28.089  26.637  1.00  0.00     0.315 C 
ATOM     13  H   UNL A   1      31.275  27.226  24.944  1.00  0.00     0.165 HD
ATOM     14  O   UNL A   1      31.139  27.250  27.275  1.00  0.00    -0.249 OA
ATOM     15  H   UNL A   1      32.373  28.944  28.298  1.00  0.00     0.165 HD
BRANCH  11  16
ATOM     16  C   UNL A   1      32.133  28.970  24.266  1.00  0.00     0.142 C 
BRANCH  16  17
ATOM     17  C   UNL A   1      31.759  28.600  22.820  1.00  0.00     0.101 C 
ATOM     18  O   UNL A   1      29.303  30.847  21.691  1.00  0.00    -0.275 OA
ATOM     19  C   UNL A   1      29.921  29.879  22.086  1.00  0.00     0.220 C 
ATOM     20  C   UNL A   1      29.345  28.604  22.649  1.00  0.00     0.102 C 
ATOM     21  N   UNL A   1      31.296  29.774  22.119  1.00  0.00    -0.352 N 
ATOM     22  C   UNL A   1      30.555  27.669  22.712  1.00  0.00     0.036 C 
ATOM     23  H   UNL A   1      31.900  30.433  21.706  1.00  0.00     0.163 HD
ENDBRANCH  16  17
ENDBRANCH  11  16
ENDBRANCH   6  10
ENDBRANCH   3   5
ENDBRANCH   2   3
ENDBRANCH   1   2
BRANCH   1  24
ATOM     24  C   UNL A   1      32.969  35.951  29.669  1.00  0.00     0.275 C 
BRANCH  24  25
ATOM     25  O   UNL A   1      32.303  35.370  30.815  1.00  0.00    -0.458 OA
BRANCH  25  26
ATOM     26  C   UNL A   1      32.729  35.823  32.014  1.00  0.00     0.338 C 
ATOM     27  O   UNL A   1      32.208  36.676  32.717  1.00  0.00    -0.246 OA
BRANCH  26  28
ATOM     28  C   UNL A   1      33.886  35.046  32.479  1.00  0.00     0.060 A 
ATOM     29  C   UNL A   1      35.154  35.614  32.342  1.00  0.00     0.016 A 
ATOM     30  C   UNL A   1      33.746  33.739  32.949  1.00  0.00     0.016 A 
ATOM     31  C   UNL A   1      36.292  34.886  32.668  1.00  0.00     0.010 A 
ATOM     32  C   UNL A   1      34.891  33.010  33.292  1.00  0.00     0.010 A 
ATOM     33  C   UNL A   1      36.169  33.579  33.150  1.00  0.00    -0.014 A 
BRANCH  33  34
ATOM     34  C   UNL A   1      37.390  32.829  33.522  1.00  0.00     0.031 A 
ATOM     35  C   UNL A   1      38.095  33.110  34.815  1.00  0.00     0.074 A 
ATOM     36  C   UNL A   1      37.846  31.872  32.692  1.00  0.00     0.049 A 
ATOM     37  N   UNL A   1      39.209  32.602  35.276  1.00  0.00    -0.248 NA
ATOM     38  C   UNL A   1      37.464  34.093  35.710  1.00  0.00     0.031 C 
ATOM     39  C   UNL A   1      37.219  31.488  31.426  1.00  0.00     0.029 A 
ATOM     40  N   UNL A   1      38.943  31.053  32.784  1.00  0.00    -0.354 N 
ATOM     41  C   UNL A   1      39.425  33.214  36.502  1.00  0.00     0.074 A 
ATOM     42  C   UNL A   1      38.331  34.138  36.714  1.00  0.00     0.031 C 
ATOM     43  C   UNL A   1      37.947  30.514  30.856  1.00  0.00     0.029 A 
ATOM     44  C   UNL A   1      39.110  30.238  31.693  1.00  0.00     0.049 A 
ATOM     45  H   UNL A   1      39.550  31.050  33.559  1.00  0.00     0.167 HD
ATOM     46  C   UNL A   1      40.448  33.018  37.367  1.00  0.00     0.037 A 
ATOM     47  C   UNL A   1      40.108  29.388  31.388  1.00  0.00     0.037 A 
ATOM     48  C   UNL A   1      41.520  32.079  37.161  1.00  0.00     0.049 A 
ATOM     49  C   UNL A   1      41.249  29.220  32.352  1.00  0.00     0.074 A 
ATOM     50  C   UNL A   1      42.582  31.786  37.999  1.00  0.00     0.029 A 
ATOM     51  N   UNL A   1      41.666  31.280  36.037  1.00  0.00    -0.354 N 
ATOM     52  N   UNL A   1      41.440  29.795  33.514  1.00  0.00    -0.248 NA
ATOM     53  C   UNL A   1      42.316  28.290  31.961  1.00  0.00     0.031 C 
ATOM     54  C   UNL A   1      43.394  30.839  37.363  1.00  0.00     0.029 A 
ATOM     55  C   UNL A   1      42.814  30.513  36.148  1.00  0.00     0.049 A 
ATOM     56  H   UNL A   1      41.045  31.263  35.273  1.00  0.00     0.167 HD
ATOM     57  C   UNL A   1      42.634  29.286  34.001  1.00  0.00     0.074 A 
ATOM     58  C   UNL A   1      43.118  28.340  33.016  1.00  0.00     0.031 C 
ATOM     59  C   UNL A   1      43.277  29.577  35.158  1.00  0.00     0.037 A 
BRANCH  46  60
ATOM     60  C   UNL A   1      40.481  33.852  38.612  1.00  0.00     0.064 A 
ATOM     61  C   UNL A   1      41.160  35.078  38.662  1.00  0.00     0.173 A 
ATOM     62  C   UNL A   1      39.762  33.450  39.748  1.00  0.00     0.173 A 
ATOM     63  F   UNL A   1      41.871  35.498  37.604  1.00  0.00    -0.203 F 
ATOM     64  C   UNL A   1      41.126  35.867  39.807  1.00  0.00     0.198 A 
ATOM     65  C   UNL A   1      39.712  34.252  40.885  1.00  0.00     0.198 A 
ATOM     66  F   UNL A   1      39.093  32.287  39.748  1.00  0.00    -0.203 F 
ATOM     67  F   UNL A   1      41.801  37.024  39.844  1.00  0.00    -0.200 F 
ATOM     68  C   UNL A   1      40.395  35.458  40.915  1.00  0.00     0.200 A 
ATOM     69  F   UNL A   1      38.999  33.860  41.949  1.00  0.00    -0.200 F 
ATOM     70  F   UNL A   1      40.353  36.226  42.013  1.00  0.00    -0.200 F 
ENDBRANCH  46  60
BRANCH  47  71
ATOM     71  C   UNL A   1      40.090  28.659  30.094  1.00  0.00     0.064 A 
ATOM     72  C   UNL A   1      39.469  27.409  29.974  1.00  0.00     0.173 A 
ATOM     73  C   UNL A   1      40.707  29.196  28.954  1.00  0.00     0.173 A 
ATOM     74  F   UNL A   1      38.886  26.846  31.042  1.00  0.00    -0.203 F 
ATOM     75  C   UNL A   1      39.482  26.714  28.766  1.00  0.00     0.198 A 
ATOM     76  C   UNL A   1      40.695  28.513  27.741  1.00  0.00     0.198 A 
ATOM     77  F   UNL A   1      41.315  30.390  29.018  1.00  0.00    -0.203 F 
ATOM     78  F   UNL A   1      38.923  25.500  28.690  1.00  0.00    -0.200 F 
ATOM     79  C   UNL A   1      40.090  27.268  27.650  1.00  0.00     0.200 A 
ATOM     80  F   UNL A   1      41.275  29.058  26.662  1.00  0.00    -0.200 F 
ATOM     81  F   UNL A   1      40.104  26.599  26.489  1.00  0.00    -0.200 F 
ENDBRANCH  47  71
BRANCH  59  82
ATOM     82  C   UNL A   1      44.559  28.849  35.428  1.00  0.00     0.064 A 
ATOM     83  C   UNL A   1      45.796  29.374  35.029  1.00  0.00     0.173 A 
ATOM     84  C   UNL A   1      44.553  27.631  36.124  1.00  0.00     0.173 A 
ATOM     85  F   UNL A   1      45.850  30.528  34.345  1.00  0.00    -0.203 F 
ATOM     86  C   UNL A   1      46.980  28.696  35.299  1.00  0.00     0.198 A 
ATOM     87  C   UNL A   1      45.741  26.969  36.415  1.00  0.00     0.198 A 
ATOM     88  F   UNL A   1      43.394  27.091  36.531  1.00  0.00    -0.203 F 
ATOM     89  F   UNL A   1      48.149  29.195  34.873  1.00  0.00    -0.200 F 
ATOM     90  C   UNL A   1      46.953  27.497  35.998  1.00  0.00     0.200 A 
ATOM     91  F   UNL A   1      45.714  25.816  37.098  1.00  0.00    -0.200 F 
ATOM     92  F   UNL A   1      48.095  26.849  36.262  1.00  0.00    -0.200 F 
ENDBRANCH  59  82
ENDBRANCH  33  34
ENDBRANCH  26  28
ENDBRANCH  25  26
ENDBRANCH  24  25
ENDBRANCH   1  24
TORSDOF 14
ENDMDL
MODEL 2
REMARK VINA RESULT:     -11.6      7.711     12.922
REMARK SMILES O=C1CC[C@H](CNC(=O)N[C@@H]2C=C[C@@H](C(=O)OCCOC(=O)c3ccc(-c4c5nc(c(-c6c(F)c(F)c(F)c(F)c6F)c6ccc([nH]6)c(-c6c(F)c(F)c(F)c(F)c6F)c6nc(c(-c7c(F)c(F)c(F)c(F)c7F)c7ccc4[nH]7)C=C6)C=C5)cc3)C2)N1
REMARK SMILES IDX 18 1 17 2 15 3 16 4 14 5 11 6 12 7 86 8 13 9 10 10 7 11 8 12
REMARK SMILES IDX 9 14 6 16 5 17 1 18 2 19 3 20 87 21 4 22 19 24 20 25 21 26
REMARK SMILES IDX 22 27 23 28 24 29 85 30 25 31 84 32 26 33 27 34 28 35 78 36
REMARK SMILES IDX 29 37 83 38 77 39 79 40 30 41 82 42 76 43 75 44 31 46 63 47
REMARK SMILES IDX 43 48 62 49 44 50 47 51 61 52 80 53 45 54 46 55 60 57 81 58
REMARK SMILES IDX 48 59 32 60 33 61 41 62 34 63 35 64 39 65 42 66 36 67 37 68
REMARK SMILES IDX 40 69 38 70 64 71 65 72 73 73 66 74 67 75 71 76 74 77 68 78
REMARK SMILES IDX 69 79 72 80 70 81 49 82 50 83 58 84 51 85 52 86 56 87 59 88
REMARK SMILES IDX 53 89 54 90 57 91 55 92
REMARK H PARENT 7 13 10 15 87 23 79 45 47 56
REMARK Flexibility Score: inf
ROOT
ATOM      1  C   UNL A   1      42.022  19.527  27.339  1.00  0.00     0.274 C 
ENDROOT
BRANCH   1   2
ATOM      2  O   UNL A   1      40.818  20.305  27.461  1.00  0.00    -0.462 OA
BRANCH   2   3
ATOM      3  C   UNL A   1      40.920  21.654  27.567  1.00  0.00     0.312 C 
ATOM      4  O   UNL A   1      41.597  22.238  28.403  1.00  0.00    -0.252 OA
BRANCH   3   5
ATOM      5  C   UNL A   1      40.151  22.378  26.454  1.00  0.00     0.124 C 
ATOM      6  C   UNL A   1      37.783  22.365  25.699  1.00  0.00     0.107 C 
ATOM      7  C   UNL A   1      38.148  23.611  26.436  1.00  0.00    -0.006 C 
ATOM      8  C   UNL A   1      39.071  21.548  25.753  1.00  0.00     0.048 C 
ATOM      9  C   UNL A   1      39.407  23.599  26.891  1.00  0.00    -0.014 C 
BRANCH   6  10
ATOM     10  N   UNL A   1      37.380  22.662  24.343  1.00  0.00    -0.332 N 
ATOM     11  N   UNL A   1      35.083  22.053  24.246  1.00  0.00    -0.336 N 
ATOM     12  C   UNL A   1      36.200  22.575  23.704  1.00  0.00     0.315 C 
ATOM     13  H   UNL A   1      34.268  22.210  23.716  1.00  0.00     0.165 HD
ATOM     14  O   UNL A   1      36.133  22.991  22.546  1.00  0.00    -0.249 OA
ATOM     15  H   UNL A   1      38.114  22.992  23.776  1.00  0.00     0.165 HD
BRANCH  11  16
ATOM     16  C   UNL A   1      34.858  21.300  25.465  1.00  0.00     0.142 C 
BRANCH  16  17
ATOM     17  C   UNL A   1      33.390  21.012  25.821  1.00  0.00     0.101 C 
ATOM     18  O   UNL A   1      32.881  17.535  25.750  1.00  0.00    -0.275 OA
ATOM     19  C   UNL A   1      32.894  18.727  25.523  1.00  0.00     0.220 C 
ATOM     20  C   UNL A   1      32.533  19.407  24.225  1.00  0.00     0.102 C 
ATOM     21  N   UNL A   1      33.278  19.703  26.420  1.00  0.00    -0.352 N 
ATOM     22  C   UNL A   1      32.472  20.888  24.609  1.00  0.00     0.036 C 
ATOM     23  H   UNL A   1      33.458  19.525  27.371  1.00  0.00     0.163 HD
ENDBRANCH  16  17
ENDBRANCH  11  16
ENDBRANCH   6  10
ENDBRANCH   3   5
ENDBRANCH   2   3
ENDBRANCH   1   2
BRANCH   1  24
ATOM     24  C   UNL A   1      42.304  19.286  25.852  1.00  0.00     0.275 C 
BRANCH  24  25
ATOM     25  O   UNL A   1      43.688  18.916  25.648  1.00  0.00    -0.458 OA
BRANCH  25  26
ATOM     26  C   UNL A   1      44.292  19.519  24.600  1.00  0.00     0.338 C 
ATOM     27  O   UNL A   1      44.517  19.047  23.496  1.00  0.00    -0.246 OA
BRANCH  26  28
ATOM     28  C   UNL A   1      44.554  20.934  24.899  1.00  0.00     0.060 A 
ATOM     29  C   UNL A   1      45.112  21.249  26.139  1.00  0.00     0.016 A 
ATOM     30  C   UNL A   1      44.166  21.948  24.023  1.00  0.00     0.016 A 
ATOM     31  C   UNL A   1      45.287  22.574  26.518  1.00  0.00     0.010 A 
ATOM     32  C   UNL A   1      44.354  23.284  24.397  1.00  0.00     0.010 A 
ATOM     33  C   UNL A   1      44.913  23.603  25.648  1.00  0.00    -0.014 A 
BRANCH  33  34
ATOM     34  C   UNL A   1      45.135  25.009  26.055  1.00  0.00     0.031 A 
ATOM     35  C   UNL A   1      46.488  25.639  25.920  1.00  0.00     0.074 A 
ATOM     36  C   UNL A   1      44.095  25.723  26.526  1.00  0.00     0.049 A 
ATOM     37  N   UNL A   1      46.884  26.831  26.284  1.00  0.00    -0.248 NA
ATOM     38  C   UNL A   1      47.537  24.820  25.293  1.00  0.00     0.031 C 
ATOM     39  C   UNL A   1      42.725  25.224  26.665  1.00  0.00     0.029 A 
ATOM     40  N   UNL A   1      44.028  27.016  26.980  1.00  0.00    -0.354 N 
ATOM     41  C   UNL A   1      48.229  26.902  25.951  1.00  0.00     0.074 A 
ATOM     42  C   UNL A   1      48.587  25.630  25.360  1.00  0.00     0.031 C 
ATOM     43  C   UNL A   1      41.955  26.198  27.177  1.00  0.00     0.029 A 
ATOM     44  C   UNL A   1      42.784  27.369  27.442  1.00  0.00     0.049 A 
ATOM     45  H   UNL A   1      44.797  27.631  26.973  1.00  0.00     0.167 HD
ATOM     46  C   UNL A   1      49.082  27.938  26.126  1.00  0.00     0.037 A 
ATOM     47  C   UNL A   1      42.370  28.500  28.044  1.00  0.00     0.037 A 
ATOM     48  C   UNL A   1      48.713  29.210  26.692  1.00  0.00     0.049 A 
ATOM     49  C   UNL A   1      43.350  29.619  28.257  1.00  0.00     0.074 A 
ATOM     50  C   UNL A   1      49.501  30.334  26.876  1.00  0.00     0.029 A 
ATOM     51  N   UNL A   1      47.448  29.528  27.164  1.00  0.00    -0.354 N 
ATOM     52  N   UNL A   1      44.618  29.681  27.929  1.00  0.00    -0.248 NA
ATOM     53  C   UNL A   1      42.846  30.823  28.930  1.00  0.00     0.031 C 
ATOM     54  C   UNL A   1      48.724  31.317  27.499  1.00  0.00     0.029 A 
ATOM     55  C   UNL A   1      47.441  30.820  27.663  1.00  0.00     0.049 A 
ATOM     56  H   UNL A   1      46.671  28.923  27.147  1.00  0.00     0.167 HD
ATOM     57  C   UNL A   1      45.057  30.931  28.337  1.00  0.00     0.074 A 
ATOM     58  C   UNL A   1      43.917  31.605  28.922  1.00  0.00     0.031 C 
ATOM     59  C   UNL A   1      46.295  31.473  28.239  1.00  0.00     0.037 A 
BRANCH  46  60
ATOM     60  C   UNL A   1      50.514  27.742  25.727  1.00  0.00     0.064 A 
ATOM     61  C   UNL A   1      51.495  27.374  26.658  1.00  0.00     0.173 A 
ATOM     62  C   UNL A   1      50.891  27.854  24.380  1.00  0.00     0.173 A 
ATOM     63  F   UNL A   1      51.184  27.265  27.959  1.00  0.00    -0.203 F 
ATOM     64  C   UNL A   1      52.806  27.134  26.256  1.00  0.00     0.198 A 
ATOM     65  C   UNL A   1      52.198  27.593  23.979  1.00  0.00     0.198 A 
ATOM     66  F   UNL A   1      49.987  28.201  23.452  1.00  0.00    -0.203 F 
ATOM     67  F   UNL A   1      53.735  26.807  27.165  1.00  0.00    -0.200 F 
ATOM     68  C   UNL A   1      53.155  27.235  24.916  1.00  0.00     0.200 A 
ATOM     69  F   UNL A   1      52.530  27.683  22.683  1.00  0.00    -0.200 F 
ATOM     70  F   UNL A   1      54.415  26.992  24.530  1.00  0.00    -0.200 F 
ENDBRANCH  46  60
BRANCH  47  71
ATOM     71  C   UNL A   1      40.968  28.613  28.519  1.00  0.00     0.064 A 
ATOM     72  C   UNL A   1      40.623  28.304  29.841  1.00  0.00     0.173 A 
ATOM     73  C   UNL A   1      39.943  29.021  27.654  1.00  0.00     0.173 A 
ATOM     74  F   UNL A   1      41.566  27.887  30.699  1.00  0.00    -0.203 F 
ATOM     75  C   UNL A   1      39.301  28.380  30.275  1.00  0.00     0.198 A 
ATOM     76  C   UNL A   1      38.626  29.123  28.095  1.00  0.00     0.198 A 
ATOM     77  F   UNL A   1      40.222  29.328  26.379  1.00  0.00    -0.203 F 
ATOM     78  F   UNL A   1      38.990  28.032  31.530  1.00  0.00    -0.200 F 
ATOM     79  C   UNL A   1      38.305  28.794  29.404  1.00  0.00     0.200 A 
ATOM     80  F   UNL A   1      37.669  29.535  27.253  1.00  0.00    -0.200 F 
ATOM     81  F   UNL A   1      37.033  28.866  29.821  1.00  0.00    -0.200 F 
ENDBRANCH  47  71
BRANCH  59  82
ATOM     82  C   UNL A   1      46.473  32.869  28.758  1.00  0.00     0.064 A 
ATOM     83  C   UNL A   1      46.248  33.986  27.943  1.00  0.00     0.173 A 
ATOM     84  C   UNL A   1      46.837  33.089  30.095  1.00  0.00     0.173 A 
ATOM     85  F   UNL A   1      45.914  33.824  26.653  1.00  0.00    -0.203 F 
ATOM     86  C   UNL A   1      46.402  35.276  28.441  1.00  0.00     0.198 A 
ATOM     87  C   UNL A   1      46.965  34.380  30.596  1.00  0.00     0.198 A 
ATOM     88  F   UNL A   1      47.059  32.051  30.915  1.00  0.00    -0.203 F 
ATOM     89  F   UNL A   1      46.221  36.331  27.633  1.00  0.00    -0.200 F 
ATOM     90  C   UNL A   1      46.754  35.472  29.769  1.00  0.00     0.200 A 
ATOM     91  F   UNL A   1      47.296  34.569  31.881  1.00  0.00    -0.200 F 
ATOM     92  F   UNL A   1      46.896  36.716  30.248  1.00  0.00    -0.200 F 
ENDBRANCH  59  82
ENDBRANCH  33  34
ENDBRANCH  26  28
ENDBRANCH  25  26
ENDBRANCH  24  25
ENDBRANCH   1  24
TORSDOF 14
ENDMDL
MODEL 3
REMARK VINA RESULT:     -11.6      1.670      7.791
REMARK SMILES O=C1CC[C@H](CNC(=O)N[C@@H]2C=C[C@@H](C(=O)OCCOC(=O)c3ccc(-c4c5nc(c(-c6c(F)c(F)c(F)c(F)c6F)c6ccc([nH]6)c(-c6c(F)c(F)c(F)c(F)c6F)c6nc(c(-c7c(F)c(F)c(F)c(F)c7F)c7ccc4[nH]7)C=C6)C=C5)cc3)C2)N1
REMARK SMILES IDX 18 1 17 2 15 3 16 4 14 5 11 6 12 7 86 8 13 9 10 10 7 11 8 12
REMARK SMILES IDX 9 14 6 16 5 17 1 18 2 19 3 20 87 21 4 22 19 24 20 25 21 26
REMARK SMILES IDX 22 27 23 28 24 29 85 30 25 31 84 32 26 33 27 34 28 35 78 36
REMARK SMILES IDX 29 37 83 38 77 39 79 40 30 41 82 42 76 43 75 44 31 46 63 47
REMARK SMILES IDX 43 48 62 49 44 50 47 51 61 52 80 53 45 54 46 55 60 57 81 58
REMARK SMILES IDX 48 59 32 60 33 61 41 62 34 63 35 64 39 65 42 66 36 67 37 68
REMARK SMILES IDX 40 69 38 70 64 71 65 72 73 73 66 74 67 75 71 76 74 77 68 78
REMARK SMILES IDX 69 79 72 80 70 81 49 82 50 83 58 84 51 85 52 86 56 87 59 88
REMARK SMILES IDX 53 89 54 90 57 91 55 92
REMARK H PARENT 7 13 10 15 87 23 79 45 47 56
REMARK Flexibility Score: inf
ROOT
ATOM      1  C   UNL A   1      33.045  32.028  27.943  1.00  0.00     0.274 C 
ENDROOT
BRANCH   1   2
ATOM      2  O   UNL A   1      33.522  31.155  26.903  1.00  0.00    -0.462 OA
BRANCH   2   3
ATOM      3  C   UNL A   1      34.070  29.964  27.251  1.00  0.00     0.312 C 
ATOM      4  O   UNL A   1      35.063  29.833  27.956  1.00  0.00    -0.252 OA
BRANCH   3   5
ATOM      5  C   UNL A   1      33.250  28.778  26.728  1.00  0.00     0.124 C 
ATOM      6  C   UNL A   1      31.861  28.396  24.702  1.00  0.00     0.107 C 
ATOM      7  C   UNL A   1      33.171  27.680  24.649  1.00  0.00    -0.006 C 
ATOM      8  C   UNL A   1      31.935  29.144  26.030  1.00  0.00     0.048 C 
ATOM      9  C   UNL A   1      33.944  27.927  25.714  1.00  0.00    -0.014 C 
BRANCH   6  10
ATOM     10  N   UNL A   1      30.757  27.465  24.660  1.00  0.00    -0.332 N 
ATOM     11  N   UNL A   1      29.410  28.202  22.843  1.00  0.00    -0.336 N 
ATOM     12  C   UNL A   1      29.705  27.336  23.831  1.00  0.00     0.315 C 
ATOM     13  H   UNL A   1      28.711  27.885  22.226  1.00  0.00     0.165 HD
ATOM     14  O   UNL A   1      28.955  26.371  23.989  1.00  0.00    -0.249 OA
ATOM     15  H   UNL A   1      30.780  26.792  25.378  1.00  0.00     0.165 HD
BRANCH  11  16
ATOM     16  C   UNL A   1      29.931  29.517  22.520  1.00  0.00     0.142 C 
BRANCH  16  17
ATOM     17  C   UNL A   1      28.985  30.446  21.741  1.00  0.00     0.101 C 
ATOM     18  O   UNL A   1      29.161  33.660  23.152  1.00  0.00    -0.275 OA
ATOM     19  C   UNL A   1      28.831  32.548  22.796  1.00  0.00     0.220 C 
ATOM     20  C   UNL A   1      27.697  31.719  23.347  1.00  0.00     0.102 C 
ATOM     21  N   UNL A   1      29.461  31.807  21.818  1.00  0.00    -0.352 N 
ATOM     22  C   UNL A   1      27.591  30.562  22.351  1.00  0.00     0.036 C 
ATOM     23  H   UNL A   1      30.165  32.169  21.233  1.00  0.00     0.163 HD
ENDBRANCH  16  17
ENDBRANCH  11  16
ENDBRANCH   6  10
ENDBRANCH   3   5
ENDBRANCH   2   3
ENDBRANCH   1   2
BRANCH   1  24
ATOM     24  C   UNL A   1      32.899  33.442  27.372  1.00  0.00     0.275 C 
BRANCH  24  25
ATOM     25  O   UNL A   1      32.357  34.342  28.366  1.00  0.00    -0.458 OA
BRANCH  25  26
ATOM     26  C   UNL A   1      33.212  35.291  28.805  1.00  0.00     0.338 C 
ATOM     27  O   UNL A   1      33.089  36.504  28.720  1.00  0.00    -0.246 OA
BRANCH  26  28
ATOM     28  C   UNL A   1      34.316  34.683  29.560  1.00  0.00     0.060 A 
ATOM     29  C   UNL A   1      35.582  34.663  28.970  1.00  0.00     0.016 A 
ATOM     30  C   UNL A   1      34.101  34.048  30.784  1.00  0.00     0.016 A 
ATOM     31  C   UNL A   1      36.640  34.011  29.589  1.00  0.00     0.010 A 
ATOM     32  C   UNL A   1      35.170  33.402  31.417  1.00  0.00     0.010 A 
ATOM     33  C   UNL A   1      36.444  33.379  30.822  1.00  0.00    -0.014 A 
BRANCH  33  34
ATOM     34  C   UNL A   1      37.590  32.715  31.483  1.00  0.00     0.031 A 
ATOM     35  C   UNL A   1      38.298  31.574  30.817  1.00  0.00     0.074 A 
ATOM     36  C   UNL A   1      38.004  33.169  32.681  1.00  0.00     0.049 A 
ATOM     37  N   UNL A   1      39.275  30.832  31.271  1.00  0.00    -0.248 NA
ATOM     38  C   UNL A   1      37.849  31.219  29.462  1.00  0.00     0.031 C 
ATOM     39  C   UNL A   1      37.413  34.297  33.404  1.00  0.00     0.029 A 
ATOM     40  N   UNL A   1      39.012  32.734  33.504  1.00  0.00    -0.354 N 
ATOM     41  C   UNL A   1      39.547  29.910  30.270  1.00  0.00     0.074 A 
ATOM     42  C   UNL A   1      38.628  30.180  29.185  1.00  0.00     0.031 C 
ATOM     43  C   UNL A   1      38.065  34.460  34.567  1.00  0.00     0.029 A 
ATOM     44  C   UNL A   1      39.086  33.424  34.689  1.00  0.00     0.049 A 
ATOM     45  H   UNL A   1      39.624  32.000  33.267  1.00  0.00     0.167 HD
ATOM     46  C   UNL A   1      40.480  28.929  30.265  1.00  0.00     0.037 A 
ATOM     47  C   UNL A   1      39.868  33.220  35.765  1.00  0.00     0.037 A 
ATOM     48  C   UNL A   1      41.408  28.682  31.338  1.00  0.00     0.049 A 
ATOM     49  C   UNL A   1      40.868  32.099  35.744  1.00  0.00     0.074 A 
ATOM     50  C   UNL A   1      42.413  27.734  31.407  1.00  0.00     0.029 A 
ATOM     51  N   UNL A   1      41.444  29.391  32.530  1.00  0.00    -0.354 N 
ATOM     52  N   UNL A   1      41.126  31.240  34.788  1.00  0.00    -0.248 NA
ATOM     53  C   UNL A   1      41.685  31.916  36.951  1.00  0.00     0.031 C 
ATOM     54  C   UNL A   1      43.031  27.840  32.658  1.00  0.00     0.029 A 
ATOM     55  C   UNL A   1      42.437  28.883  33.351  1.00  0.00     0.049 A 
ATOM     56  H   UNL A   1      40.851  30.143  32.758  1.00  0.00     0.167 HD
ATOM     57  C   UNL A   1      42.142  30.427  35.269  1.00  0.00     0.074 A 
ATOM     58  C   UNL A   1      42.468  30.906  36.596  1.00  0.00     0.031 C 
ATOM     59  C   UNL A   1      42.748  29.376  34.667  1.00  0.00     0.037 A 
BRANCH  46  60
ATOM     60  C   UNL A   1      40.536  28.023  29.072  1.00  0.00     0.064 A 
ATOM     61  C   UNL A   1      39.761  26.857  28.994  1.00  0.00     0.173 A 
ATOM     62  C   UNL A   1      41.324  28.366  27.963  1.00  0.00     0.173 A 
ATOM     63  F   UNL A   1      39.001  26.482  30.034  1.00  0.00    -0.203 F 
ATOM     64  C   UNL A   1      39.779  26.063  27.852  1.00  0.00     0.198 A 
ATOM     65  C   UNL A   1      41.324  27.581  26.814  1.00  0.00     0.198 A 
ATOM     66  F   UNL A   1      42.080  29.474  27.989  1.00  0.00    -0.203 F 
ATOM     67  F   UNL A   1      39.050  24.939  27.806  1.00  0.00    -0.200 F 
ATOM     68  C   UNL A   1      40.553  26.430  26.759  1.00  0.00     0.200 A 
ATOM     69  F   UNL A   1      42.065  27.942  25.757  1.00  0.00    -0.200 F 
ATOM     70  F   UNL A   1      40.560  25.670  25.655  1.00  0.00    -0.200 F 
ENDBRANCH  46  60
BRANCH  47  71
ATOM     71  C   UNL A   1      39.707  34.076  36.969  1.00  0.00     0.064 A 
ATOM     72  C   UNL A   1      40.385  35.296  37.088  1.00  0.00     0.173 A 
ATOM     73  C   UNL A   1      38.880  33.680  38.030  1.00  0.00     0.173 A 
ATOM     74  F   UNL A   1      41.205  35.704  36.108  1.00  0.00    -0.203 F 
ATOM     75  C   UNL A   1      40.257  36.080  38.232  1.00  0.00     0.198 A 
ATOM     76  C   UNL A   1      38.731  34.478  39.162  1.00  0.00     0.198 A 
ATOM     77  F   UNL A   1      38.209  32.521  37.964  1.00  0.00    -0.203 F 
ATOM     78  F   UNL A   1      40.953  37.219  38.342  1.00  0.00    -0.200 F 
ATOM     79  C   UNL A   1      39.427  35.674  39.266  1.00  0.00     0.200 A 
ATOM     80  F   UNL A   1      37.918  34.087  40.153  1.00  0.00    -0.200 F 
ATOM     81  F   UNL A   1      39.304  36.427  40.367  1.00  0.00    -0.200 F 
ENDBRANCH  47  71
BRANCH  59  82
ATOM     82  C   UNL A   1      43.839  28.688  35.432  1.00  0.00     0.064 A 
ATOM     83  C   UNL A   1      45.180  29.068  35.294  1.00  0.00     0.173 A 
ATOM     84  C   UNL A   1      43.534  27.661  36.338  1.00  0.00     0.173 A 
ATOM     85  F   UNL A   1      45.522  30.034  34.427  1.00  0.00    -0.203 F 
ATOM     86  C   UNL A   1      46.182  28.432  36.021  1.00  0.00     0.198 A 
ATOM     87  C   UNL A   1      44.534  27.044  37.082  1.00  0.00     0.198 A 
ATOM     88  F   UNL A   1      42.263  27.264  36.507  1.00  0.00    -0.203 F 
ATOM     89  F   UNL A   1      47.463  28.783  35.844  1.00  0.00    -0.200 F 
ATOM     90  C   UNL A   1      45.857  27.425  36.919  1.00  0.00     0.200 A 
ATOM     91  F   UNL A   1      44.219  26.078  37.955  1.00  0.00    -0.200 F 
ATOM     92  F   UNL A   1      46.823  26.817  37.622  1.00  0.00    -0.200 F 
ENDBRANCH  59  82
ENDBRANCH  33  34
ENDBRANCH  26  28
ENDBRANCH  25  26
ENDBRANCH  24  25
ENDBRANCH   1  24
TORSDOF 14
ENDMDL
