MODEL 1
REMARK VINA RESULT:     -12.2      0.000      0.000
REMARK SMILES O=C(CC[N@H+]1CCC[C@H](c2nccn2Cc2cscn2)C1)OCCOC(=O)c1ccc(-c2c3nc(c(-c4c(F)c(F)c(F)c(F)c4F)c4ccc([nH]4)c(-c4c(F)c(F)c(F)c(F)c4F)c4nc(c(-c5c(F)c(F)c(F)c(F)c5F)c5ccc2[nH]5)C=C4)C=C3)cc1
REMARK SMILES IDX 22 1 2 2 1 3 3 4 4 5 5 6 6 7 21 8 7 10 9 11 8 12 10 13 11 14
REMARK SMILES IDX 14 15 12 16 13 17 15 18 16 19 17 20 20 21 18 22 19 23 23 24
REMARK SMILES IDX 24 25 25 26 26 27 27 28 28 29 29 30 90 31 30 32 89 33 31 34
REMARK SMILES IDX 32 35 33 36 83 37 34 38 88 39 82 40 84 41 35 42 87 43 81 44
REMARK SMILES IDX 80 45 36 47 68 48 48 49 67 50 49 51 52 52 66 53 85 54 50 55
REMARK SMILES IDX 51 56 65 58 86 59 53 60 37 61 38 62 46 63 39 64 40 65 44 66
REMARK SMILES IDX 47 67 41 68 42 69 45 70 43 71 69 72 70 73 78 74 71 75 72 76
REMARK SMILES IDX 76 77 79 78 73 79 74 80 77 81 75 82 54 83 55 84 63 85 56 86
REMARK SMILES IDX 57 87 61 88 64 89 58 90 59 91 62 92 60 93
REMARK H PARENT 5 9 84 46 52 57
REMARK Flexibility Score: inf
ROOT
ATOM      1  O   UNL A   1      41.916  19.497  27.036  1.00  0.00    -0.462 OA
ENDROOT
BRANCH   1   2
ATOM      2  C   UNL A   1      41.851  20.851  27.065  1.00  0.00     0.311 C 
ATOM      3  O   UNL A   1      42.576  21.484  27.831  1.00  0.00    -0.252 OA
BRANCH   2   4
ATOM      4  C   UNL A   1      40.828  21.575  26.225  1.00  0.00     0.184 C 
BRANCH   4   5
ATOM      5  C   UNL A   1      39.463  20.870  26.154  1.00  0.00     0.274 C 
BRANCH   5   6
ATOM      6  N   UNL A   1      38.349  21.815  26.014  1.00  0.00    -0.334 N 
ATOM      7  C   UNL A   1      38.721  23.225  26.222  1.00  0.00     0.262 C 
ATOM      8  C   UNL A   1      37.521  21.636  24.827  1.00  0.00     0.273 C 
ATOM      9  H   UNL A   1      37.748  21.555  26.797  1.00  0.00     0.348 HD
ATOM     10  C   UNL A   1      37.499  24.169  26.232  1.00  0.00     0.062 C 
ATOM     11  C   UNL A   1      36.220  22.454  24.901  1.00  0.00     0.111 C 
ATOM     12  C   UNL A   1      36.568  23.936  25.049  1.00  0.00     0.023 C 
BRANCH  11  13
ATOM     13  C   UNL A   1      35.078  22.021  25.838  1.00  0.00     0.117 A 
ATOM     14  N   UNL A   1      34.874  22.688  26.967  1.00  0.00    -0.241 NA
ATOM     15  N   UNL A   1      34.172  20.950  25.775  1.00  0.00    -0.328 N 
ATOM     16  C   UNL A   1      33.846  22.082  27.622  1.00  0.00     0.131 A 
ATOM     17  C   UNL A   1      33.369  21.031  26.888  1.00  0.00     0.108 A 
BRANCH  15  18
ATOM     18  C   UNL A   1      33.837  20.154  24.604  1.00  0.00     0.180 C 
BRANCH  18  19
ATOM     19  C   UNL A   1      33.642  18.675  24.619  1.00  0.00     0.071 A 
ATOM     20  C   UNL A   1      34.515  17.638  24.358  1.00  0.00     0.092 A 
ATOM     21  N   UNL A   1      32.457  18.258  25.245  1.00  0.00    -0.248 NA
ATOM     22  S   UNL A   1      33.797  16.128  24.775  1.00  0.00    -0.130 S 
ATOM     23  C   UNL A   1      32.438  16.956  25.401  1.00  0.00     0.175 A 
ENDBRANCH  18  19
ENDBRANCH  15  18
ENDBRANCH  11  13
ENDBRANCH   5   6
ENDBRANCH   4   5
ENDBRANCH   2   4
ENDBRANCH   1   2
BRANCH   1  24
ATOM     24  C   UNL A   1      42.260  18.687  25.894  1.00  0.00     0.274 C 
BRANCH  24  25
ATOM     25  C   UNL A   1      43.708  18.833  25.465  1.00  0.00     0.275 C 
BRANCH  25  26
ATOM     26  O   UNL A   1      43.862  20.001  24.668  1.00  0.00    -0.458 OA
BRANCH  26  27
ATOM     27  C   UNL A   1      45.133  20.422  24.434  1.00  0.00     0.338 C 
ATOM     28  O   UNL A   1      46.114  19.752  24.232  1.00  0.00    -0.246 OA
BRANCH  27  29
ATOM     29  C   UNL A   1      45.118  21.869  24.703  1.00  0.00     0.060 A 
ATOM     30  C   UNL A   1      46.009  22.344  25.658  1.00  0.00     0.016 A 
ATOM     31  C   UNL A   1      44.046  22.647  24.248  1.00  0.00     0.016 A 
ATOM     32  C   UNL A   1      45.667  23.494  26.339  1.00  0.00     0.010 A 
ATOM     33  C   UNL A   1      43.686  23.769  24.949  1.00  0.00     0.010 A 
ATOM     34  C   UNL A   1      44.449  24.128  26.048  1.00  0.00    -0.014 A 
BRANCH  34  35
ATOM     35  C   UNL A   1      44.094  25.334  26.763  1.00  0.00     0.031 A 
ATOM     36  C   UNL A   1      45.066  26.400  26.462  1.00  0.00     0.074 A 
ATOM     37  C   UNL A   1      42.996  25.486  27.529  1.00  0.00     0.049 A 
ATOM     38  N   UNL A   1      46.076  26.722  27.196  1.00  0.00    -0.248 NA
ATOM     39  C   UNL A   1      45.105  26.965  25.105  1.00  0.00     0.031 C 
ATOM     40  C   UNL A   1      41.846  24.594  27.671  1.00  0.00     0.029 A 
ATOM     41  N   UNL A   1      42.661  26.539  28.330  1.00  0.00    -0.354 N 
ATOM     42  C   UNL A   1      46.719  27.736  26.505  1.00  0.00     0.074 A 
ATOM     43  C   UNL A   1      46.251  27.649  25.148  1.00  0.00     0.031 C 
ATOM     44  C   UNL A   1      40.855  25.235  28.339  1.00  0.00     0.029 A 
ATOM     45  C   UNL A   1      41.346  26.524  28.794  1.00  0.00     0.049 A 
ATOM     46  H   UNL A   1      43.299  27.254  28.562  1.00  0.00     0.167 HD
ATOM     47  C   UNL A   1      47.266  28.762  27.210  1.00  0.00     0.037 A 
ATOM     48  C   UNL A   1      40.724  27.528  29.472  1.00  0.00     0.037 A 
ATOM     49  C   UNL A   1      47.467  28.364  28.590  1.00  0.00     0.049 A 
ATOM     50  C   UNL A   1      41.787  28.377  30.067  1.00  0.00     0.074 A 
ATOM     51  C   UNL A   1      48.157  27.356  29.236  1.00  0.00     0.029 A 
ATOM     52  N   UNL A   1      46.544  28.822  29.498  1.00  0.00    -0.354 N 
ATOM     53  N   UNL A   1      42.568  27.982  31.032  1.00  0.00    -0.248 NA
ATOM     54  C   UNL A   1      42.291  29.480  29.264  1.00  0.00     0.031 C 
ATOM     55  C   UNL A   1      47.329  26.972  30.336  1.00  0.00     0.029 A 
ATOM     56  C   UNL A   1      46.219  27.816  30.363  1.00  0.00     0.049 A 
ATOM     57  H   UNL A   1      46.174  29.734  29.521  1.00  0.00     0.167 HD
ATOM     58  C   UNL A   1      43.825  28.439  30.668  1.00  0.00     0.074 A 
ATOM     59  C   UNL A   1      43.578  29.429  29.619  1.00  0.00     0.031 C 
ATOM     60  C   UNL A   1      44.943  27.745  31.037  1.00  0.00     0.037 A 
BRANCH  47  61
ATOM     61  C   UNL A   1      47.095  30.218  26.814  1.00  0.00     0.064 A 
ATOM     62  C   UNL A   1      48.214  31.068  26.938  1.00  0.00     0.173 A 
ATOM     63  C   UNL A   1      45.855  30.881  26.662  1.00  0.00     0.173 A 
ATOM     64  F   UNL A   1      49.445  30.557  27.086  1.00  0.00    -0.203 F 
ATOM     65  C   UNL A   1      48.083  32.455  27.038  1.00  0.00     0.198 A 
ATOM     66  C   UNL A   1      45.734  32.268  26.717  1.00  0.00     0.198 A 
ATOM     67  F   UNL A   1      44.689  30.240  26.558  1.00  0.00    -0.203 F 
ATOM     68  F   UNL A   1      49.159  33.203  27.315  1.00  0.00    -0.200 F 
ATOM     69  C   UNL A   1      46.841  33.052  26.945  1.00  0.00     0.200 A 
ATOM     70  F   UNL A   1      44.516  32.823  26.640  1.00  0.00    -0.200 F 
ATOM     71  F   UNL A   1      46.702  34.372  27.119  1.00  0.00    -0.200 F 
ENDBRANCH  47  61
BRANCH  48  72
ATOM     72  C   UNL A   1      39.320  28.009  29.375  1.00  0.00     0.064 A 
ATOM     73  C   UNL A   1      38.517  28.148  30.526  1.00  0.00     0.173 A 
ATOM     74  C   UNL A   1      38.842  28.637  28.210  1.00  0.00     0.173 A 
ATOM     75  F   UNL A   1      38.916  27.625  31.695  1.00  0.00    -0.203 F 
ATOM     76  C   UNL A   1      37.334  28.898  30.516  1.00  0.00     0.198 A 
ATOM     77  C   UNL A   1      37.660  29.382  28.201  1.00  0.00     0.198 A 
ATOM     78  F   UNL A   1      39.565  28.628  27.082  1.00  0.00    -0.203 F 
ATOM     79  F   UNL A   1      36.637  29.065  31.649  1.00  0.00    -0.200 F 
ATOM     80  C   UNL A   1      36.914  29.525  29.357  1.00  0.00     0.200 A 
ATOM     81  F   UNL A   1      37.287  30.019  27.082  1.00  0.00    -0.200 F 
ATOM     82  F   UNL A   1      35.820  30.300  29.361  1.00  0.00    -0.200 F 
ENDBRANCH  48  72
BRANCH  60  83
ATOM     83  C   UNL A   1      44.795  26.709  32.116  1.00  0.00     0.064 A 
ATOM     84  C   UNL A   1      44.484  25.355  31.895  1.00  0.00     0.173 A 
ATOM     85  C   UNL A   1      45.083  27.098  33.431  1.00  0.00     0.173 A 
ATOM     86  F   UNL A   1      44.287  24.884  30.656  1.00  0.00    -0.203 F 
ATOM     87  C   UNL A   1      44.419  24.450  32.956  1.00  0.00     0.198 A 
ATOM     88  C   UNL A   1      45.056  26.186  34.481  1.00  0.00     0.198 A 
ATOM     89  F   UNL A   1      45.431  28.368  33.695  1.00  0.00    -0.203 F 
ATOM     90  F   UNL A   1      44.099  23.168  32.726  1.00  0.00    -0.200 F 
ATOM     91  C   UNL A   1      44.710  24.866  34.245  1.00  0.00     0.200 A 
ATOM     92  F   UNL A   1      45.385  26.584  35.717  1.00  0.00    -0.200 F 
ATOM     93  F   UNL A   1      44.681  23.989  35.259  1.00  0.00    -0.200 F 
ENDBRANCH  60  83
ENDBRANCH  34  35
ENDBRANCH  27  29
ENDBRANCH  26  27
ENDBRANCH  25  26
ENDBRANCH  24  25
ENDBRANCH   1  24
TORSDOF 16
ENDMDL
MODEL 2
REMARK VINA RESULT:     -12.1      1.672      2.143
REMARK SMILES O=C(CC[N@H+]1CCC[C@H](c2nccn2Cc2cscn2)C1)OCCOC(=O)c1ccc(-c2c3nc(c(-c4c(F)c(F)c(F)c(F)c4F)c4ccc([nH]4)c(-c4c(F)c(F)c(F)c(F)c4F)c4nc(c(-c5c(F)c(F)c(F)c(F)c5F)c5ccc2[nH]5)C=C4)C=C3)cc1
REMARK SMILES IDX 22 1 2 2 1 3 3 4 4 5 5 6 6 7 21 8 7 10 9 11 8 12 10 13 11 14
REMARK SMILES IDX 14 15 12 16 13 17 15 18 16 19 17 20 20 21 18 22 19 23 23 24
REMARK SMILES IDX 24 25 25 26 26 27 27 28 28 29 29 30 90 31 30 32 89 33 31 34
REMARK SMILES IDX 32 35 33 36 83 37 34 38 88 39 82 40 84 41 35 42 87 43 81 44
REMARK SMILES IDX 80 45 36 47 68 48 48 49 67 50 49 51 52 52 66 53 85 54 50 55
REMARK SMILES IDX 51 56 65 58 86 59 53 60 37 61 38 62 46 63 39 64 40 65 44 66
REMARK SMILES IDX 47 67 41 68 42 69 45 70 43 71 69 72 70 73 78 74 71 75 72 76
REMARK SMILES IDX 76 77 79 78 73 79 74 80 77 81 75 82 54 83 55 84 63 85 56 86
REMARK SMILES IDX 57 87 61 88 64 89 58 90 59 91 62 92 60 93
REMARK H PARENT 5 9 84 46 52 57
REMARK Flexibility Score: inf
ROOT
ATOM      1  O   UNL A   1      41.327  20.170  26.020  1.00  0.00    -0.462 OA
ENDROOT
BRANCH   1   2
ATOM      2  C   UNL A   1      40.624  21.017  26.812  1.00  0.00     0.311 C 
ATOM      3  O   UNL A   1      40.778  20.988  28.032  1.00  0.00    -0.252 OA
BRANCH   2   4
ATOM      4  C   UNL A   1      39.588  21.932  26.205  1.00  0.00     0.184 C 
BRANCH   4   5
ATOM      5  C   UNL A   1      38.517  21.202  25.376  1.00  0.00     0.274 C 
BRANCH   5   6
ATOM      6  N   UNL A   1      37.282  21.983  25.243  1.00  0.00    -0.334 N 
ATOM      7  C   UNL A   1      37.320  23.296  25.912  1.00  0.00     0.262 C 
ATOM      8  C   UNL A   1      36.740  22.072  23.892  1.00  0.00     0.273 C 
ATOM      9  H   UNL A   1      36.611  21.414  25.759  1.00  0.00     0.348 HD
ATOM     10  C   UNL A   1      35.953  24.014  25.892  1.00  0.00     0.062 C 
ATOM     11  C   UNL A   1      35.311  22.642  23.879  1.00  0.00     0.111 C 
ATOM     12  C   UNL A   1      35.322  24.037  24.506  1.00  0.00     0.023 C 
BRANCH  11  13
ATOM     13  C   UNL A   1      34.126  21.788  24.364  1.00  0.00     0.117 A 
ATOM     14  N   UNL A   1      34.346  20.793  25.214  1.00  0.00    -0.241 NA
ATOM     15  N   UNL A   1      32.762  21.803  24.027  1.00  0.00    -0.328 N 
ATOM     16  C   UNL A   1      33.153  20.179  25.445  1.00  0.00     0.131 A 
ATOM     17  C   UNL A   1      32.153  20.809  24.755  1.00  0.00     0.108 A 
BRANCH  15  18
ATOM     18  C   UNL A   1      32.032  22.882  23.380  1.00  0.00     0.180 C 
BRANCH  18  19
ATOM     19  C   UNL A   1      31.545  24.107  24.078  1.00  0.00     0.071 A 
ATOM     20  C   UNL A   1      30.784  24.264  25.219  1.00  0.00     0.092 A 
ATOM     21  N   UNL A   1      32.171  25.293  23.662  1.00  0.00    -0.248 NA
ATOM     22  S   UNL A   1      30.743  25.921  25.693  1.00  0.00    -0.130 S 
ATOM     23  C   UNL A   1      31.848  26.296  24.442  1.00  0.00     0.175 A 
ENDBRANCH  18  19
ENDBRANCH  15  18
ENDBRANCH  11  13
ENDBRANCH   5   6
ENDBRANCH   4   5
ENDBRANCH   2   4
ENDBRANCH   1   2
BRANCH   1  24
ATOM     24  C   UNL A   1      42.278  19.181  26.467  1.00  0.00     0.274 C 
BRANCH  24  25
ATOM     25  C   UNL A   1      43.255  18.754  25.388  1.00  0.00     0.275 C 
BRANCH  25  26
ATOM     26  O   UNL A   1      44.411  19.585  25.425  1.00  0.00    -0.458 OA
BRANCH  26  27
ATOM     27  C   UNL A   1      44.755  20.210  24.270  1.00  0.00     0.338 C 
ATOM     28  O   UNL A   1      45.066  19.712  23.217  1.00  0.00    -0.246 OA
BRANCH  27  29
ATOM     29  C   UNL A   1      44.895  21.632  24.625  1.00  0.00     0.060 A 
ATOM     30  C   UNL A   1      45.655  21.931  25.750  1.00  0.00     0.016 A 
ATOM     31  C   UNL A   1      44.046  22.578  24.039  1.00  0.00     0.016 A 
ATOM     32  C   UNL A   1      45.359  23.093  26.433  1.00  0.00     0.010 A 
ATOM     33  C   UNL A   1      43.725  23.714  24.737  1.00  0.00     0.010 A 
ATOM     34  C   UNL A   1      44.316  23.913  25.973  1.00  0.00    -0.014 A 
BRANCH  34  35
ATOM     35  C   UNL A   1      44.009  25.130  26.691  1.00  0.00     0.031 A 
ATOM     36  C   UNL A   1      45.024  26.158  26.393  1.00  0.00     0.074 A 
ATOM     37  C   UNL A   1      42.919  25.325  27.458  1.00  0.00     0.049 A 
ATOM     38  N   UNL A   1      46.045  26.437  27.127  1.00  0.00    -0.248 NA
ATOM     39  C   UNL A   1      45.085  26.724  25.036  1.00  0.00     0.031 C 
ATOM     40  C   UNL A   1      41.733  24.479  27.597  1.00  0.00     0.029 A 
ATOM     41  N   UNL A   1      42.626  26.389  28.261  1.00  0.00    -0.354 N 
ATOM     42  C   UNL A   1      46.729  27.426  26.438  1.00  0.00     0.074 A 
ATOM     43  C   UNL A   1      46.257  27.361  25.081  1.00  0.00     0.031 C 
ATOM     44  C   UNL A   1      40.769  25.158  28.267  1.00  0.00     0.029 A 
ATOM     45  C   UNL A   1      41.311  26.425  28.725  1.00  0.00     0.049 A 
ATOM     46  H   UNL A   1      43.292  27.077  28.494  1.00  0.00     0.167 HD
ATOM     47  C   UNL A   1      47.316  28.428  27.145  1.00  0.00     0.037 A 
ATOM     48  C   UNL A   1      40.730  27.452  29.405  1.00  0.00     0.037 A 
ATOM     49  C   UNL A   1      47.500  28.020  28.525  1.00  0.00     0.049 A 
ATOM     50  C   UNL A   1      41.826  28.256  30.002  1.00  0.00     0.074 A 
ATOM     51  C   UNL A   1      48.150  26.983  29.168  1.00  0.00     0.029 A 
ATOM     52  N   UNL A   1      46.597  28.512  29.434  1.00  0.00    -0.354 N 
ATOM     53  N   UNL A   1      42.590  27.828  30.966  1.00  0.00    -0.248 NA
ATOM     54  C   UNL A   1      42.373  29.340  29.202  1.00  0.00     0.031 C 
ATOM     55  C   UNL A   1      47.307  26.631  30.268  1.00  0.00     0.029 A 
ATOM     56  C   UNL A   1      46.232  27.518  30.296  1.00  0.00     0.049 A 
ATOM     57  H   UNL A   1      46.263  29.438  29.459  1.00  0.00     0.167 HD
ATOM     58  C   UNL A   1      43.865  28.235  30.603  1.00  0.00     0.074 A 
ATOM     59  C   UNL A   1      43.657  29.236  29.556  1.00  0.00     0.031 C 
ATOM     60  C   UNL A   1      44.954  27.497  30.970  1.00  0.00     0.037 A 
BRANCH  47  61
ATOM     61  C   UNL A   1      47.204  29.891  26.753  1.00  0.00     0.064 A 
ATOM     62  C   UNL A   1      48.356  30.694  26.876  1.00  0.00     0.173 A 
ATOM     63  C   UNL A   1      45.991  30.603  26.604  1.00  0.00     0.173 A 
ATOM     64  F   UNL A   1      49.565  30.134  27.021  1.00  0.00    -0.203 F 
ATOM     65  C   UNL A   1      48.282  32.085  26.979  1.00  0.00     0.198 A 
ATOM     66  C   UNL A   1      45.926  31.994  26.662  1.00  0.00     0.198 A 
ATOM     67  F   UNL A   1      44.799  30.010  26.501  1.00  0.00    -0.203 F 
ATOM     68  F   UNL A   1      49.387  32.789  27.255  1.00  0.00    -0.200 F 
ATOM     69  C   UNL A   1      47.064  32.733  26.890  1.00  0.00     0.200 A 
ATOM     70  F   UNL A   1      44.732  32.598  26.588  1.00  0.00    -0.200 F 
ATOM     71  F   UNL A   1      46.979  34.057  27.067  1.00  0.00    -0.200 F 
ENDBRANCH  47  61
BRANCH  48  72
ATOM     72  C   UNL A   1      39.346  27.988  29.310  1.00  0.00     0.064 A 
ATOM     73  C   UNL A   1      38.550  28.159  30.461  1.00  0.00     0.173 A 
ATOM     74  C   UNL A   1      38.893  28.635  28.145  1.00  0.00     0.173 A 
ATOM     75  F   UNL A   1      38.928  27.621  31.629  1.00  0.00    -0.203 F 
ATOM     76  C   UNL A   1      37.398  28.956  30.452  1.00  0.00     0.198 A 
ATOM     77  C   UNL A   1      37.741  29.427  28.137  1.00  0.00     0.198 A 
ATOM     78  F   UNL A   1      39.614  28.597  27.016  1.00  0.00    -0.203 F 
ATOM     79  F   UNL A   1      36.709  29.150  31.585  1.00  0.00    -0.200 F 
ATOM     80  C   UNL A   1      37.003  29.599  29.293  1.00  0.00     0.200 A 
ATOM     81  F   UNL A   1      37.393  30.078  27.018  1.00  0.00    -0.200 F 
ATOM     82  F   UNL A   1      35.941  30.418  29.298  1.00  0.00    -0.200 F 
ENDBRANCH  48  72
BRANCH  60  83
ATOM     83  C   UNL A   1      44.764  26.465  32.047  1.00  0.00     0.064 A 
ATOM     84  C   UNL A   1      44.422  25.120  31.822  1.00  0.00     0.173 A 
ATOM     85  C   UNL A   1      45.044  26.847  33.366  1.00  0.00     0.173 A 
ATOM     86  F   UNL A   1      44.230  24.653  30.581  1.00  0.00    -0.203 F 
ATOM     87  C   UNL A   1      44.319  24.217  32.881  1.00  0.00     0.198 A 
ATOM     88  C   UNL A   1      44.980  25.936  34.415  1.00  0.00     0.198 A 
ATOM     89  F   UNL A   1      45.421  28.108  33.635  1.00  0.00    -0.203 F 
ATOM     90  F   UNL A   1      43.970  22.943  32.648  1.00  0.00    -0.200 F 
ATOM     91  C   UNL A   1      44.604  24.625  34.175  1.00  0.00     0.200 A 
ATOM     92  F   UNL A   1      45.302  26.326  35.655  1.00  0.00    -0.200 F 
ATOM     93  F   UNL A   1      44.538  23.750  35.189  1.00  0.00    -0.200 F 
ENDBRANCH  60  83
ENDBRANCH  34  35
ENDBRANCH  27  29
ENDBRANCH  26  27
ENDBRANCH  25  26
ENDBRANCH  24  25
ENDBRANCH   1  24
TORSDOF 16
ENDMDL
MODEL 3
REMARK VINA RESULT:     -11.9      6.449     11.226
REMARK SMILES O=C(CC[N@H+]1CCC[C@H](c2nccn2Cc2cscn2)C1)OCCOC(=O)c1ccc(-c2c3nc(c(-c4c(F)c(F)c(F)c(F)c4F)c4ccc([nH]4)c(-c4c(F)c(F)c(F)c(F)c4F)c4nc(c(-c5c(F)c(F)c(F)c(F)c5F)c5ccc2[nH]5)C=C4)C=C3)cc1
REMARK SMILES IDX 22 1 2 2 1 3 3 4 4 5 5 6 6 7 21 8 7 10 9 11 8 12 10 13 11 14
REMARK SMILES IDX 14 15 12 16 13 17 15 18 16 19 17 20 20 21 18 22 19 23 23 24
REMARK SMILES IDX 24 25 25 26 26 27 27 28 28 29 29 30 90 31 30 32 89 33 31 34
REMARK SMILES IDX 32 35 33 36 83 37 34 38 88 39 82 40 84 41 35 42 87 43 81 44
REMARK SMILES IDX 80 45 36 47 68 48 48 49 67 50 49 51 52 52 66 53 85 54 50 55
REMARK SMILES IDX 51 56 65 58 86 59 53 60 37 61 38 62 46 63 39 64 40 65 44 66
REMARK SMILES IDX 47 67 41 68 42 69 45 70 43 71 69 72 70 73 78 74 71 75 72 76
REMARK SMILES IDX 76 77 79 78 73 79 74 80 77 81 75 82 54 83 55 84 63 85 56 86
REMARK SMILES IDX 57 87 61 88 64 89 58 90 59 91 62 92 60 93
REMARK H PARENT 5 9 84 46 52 57
REMARK Flexibility Score: inf
ROOT
ATOM      1  O   UNL A   1      32.893  35.041  29.026  1.00  0.00    -0.462 OA
ENDROOT
BRANCH   1   2
ATOM      2  C   UNL A   1      33.730  34.017  28.725  1.00  0.00     0.311 C 
ATOM      3  O   UNL A   1      34.859  33.983  29.212  1.00  0.00    -0.252 OA
BRANCH   2   4
ATOM      4  C   UNL A   1      33.309  32.968  27.725  1.00  0.00     0.184 C 
BRANCH   4   5
ATOM      5  C   UNL A   1      34.314  31.814  27.569  1.00  0.00     0.274 C 
BRANCH   5   6
ATOM      6  N   UNL A   1      33.679  30.575  27.107  1.00  0.00    -0.334 N 
ATOM      7  C   UNL A   1      33.951  29.401  27.956  1.00  0.00     0.262 C 
ATOM      8  C   UNL A   1      32.267  30.686  26.763  1.00  0.00     0.273 C 
ATOM      9  H   UNL A   1      34.155  30.407  26.221  1.00  0.00     0.348 HD
ATOM     10  C   UNL A   1      33.407  28.089  27.352  1.00  0.00     0.062 C 
ATOM     11  C   UNL A   1      31.754  29.442  26.015  1.00  0.00     0.111 C 
ATOM     12  C   UNL A   1      31.959  28.209  26.896  1.00  0.00     0.023 C 
BRANCH  11  13
ATOM     13  C   UNL A   1      32.156  29.192  24.550  1.00  0.00     0.117 A 
ATOM     14  N   UNL A   1      33.427  28.953  24.255  1.00  0.00    -0.241 NA
ATOM     15  N   UNL A   1      31.412  29.222  23.359  1.00  0.00    -0.328 N 
ATOM     16  C   UNL A   1      33.516  28.811  22.905  1.00  0.00     0.131 A 
ATOM     17  C   UNL A   1      32.279  28.933  22.332  1.00  0.00     0.108 A 
BRANCH  15  18
ATOM     18  C   UNL A   1      29.965  29.152  23.227  1.00  0.00     0.180 C 
BRANCH  18  19
ATOM     19  C   UNL A   1      29.120  30.229  22.635  1.00  0.00     0.071 A 
ATOM     20  C   UNL A   1      28.917  31.540  23.015  1.00  0.00     0.092 A 
ATOM     21  N   UNL A   1      28.656  29.949  21.341  1.00  0.00    -0.248 NA
ATOM     22  S   UNL A   1      28.026  32.387  21.807  1.00  0.00    -0.130 S 
ATOM     23  C   UNL A   1      28.092  31.004  20.803  1.00  0.00     0.175 A 
ENDBRANCH  18  19
ENDBRANCH  15  18
ENDBRANCH  11  13
ENDBRANCH   5   6
ENDBRANCH   4   5
ENDBRANCH   2   4
ENDBRANCH   1   2
BRANCH   1  24
ATOM     24  C   UNL A   1      33.274  36.417  29.235  1.00  0.00     0.274 C 
BRANCH  24  25
ATOM     25  C   UNL A   1      33.003  36.911  30.643  1.00  0.00     0.275 C 
BRANCH  25  26
ATOM     26  O   UNL A   1      33.878  36.263  31.560  1.00  0.00    -0.458 OA
BRANCH  26  27
ATOM     27  C   UNL A   1      33.356  35.246  32.294  1.00  0.00     0.338 C 
ATOM     28  O   UNL A   1      32.234  35.136  32.722  1.00  0.00    -0.246 OA
BRANCH  27  29
ATOM     29  C   UNL A   1      34.505  34.402  32.659  1.00  0.00     0.060 A 
ATOM     30  C   UNL A   1      35.746  35.022  32.736  1.00  0.00     0.016 A 
ATOM     31  C   UNL A   1      34.382  33.008  32.615  1.00  0.00     0.016 A 
ATOM     32  C   UNL A   1      36.865  34.248  32.502  1.00  0.00     0.010 A 
ATOM     33  C   UNL A   1      35.489  32.245  32.346  1.00  0.00     0.010 A 
ATOM     34  C   UNL A   1      36.706  32.887  32.198  1.00  0.00    -0.014 A 
BRANCH  34  35
ATOM     35  C   UNL A   1      37.881  32.078  31.955  1.00  0.00     0.031 A 
ATOM     36  C   UNL A   1      38.587  31.825  33.225  1.00  0.00     0.074 A 
ATOM     37  C   UNL A   1      38.237  31.568  30.760  1.00  0.00     0.049 A 
ATOM     38  N   UNL A   1      39.604  32.486  33.660  1.00  0.00    -0.248 NA
ATOM     39  C   UNL A   1      37.948  30.968  34.235  1.00  0.00     0.031 C 
ATOM     40  C   UNL A   1      37.472  31.532  29.514  1.00  0.00     0.029 A 
ATOM     41  N   UNL A   1      39.386  30.909  30.429  1.00  0.00    -0.354 N 
ATOM     42  C   UNL A   1      39.900  31.926  34.893  1.00  0.00     0.074 A 
ATOM     43  C   UNL A   1      38.719  31.212  35.298  1.00  0.00     0.031 C 
ATOM     44  C   UNL A   1      38.088  30.710  28.629  1.00  0.00     0.029 A 
ATOM     45  C   UNL A   1      39.356  30.273  29.187  1.00  0.00     0.049 A 
ATOM     46  H   UNL A   1      40.174  30.886  31.019  1.00  0.00     0.167 HD
ATOM     47  C   UNL A   1      41.204  31.798  35.256  1.00  0.00     0.037 A 
ATOM     48  C   UNL A   1      40.304  29.428  28.698  1.00  0.00     0.037 A 
ATOM     49  C   UNL A   1      42.029  32.694  34.468  1.00  0.00     0.049 A 
ATOM     50  C   UNL A   1      41.560  29.703  29.440  1.00  0.00     0.074 A 
ATOM     51  C   UNL A   1      42.070  34.057  34.246  1.00  0.00     0.029 A 
ATOM     52  N   UNL A   1      42.726  32.128  33.430  1.00  0.00    -0.354 N 
ATOM     53  N   UNL A   1      42.241  30.808  29.320  1.00  0.00    -0.248 NA
ATOM     54  C   UNL A   1      41.790  28.955  30.666  1.00  0.00     0.031 C 
ATOM     55  C   UNL A   1      42.415  34.207  32.867  1.00  0.00     0.029 A 
ATOM     56  C   UNL A   1      42.651  32.940  32.335  1.00  0.00     0.049 A 
ATOM     57  H   UNL A   1      43.206  31.268  33.469  1.00  0.00     0.167 HD
ATOM     58  C   UNL A   1      42.601  31.134  30.618  1.00  0.00     0.074 A 
ATOM     59  C   UNL A   1      42.374  29.913  31.392  1.00  0.00     0.031 C 
ATOM     60  C   UNL A   1      42.752  32.443  30.982  1.00  0.00     0.037 A 
BRANCH  47  61
ATOM     61  C   UNL A   1      41.767  30.531  35.877  1.00  0.00     0.064 A 
ATOM     62  C   UNL A   1      42.742  30.671  36.886  1.00  0.00     0.173 A 
ATOM     63  C   UNL A   1      41.667  29.235  35.316  1.00  0.00     0.173 A 
ATOM     64  F   UNL A   1      42.929  31.851  37.493  1.00  0.00    -0.203 F 
ATOM     65  C   UNL A   1      43.630  29.641  37.205  1.00  0.00     0.198 A 
ATOM     66  C   UNL A   1      42.526  28.197  35.671  1.00  0.00     0.198 A 
ATOM     67  F   UNL A   1      40.820  28.925  34.333  1.00  0.00    -0.203 F 
ATOM     68  F   UNL A   1      44.638  29.876  38.055  1.00  0.00    -0.200 F 
ATOM     69  C   UNL A   1      43.532  28.410  36.585  1.00  0.00     0.200 A 
ATOM     70  F   UNL A   1      42.421  27.017  35.044  1.00  0.00    -0.200 F 
ATOM     71  F   UNL A   1      44.429  27.447  36.831  1.00  0.00    -0.200 F 
ENDBRANCH  47  61
BRANCH  48  72
ATOM     72  C   UNL A   1      40.144  28.189  27.890  1.00  0.00     0.064 A 
ATOM     73  C   UNL A   1      40.904  27.978  26.722  1.00  0.00     0.173 A 
ATOM     74  C   UNL A   1      39.484  27.060  28.410  1.00  0.00     0.173 A 
ATOM     75  F   UNL A   1      41.607  28.984  26.182  1.00  0.00    -0.203 F 
ATOM     76  C   UNL A   1      41.024  26.711  26.137  1.00  0.00     0.198 A 
ATOM     77  C   UNL A   1      39.603  25.797  27.823  1.00  0.00     0.198 A 
ATOM     78  F   UNL A   1      38.795  27.137  29.556  1.00  0.00    -0.203 F 
ATOM     79  F   UNL A   1      41.816  26.539  25.068  1.00  0.00    -0.200 F 
ATOM     80  C   UNL A   1      40.384  25.620  26.696  1.00  0.00     0.200 A 
ATOM     81  F   UNL A   1      39.011  24.742  28.398  1.00  0.00    -0.200 F 
ATOM     82  F   UNL A   1      40.553  24.394  26.179  1.00  0.00    -0.200 F 
ENDBRANCH  48  72
BRANCH  60  83
ATOM     83  C   UNL A   1      42.864  33.462  29.883  1.00  0.00     0.064 A 
ATOM     84  C   UNL A   1      41.797  34.230  29.386  1.00  0.00     0.173 A 
ATOM     85  C   UNL A   1      44.145  33.738  29.385  1.00  0.00     0.173 A 
ATOM     86  F   UNL A   1      40.557  34.093  29.877  1.00  0.00    -0.203 F 
ATOM     87  C   UNL A   1      42.004  35.195  28.398  1.00  0.00     0.198 A 
ATOM     88  C   UNL A   1      44.354  34.727  28.430  1.00  0.00     0.198 A 
ATOM     89  F   UNL A   1      45.208  33.067  29.857  1.00  0.00    -0.203 F 
ATOM     90  F   UNL A   1      40.968  35.901  27.921  1.00  0.00    -0.200 F 
ATOM     91  C   UNL A   1      43.282  35.445  27.926  1.00  0.00     0.200 A 
ATOM     92  F   UNL A   1      45.598  34.996  28.013  1.00  0.00    -0.200 F 
ATOM     93  F   UNL A   1      43.487  36.395  27.002  1.00  0.00    -0.200 F 
ENDBRANCH  60  83
ENDBRANCH  34  35
ENDBRANCH  27  29
ENDBRANCH  26  27
ENDBRANCH  25  26
ENDBRANCH  24  25
ENDBRANCH   1  24
TORSDOF 16
ENDMDL
