MODEL 1
REMARK VINA RESULT:     -13.2      0.000      0.000
REMARK SMILES O=C(OCCOC(=O)c1ccc(N2C(=O)/C(=C/C3=c4ccccc4=NC3)SC2=S)cc1O)c1ccc(-c2c3nc(c(-c4c(F)c(F)c(F)c(F)c4F)c4ccc([nH]4)c(-c4c(F)c(F)c(F)c(F)c4F)c4nc(c(-c5c(F)c(F)c(F)c(F)c5F)c5ccc2[nH]5)C=C4)C=C3)cc1
REMARK SMILES IDX 4 1 3 2 2 3 1 4 33 5 34 6 95 7 35 8 94 9 36 10 37 11 38 12
REMARK SMILES IDX 88 13 39 14 93 15 87 16 89 17 40 18 92 19 86 20 85 21 41 23
REMARK SMILES IDX 73 24 53 25 72 26 54 27 57 28 71 29 90 30 55 31 56 32 70 34
REMARK SMILES IDX 91 35 58 36 42 37 43 38 51 39 44 40 45 41 49 42 52 43 46 44
REMARK SMILES IDX 47 45 50 46 48 47 74 48 75 49 83 50 76 51 77 52 81 53 84 54
REMARK SMILES IDX 78 55 79 56 82 57 80 58 59 59 60 60 68 61 61 62 62 63 66 64
REMARK SMILES IDX 69 65 63 66 64 67 67 68 65 69 5 70 6 71 7 72 8 73 9 74 10 75
REMARK SMILES IDX 31 76 11 77 30 78 12 79 32 80 13 82 14 83 28 84 15 85 16 86
REMARK SMILES IDX 27 87 29 88 17 89 18 90 19 91 26 92 20 93 24 94 25 95 21 96
REMARK SMILES IDX 23 97 22 98
REMARK H PARENT 89 22 57 33 32 81
REMARK Flexibility Score: inf
ROOT
ATOM      1  C   UNL A   1      32.553  33.127  27.086  1.00  0.00     0.275 C 
ENDROOT
BRANCH   1   2
ATOM      2  O   UNL A   1      32.206  34.243  27.922  1.00  0.00    -0.458 OA
BRANCH   2   3
ATOM      3  C   UNL A   1      32.970  34.848  28.863  1.00  0.00     0.338 C 
ATOM      4  O   UNL A   1      32.776  36.028  29.147  1.00  0.00    -0.246 OA
BRANCH   3   5
ATOM      5  C   UNL A   1      34.194  34.194  29.405  1.00  0.00     0.060 A 
ATOM      6  C   UNL A   1      34.000  33.337  30.495  1.00  0.00     0.016 A 
ATOM      7  C   UNL A   1      35.486  34.325  28.890  1.00  0.00     0.016 A 
ATOM      8  C   UNL A   1      35.085  32.734  31.133  1.00  0.00     0.010 A 
ATOM      9  C   UNL A   1      36.576  33.713  29.525  1.00  0.00     0.010 A 
ATOM     10  C   UNL A   1      36.391  32.934  30.669  1.00  0.00    -0.014 A 
BRANCH  10  11
ATOM     11  C   UNL A   1      37.522  32.200  31.287  1.00  0.00     0.031 A 
ATOM     12  C   UNL A   1      38.134  30.982  30.662  1.00  0.00     0.074 A 
ATOM     13  C   UNL A   1      38.005  32.653  32.457  1.00  0.00     0.049 A 
ATOM     14  N   UNL A   1      39.244  30.363  30.983  1.00  0.00    -0.248 NA
ATOM     15  C   UNL A   1      37.443  30.399  29.510  1.00  0.00     0.031 C 
ATOM     16  C   UNL A   1      37.496  33.818  33.179  1.00  0.00     0.029 A 
ATOM     17  N   UNL A   1      39.013  32.175  33.250  1.00  0.00    -0.354 N 
ATOM     18  C   UNL A   1      39.441  29.402  30.000  1.00  0.00     0.074 A 
ATOM     19  C   UNL A   1      38.301  29.466  29.113  1.00  0.00     0.031 C 
ATOM     20  C   UNL A   1      38.187  33.960  34.317  1.00  0.00     0.029 A 
ATOM     21  C   UNL A   1      39.154  32.872  34.421  1.00  0.00     0.049 A 
ATOM     22  H   UNL A   1      39.580  31.409  33.004  1.00  0.00     0.167 HD
ATOM     23  C   UNL A   1      40.485  28.554  29.850  1.00  0.00     0.037 A 
ATOM     24  C   UNL A   1      39.947  32.641  35.480  1.00  0.00     0.037 A 
ATOM     25  C   UNL A   1      41.495  28.337  30.851  1.00  0.00     0.049 A 
ATOM     26  C   UNL A   1      40.907  31.494  35.434  1.00  0.00     0.074 A 
ATOM     27  C   UNL A   1      42.559  27.452  30.837  1.00  0.00     0.029 A 
ATOM     28  N   UNL A   1      41.510  28.958  32.090  1.00  0.00    -0.354 N 
ATOM     29  N   UNL A   1      41.178  30.687  34.437  1.00  0.00    -0.248 NA
ATOM     30  C   UNL A   1      41.667  31.221  36.658  1.00  0.00     0.031 C 
ATOM     31  C   UNL A   1      43.157  27.472  32.106  1.00  0.00     0.029 A 
ATOM     32  C   UNL A   1      42.505  28.413  32.886  1.00  0.00     0.049 A 
ATOM     33  H   UNL A   1      40.901  29.682  32.366  1.00  0.00     0.167 HD
ATOM     34  C   UNL A   1      42.145  29.811  34.907  1.00  0.00     0.074 A 
ATOM     35  C   UNL A   1      42.426  30.201  36.276  1.00  0.00     0.031 C 
ATOM     36  C   UNL A   1      42.746  28.780  34.260  1.00  0.00     0.037 A 
BRANCH  23  37
ATOM     37  C   UNL A   1      40.567  27.789  28.563  1.00  0.00     0.064 A 
ATOM     38  C   UNL A   1      41.296  28.305  27.480  1.00  0.00     0.173 A 
ATOM     39  C   UNL A   1      39.967  26.534  28.410  1.00  0.00     0.173 A 
ATOM     40  F   UNL A   1      41.888  29.503  27.587  1.00  0.00    -0.203 F 
ATOM     41  C   UNL A   1      41.408  27.599  26.285  1.00  0.00     0.198 A 
ATOM     42  C   UNL A   1      40.091  25.822  27.217  1.00  0.00     0.198 A 
ATOM     43  F   UNL A   1      39.262  25.996  29.416  1.00  0.00    -0.203 F 
ATOM     44  F   UNL A   1      42.093  28.120  25.257  1.00  0.00    -0.200 F 
ATOM     45  C   UNL A   1      40.807  26.356  26.156  1.00  0.00     0.200 A 
ATOM     46  F   UNL A   1      39.513  24.619  27.094  1.00  0.00    -0.200 F 
ATOM     47  F   UNL A   1      40.914  25.674  25.007  1.00  0.00    -0.200 F 
ENDBRANCH  23  37
BRANCH  24  48
ATOM     48  C   UNL A   1      39.822  33.527  36.659  1.00  0.00     0.064 A 
ATOM     49  C   UNL A   1      40.493  34.754  36.709  1.00  0.00     0.173 A 
ATOM     50  C   UNL A   1      38.931  33.219  37.700  1.00  0.00     0.173 A 
ATOM     51  F   UNL A   1      41.363  35.080  35.741  1.00  0.00    -0.203 F 
ATOM     52  C   UNL A   1      40.259  35.652  37.746  1.00  0.00     0.198 A 
ATOM     53  C   UNL A   1      38.681  34.128  38.723  1.00  0.00     0.198 A 
ATOM     54  F   UNL A   1      38.263  32.056  37.688  1.00  0.00    -0.203 F 
ATOM     55  F   UNL A   1      40.910  36.824  37.772  1.00  0.00    -0.200 F 
ATOM     56  C   UNL A   1      39.343  35.346  38.744  1.00  0.00     0.200 A 
ATOM     57  F   UNL A   1      37.780  33.836  39.671  1.00  0.00    -0.200 F 
ATOM     58  F   UNL A   1      39.091  36.229  39.719  1.00  0.00    -0.200 F 
ENDBRANCH  24  48
BRANCH  36  59
ATOM     59  C   UNL A   1      43.749  27.986  35.040  1.00  0.00     0.064 A 
ATOM     60  C   UNL A   1      45.098  28.368  35.093  1.00  0.00     0.173 A 
ATOM     61  C   UNL A   1      43.362  26.839  35.748  1.00  0.00     0.173 A 
ATOM     62  F   UNL A   1      45.521  29.446  34.417  1.00  0.00    -0.203 F 
ATOM     63  C   UNL A   1      46.028  27.613  35.803  1.00  0.00     0.198 A 
ATOM     64  C   UNL A   1      44.288  26.104  36.482  1.00  0.00     0.198 A 
ATOM     65  F   UNL A   1      42.083  26.433  35.732  1.00  0.00    -0.203 F 
ATOM     66  F   UNL A   1      47.321  27.965  35.793  1.00  0.00    -0.200 F 
ATOM     67  C   UNL A   1      45.622  26.487  36.501  1.00  0.00     0.200 A 
ATOM     68  F   UNL A   1      43.892  25.021  37.165  1.00  0.00    -0.200 F 
ATOM     69  F   UNL A   1      46.518  25.759  37.182  1.00  0.00    -0.200 F 
ENDBRANCH  36  59
ENDBRANCH  10  11
ENDBRANCH   3   5
ENDBRANCH   2   3
ENDBRANCH   1   2
BRANCH   1  70
ATOM     70  C   UNL A   1      31.363  32.290  26.610  1.00  0.00     0.275 C 
BRANCH  70  71
ATOM     71  O   UNL A   1      31.662  30.897  26.414  1.00  0.00    -0.458 OA
BRANCH  71  72
ATOM     72  C   UNL A   1      31.111  30.341  25.299  1.00  0.00     0.342 C 
ATOM     73  O   UNL A   1      30.405  30.904  24.480  1.00  0.00    -0.246 OA
BRANCH  72  74
ATOM     74  C   UNL A   1      31.570  28.942  25.165  1.00  0.00     0.101 A 
ATOM     75  C   UNL A   1      30.605  27.964  24.890  1.00  0.00     0.022 A 
ATOM     76  C   UNL A   1      32.909  28.563  25.266  1.00  0.00     0.132 A 
ATOM     77  C   UNL A   1      30.988  26.640  24.623  1.00  0.00     0.028 A 
ATOM     78  C   UNL A   1      33.280  27.229  25.070  1.00  0.00     0.073 A 
ATOM     79  C   UNL A   1      32.331  26.256  24.714  1.00  0.00     0.054 A 
BRANCH  76  80
ATOM     80  O   UNL A   1      33.925  29.441  25.535  1.00  0.00    -0.507 OA
ATOM     81  H   UNL A   1      33.887  29.983  26.299  1.00  0.00     0.293 HD
ENDBRANCH  76  80
BRANCH  79  82
ATOM     82  N   UNL A   1      32.740  24.915  24.432  1.00  0.00    -0.261 N 
ATOM     83  C   UNL A   1      32.972  24.005  25.465  1.00  0.00     0.270 C 
ATOM     84  C   UNL A   1      32.975  24.448  23.145  1.00  0.00     0.152 C 
ATOM     85  O   UNL A   1      32.903  24.213  26.671  1.00  0.00    -0.268 OA
ATOM     86  C   UNL A   1      33.378  22.678  24.908  1.00  0.00     0.081 C 
ATOM     87  S   UNL A   1      33.334  22.729  23.192  1.00  0.00    -0.054 SA
ATOM     88  S   UNL A   1      33.096  25.303  21.711  1.00  0.00    -0.051 S 
ATOM     89  C   UNL A   1      33.747  21.639  25.675  1.00  0.00     0.027 C 
BRANCH  89  90
ATOM     90  C   UNL A   1      34.377  20.417  25.213  1.00  0.00    -0.016 C 
ATOM     91  C   UNL A   1      33.835  19.217  25.001  1.00  0.00     0.005 A 
ATOM     92  C   UNL A   1      35.870  20.355  25.011  1.00  0.00     0.179 C 
ATOM     93  C   UNL A   1      32.526  18.646  25.068  1.00  0.00     0.011 A 
ATOM     94  C   UNL A   1      35.004  18.397  24.624  1.00  0.00     0.065 A 
ATOM     95  N   UNL A   1      36.174  18.960  24.624  1.00  0.00    -0.280 NA
ATOM     96  C   UNL A   1      32.369  17.347  24.757  1.00  0.00     0.001 A 
ATOM     97  C   UNL A   1      34.749  16.983  24.281  1.00  0.00     0.028 A 
ATOM     98  C   UNL A   1      33.493  16.516  24.352  1.00  0.00     0.002 A 
ENDBRANCH  89  90
ENDBRANCH  79  82
ENDBRANCH  72  74
ENDBRANCH  71  72
ENDBRANCH  70  71
ENDBRANCH   1  70
TORSDOF 14
ENDMDL
MODEL 2
REMARK VINA RESULT:     -13.0      5.428     11.439
REMARK SMILES O=C(OCCOC(=O)c1ccc(N2C(=O)/C(=C/C3=c4ccccc4=NC3)SC2=S)cc1O)c1ccc(-c2c3nc(c(-c4c(F)c(F)c(F)c(F)c4F)c4ccc([nH]4)c(-c4c(F)c(F)c(F)c(F)c4F)c4nc(c(-c5c(F)c(F)c(F)c(F)c5F)c5ccc2[nH]5)C=C4)C=C3)cc1
REMARK SMILES IDX 4 1 3 2 2 3 1 4 33 5 34 6 95 7 35 8 94 9 36 10 37 11 38 12
REMARK SMILES IDX 88 13 39 14 93 15 87 16 89 17 40 18 92 19 86 20 85 21 41 23
REMARK SMILES IDX 73 24 53 25 72 26 54 27 57 28 71 29 90 30 55 31 56 32 70 34
REMARK SMILES IDX 91 35 58 36 42 37 43 38 51 39 44 40 45 41 49 42 52 43 46 44
REMARK SMILES IDX 47 45 50 46 48 47 74 48 75 49 83 50 76 51 77 52 81 53 84 54
REMARK SMILES IDX 78 55 79 56 82 57 80 58 59 59 60 60 68 61 61 62 62 63 66 64
REMARK SMILES IDX 69 65 63 66 64 67 67 68 65 69 5 70 6 71 7 72 8 73 9 74 10 75
REMARK SMILES IDX 31 76 11 77 30 78 12 79 32 80 13 82 14 83 28 84 15 85 16 86
REMARK SMILES IDX 27 87 29 88 17 89 18 90 19 91 26 92 20 93 24 94 25 95 21 96
REMARK SMILES IDX 23 97 22 98
REMARK H PARENT 89 22 57 33 32 81
REMARK Flexibility Score: inf
ROOT
ATOM      1  C   UNL A   1      39.506  19.665  26.063  1.00  0.00     0.275 C 
ENDROOT
BRANCH   1   2
ATOM      2  O   UNL A   1      40.743  19.029  25.700  1.00  0.00    -0.458 OA
BRANCH   2   3
ATOM      3  C   UNL A   1      41.993  19.337  26.121  1.00  0.00     0.338 C 
ATOM      4  O   UNL A   1      42.797  18.442  26.368  1.00  0.00    -0.246 OA
BRANCH   3   5
ATOM      5  C   UNL A   1      42.356  20.727  26.517  1.00  0.00     0.060 A 
ATOM      6  C   UNL A   1      42.712  21.589  25.473  1.00  0.00     0.016 A 
ATOM      7  C   UNL A   1      42.322  21.242  27.816  1.00  0.00     0.016 A 
ATOM      8  C   UNL A   1      43.147  22.889  25.735  1.00  0.00     0.010 A 
ATOM      9  C   UNL A   1      42.751  22.550  28.080  1.00  0.00     0.010 A 
ATOM     10  C   UNL A   1      43.195  23.378  27.046  1.00  0.00    -0.014 A 
BRANCH  10  11
ATOM     11  C   UNL A   1      43.552  24.795  27.300  1.00  0.00     0.031 A 
ATOM     12  C   UNL A   1      42.537  25.831  27.678  1.00  0.00     0.074 A 
ATOM     13  C   UNL A   1      44.843  25.152  27.179  1.00  0.00     0.049 A 
ATOM     14  N   UNL A   1      42.731  27.050  28.121  1.00  0.00    -0.248 NA
ATOM     15  C   UNL A   1      41.125  25.452  27.586  1.00  0.00     0.031 C 
ATOM     16  C   UNL A   1      45.931  24.248  26.807  1.00  0.00     0.029 A 
ATOM     17  N   UNL A   1      45.450  26.369  27.334  1.00  0.00    -0.354 N 
ATOM     18  C   UNL A   1      41.476  27.530  28.472  1.00  0.00     0.074 A 
ATOM     19  C   UNL A   1      40.519  26.505  28.124  1.00  0.00     0.031 C 
ATOM     20  C   UNL A   1      47.074  24.944  26.751  1.00  0.00     0.029 A 
ATOM     21  C   UNL A   1      46.788  26.345  27.040  1.00  0.00     0.049 A 
ATOM     22  H   UNL A   1      44.974  27.179  27.628  1.00  0.00     0.167 HD
ATOM     23  C   UNL A   1      41.159  28.715  29.045  1.00  0.00     0.037 A 
ATOM     24  C   UNL A   1      47.680  27.347  26.973  1.00  0.00     0.037 A 
ATOM     25  C   UNL A   1      42.078  29.815  29.179  1.00  0.00     0.049 A 
ATOM     26  C   UNL A   1      47.244  28.736  27.319  1.00  0.00     0.074 A 
ATOM     27  C   UNL A   1      41.849  31.085  29.678  1.00  0.00     0.029 A 
ATOM     28  N   UNL A   1      43.387  29.795  28.725  1.00  0.00    -0.354 N 
ATOM     29  N   UNL A   1      46.090  29.143  27.789  1.00  0.00    -0.248 NA
ATOM     30  C   UNL A   1      48.229  29.804  27.121  1.00  0.00     0.031 C 
ATOM     31  C   UNL A   1      42.992  31.859  29.436  1.00  0.00     0.029 A 
ATOM     32  C   UNL A   1      43.954  31.054  28.845  1.00  0.00     0.049 A 
ATOM     33  H   UNL A   1      43.849  29.002  28.369  1.00  0.00     0.167 HD
ATOM     34  C   UNL A   1      46.207  30.515  27.950  1.00  0.00     0.074 A 
ATOM     35  C   UNL A   1      47.554  30.866  27.545  1.00  0.00     0.031 C 
ATOM     36  C   UNL A   1      45.280  31.401  28.398  1.00  0.00     0.037 A 
BRANCH  23  37
ATOM     37  C   UNL A   1      39.757  28.880  29.548  1.00  0.00     0.064 A 
ATOM     38  C   UNL A   1      39.443  28.568  30.880  1.00  0.00     0.173 A 
ATOM     39  C   UNL A   1      38.735  29.384  28.734  1.00  0.00     0.173 A 
ATOM     40  F   UNL A   1      40.393  28.086  31.693  1.00  0.00    -0.203 F 
ATOM     41  C   UNL A   1      38.153  28.740  31.375  1.00  0.00     0.198 A 
ATOM     42  C   UNL A   1      37.447  29.567  29.235  1.00  0.00     0.198 A 
ATOM     43  F   UNL A   1      38.984  29.700  27.455  1.00  0.00    -0.203 F 
ATOM     44  F   UNL A   1      37.870  28.418  32.645  1.00  0.00    -0.200 F 
ATOM     45  C   UNL A   1      37.155  29.242  30.552  1.00  0.00     0.200 A 
ATOM     46  F   UNL A   1      36.484  30.056  28.441  1.00  0.00    -0.200 F 
ATOM     47  F   UNL A   1      35.913  29.409  31.026  1.00  0.00    -0.200 F 
ENDBRANCH  23  37
BRANCH  24  48
ATOM     48  C   UNL A   1      49.061  27.031  26.540  1.00  0.00     0.064 A 
ATOM     49  C   UNL A   1      50.000  26.528  27.448  1.00  0.00     0.173 A 
ATOM     50  C   UNL A   1      49.426  27.107  25.186  1.00  0.00     0.173 A 
ATOM     51  F   UNL A   1      49.695  26.453  28.752  1.00  0.00    -0.203 F 
ATOM     52  C   UNL A   1      51.248  26.092  27.013  1.00  0.00     0.198 A 
ATOM     53  C   UNL A   1      50.664  26.648  24.750  1.00  0.00     0.198 A 
ATOM     54  F   UNL A   1      48.553  27.576  24.282  1.00  0.00    -0.203 F 
ATOM     55  F   UNL A   1      52.131  25.611  27.899  1.00  0.00    -0.200 F 
ATOM     56  C   UNL A   1      51.574  26.137  25.664  1.00  0.00     0.200 A 
ATOM     57  F   UNL A   1      50.965  26.674  23.445  1.00  0.00    -0.200 F 
ATOM     58  F   UNL A   1      52.761  25.679  25.244  1.00  0.00    -0.200 F 
ENDBRANCH  24  48
BRANCH  36  59
ATOM     59  C   UNL A   1      45.690  32.841  28.445  1.00  0.00     0.064 A 
ATOM     60  C   UNL A   1      46.365  33.371  29.555  1.00  0.00     0.173 A 
ATOM     61  C   UNL A   1      45.417  33.700  27.371  1.00  0.00     0.173 A 
ATOM     62  F   UNL A   1      46.632  32.594  30.616  1.00  0.00    -0.203 F 
ATOM     63  C   UNL A   1      46.724  34.714  29.600  1.00  0.00     0.198 A 
ATOM     64  C   UNL A   1      45.805  35.036  27.406  1.00  0.00     0.198 A 
ATOM     65  F   UNL A   1      44.777  33.242  26.284  1.00  0.00    -0.203 F 
ATOM     66  F   UNL A   1      47.318  35.211  30.695  1.00  0.00    -0.200 F 
ATOM     67  C   UNL A   1      46.450  35.544  28.524  1.00  0.00     0.200 A 
ATOM     68  F   UNL A   1      45.548  35.835  26.360  1.00  0.00    -0.200 F 
ATOM     69  F   UNL A   1      46.794  36.838  28.569  1.00  0.00    -0.200 F 
ENDBRANCH  36  59
ENDBRANCH  10  11
ENDBRANCH   3   5
ENDBRANCH   2   3
ENDBRANCH   1   2
BRANCH   1  70
ATOM     70  C   UNL A   1      38.407  19.580  25.001  1.00  0.00     0.275 C 
BRANCH  70  71
ATOM     71  O   UNL A   1      37.494  20.691  25.006  1.00  0.00    -0.458 OA
BRANCH  71  72
ATOM     72  C   UNL A   1      36.176  20.354  24.924  1.00  0.00     0.342 C 
ATOM     73  O   UNL A   1      35.711  19.228  24.972  1.00  0.00    -0.246 OA
BRANCH  72  74
ATOM     74  C   UNL A   1      35.355  21.580  24.851  1.00  0.00     0.101 A 
ATOM     75  C   UNL A   1      34.255  21.576  23.983  1.00  0.00     0.022 A 
ATOM     76  C   UNL A   1      35.604  22.714  25.624  1.00  0.00     0.132 A 
ATOM     77  C   UNL A   1      33.360  22.658  23.961  1.00  0.00     0.028 A 
ATOM     78  C   UNL A   1      34.751  23.820  25.548  1.00  0.00     0.073 A 
ATOM     79  C   UNL A   1      33.601  23.796  24.742  1.00  0.00     0.054 A 
BRANCH  76  80
ATOM     80  O   UNL A   1      36.653  22.818  26.498  1.00  0.00    -0.507 OA
ATOM     81  H   UNL A   1      36.651  22.324  27.294  1.00  0.00     0.293 HD
ENDBRANCH  76  80
BRANCH  79  82
ATOM     82  N   UNL A   1      32.692  24.901  24.743  1.00  0.00    -0.261 N 
ATOM     83  C   UNL A   1      32.975  26.060  24.017  1.00  0.00     0.270 C 
ATOM     84  C   UNL A   1      31.517  24.916  25.484  1.00  0.00     0.152 C 
ATOM     85  O   UNL A   1      33.979  26.300  23.358  1.00  0.00    -0.268 OA
ATOM     86  C   UNL A   1      31.869  27.054  24.177  1.00  0.00     0.081 C 
ATOM     87  S   UNL A   1      30.611  26.380  25.129  1.00  0.00    -0.054 SA
ATOM     88  S   UNL A   1      31.002  23.865  26.680  1.00  0.00    -0.051 S 
ATOM     89  C   UNL A   1      31.914  28.294  23.660  1.00  0.00     0.027 C 
BRANCH  89  90
ATOM     90  C   UNL A   1      31.006  29.381  23.969  1.00  0.00    -0.016 C 
ATOM     91  C   UNL A   1      29.937  29.804  23.294  1.00  0.00     0.005 A 
ATOM     92  C   UNL A   1      31.275  30.292  25.140  1.00  0.00     0.179 C 
ATOM     93  C   UNL A   1      29.229  29.404  22.117  1.00  0.00     0.011 A 
ATOM     94  C   UNL A   1      29.506  30.980  24.077  1.00  0.00     0.065 A 
ATOM     95  N   UNL A   1      30.213  31.323  25.110  1.00  0.00    -0.280 NA
ATOM     96  C   UNL A   1      28.143  30.103  21.744  1.00  0.00     0.001 A 
ATOM     97  C   UNL A   1      28.295  31.687  23.613  1.00  0.00     0.028 A 
ATOM     98  C   UNL A   1      27.671  31.248  22.508  1.00  0.00     0.002 A 
ENDBRANCH  89  90
ENDBRANCH  79  82
ENDBRANCH  72  74
ENDBRANCH  71  72
ENDBRANCH  70  71
ENDBRANCH   1  70
TORSDOF 14
ENDMDL
MODEL 3
REMARK VINA RESULT:     -12.9      5.210     10.218
REMARK SMILES O=C(OCCOC(=O)c1ccc(N2C(=O)/C(=C/C3=c4ccccc4=NC3)SC2=S)cc1O)c1ccc(-c2c3nc(c(-c4c(F)c(F)c(F)c(F)c4F)c4ccc([nH]4)c(-c4c(F)c(F)c(F)c(F)c4F)c4nc(c(-c5c(F)c(F)c(F)c(F)c5F)c5ccc2[nH]5)C=C4)C=C3)cc1
REMARK SMILES IDX 4 1 3 2 2 3 1 4 33 5 34 6 95 7 35 8 94 9 36 10 37 11 38 12
REMARK SMILES IDX 88 13 39 14 93 15 87 16 89 17 40 18 92 19 86 20 85 21 41 23
REMARK SMILES IDX 73 24 53 25 72 26 54 27 57 28 71 29 90 30 55 31 56 32 70 34
REMARK SMILES IDX 91 35 58 36 42 37 43 38 51 39 44 40 45 41 49 42 52 43 46 44
REMARK SMILES IDX 47 45 50 46 48 47 74 48 75 49 83 50 76 51 77 52 81 53 84 54
REMARK SMILES IDX 78 55 79 56 82 57 80 58 59 59 60 60 68 61 61 62 62 63 66 64
REMARK SMILES IDX 69 65 63 66 64 67 67 68 65 69 5 70 6 71 7 72 8 73 9 74 10 75
REMARK SMILES IDX 31 76 11 77 30 78 12 79 32 80 13 82 14 83 28 84 15 85 16 86
REMARK SMILES IDX 27 87 29 88 17 89 18 90 19 91 26 92 20 93 24 94 25 95 21 96
REMARK SMILES IDX 23 97 22 98
REMARK H PARENT 89 22 57 33 32 81
REMARK Flexibility Score: inf
ROOT
ATOM      1  C   UNL A   1      39.304  19.743  25.985  1.00  0.00     0.275 C 
ENDROOT
BRANCH   1   2
ATOM      2  O   UNL A   1      40.515  19.006  25.748  1.00  0.00    -0.458 OA
BRANCH   2   3
ATOM      3  C   UNL A   1      41.768  19.305  26.166  1.00  0.00     0.338 C 
ATOM      4  O   UNL A   1      42.569  18.405  26.402  1.00  0.00    -0.246 OA
BRANCH   3   5
ATOM      5  C   UNL A   1      42.138  20.690  26.572  1.00  0.00     0.060 A 
ATOM      6  C   UNL A   1      42.337  21.603  25.529  1.00  0.00     0.016 A 
ATOM      7  C   UNL A   1      42.250  21.155  27.885  1.00  0.00     0.016 A 
ATOM      8  C   UNL A   1      42.765  22.905  25.789  1.00  0.00     0.010 A 
ATOM      9  C   UNL A   1      42.672  22.466  28.148  1.00  0.00     0.010 A 
ATOM     10  C   UNL A   1      42.961  23.346  27.103  1.00  0.00    -0.014 A 
BRANCH  10  11
ATOM     11  C   UNL A   1      43.307  24.764  27.370  1.00  0.00     0.031 A 
ATOM     12  C   UNL A   1      44.695  25.303  27.204  1.00  0.00     0.074 A 
ATOM     13  C   UNL A   1      42.326  25.586  27.782  1.00  0.00     0.049 A 
ATOM     14  N   UNL A   1      45.099  26.550  27.207  1.00  0.00    -0.248 NA
ATOM     15  C   UNL A   1      45.768  24.334  26.967  1.00  0.00     0.031 C 
ATOM     16  C   UNL A   1      40.935  25.190  27.996  1.00  0.00     0.029 A 
ATOM     17  N   UNL A   1      42.356  26.914  28.113  1.00  0.00    -0.354 N 
ATOM     18  C   UNL A   1      46.442  26.516  26.853  1.00  0.00     0.074 A 
ATOM     19  C   UNL A   1      46.806  25.124  26.714  1.00  0.00     0.031 C 
ATOM     20  C   UNL A   1      40.243  26.250  28.434  1.00  0.00     0.029 A 
ATOM     21  C   UNL A   1      41.153  27.382  28.571  1.00  0.00     0.049 A 
ATOM     22  H   UNL A   1      43.160  27.476  28.030  1.00  0.00     0.167 HD
ATOM     23  C   UNL A   1      47.285  27.555  26.651  1.00  0.00     0.037 A 
ATOM     24  C   UNL A   1      40.826  28.581  29.083  1.00  0.00     0.037 A 
ATOM     25  C   UNL A   1      46.985  28.916  27.009  1.00  0.00     0.049 A 
ATOM     26  C   UNL A   1      41.864  29.657  29.141  1.00  0.00     0.074 A 
ATOM     27  C   UNL A   1      47.788  30.039  26.916  1.00  0.00     0.029 A 
ATOM     28  N   UNL A   1      45.805  29.320  27.614  1.00  0.00    -0.354 N 
ATOM     29  N   UNL A   1      43.086  29.648  28.667  1.00  0.00    -0.248 NA
ATOM     30  C   UNL A   1      41.483  30.905  29.809  1.00  0.00     0.031 C 
ATOM     31  C   UNL A   1      47.128  31.099  27.553  1.00  0.00     0.029 A 
ATOM     32  C   UNL A   1      45.890  30.652  27.986  1.00  0.00     0.049 A 
ATOM     33  H   UNL A   1      45.019  28.744  27.759  1.00  0.00     0.167 HD
ATOM     34  C   UNL A   1      43.623  30.889  28.972  1.00  0.00     0.074 A 
ATOM     35  C   UNL A   1      42.582  31.633  29.656  1.00  0.00     0.031 C 
ATOM     36  C   UNL A   1      44.865  31.368  28.704  1.00  0.00     0.037 A 
BRANCH  23  37
ATOM     37  C   UNL A   1      48.616  27.248  26.033  1.00  0.00     0.064 A 
ATOM     38  C   UNL A   1      48.766  27.256  24.637  1.00  0.00     0.173 A 
ATOM     39  C   UNL A   1      49.749  26.988  26.812  1.00  0.00     0.173 A 
ATOM     40  F   UNL A   1      47.705  27.504  23.855  1.00  0.00    -0.203 F 
ATOM     41  C   UNL A   1      49.999  27.001  24.044  1.00  0.00     0.198 A 
ATOM     42  C   UNL A   1      50.986  26.744  26.216  1.00  0.00     0.198 A 
ATOM     43  F   UNL A   1      49.660  26.971  28.150  1.00  0.00    -0.203 F 
ATOM     44  F   UNL A   1      50.115  26.995  22.708  1.00  0.00    -0.200 F 
ATOM     45  C   UNL A   1      51.110  26.747  24.834  1.00  0.00     0.200 A 
ATOM     46  F   UNL A   1      52.060  26.503  26.980  1.00  0.00    -0.200 F 
ATOM     47  F   UNL A   1      52.298  26.501  24.265  1.00  0.00    -0.200 F 
ENDBRANCH  23  37
BRANCH  24  48
ATOM     48  C   UNL A   1      39.446  28.778  29.583  1.00  0.00     0.064 A 
ATOM     49  C   UNL A   1      39.113  28.476  30.908  1.00  0.00     0.173 A 
ATOM     50  C   UNL A   1      38.470  29.390  28.779  1.00  0.00     0.173 A 
ATOM     51  F   UNL A   1      40.013  27.879  31.704  1.00  0.00    -0.203 F 
ATOM     52  C   UNL A   1      37.859  28.800  31.419  1.00  0.00     0.198 A 
ATOM     53  C   UNL A   1      37.226  29.734  29.298  1.00  0.00     0.198 A 
ATOM     54  F   UNL A   1      38.750  29.702  27.505  1.00  0.00    -0.203 F 
ATOM     55  F   UNL A   1      37.563  28.505  32.692  1.00  0.00    -0.200 F 
ATOM     56  C   UNL A   1      36.923  29.442  30.620  1.00  0.00     0.200 A 
ATOM     57  F   UNL A   1      36.335  30.373  28.529  1.00  0.00    -0.200 F 
ATOM     58  F   UNL A   1      35.732  29.789  31.126  1.00  0.00    -0.200 F 
ENDBRANCH  24  48
BRANCH  36  59
ATOM     59  C   UNL A   1      45.171  32.756  29.180  1.00  0.00     0.064 A 
ATOM     60  C   UNL A   1      44.850  33.879  28.403  1.00  0.00     0.173 A 
ATOM     61  C   UNL A   1      45.779  32.969  30.425  1.00  0.00     0.173 A 
ATOM     62  F   UNL A   1      44.284  33.726  27.197  1.00  0.00    -0.203 F 
ATOM     63  C   UNL A   1      45.156  35.164  28.843  1.00  0.00     0.198 A 
ATOM     64  C   UNL A   1      46.056  34.257  30.876  1.00  0.00     0.198 A 
ATOM     65  F   UNL A   1      46.103  31.928  31.208  1.00  0.00    -0.203 F 
ATOM     66  F   UNL A   1      44.892  36.219  28.059  1.00  0.00    -0.200 F 
ATOM     67  C   UNL A   1      45.753  35.352  30.080  1.00  0.00     0.200 A 
ATOM     68  F   UNL A   1      46.624  34.437  32.076  1.00  0.00    -0.200 F 
ATOM     69  F   UNL A   1      46.049  36.589  30.502  1.00  0.00    -0.200 F 
ENDBRANCH  36  59
ENDBRANCH  10  11
ENDBRANCH   3   5
ENDBRANCH   2   3
ENDBRANCH   1   2
BRANCH   1  70
ATOM     70  C   UNL A   1      38.154  19.407  25.032  1.00  0.00     0.275 C 
BRANCH  70  71
ATOM     71  O   UNL A   1      37.272  20.510  24.760  1.00  0.00    -0.458 OA
BRANCH  71  72
ATOM     72  C   UNL A   1      35.943  20.213  24.819  1.00  0.00     0.342 C 
ATOM     73  O   UNL A   1      35.453  19.107  24.967  1.00  0.00    -0.246 OA
BRANCH  72  74
ATOM     74  C   UNL A   1      35.154  21.461  24.761  1.00  0.00     0.101 A 
ATOM     75  C   UNL A   1      34.080  21.511  23.862  1.00  0.00     0.022 A 
ATOM     76  C   UNL A   1      35.407  22.564  25.577  1.00  0.00     0.132 A 
ATOM     77  C   UNL A   1      33.212  22.615  23.849  1.00  0.00     0.028 A 
ATOM     78  C   UNL A   1      34.583  23.693  25.511  1.00  0.00     0.073 A 
ATOM     79  C   UNL A   1      33.457  23.722  24.672  1.00  0.00     0.054 A 
BRANCH  76  80
ATOM     80  O   UNL A   1      36.432  22.615  26.483  1.00  0.00    -0.507 OA
ATOM     81  H   UNL A   1      36.246  22.674  27.400  1.00  0.00     0.293 HD
ENDBRANCH  76  80
BRANCH  79  82
ATOM     82  N   UNL A   1      32.575  24.848  24.682  1.00  0.00    -0.261 N 
ATOM     83  C   UNL A   1      32.927  26.037  24.040  1.00  0.00     0.270 C 
ATOM     84  C   UNL A   1      31.359  24.854  25.353  1.00  0.00     0.152 C 
ATOM     85  O   UNL A   1      33.974  26.287  23.455  1.00  0.00    -0.268 OA
ATOM     86  C   UNL A   1      31.837  27.050  24.190  1.00  0.00     0.081 C 
ATOM     87  S   UNL A   1      30.509  26.357  25.029  1.00  0.00    -0.054 SA
ATOM     88  S   UNL A   1      30.749  23.752  26.456  1.00  0.00    -0.051 S 
ATOM     89  C   UNL A   1      31.941  28.315  23.747  1.00  0.00     0.027 C 
BRANCH  89  90
ATOM     90  C   UNL A   1      31.040  29.406  24.063  1.00  0.00    -0.016 C 
ATOM     91  C   UNL A   1      29.931  29.794  23.433  1.00  0.00     0.005 A 
ATOM     92  C   UNL A   1      31.366  30.366  25.179  1.00  0.00     0.179 C 
ATOM     93  C   UNL A   1      29.163  29.340  22.315  1.00  0.00     0.011 A 
ATOM     94  C   UNL A   1      29.533  30.997  24.192  1.00  0.00     0.065 A 
ATOM     95  N   UNL A   1      30.293  31.387  25.169  1.00  0.00    -0.280 NA
ATOM     96  C   UNL A   1      28.051  30.016  21.976  1.00  0.00     0.001 A 
ATOM     97  C   UNL A   1      28.291  31.676  23.768  1.00  0.00     0.028 A 
ATOM     98  C   UNL A   1      27.611  31.187  22.719  1.00  0.00     0.002 A 
ENDBRANCH  89  90
ENDBRANCH  79  82
ENDBRANCH  72  74
ENDBRANCH  71  72
ENDBRANCH  70  71
ENDBRANCH   1  70
TORSDOF 14
ENDMDL
