MODEL 1
REMARK VINA RESULT:     -10.8      0.000      0.000
REMARK SMILES O=C(C[C@@H]1[NH2+]CCc2c(Br)cccc21)OCCOC(=O)c1ccc(-c2c3nc(c(-c4c(F)c(F)c(F)c(F)c4F)c4ccc([nH]4)c(-c4c(F)c(F)c(F)c(F)c4F)c4nc(c(-c5c(F)c(F)c(F)c(F)c5F)c5ccc2[nH]5)C=C4)C=C3)cc1
REMARK SMILES IDX 17 1 16 2 15 3 2 4 1 5 3 6 4 7 5 8 14 9 6 10 8 13 13 14 7 15
REMARK SMILES IDX 9 16 12 17 10 18 11 19 18 20 19 21 20 22 21 23 22 24 83 25
REMARK SMILES IDX 23 26 82 27 24 28 25 29 26 30 76 31 27 32 81 33 75 34 77 35
REMARK SMILES IDX 28 36 80 37 74 38 73 39 29 41 61 42 41 43 60 44 42 45 45 46
REMARK SMILES IDX 59 47 78 48 43 49 44 50 58 52 79 53 46 54 30 55 31 56 39 57
REMARK SMILES IDX 32 58 33 59 37 60 40 61 34 62 35 63 38 64 36 65 62 66 63 67
REMARK SMILES IDX 71 68 64 69 65 70 69 71 72 72 66 73 67 74 70 75 68 76 47 77
REMARK SMILES IDX 48 78 56 79 49 80 50 81 54 82 57 83 51 84 52 85 55 86 53 87
REMARK H PARENT 5 11 5 12 77 40 45 51
REMARK Flexibility Score: inf
ROOT
ATOM      1  C   UNL A   1      32.935  33.854  27.996  1.00  0.00     0.275 C 
ENDROOT
BRANCH   1   2
ATOM      2  C   UNL A   1      33.239  35.102  28.837  1.00  0.00     0.274 C 
BRANCH   2   3
ATOM      3  O   UNL A   1      32.874  34.961  30.226  1.00  0.00    -0.462 OA
BRANCH   3   4
ATOM      4  C   UNL A   1      33.050  35.939  31.154  1.00  0.00     0.312 C 
ATOM      5  O   UNL A   1      32.770  37.106  30.888  1.00  0.00    -0.252 OA
BRANCH   4   6
ATOM      6  C   UNL A   1      33.758  35.582  32.441  1.00  0.00     0.192 C 
BRANCH   6   7
ATOM      7  C   UNL A   1      34.531  34.258  32.515  1.00  0.00     0.225 C 
ATOM      8  N   UNL A   1      34.389  33.624  33.846  1.00  0.00    -0.339 N 
ATOM      9  C   UNL A   1      35.976  34.324  32.084  1.00  0.00     0.014 A 
ATOM     10  C   UNL A   1      35.209  34.289  34.858  1.00  0.00     0.265 C 
ATOM     11  H   UNL A   1      34.674  32.648  33.778  1.00  0.00     0.346 HD
ATOM     12  H   UNL A   1      33.412  33.705  34.130  1.00  0.00     0.346 HD
ATOM     13  C   UNL A   1      37.015  34.460  33.024  1.00  0.00    -0.019 A 
ATOM     14  C   UNL A   1      36.274  34.263  30.711  1.00  0.00     0.010 A 
ATOM     15  C   UNL A   1      36.703  34.348  34.500  1.00  0.00     0.098 C 
ATOM     16  C   UNL A   1      38.331  34.601  32.550  1.00  0.00     0.021 A 
ATOM     17  C   UNL A   1      37.584  34.379  30.261  1.00  0.00     0.002 A 
ATOM     18  Br  UNL A   1      39.804  34.847  33.726  1.00  0.00    -0.051 Br
ATOM     19  C   UNL A   1      38.610  34.566  31.180  1.00  0.00     0.016 A 
ENDBRANCH   6   7
ENDBRANCH   4   6
ENDBRANCH   3   4
ENDBRANCH   2   3
ENDBRANCH   1   2
BRANCH   1  20
ATOM     20  O   UNL A   1      34.145  33.160  27.649  1.00  0.00    -0.458 OA
BRANCH  20  21
ATOM     21  C   UNL A   1      34.028  31.808  27.645  1.00  0.00     0.338 C 
ATOM     22  O   UNL A   1      33.108  31.152  27.190  1.00  0.00    -0.246 OA
BRANCH  21  23
ATOM     23  C   UNL A   1      35.303  31.207  28.087  1.00  0.00     0.060 A 
ATOM     24  C   UNL A   1      35.244  29.926  28.651  1.00  0.00     0.016 A 
ATOM     25  C   UNL A   1      36.528  31.871  27.964  1.00  0.00     0.016 A 
ATOM     26  C   UNL A   1      36.399  29.327  29.148  1.00  0.00     0.010 A 
ATOM     27  C   UNL A   1      37.685  31.278  28.487  1.00  0.00     0.010 A 
ATOM     28  C   UNL A   1      37.614  30.026  29.121  1.00  0.00    -0.014 A 
BRANCH  28  29
ATOM     29  C   UNL A   1      38.716  29.565  30.001  1.00  0.00     0.031 A 
ATOM     30  C   UNL A   1      39.697  28.577  29.425  1.00  0.00     0.074 A 
ATOM     31  C   UNL A   1      38.897  30.049  31.242  1.00  0.00     0.049 A 
ATOM     32  N   UNL A   1      40.771  28.057  29.963  1.00  0.00    -0.248 NA
ATOM     33  C   UNL A   1      39.438  28.127  28.046  1.00  0.00     0.031 C 
ATOM     34  C   UNL A   1      38.064  31.056  31.891  1.00  0.00     0.029 A 
ATOM     35  N   UNL A   1      39.864  29.756  32.173  1.00  0.00    -0.354 N 
ATOM     36  C   UNL A   1      41.333  27.258  28.977  1.00  0.00     0.074 A 
ATOM     37  C   UNL A   1      40.461  27.317  27.826  1.00  0.00     0.031 C 
ATOM     38  C   UNL A   1      38.559  31.304  33.119  1.00  0.00     0.029 A 
ATOM     39  C   UNL A   1      39.731  30.458  33.346  1.00  0.00     0.049 A 
ATOM     40  H   UNL A   1      40.585  29.105  32.014  1.00  0.00     0.167 HD
ATOM     41  C   UNL A   1      42.485  26.551  29.017  1.00  0.00     0.037 A 
ATOM     42  C   UNL A   1      40.472  30.413  34.471  1.00  0.00     0.037 A 
ATOM     43  C   UNL A   1      43.334  26.444  30.171  1.00  0.00     0.049 A 
ATOM     44  C   UNL A   1      41.665  29.490  34.542  1.00  0.00     0.074 A 
ATOM     45  C   UNL A   1      44.491  25.701  30.324  1.00  0.00     0.029 A 
ATOM     46  N   UNL A   1      43.110  27.096  31.372  1.00  0.00    -0.354 N 
ATOM     47  N   UNL A   1      42.190  28.736  33.607  1.00  0.00    -0.248 NA
ATOM     48  C   UNL A   1      42.366  29.411  35.834  1.00  0.00     0.031 C 
ATOM     49  C   UNL A   1      44.946  25.872  31.635  1.00  0.00     0.029 A 
ATOM     50  C   UNL A   1      44.097  26.756  32.281  1.00  0.00     0.049 A 
ATOM     51  H   UNL A   1      42.361  27.708  31.554  1.00  0.00     0.167 HD
ATOM     52  C   UNL A   1      43.298  28.126  34.183  1.00  0.00     0.074 A 
ATOM     53  C   UNL A   1      43.376  28.600  35.548  1.00  0.00     0.031 C 
ATOM     54  C   UNL A   1      44.172  27.250  33.631  1.00  0.00     0.037 A 
BRANCH  41  55
ATOM     55  C   UNL A   1      42.889  25.828  27.770  1.00  0.00     0.064 A 
ATOM     56  C   UNL A   1      43.782  26.408  26.857  1.00  0.00     0.173 A 
ATOM     57  C   UNL A   1      42.417  24.535  27.506  1.00  0.00     0.173 A 
ATOM     58  F   UNL A   1      44.242  27.652  27.059  1.00  0.00    -0.203 F 
ATOM     59  C   UNL A   1      44.183  25.719  25.716  1.00  0.00     0.198 A 
ATOM     60  C   UNL A   1      42.838  23.841  26.375  1.00  0.00     0.198 A 
ATOM     61  F   UNL A   1      41.558  23.943  28.348  1.00  0.00    -0.203 F 
ATOM     62  F   UNL A   1      45.015  26.301  24.841  1.00  0.00    -0.200 F 
ATOM     63  C   UNL A   1      43.718  24.434  25.481  1.00  0.00     0.200 A 
ATOM     64  F   UNL A   1      42.393  22.598  26.150  1.00  0.00    -0.200 F 
ATOM     65  F   UNL A   1      44.114  23.766  24.388  1.00  0.00    -0.200 F 
ENDBRANCH  41  55
BRANCH  42  66
ATOM     66  C   UNL A   1      40.125  31.265  35.639  1.00  0.00     0.064 A 
ATOM     67  C   UNL A   1      38.945  31.045  36.364  1.00  0.00     0.173 A 
ATOM     68  C   UNL A   1      40.930  32.349  36.015  1.00  0.00     0.173 A 
ATOM     69  F   UNL A   1      38.126  30.041  36.020  1.00  0.00    -0.203 F 
ATOM     70  C   UNL A   1      38.574  31.889  37.409  1.00  0.00     0.198 A 
ATOM     71  C   UNL A   1      40.570  33.178  37.077  1.00  0.00     0.198 A 
ATOM     72  F   UNL A   1      42.062  32.611  35.346  1.00  0.00    -0.203 F 
ATOM     73  F   UNL A   1      37.415  31.688  38.051  1.00  0.00    -0.200 F 
ATOM     74  C   UNL A   1      39.388  32.953  37.767  1.00  0.00     0.200 A 
ATOM     75  F   UNL A   1      41.360  34.204  37.420  1.00  0.00    -0.200 F 
ATOM     76  F   UNL A   1      39.027  33.770  38.765  1.00  0.00    -0.200 F 
ENDBRANCH  42  66
BRANCH  54  77
ATOM     77  C   UNL A   1      45.312  26.767  34.480  1.00  0.00     0.064 A 
ATOM     78  C   UNL A   1      46.506  27.493  34.587  1.00  0.00     0.173 A 
ATOM     79  C   UNL A   1      45.177  25.604  35.255  1.00  0.00     0.173 A 
ATOM     80  F   UNL A   1      46.687  28.606  33.860  1.00  0.00    -0.203 F 
ATOM     81  C   UNL A   1      47.530  27.065  35.428  1.00  0.00     0.198 A 
ATOM     82  C   UNL A   1      46.192  25.195  36.114  1.00  0.00     0.198 A 
ATOM     83  F   UNL A   1      44.050  24.879  35.197  1.00  0.00    -0.203 F 
ATOM     84  F   UNL A   1      48.677  27.756  35.490  1.00  0.00    -0.200 F 
ATOM     85  C   UNL A   1      47.369  25.922  36.197  1.00  0.00     0.200 A 
ATOM     86  F   UNL A   1      46.028  24.099  36.869  1.00  0.00    -0.200 F 
ATOM     87  F   UNL A   1      48.352  25.520  37.016  1.00  0.00    -0.200 F 
ENDBRANCH  54  77
ENDBRANCH  28  29
ENDBRANCH  21  23
ENDBRANCH  20  21
ENDBRANCH   1  20
TORSDOF 12
ENDMDL
MODEL 2
REMARK VINA RESULT:     -10.8      3.256      9.172
REMARK SMILES O=C(C[C@@H]1[NH2+]CCc2c(Br)cccc21)OCCOC(=O)c1ccc(-c2c3nc(c(-c4c(F)c(F)c(F)c(F)c4F)c4ccc([nH]4)c(-c4c(F)c(F)c(F)c(F)c4F)c4nc(c(-c5c(F)c(F)c(F)c(F)c5F)c5ccc2[nH]5)C=C4)C=C3)cc1
REMARK SMILES IDX 17 1 16 2 15 3 2 4 1 5 3 6 4 7 5 8 14 9 6 10 8 13 13 14 7 15
REMARK SMILES IDX 9 16 12 17 10 18 11 19 18 20 19 21 20 22 21 23 22 24 83 25
REMARK SMILES IDX 23 26 82 27 24 28 25 29 26 30 76 31 27 32 81 33 75 34 77 35
REMARK SMILES IDX 28 36 80 37 74 38 73 39 29 41 61 42 41 43 60 44 42 45 45 46
REMARK SMILES IDX 59 47 78 48 43 49 44 50 58 52 79 53 46 54 30 55 31 56 39 57
REMARK SMILES IDX 32 58 33 59 37 60 40 61 34 62 35 63 38 64 36 65 62 66 63 67
REMARK SMILES IDX 71 68 64 69 65 70 69 71 72 72 66 73 67 74 70 75 68 76 47 77
REMARK SMILES IDX 48 78 56 79 49 80 50 81 54 82 57 83 51 84 52 85 55 86 53 87
REMARK H PARENT 5 11 5 12 77 40 45 51
REMARK Flexibility Score: inf
ROOT
ATOM      1  C   UNL A   1      32.042  33.299  26.897  1.00  0.00     0.275 C 
ENDROOT
BRANCH   1   2
ATOM      2  C   UNL A   1      31.393  31.947  26.574  1.00  0.00     0.274 C 
BRANCH   2   3
ATOM      3  O   UNL A   1      32.259  30.820  26.821  1.00  0.00    -0.462 OA
BRANCH   3   4
ATOM      4  C   UNL A   1      31.945  29.541  26.484  1.00  0.00     0.312 C 
ATOM      5  O   UNL A   1      31.579  28.742  27.343  1.00  0.00    -0.252 OA
BRANCH   4   6
ATOM      6  C   UNL A   1      32.229  29.086  25.069  1.00  0.00     0.192 C 
BRANCH   6   7
ATOM      7  C   UNL A   1      33.590  28.448  24.758  1.00  0.00     0.225 C 
ATOM      8  N   UNL A   1      34.176  29.007  23.518  1.00  0.00    -0.339 N 
ATOM      9  C   UNL A   1      33.613  26.939  24.752  1.00  0.00     0.014 A 
ATOM     10  C   UNL A   1      33.528  28.476  22.320  1.00  0.00     0.265 C 
ATOM     11  H   UNL A   1      35.168  28.773  23.488  1.00  0.00     0.346 HD
ATOM     12  H   UNL A   1      34.035  30.018  23.531  1.00  0.00     0.346 HD
ATOM     13  C   UNL A   1      33.506  26.210  23.552  1.00  0.00    -0.019 A 
ATOM     14  C   UNL A   1      33.730  26.261  25.978  1.00  0.00     0.010 A 
ATOM     15  C   UNL A   1      33.558  26.942  22.229  1.00  0.00     0.098 C 
ATOM     16  C   UNL A   1      33.449  24.807  23.625  1.00  0.00     0.021 A 
ATOM     17  C   UNL A   1      33.697  24.872  26.030  1.00  0.00     0.002 A 
ATOM     18  Br  UNL A   1      33.249  23.726  22.075  1.00  0.00    -0.051 Br
ATOM     19  C   UNL A   1      33.539  24.147  24.855  1.00  0.00     0.016 A 
ENDBRANCH   6   7
ENDBRANCH   4   6
ENDBRANCH   3   4
ENDBRANCH   2   3
ENDBRANCH   1   2
BRANCH   1  20
ATOM     20  O   UNL A   1      32.588  33.304  28.227  1.00  0.00    -0.458 OA
BRANCH  20  21
ATOM     21  C   UNL A   1      33.640  34.145  28.392  1.00  0.00     0.338 C 
ATOM     22  O   UNL A   1      33.598  35.354  28.540  1.00  0.00    -0.246 OA
BRANCH  21  23
ATOM     23  C   UNL A   1      34.870  33.352  28.591  1.00  0.00     0.060 A 
ATOM     24  C   UNL A   1      34.713  32.019  28.993  1.00  0.00     0.016 A 
ATOM     25  C   UNL A   1      36.148  33.888  28.400  1.00  0.00     0.016 A 
ATOM     26  C   UNL A   1      35.832  31.234  29.261  1.00  0.00     0.010 A 
ATOM     27  C   UNL A   1      37.272  33.106  28.695  1.00  0.00     0.010 A 
ATOM     28  C   UNL A   1      37.115  31.792  29.171  1.00  0.00    -0.014 A 
BRANCH  28  29
ATOM     29  C   UNL A   1      38.240  31.095  29.840  1.00  0.00     0.031 A 
ATOM     30  C   UNL A   1      38.520  31.449  31.278  1.00  0.00     0.074 A 
ATOM     31  C   UNL A   1      38.952  30.130  29.233  1.00  0.00     0.049 A 
ATOM     32  N   UNL A   1      39.408  30.953  32.101  1.00  0.00    -0.248 NA
ATOM     33  C   UNL A   1      37.668  32.494  31.871  1.00  0.00     0.031 C 
ATOM     34  C   UNL A   1      38.740  29.647  27.872  1.00  0.00     0.029 A 
ATOM     35  N   UNL A   1      39.999  29.374  29.702  1.00  0.00    -0.354 N 
ATOM     36  C   UNL A   1      39.192  31.594  33.313  1.00  0.00     0.074 A 
ATOM     37  C   UNL A   1      38.126  32.549  33.111  1.00  0.00     0.031 C 
ATOM     38  C   UNL A   1      39.628  28.666  27.616  1.00  0.00     0.029 A 
ATOM     39  C   UNL A   1      40.482  28.471  28.788  1.00  0.00     0.049 A 
ATOM     40  H   UNL A   1      40.367  29.470  30.610  1.00  0.00     0.167 HD
ATOM     41  C   UNL A   1      39.812  31.393  34.498  1.00  0.00     0.037 A 
ATOM     42  C   UNL A   1      41.500  27.594  28.892  1.00  0.00     0.037 A 
ATOM     43  C   UNL A   1      40.905  30.483  34.699  1.00  0.00     0.049 A 
ATOM     44  C   UNL A   1      42.280  27.505  30.182  1.00  0.00     0.074 A 
ATOM     45  C   UNL A   1      41.636  30.256  35.852  1.00  0.00     0.029 A 
ATOM     46  N   UNL A   1      41.427  29.656  33.720  1.00  0.00    -0.354 N 
ATOM     47  N   UNL A   1      42.070  28.114  31.324  1.00  0.00    -0.248 NA
ATOM     48  C   UNL A   1      43.444  26.604  30.193  1.00  0.00     0.031 C 
ATOM     49  C   UNL A   1      42.630  29.318  35.557  1.00  0.00     0.029 A 
ATOM     50  C   UNL A   1      42.487  28.929  34.236  1.00  0.00     0.049 A 
ATOM     51  H   UNL A   1      41.096  29.593  32.795  1.00  0.00     0.167 HD
ATOM     52  C   UNL A   1      43.048  27.645  32.193  1.00  0.00     0.074 A 
ATOM     53  C   UNL A   1      43.849  26.695  31.452  1.00  0.00     0.031 C 
ATOM     54  C   UNL A   1      43.264  27.974  33.490  1.00  0.00     0.037 A 
BRANCH  41  55
ATOM     55  C   UNL A   1      39.321  32.183  35.670  1.00  0.00     0.064 A 
ATOM     56  C   UNL A   1      38.407  31.633  36.581  1.00  0.00     0.173 A 
ATOM     57  C   UNL A   1      39.798  33.480  35.912  1.00  0.00     0.173 A 
ATOM     58  F   UNL A   1      37.908  30.404  36.378  1.00  0.00    -0.203 F 
ATOM     59  C   UNL A   1      37.980  32.358  37.689  1.00  0.00     0.198 A 
ATOM     60  C   UNL A   1      39.386  34.192  37.034  1.00  0.00     0.198 A 
ATOM     61  F   UNL A   1      40.669  34.048  35.066  1.00  0.00    -0.203 F 
ATOM     62  F   UNL A   1      37.084  31.825  38.532  1.00  0.00    -0.200 F 
ATOM     63  C   UNL A   1      38.476  33.632  37.919  1.00  0.00     0.200 A 
ATOM     64  F   UNL A   1      39.868  35.421  37.258  1.00  0.00    -0.200 F 
ATOM     65  F   UNL A   1      38.074  34.325  38.995  1.00  0.00    -0.200 F 
ENDBRANCH  41  55
BRANCH  42  66
ATOM     66  C   UNL A   1      41.858  26.714  27.748  1.00  0.00     0.064 A 
ATOM     67  C   UNL A   1      41.252  25.459  27.589  1.00  0.00     0.173 A 
ATOM     68  C   UNL A   1      42.850  27.080  26.829  1.00  0.00     0.173 A 
ATOM     69  F   UNL A   1      40.321  25.051  28.464  1.00  0.00    -0.203 F 
ATOM     70  C   UNL A   1      41.639  24.596  26.566  1.00  0.00     0.198 A 
ATOM     71  C   UNL A   1      43.220  26.226  25.790  1.00  0.00     0.198 A 
ATOM     72  F   UNL A   1      43.470  28.264  26.943  1.00  0.00    -0.203 F 
ATOM     73  F   UNL A   1      41.081  23.382  26.470  1.00  0.00    -0.200 F 
ATOM     74  C   UNL A   1      42.621  24.982  25.665  1.00  0.00     0.200 A 
ATOM     75  F   UNL A   1      44.168  26.603  24.921  1.00  0.00    -0.200 F 
ATOM     76  F   UNL A   1      43.000  24.149  24.688  1.00  0.00    -0.200 F 
ENDBRANCH  42  66
BRANCH  54  77
ATOM     77  C   UNL A   1      44.384  27.282  34.212  1.00  0.00     0.064 A 
ATOM     78  C   UNL A   1      45.661  27.853  34.302  1.00  0.00     0.173 A 
ATOM     79  C   UNL A   1      44.155  26.072  34.886  1.00  0.00     0.173 A 
ATOM     80  F   UNL A   1      45.933  29.003  33.668  1.00  0.00    -0.203 F 
ATOM     81  C   UNL A   1      46.673  27.230  35.029  1.00  0.00     0.198 A 
ATOM     82  C   UNL A   1      45.160  25.467  35.633  1.00  0.00     0.198 A 
ATOM     83  F   UNL A   1      42.946  25.491  34.839  1.00  0.00    -0.203 F 
ATOM     84  F   UNL A   1      47.896  27.775  35.074  1.00  0.00    -0.200 F 
ATOM     85  C   UNL A   1      46.419  26.043  35.700  1.00  0.00     0.200 A 
ATOM     86  F   UNL A   1      44.909  24.328  36.294  1.00  0.00    -0.200 F 
ATOM     87  F   UNL A   1      47.391  25.453  36.410  1.00  0.00    -0.200 F 
ENDBRANCH  54  77
ENDBRANCH  28  29
ENDBRANCH  21  23
ENDBRANCH  20  21
ENDBRANCH   1  20
TORSDOF 12
ENDMDL
MODEL 3
REMARK VINA RESULT:     -10.6      2.238      7.795
REMARK SMILES O=C(C[C@@H]1[NH2+]CCc2c(Br)cccc21)OCCOC(=O)c1ccc(-c2c3nc(c(-c4c(F)c(F)c(F)c(F)c4F)c4ccc([nH]4)c(-c4c(F)c(F)c(F)c(F)c4F)c4nc(c(-c5c(F)c(F)c(F)c(F)c5F)c5ccc2[nH]5)C=C4)C=C3)cc1
REMARK SMILES IDX 17 1 16 2 15 3 2 4 1 5 3 6 4 7 5 8 14 9 6 10 8 13 13 14 7 15
REMARK SMILES IDX 9 16 12 17 10 18 11 19 18 20 19 21 20 22 21 23 22 24 83 25
REMARK SMILES IDX 23 26 82 27 24 28 25 29 26 30 76 31 27 32 81 33 75 34 77 35
REMARK SMILES IDX 28 36 80 37 74 38 73 39 29 41 61 42 41 43 60 44 42 45 45 46
REMARK SMILES IDX 59 47 78 48 43 49 44 50 58 52 79 53 46 54 30 55 31 56 39 57
REMARK SMILES IDX 32 58 33 59 37 60 40 61 34 62 35 63 38 64 36 65 62 66 63 67
REMARK SMILES IDX 71 68 64 69 65 70 69 71 72 72 66 73 67 74 70 75 68 76 47 77
REMARK SMILES IDX 48 78 56 79 49 80 50 81 54 82 57 83 51 84 52 85 55 86 53 87
REMARK H PARENT 5 11 5 12 77 40 45 51
REMARK Flexibility Score: inf
ROOT
ATOM      1  C   UNL A   1      34.570  33.486  28.029  1.00  0.00     0.275 C 
ENDROOT
BRANCH   1   2
ATOM      2  C   UNL A   1      33.295  34.322  28.191  1.00  0.00     0.274 C 
BRANCH   2   3
ATOM      3  O   UNL A   1      32.850  34.432  29.560  1.00  0.00    -0.462 OA
BRANCH   3   4
ATOM      4  C   UNL A   1      33.137  35.492  30.362  1.00  0.00     0.312 C 
ATOM      5  O   UNL A   1      32.456  36.513  30.312  1.00  0.00    -0.252 OA
BRANCH   4   6
ATOM      6  C   UNL A   1      34.411  35.445  31.176  1.00  0.00     0.192 C 
BRANCH   6   7
ATOM      7  C   UNL A   1      35.097  34.089  31.395  1.00  0.00     0.225 C 
ATOM      8  N   UNL A   1      34.183  33.121  32.044  1.00  0.00    -0.339 N 
ATOM      9  C   UNL A   1      36.434  34.143  32.093  1.00  0.00     0.014 A 
ATOM     10  C   UNL A   1      34.020  33.395  33.471  1.00  0.00     0.265 C 
ATOM     11  H   UNL A   1      34.562  32.181  31.929  1.00  0.00     0.346 HD
ATOM     12  H   UNL A   1      33.268  33.206  31.601  1.00  0.00     0.346 HD
ATOM     13  C   UNL A   1      36.548  33.913  33.477  1.00  0.00    -0.019 A 
ATOM     14  C   UNL A   1      37.579  34.446  31.335  1.00  0.00     0.010 A 
ATOM     15  C   UNL A   1      35.345  33.418  34.251  1.00  0.00     0.098 C 
ATOM     16  C   UNL A   1      37.809  34.063  34.079  1.00  0.00     0.021 A 
ATOM     17  C   UNL A   1      38.824  34.564  31.941  1.00  0.00     0.002 A 
ATOM     18  Br  UNL A   1      38.068  33.831  35.947  1.00  0.00    -0.051 Br
ATOM     19  C   UNL A   1      38.936  34.391  33.316  1.00  0.00     0.016 A 
ENDBRANCH   6   7
ENDBRANCH   4   6
ENDBRANCH   3   4
ENDBRANCH   2   3
ENDBRANCH   1   2
BRANCH   1  20
ATOM     20  O   UNL A   1      34.580  32.378  28.946  1.00  0.00    -0.458 OA
BRANCH  20  21
ATOM     21  C   UNL A   1      34.430  31.167  28.355  1.00  0.00     0.338 C 
ATOM     22  O   UNL A   1      33.492  30.795  27.669  1.00  0.00    -0.246 OA
BRANCH  21  23
ATOM     23  C   UNL A   1      35.689  30.405  28.476  1.00  0.00     0.060 A 
ATOM     24  C   UNL A   1      35.964  29.818  29.718  1.00  0.00     0.016 A 
ATOM     25  C   UNL A   1      36.588  30.267  27.413  1.00  0.00     0.016 A 
ATOM     26  C   UNL A   1      37.164  29.141  29.920  1.00  0.00     0.010 A 
ATOM     27  C   UNL A   1      37.806  29.608  27.625  1.00  0.00     0.010 A 
ATOM     28  C   UNL A   1      38.116  29.084  28.893  1.00  0.00    -0.014 A 
BRANCH  28  29
ATOM     29  C   UNL A   1      39.515  28.735  29.240  1.00  0.00     0.031 A 
ATOM     30  C   UNL A   1      40.239  29.642  30.201  1.00  0.00     0.074 A 
ATOM     31  C   UNL A   1      40.112  27.620  28.787  1.00  0.00     0.049 A 
ATOM     32  N   UNL A   1      41.443  29.535  30.702  1.00  0.00    -0.248 NA
ATOM     33  C   UNL A   1      39.495  30.823  30.672  1.00  0.00     0.031 C 
ATOM     34  C   UNL A   1      39.502  26.626  27.909  1.00  0.00     0.029 A 
ATOM     35  N   UNL A   1      41.376  27.135  29.021  1.00  0.00    -0.354 N 
ATOM     36  C   UNL A   1      41.580  30.606  31.575  1.00  0.00     0.074 A 
ATOM     37  C   UNL A   1      40.362  31.381  31.501  1.00  0.00     0.031 C 
ATOM     38  C   UNL A   1      40.392  25.641  27.683  1.00  0.00     0.029 A 
ATOM     39  C   UNL A   1      41.640  25.948  28.382  1.00  0.00     0.049 A 
ATOM     40  H   UNL A   1      42.031  27.595  29.594  1.00  0.00     0.167 HD
ATOM     41  C   UNL A   1      42.621  30.910  32.384  1.00  0.00     0.037 A 
ATOM     42  C   UNL A   1      42.764  25.205  28.366  1.00  0.00     0.037 A 
ATOM     43  C   UNL A   1      43.855  30.177  32.430  1.00  0.00     0.049 A 
ATOM     44  C   UNL A   1      43.969  25.656  29.156  1.00  0.00     0.074 A 
ATOM     45  C   UNL A   1      44.989  30.446  33.175  1.00  0.00     0.029 A 
ATOM     46  N   UNL A   1      44.117  29.034  31.693  1.00  0.00    -0.354 N 
ATOM     47  N   UNL A   1      44.092  26.670  29.978  1.00  0.00    -0.248 NA
ATOM     48  C   UNL A   1      45.196  24.856  29.010  1.00  0.00     0.031 C 
ATOM     49  C   UNL A   1      45.955  29.486  32.857  1.00  0.00     0.029 A 
ATOM     50  C   UNL A   1      45.405  28.596  31.950  1.00  0.00     0.049 A 
ATOM     51  H   UNL A   1      43.483  28.599  31.078  1.00  0.00     0.167 HD
ATOM     52  C   UNL A   1      45.390  26.608  30.472  1.00  0.00     0.074 A 
ATOM     53  C   UNL A   1      46.016  25.453  29.865  1.00  0.00     0.031 C 
ATOM     54  C   UNL A   1      46.008  27.434  31.350  1.00  0.00     0.037 A 
BRANCH  41  55
ATOM     55  C   UNL A   1      42.466  32.097  33.282  1.00  0.00     0.064 A 
ATOM     56  C   UNL A   1      42.760  33.390  32.826  1.00  0.00     0.173 A 
ATOM     57  C   UNL A   1      41.981  31.950  34.589  1.00  0.00     0.173 A 
ATOM     58  F   UNL A   1      43.246  33.576  31.589  1.00  0.00    -0.203 F 
ATOM     59  C   UNL A   1      42.581  34.496  33.651  1.00  0.00     0.198 A 
ATOM     60  C   UNL A   1      41.783  33.061  35.404  1.00  0.00     0.198 A 
ATOM     61  F   UNL A   1      41.692  30.732  35.070  1.00  0.00    -0.203 F 
ATOM     62  F   UNL A   1      42.894  35.721  33.206  1.00  0.00    -0.200 F 
ATOM     63  C   UNL A   1      42.085  34.331  34.936  1.00  0.00     0.200 A 
ATOM     64  F   UNL A   1      41.299  32.902  36.643  1.00  0.00    -0.200 F 
ATOM     65  F   UNL A   1      41.901  35.398  35.727  1.00  0.00    -0.200 F 
ENDBRANCH  41  55
BRANCH  42  66
ATOM     66  C   UNL A   1      42.825  23.945  27.578  1.00  0.00     0.064 A 
ATOM     67  C   UNL A   1      43.151  23.964  26.215  1.00  0.00     0.173 A 
ATOM     68  C   UNL A   1      42.501  22.709  28.155  1.00  0.00     0.173 A 
ATOM     69  F   UNL A   1      43.436  25.128  25.612  1.00  0.00    -0.203 F 
ATOM     70  C   UNL A   1      43.132  22.797  25.453  1.00  0.00     0.198 A 
ATOM     71  C   UNL A   1      42.506  21.539  27.397  1.00  0.00     0.198 A 
ATOM     72  F   UNL A   1      42.169  22.637  29.452  1.00  0.00    -0.203 F 
ATOM     73  F   UNL A   1      43.397  22.853  24.141  1.00  0.00    -0.200 F 
ATOM     74  C   UNL A   1      42.813  21.585  26.045  1.00  0.00     0.200 A 
ATOM     75  F   UNL A   1      42.199  20.369  27.973  1.00  0.00    -0.200 F 
ATOM     76  F   UNL A   1      42.785  20.465  25.311  1.00  0.00    -0.200 F 
ENDBRANCH  42  66
BRANCH  54  77
ATOM     77  C   UNL A   1      47.421  27.112  31.742  1.00  0.00     0.064 A 
ATOM     78  C   UNL A   1      47.709  26.185  32.753  1.00  0.00     0.173 A 
ATOM     79  C   UNL A   1      48.499  27.680  31.044  1.00  0.00     0.173 A 
ATOM     80  F   UNL A   1      46.714  25.622  33.456  1.00  0.00    -0.203 F 
ATOM     81  C   UNL A   1      49.025  25.849  33.062  1.00  0.00     0.198 A 
ATOM     82  C   UNL A   1      49.811  27.321  31.337  1.00  0.00     0.198 A 
ATOM     83  F   UNL A   1      48.276  28.564  30.059  1.00  0.00    -0.203 F 
ATOM     84  F   UNL A   1      49.278  24.986  34.056  1.00  0.00    -0.200 F 
ATOM     85  C   UNL A   1      50.073  26.410  32.348  1.00  0.00     0.200 A 
ATOM     86  F   UNL A   1      50.822  27.852  30.635  1.00  0.00    -0.200 F 
ATOM     87  F   UNL A   1      51.338  26.074  32.638  1.00  0.00    -0.200 F 
ENDBRANCH  54  77
ENDBRANCH  28  29
ENDBRANCH  21  23
ENDBRANCH  20  21
ENDBRANCH   1  20
TORSDOF 12
ENDMDL
