MODEL 1
REMARK VINA RESULT:     -12.1      0.000      0.000
REMARK SMILES Cc1csc(CNC(=O)NC[C@H]2CC[C@@H](C(=O)OCCOC(=O)c3ccc(-c4c5nc(c(-c6c(F)c(F)c(F)c(F)c6F)c6ccc([nH]6)c(-c6c(F)c(F)c(F)c(F)c6F)c6nc(c(-c7c(F)c(F)c(F)c(F)c7F)c7ccc4[nH]7)C=C6)C=C5)cc3)CC2)n1
REMARK SMILES IDX 19 1 18 2 16 3 17 4 15 5 12 6 13 7 88 8 14 9 87 10 11 11
REMARK SMILES IDX 10 12 7 13 8 14 9 16 6 18 5 19 1 20 2 21 3 22 89 23 4 24
REMARK SMILES IDX 20 25 21 26 22 27 23 28 24 29 25 30 86 31 26 32 85 33 27 34
REMARK SMILES IDX 28 35 29 36 79 37 30 38 84 39 78 40 80 41 31 42 83 43 77 44
REMARK SMILES IDX 76 45 32 47 64 48 44 49 63 50 45 51 48 52 62 53 81 54 46 55
REMARK SMILES IDX 47 56 61 58 82 59 49 60 33 61 34 62 42 63 35 64 36 65 40 66
REMARK SMILES IDX 43 67 37 68 38 69 41 70 39 71 65 72 66 73 74 74 67 75 68 76
REMARK SMILES IDX 72 77 75 78 69 79 70 80 73 81 71 82 50 83 51 84 59 85 52 86
REMARK SMILES IDX 53 87 57 88 60 89 54 90 55 91 58 92 56 93
REMARK H PARENT 7 15 10 17 80 46 48 57
REMARK Flexibility Score: inf
ROOT
ATOM      1  C   UNL A   1      38.369  19.568  24.980  1.00  0.00     0.274 C 
ENDROOT
BRANCH   1   2
ATOM      2  O   UNL A   1      37.743  20.739  25.539  1.00  0.00    -0.462 OA
BRANCH   2   3
ATOM      3  C   UNL A   1      36.680  21.262  24.880  1.00  0.00     0.309 C 
ATOM      4  O   UNL A   1      35.589  20.715  24.774  1.00  0.00    -0.252 OA
BRANCH   3   5
ATOM      5  C   UNL A   1      36.993  22.602  24.217  1.00  0.00     0.099 C 
ATOM      6  C   UNL A   1      34.666  24.423  24.677  1.00  0.00     0.008 C 
ATOM      7  C   UNL A   1      35.676  24.068  25.785  1.00  0.00     0.006 C 
ATOM      8  C   UNL A   1      34.688  23.459  23.482  1.00  0.00     0.006 C 
ATOM      9  C   UNL A   1      37.059  23.715  25.255  1.00  0.00     0.015 C 
ATOM     10  C   UNL A   1      36.082  23.005  23.056  1.00  0.00     0.015 C 
BRANCH   6  11
ATOM     11  C   UNL A   1      33.242  24.460  25.267  1.00  0.00     0.121 C 
BRANCH  11  12
ATOM     12  N   UNL A   1      33.193  23.884  26.592  1.00  0.00    -0.338 N 
ATOM     13  N   UNL A   1      32.153  21.774  26.378  1.00  0.00    -0.332 N 
ATOM     14  C   UNL A   1      32.727  22.740  27.098  1.00  0.00     0.315 C 
ATOM     15  H   UNL A   1      31.814  21.033  26.931  1.00  0.00     0.165 HD
ATOM     16  O   UNL A   1      32.819  22.572  28.317  1.00  0.00    -0.249 OA
ATOM     17  H   UNL A   1      33.593  24.467  27.276  1.00  0.00     0.165 HD
BRANCH  13  18
ATOM     18  C   UNL A   1      31.917  21.576  24.963  1.00  0.00     0.185 C 
BRANCH  18  19
ATOM     19  C   UNL A   1      32.204  20.152  24.573  1.00  0.00     0.112 A 
ATOM     20  C   UNL A   1      32.728  16.702  25.476  1.00  0.00     0.067 C 
ATOM     21  C   UNL A   1      32.575  17.964  24.708  1.00  0.00     0.049 A 
ATOM     22  C   UNL A   1      32.618  18.108  23.336  1.00  0.00     0.090 A 
ATOM     23  N   UNL A   1      32.362  19.141  25.405  1.00  0.00    -0.245 NA
ATOM     24  S   UNL A   1      32.373  19.746  22.905  1.00  0.00    -0.125 S 
ENDBRANCH  18  19
ENDBRANCH  13  18
ENDBRANCH  11  12
ENDBRANCH   6  11
ENDBRANCH   3   5
ENDBRANCH   2   3
ENDBRANCH   1   2
BRANCH   1  25
ATOM     25  C   UNL A   1      39.703  19.273  25.669  1.00  0.00     0.275 C 
BRANCH  25  26
ATOM     26  O   UNL A   1      40.384  20.492  26.011  1.00  0.00    -0.458 OA
BRANCH  26  27
ATOM     27  C   UNL A   1      40.827  20.558  27.285  1.00  0.00     0.338 C 
ATOM     28  O   UNL A   1      41.099  19.627  28.031  1.00  0.00    -0.246 OA
BRANCH  27  29
ATOM     29  C   UNL A   1      41.098  21.957  27.637  1.00  0.00     0.060 A 
ATOM     30  C   UNL A   1      40.464  22.952  26.887  1.00  0.00     0.016 A 
ATOM     31  C   UNL A   1      42.020  22.291  28.631  1.00  0.00     0.016 A 
ATOM     32  C   UNL A   1      40.755  24.291  27.116  1.00  0.00     0.010 A 
ATOM     33  C   UNL A   1      42.321  23.638  28.854  1.00  0.00     0.010 A 
ATOM     34  C   UNL A   1      41.704  24.641  28.083  1.00  0.00    -0.014 A 
BRANCH  34  35
ATOM     35  C   UNL A   1      42.132  26.053  28.195  1.00  0.00     0.031 A 
ATOM     36  C   UNL A   1      43.427  26.475  27.567  1.00  0.00     0.074 A 
ATOM     37  C   UNL A   1      41.338  26.956  28.797  1.00  0.00     0.049 A 
ATOM     38  N   UNL A   1      44.014  27.644  27.578  1.00  0.00    -0.248 NA
ATOM     39  C   UNL A   1      44.158  25.439  26.821  1.00  0.00     0.031 C 
ATOM     40  C   UNL A   1      40.027  26.673  29.376  1.00  0.00     0.029 A 
ATOM     41  N   UNL A   1      41.520  28.299  29.009  1.00  0.00    -0.354 N 
ATOM     42  C   UNL A   1      45.190  27.480  26.859  1.00  0.00     0.074 A 
ATOM     43  C   UNL A   1      45.244  26.097  26.440  1.00  0.00     0.031 C 
ATOM     44  C   UNL A   1      39.514  27.813  29.870  1.00  0.00     0.029 A 
ATOM     45  C   UNL A   1      40.480  28.893  29.677  1.00  0.00     0.049 A 
ATOM     46  H   UNL A   1      42.319  28.789  28.710  1.00  0.00     0.167 HD
ATOM     47  C   UNL A   1      46.138  28.405  26.574  1.00  0.00     0.037 A 
ATOM     48  C   UNL A   1      40.337  30.163  30.100  1.00  0.00     0.037 A 
ATOM     49  C   UNL A   1      46.074  29.783  26.985  1.00  0.00     0.049 A 
ATOM     50  C   UNL A   1      41.438  31.154  29.832  1.00  0.00     0.074 A 
ATOM     51  C   UNL A   1      46.987  30.797  26.759  1.00  0.00     0.029 A 
ATOM     52  N   UNL A   1      45.029  30.338  27.708  1.00  0.00    -0.354 N 
ATOM     53  N   UNL A   1      42.561  30.987  29.177  1.00  0.00    -0.248 NA
ATOM     54  C   UNL A   1      41.253  32.508  30.372  1.00  0.00     0.031 C 
ATOM     55  C   UNL A   1      46.510  31.959  27.376  1.00  0.00     0.029 A 
ATOM     56  C   UNL A   1      45.280  31.679  27.950  1.00  0.00     0.049 A 
ATOM     57  H   UNL A   1      44.226  29.852  28.006  1.00  0.00     0.167 HD
ATOM     58  C   UNL A   1      43.203  32.218  29.200  1.00  0.00     0.074 A 
ATOM     59  C   UNL A   1      42.340  33.124  29.930  1.00  0.00     0.031 C 
ATOM     60  C   UNL A   1      44.400  32.566  28.667  1.00  0.00     0.037 A 
BRANCH  47  61
ATOM     61  C   UNL A   1      47.342  27.936  25.812  1.00  0.00     0.064 A 
ATOM     62  C   UNL A   1      47.336  27.831  24.413  1.00  0.00     0.173 A 
ATOM     63  C   UNL A   1      48.516  27.584  26.493  1.00  0.00     0.173 A 
ATOM     64  F   UNL A   1      46.230  28.137  23.718  1.00  0.00    -0.203 F 
ATOM     65  C   UNL A   1      48.453  27.362  23.726  1.00  0.00     0.198 A 
ATOM     66  C   UNL A   1      49.640  27.140  25.801  1.00  0.00     0.198 A 
ATOM     67  F   UNL A   1      48.574  27.667  27.830  1.00  0.00    -0.203 F 
ATOM     68  F   UNL A   1      48.407  27.219  22.395  1.00  0.00    -0.200 F 
ATOM     69  C   UNL A   1      49.604  27.021  24.420  1.00  0.00     0.200 A 
ATOM     70  F   UNL A   1      50.754  26.817  26.472  1.00  0.00    -0.200 F 
ATOM     71  F   UNL A   1      50.677  26.566  23.758  1.00  0.00    -0.200 F 
ENDBRANCH  47  61
BRANCH  48  72
ATOM     72  C   UNL A   1      39.104  30.570  30.820  1.00  0.00     0.064 A 
ATOM     73  C   UNL A   1      37.995  31.066  30.124  1.00  0.00     0.173 A 
ATOM     74  C   UNL A   1      39.011  30.476  32.217  1.00  0.00     0.173 A 
ATOM     75  F   UNL A   1      38.047  31.199  28.790  1.00  0.00    -0.203 F 
ATOM     76  C   UNL A   1      36.840  31.462  30.797  1.00  0.00     0.198 A 
ATOM     77  C   UNL A   1      37.848  30.849  32.887  1.00  0.00     0.198 A 
ATOM     78  F   UNL A   1      40.048  30.013  32.930  1.00  0.00    -0.203 F 
ATOM     79  F   UNL A   1      35.808  31.969  30.110  1.00  0.00    -0.200 F 
ATOM     80  C   UNL A   1      36.765  31.347  32.177  1.00  0.00     0.200 A 
ATOM     81  F   UNL A   1      37.777  30.729  34.219  1.00  0.00    -0.200 F 
ATOM     82  F   UNL A   1      35.655  31.725  32.823  1.00  0.00    -0.200 F 
ENDBRANCH  48  72
BRANCH  60  83
ATOM     83  C   UNL A   1      44.822  33.997  28.816  1.00  0.00     0.064 A 
ATOM     84  C   UNL A   1      45.597  34.426  29.902  1.00  0.00     0.173 A 
ATOM     85  C   UNL A   1      44.473  34.943  27.840  1.00  0.00     0.173 A 
ATOM     86  F   UNL A   1      45.942  33.561  30.868  1.00  0.00    -0.203 F 
ATOM     87  C   UNL A   1      45.987  35.758  30.020  1.00  0.00     0.198 A 
ATOM     88  C   UNL A   1      44.885  36.268  27.948  1.00  0.00     0.198 A 
ATOM     89  F   UNL A   1      43.736  34.579  26.779  1.00  0.00    -0.203 F 
ATOM     90  F   UNL A   1      46.690  36.157  31.089  1.00  0.00    -0.200 F 
ATOM     91  C   UNL A   1      45.635  36.676  29.041  1.00  0.00     0.200 A 
ATOM     92  F   UNL A   1      44.553  37.151  26.996  1.00  0.00    -0.200 F 
ATOM     93  F   UNL A   1      46.014  37.956  29.154  1.00  0.00    -0.200 F 
ENDBRANCH  60  83
ENDBRANCH  34  35
ENDBRANCH  27  29
ENDBRANCH  26  27
ENDBRANCH  25  26
ENDBRANCH   1  25
TORSDOF 15
ENDMDL
MODEL 2
REMARK VINA RESULT:     -11.9      4.839     10.193
REMARK SMILES Cc1csc(CNC(=O)NC[C@H]2CC[C@@H](C(=O)OCCOC(=O)c3ccc(-c4c5nc(c(-c6c(F)c(F)c(F)c(F)c6F)c6ccc([nH]6)c(-c6c(F)c(F)c(F)c(F)c6F)c6nc(c(-c7c(F)c(F)c(F)c(F)c7F)c7ccc4[nH]7)C=C6)C=C5)cc3)CC2)n1
REMARK SMILES IDX 19 1 18 2 16 3 17 4 15 5 12 6 13 7 88 8 14 9 87 10 11 11
REMARK SMILES IDX 10 12 7 13 8 14 9 16 6 18 5 19 1 20 2 21 3 22 89 23 4 24
REMARK SMILES IDX 20 25 21 26 22 27 23 28 24 29 25 30 86 31 26 32 85 33 27 34
REMARK SMILES IDX 28 35 29 36 79 37 30 38 84 39 78 40 80 41 31 42 83 43 77 44
REMARK SMILES IDX 76 45 32 47 64 48 44 49 63 50 45 51 48 52 62 53 81 54 46 55
REMARK SMILES IDX 47 56 61 58 82 59 49 60 33 61 34 62 42 63 35 64 36 65 40 66
REMARK SMILES IDX 43 67 37 68 38 69 41 70 39 71 65 72 66 73 74 74 67 75 68 76
REMARK SMILES IDX 72 77 75 78 69 79 70 80 73 81 71 82 50 83 51 84 59 85 52 86
REMARK SMILES IDX 53 87 57 88 60 89 54 90 55 91 58 92 56 93
REMARK H PARENT 7 15 10 17 80 46 48 57
REMARK Flexibility Score: inf
ROOT
ATOM      1  C   UNL A   1      31.126  31.929  26.047  1.00  0.00     0.274 C 
ENDROOT
BRANCH   1   2
ATOM      2  O   UNL A   1      31.664  30.642  26.407  1.00  0.00    -0.462 OA
BRANCH   2   3
ATOM      3  C   UNL A   1      31.817  29.723  25.421  1.00  0.00     0.309 C 
ATOM      4  O   UNL A   1      31.140  29.677  24.402  1.00  0.00    -0.252 OA
BRANCH   3   5
ATOM      5  C   UNL A   1      32.901  28.693  25.734  1.00  0.00     0.099 C 
ATOM      6  C   UNL A   1      31.681  25.973  25.500  1.00  0.00     0.008 C 
ATOM      7  C   UNL A   1      32.032  26.836  24.273  1.00  0.00     0.006 C 
ATOM      8  C   UNL A   1      31.598  26.764  26.815  1.00  0.00     0.006 C 
ATOM      9  C   UNL A   1      33.174  27.811  24.523  1.00  0.00     0.015 C 
ATOM     10  C   UNL A   1      32.671  27.836  26.981  1.00  0.00     0.015 C 
BRANCH   6  11
ATOM     11  C   UNL A   1      30.340  25.253  25.261  1.00  0.00     0.121 C 
BRANCH  11  12
ATOM     12  N   UNL A   1      29.911  24.512  26.427  1.00  0.00    -0.338 N 
ATOM     13  N   UNL A   1      30.761  22.321  26.192  1.00  0.00    -0.332 N 
ATOM     14  C   UNL A   1      30.071  23.256  26.849  1.00  0.00     0.315 C 
ATOM     15  H   UNL A   1      30.715  21.437  26.623  1.00  0.00     0.165 HD
ATOM     16  O   UNL A   1      29.528  22.933  27.909  1.00  0.00    -0.249 OA
ATOM     17  H   UNL A   1      29.381  25.058  27.051  1.00  0.00     0.165 HD
BRANCH  13  18
ATOM     18  C   UNL A   1      31.560  22.320  24.985  1.00  0.00     0.185 C 
BRANCH  18  19
ATOM     19  C   UNL A   1      32.454  21.110  24.943  1.00  0.00     0.112 A 
ATOM     20  C   UNL A   1      32.898  17.537  25.129  1.00  0.00     0.067 C 
ATOM     21  C   UNL A   1      33.141  18.996  24.991  1.00  0.00     0.049 A 
ATOM     22  C   UNL A   1      34.347  19.612  24.718  1.00  0.00     0.090 A 
ATOM     23  N   UNL A   1      32.072  19.863  25.141  1.00  0.00    -0.245 NA
ATOM     24  S   UNL A   1      34.138  21.308  24.633  1.00  0.00    -0.125 S 
ENDBRANCH  18  19
ENDBRANCH  13  18
ENDBRANCH  11  12
ENDBRANCH   6  11
ENDBRANCH   3   5
ENDBRANCH   2   3
ENDBRANCH   1   2
BRANCH   1  25
ATOM     25  C   UNL A   1      31.764  33.046  26.875  1.00  0.00     0.275 C 
BRANCH  25  26
ATOM     26  O   UNL A   1      32.887  32.551  27.625  1.00  0.00    -0.458 OA
BRANCH  26  27
ATOM     27  C   UNL A   1      33.850  33.462  27.878  1.00  0.00     0.338 C 
ATOM     28  O   UNL A   1      33.745  34.682  27.869  1.00  0.00    -0.246 OA
BRANCH  27  29
ATOM     29  C   UNL A   1      35.066  32.778  28.334  1.00  0.00     0.060 A 
ATOM     30  C   UNL A   1      34.949  31.443  28.734  1.00  0.00     0.016 A 
ATOM     31  C   UNL A   1      36.282  33.453  28.445  1.00  0.00     0.016 A 
ATOM     32  C   UNL A   1      36.047  30.775  29.261  1.00  0.00     0.010 A 
ATOM     33  C   UNL A   1      37.384  32.783  28.985  1.00  0.00     0.010 A 
ATOM     34  C   UNL A   1      37.264  31.448  29.413  1.00  0.00    -0.014 A 
BRANCH  34  35
ATOM     35  C   UNL A   1      38.371  30.781  30.134  1.00  0.00     0.031 A 
ATOM     36  C   UNL A   1      38.592  31.097  31.584  1.00  0.00     0.074 A 
ATOM     37  C   UNL A   1      39.127  29.859  29.512  1.00  0.00     0.049 A 
ATOM     38  N   UNL A   1      39.523  30.665  32.397  1.00  0.00    -0.248 NA
ATOM     39  C   UNL A   1      37.631  32.022  32.204  1.00  0.00     0.031 C 
ATOM     40  C   UNL A   1      38.955  29.421  28.129  1.00  0.00     0.029 A 
ATOM     41  N   UNL A   1      40.186  29.119  29.974  1.00  0.00    -0.354 N 
ATOM     42  C   UNL A   1      39.271  31.279  33.615  1.00  0.00     0.074 A 
ATOM     43  C   UNL A   1      38.112  32.126  33.435  1.00  0.00     0.031 C 
ATOM     44  C   UNL A   1      39.871  28.476  27.856  1.00  0.00     0.029 A 
ATOM     45  C   UNL A   1      40.717  28.277  29.031  1.00  0.00     0.049 A 
ATOM     46  H   UNL A   1      40.530  29.186  30.893  1.00  0.00     0.167 HD
ATOM     47  C   UNL A   1      39.947  31.143  34.781  1.00  0.00     0.037 A 
ATOM     48  C   UNL A   1      41.778  27.453  29.107  1.00  0.00     0.037 A 
ATOM     49  C   UNL A   1      41.093  30.291  34.958  1.00  0.00     0.049 A 
ATOM     50  C   UNL A   1      42.556  27.376  30.393  1.00  0.00     0.074 A 
ATOM     51  C   UNL A   1      41.857  30.092  36.094  1.00  0.00     0.029 A 
ATOM     52  N   UNL A   1      41.637  29.491  33.963  1.00  0.00    -0.354 N 
ATOM     53  N   UNL A   1      42.331  27.979  31.534  1.00  0.00    -0.248 NA
ATOM     54  C   UNL A   1      43.741  26.506  30.396  1.00  0.00     0.031 C 
ATOM     55  C   UNL A   1      42.886  29.197  35.776  1.00  0.00     0.029 A 
ATOM     56  C   UNL A   1      42.736  28.806  34.455  1.00  0.00     0.049 A 
ATOM     57  H   UNL A   1      41.292  29.419  33.044  1.00  0.00     0.167 HD
ATOM     58  C   UNL A   1      43.326  27.544  32.399  1.00  0.00     0.074 A 
ATOM     59  C   UNL A   1      44.153  26.619  31.652  1.00  0.00     0.031 C 
ATOM     60  C   UNL A   1      43.537  27.880  33.696  1.00  0.00     0.037 A 
BRANCH  47  61
ATOM     61  C   UNL A   1      39.480  31.970  35.942  1.00  0.00     0.064 A 
ATOM     62  C   UNL A   1      40.045  33.221  36.233  1.00  0.00     0.173 A 
ATOM     63  C   UNL A   1      38.454  31.502  36.776  1.00  0.00     0.173 A 
ATOM     64  F   UNL A   1      41.042  33.703  35.476  1.00  0.00    -0.203 F 
ATOM     65  C   UNL A   1      39.621  33.959  37.335  1.00  0.00     0.198 A 
ATOM     66  C   UNL A   1      38.015  32.254  37.862  1.00  0.00     0.198 A 
ATOM     67  F   UNL A   1      37.880  30.313  36.542  1.00  0.00    -0.203 F 
ATOM     68  F   UNL A   1      40.211  35.126  37.624  1.00  0.00    -0.200 F 
ATOM     69  C   UNL A   1      38.604  33.477  38.146  1.00  0.00     0.200 A 
ATOM     70  F   UNL A   1      37.027  31.791  38.641  1.00  0.00    -0.200 F 
ATOM     71  F   UNL A   1      38.199  34.187  39.209  1.00  0.00    -0.200 F 
ENDBRANCH  47  61
BRANCH  48  72
ATOM     72  C   UNL A   1      42.168  26.636  27.930  1.00  0.00     0.064 A 
ATOM     73  C   UNL A   1      43.112  27.107  27.009  1.00  0.00     0.173 A 
ATOM     74  C   UNL A   1      41.603  25.373  27.699  1.00  0.00     0.173 A 
ATOM     75  F   UNL A   1      43.660  28.320  27.173  1.00  0.00    -0.203 F 
ATOM     76  C   UNL A   1      43.471  26.349  25.895  1.00  0.00     0.198 A 
ATOM     77  C   UNL A   1      41.979  24.606  26.600  1.00  0.00     0.198 A 
ATOM     78  F   UNL A   1      40.689  24.881  28.549  1.00  0.00    -0.203 F 
ATOM     79  F   UNL A   1      44.348  26.839  25.009  1.00  0.00    -0.200 F 
ATOM     80  C   UNL A   1      42.909  25.097  25.695  1.00  0.00     0.200 A 
ATOM     81  F   UNL A   1      41.441  23.394  26.414  1.00  0.00    -0.200 F 
ATOM     82  F   UNL A   1      43.257  24.368  24.626  1.00  0.00    -0.200 F 
ENDBRANCH  48  72
BRANCH  60  83
ATOM     83  C   UNL A   1      44.680  27.210  34.397  1.00  0.00     0.064 A 
ATOM     84  C   UNL A   1      44.525  25.976  35.044  1.00  0.00     0.173 A 
ATOM     85  C   UNL A   1      45.956  27.797  34.392  1.00  0.00     0.173 A 
ATOM     86  F   UNL A   1      43.322  25.385  35.088  1.00  0.00    -0.203 F 
ATOM     87  C   UNL A   1      45.600  25.365  35.684  1.00  0.00     0.198 A 
ATOM     88  C   UNL A   1      47.033  27.171  35.012  1.00  0.00     0.198 A 
ATOM     89  F   UNL A   1      46.155  28.974  33.782  1.00  0.00    -0.203 F 
ATOM     90  F   UNL A   1      45.420  24.207  36.335  1.00  0.00    -0.200 F 
ATOM     91  C   UNL A   1      46.853  25.960  35.663  1.00  0.00     0.200 A 
ATOM     92  F   UNL A   1      48.245  27.741  34.982  1.00  0.00    -0.200 F 
ATOM     93  F   UNL A   1      47.887  25.368  36.276  1.00  0.00    -0.200 F 
ENDBRANCH  60  83
ENDBRANCH  34  35
ENDBRANCH  27  29
ENDBRANCH  26  27
ENDBRANCH  25  26
ENDBRANCH   1  25
TORSDOF 15
ENDMDL
MODEL 3
REMARK VINA RESULT:     -11.9      5.461     10.834
REMARK SMILES Cc1csc(CNC(=O)NC[C@H]2CC[C@@H](C(=O)OCCOC(=O)c3ccc(-c4c5nc(c(-c6c(F)c(F)c(F)c(F)c6F)c6ccc([nH]6)c(-c6c(F)c(F)c(F)c(F)c6F)c6nc(c(-c7c(F)c(F)c(F)c(F)c7F)c7ccc4[nH]7)C=C6)C=C5)cc3)CC2)n1
REMARK SMILES IDX 19 1 18 2 16 3 17 4 15 5 12 6 13 7 88 8 14 9 87 10 11 11
REMARK SMILES IDX 10 12 7 13 8 14 9 16 6 18 5 19 1 20 2 21 3 22 89 23 4 24
REMARK SMILES IDX 20 25 21 26 22 27 23 28 24 29 25 30 86 31 26 32 85 33 27 34
REMARK SMILES IDX 28 35 29 36 79 37 30 38 84 39 78 40 80 41 31 42 83 43 77 44
REMARK SMILES IDX 76 45 32 47 64 48 44 49 63 50 45 51 48 52 62 53 81 54 46 55
REMARK SMILES IDX 47 56 61 58 82 59 49 60 33 61 34 62 42 63 35 64 36 65 40 66
REMARK SMILES IDX 43 67 37 68 38 69 41 70 39 71 65 72 66 73 74 74 67 75 68 76
REMARK SMILES IDX 72 77 75 78 69 79 70 80 73 81 71 82 50 83 51 84 59 85 52 86
REMARK SMILES IDX 53 87 57 88 60 89 54 90 55 91 58 92 56 93
REMARK H PARENT 7 15 10 17 80 46 48 57
REMARK Flexibility Score: inf
ROOT
ATOM      1  C   UNL A   1      31.210  32.094  26.537  1.00  0.00     0.274 C 
ENDROOT
BRANCH   1   2
ATOM      2  O   UNL A   1      32.220  31.066  26.508  1.00  0.00    -0.462 OA
BRANCH   2   3
ATOM      3  C   UNL A   1      31.836  29.815  26.155  1.00  0.00     0.309 C 
ATOM      4  O   UNL A   1      31.196  29.541  25.148  1.00  0.00    -0.252 OA
BRANCH   3   5
ATOM      5  C   UNL A   1      32.238  28.760  27.184  1.00  0.00     0.099 C 
ATOM      6  C   UNL A   1      33.126  26.319  25.703  1.00  0.00     0.008 C 
ATOM      7  C   UNL A   1      33.989  27.591  25.804  1.00  0.00     0.006 C 
ATOM      8  C   UNL A   1      31.643  26.544  26.033  1.00  0.00     0.006 C 
ATOM      9  C   UNL A   1      33.715  28.414  27.055  1.00  0.00     0.015 C 
ATOM     10  C   UNL A   1      31.388  27.487  27.206  1.00  0.00     0.015 C 
BRANCH   6  11
ATOM     11  C   UNL A   1      33.241  25.725  24.285  1.00  0.00     0.121 C 
BRANCH  11  12
ATOM     12  N   UNL A   1      33.855  26.653  23.361  1.00  0.00    -0.338 N 
ATOM     13  N   UNL A   1      32.111  27.573  22.061  1.00  0.00    -0.332 N 
ATOM     14  C   UNL A   1      33.397  27.452  22.395  1.00  0.00     0.315 C 
ATOM     15  H   UNL A   1      31.970  28.159  21.283  1.00  0.00     0.165 HD
ATOM     16  O   UNL A   1      34.223  28.110  21.755  1.00  0.00    -0.249 OA
ATOM     17  H   UNL A   1      34.832  26.707  23.469  1.00  0.00     0.165 HD
BRANCH  13  18
ATOM     18  C   UNL A   1      30.877  27.030  22.590  1.00  0.00     0.185 C 
BRANCH  18  19
ATOM     19  C   UNL A   1      29.779  28.058  22.531  1.00  0.00     0.112 A 
ATOM     20  C   UNL A   1      28.452  31.153  21.246  1.00  0.00     0.067 C 
ATOM     21  C   UNL A   1      28.622  29.876  21.985  1.00  0.00     0.049 A 
ATOM     22  C   UNL A   1      27.700  29.272  22.817  1.00  0.00     0.090 A 
ATOM     23  N   UNL A   1      29.814  29.185  21.847  1.00  0.00    -0.245 NA
ATOM     24  S   UNL A   1      28.330  27.804  23.430  1.00  0.00    -0.125 S 
ENDBRANCH  18  19
ENDBRANCH  13  18
ENDBRANCH  11  12
ENDBRANCH   6  11
ENDBRANCH   3   5
ENDBRANCH   2   3
ENDBRANCH   1   2
BRANCH   1  25
ATOM     25  C   UNL A   1      31.802  33.438  26.967  1.00  0.00     0.275 C 
BRANCH  25  26
ATOM     26  O   UNL A   1      33.237  33.370  27.027  1.00  0.00    -0.458 OA
BRANCH  26  27
ATOM     27  C   UNL A   1      33.792  33.980  28.097  1.00  0.00     0.338 C 
ATOM     28  O   UNL A   1      33.350  34.932  28.726  1.00  0.00    -0.246 OA
BRANCH  27  29
ATOM     29  C   UNL A   1      34.977  33.229  28.529  1.00  0.00     0.060 A 
ATOM     30  C   UNL A   1      34.784  31.929  29.007  1.00  0.00     0.016 A 
ATOM     31  C   UNL A   1      36.244  33.814  28.542  1.00  0.00     0.016 A 
ATOM     32  C   UNL A   1      35.857  31.207  29.514  1.00  0.00     0.010 A 
ATOM     33  C   UNL A   1      37.321  33.091  29.063  1.00  0.00     0.010 A 
ATOM     34  C   UNL A   1      37.127  31.792  29.569  1.00  0.00    -0.014 A 
BRANCH  34  35
ATOM     35  C   UNL A   1      38.219  31.081  30.270  1.00  0.00     0.031 A 
ATOM     36  C   UNL A   1      38.440  31.341  31.730  1.00  0.00     0.074 A 
ATOM     37  C   UNL A   1      38.961  30.168  29.618  1.00  0.00     0.049 A 
ATOM     38  N   UNL A   1      39.359  30.864  32.530  1.00  0.00    -0.248 NA
ATOM     39  C   UNL A   1      37.493  32.260  32.380  1.00  0.00     0.031 C 
ATOM     40  C   UNL A   1      38.787  29.782  28.220  1.00  0.00     0.029 A 
ATOM     41  N   UNL A   1      40.004  29.393  30.057  1.00  0.00    -0.354 N 
ATOM     42  C   UNL A   1      39.113  31.439  33.769  1.00  0.00     0.074 A 
ATOM     43  C   UNL A   1      37.970  32.312  33.615  1.00  0.00     0.031 C 
ATOM     44  C   UNL A   1      39.686  28.831  27.916  1.00  0.00     0.029 A 
ATOM     45  C   UNL A   1      40.524  28.576  29.086  1.00  0.00     0.049 A 
ATOM     46  H   UNL A   1      40.346  29.421  30.979  1.00  0.00     0.167 HD
ATOM     47  C   UNL A   1      39.782  31.250  34.932  1.00  0.00     0.037 A 
ATOM     48  C   UNL A   1      41.571  27.731  29.137  1.00  0.00     0.037 A 
ATOM     49  C   UNL A   1      40.912  30.372  35.083  1.00  0.00     0.049 A 
ATOM     50  C   UNL A   1      42.342  27.594  30.422  1.00  0.00     0.074 A 
ATOM     51  C   UNL A   1      41.669  30.120  36.213  1.00  0.00     0.029 A 
ATOM     52  N   UNL A   1      41.446  29.598  34.062  1.00  0.00    -0.354 N 
ATOM     53  N   UNL A   1      42.123  28.161  31.583  1.00  0.00    -0.248 NA
ATOM     54  C   UNL A   1      43.511  26.704  30.398  1.00  0.00     0.031 C 
ATOM     55  C   UNL A   1      42.682  29.218  35.867  1.00  0.00     0.029 A 
ATOM     56  C   UNL A   1      42.531  28.877  34.533  1.00  0.00     0.049 A 
ATOM     57  H   UNL A   1      41.104  29.565  33.139  1.00  0.00     0.167 HD
ATOM     58  C   UNL A   1      43.106  27.678  32.435  1.00  0.00     0.074 A 
ATOM     59  C   UNL A   1      43.920  26.765  31.658  1.00  0.00     0.031 C 
ATOM     60  C   UNL A   1      43.319  27.964  33.743  1.00  0.00     0.037 A 
BRANCH  47  61
ATOM     61  C   UNL A   1      39.325  32.044  36.119  1.00  0.00     0.064 A 
ATOM     62  C   UNL A   1      39.875  33.298  36.426  1.00  0.00     0.173 A 
ATOM     63  C   UNL A   1      38.325  31.540  36.964  1.00  0.00     0.173 A 
ATOM     64  F   UNL A   1      40.847  33.813  35.659  1.00  0.00    -0.203 F 
ATOM     65  C   UNL A   1      39.461  34.005  37.552  1.00  0.00     0.198 A 
ATOM     66  C   UNL A   1      37.895  32.261  38.075  1.00  0.00     0.198 A 
ATOM     67  F   UNL A   1      37.767  30.347  36.716  1.00  0.00    -0.203 F 
ATOM     68  F   UNL A   1      40.037  35.176  37.855  1.00  0.00    -0.200 F 
ATOM     69  C   UNL A   1      38.469  33.488  38.373  1.00  0.00     0.200 A 
ATOM     70  F   UNL A   1      36.932  31.764  38.864  1.00  0.00    -0.200 F 
ATOM     71  F   UNL A   1      38.075  34.168  39.459  1.00  0.00    -0.200 F 
ENDBRANCH  47  61
BRANCH  48  72
ATOM     72  C   UNL A   1      41.951  26.949  27.933  1.00  0.00     0.064 A 
ATOM     73  C   UNL A   1      42.857  27.464  26.998  1.00  0.00     0.173 A 
ATOM     74  C   UNL A   1      41.413  25.676  27.690  1.00  0.00     0.173 A 
ATOM     75  F   UNL A   1      43.377  28.688  27.174  1.00  0.00    -0.203 F 
ATOM     76  C   UNL A   1      43.206  26.739  25.859  1.00  0.00     0.198 A 
ATOM     77  C   UNL A   1      41.781  24.943  26.565  1.00  0.00     0.198 A 
ATOM     78  F   UNL A   1      40.535  25.142  28.552  1.00  0.00    -0.203 F 
ATOM     79  F   UNL A   1      44.046  27.271  24.962  1.00  0.00    -0.200 F 
ATOM     80  C   UNL A   1      42.673  25.477  25.647  1.00  0.00     0.200 A 
ATOM     81  F   UNL A   1      41.269  23.721  26.367  1.00  0.00    -0.200 F 
ATOM     82  F   UNL A   1      43.011  24.780  24.554  1.00  0.00    -0.200 F 
ENDBRANCH  48  72
BRANCH  60  83
ATOM     83  C   UNL A   1      44.447  27.249  34.424  1.00  0.00     0.064 A 
ATOM     84  C   UNL A   1      44.269  25.993  35.021  1.00  0.00     0.173 A 
ATOM     85  C   UNL A   1      45.731  27.817  34.451  1.00  0.00     0.173 A 
ATOM     86  F   UNL A   1      43.057  25.419  35.034  1.00  0.00    -0.203 F 
ATOM     87  C   UNL A   1      45.330  25.341  35.643  1.00  0.00     0.198 A 
ATOM     88  C   UNL A   1      46.795  27.150  35.052  1.00  0.00     0.198 A 
ATOM     89  F   UNL A   1      45.952  29.015  33.889  1.00  0.00    -0.203 F 
ATOM     90  F   UNL A   1      45.129  24.161  36.246  1.00  0.00    -0.200 F 
ATOM     91  C   UNL A   1      46.593  25.917  35.653  1.00  0.00     0.200 A 
ATOM     92  F   UNL A   1      48.015  27.703  35.052  1.00  0.00    -0.200 F 
ATOM     93  F   UNL A   1      47.613  25.286  36.248  1.00  0.00    -0.200 F 
ENDBRANCH  60  83
ENDBRANCH  34  35
ENDBRANCH  27  29
ENDBRANCH  26  27
ENDBRANCH  25  26
ENDBRANCH   1  25
TORSDOF 15
ENDMDL
