MODEL 1
REMARK VINA RESULT:     -11.4      0.000      0.000
REMARK SMILES CCc1ccsc1C(=O)N(CC(=O)OCCOC(=O)c1ccc(-c2c3nc(c(-c4c(F)c(F)c(F)c(F)c4F)c4ccc([nH]4)c(-c4c(F)c(F)c(F)c(F)c4F)c4nc(c(-c5c(F)c(F)c(F)c(F)c5F)c5ccc2[nH]5)C=C4)C=C3)cc1)c1ccccc1N
REMARK SMILES IDX 15 1 14 2 12 3 13 4 11 5 10 6 8 7 9 8 7 9 3 10 4 11 5 12
REMARK SMILES IDX 6 13 2 14 1 15 83 16 84 17 88 18 85 19 87 20 86 21 89 22
REMARK SMILES IDX 16 25 17 26 18 27 19 28 20 29 21 30 82 31 22 32 81 33 23 34
REMARK SMILES IDX 24 35 25 36 75 37 26 38 80 39 74 40 76 41 27 42 79 43 73 44
REMARK SMILES IDX 72 45 28 47 60 48 40 49 59 50 41 51 44 52 58 53 77 54 42 55
REMARK SMILES IDX 43 56 57 58 78 59 45 60 29 61 30 62 38 63 31 64 32 65 36 66
REMARK SMILES IDX 39 67 33 68 34 69 37 70 35 71 61 72 62 73 70 74 63 75 64 76
REMARK SMILES IDX 68 77 71 78 65 79 66 80 69 81 67 82 46 83 47 84 55 85 48 86
REMARK SMILES IDX 49 87 53 88 56 89 50 90 51 91 54 92 52 93
REMARK H PARENT 89 23 89 24 76 46 44 57
REMARK Flexibility Score: inf
ROOT
ATOM      1  C   UNL A   1      32.340  28.110  24.228  1.00  0.00     0.274 C 
ENDROOT
BRANCH   1   2
ATOM      2  O   UNL A   1      33.306  28.121  23.156  1.00  0.00    -0.461 OA
BRANCH   2   3
ATOM      3  C   UNL A   1      33.622  26.891  22.697  1.00  0.00     0.326 C 
ATOM      4  O   UNL A   1      33.667  26.599  21.500  1.00  0.00    -0.250 OA
BRANCH   3   5
ATOM      5  C   UNL A   1      33.683  25.778  23.730  1.00  0.00     0.248 C 
BRANCH   5   6
ATOM      6  N   UNL A   1      33.405  24.356  23.875  1.00  0.00    -0.294 N 
BRANCH   6   7
ATOM      7  C   UNL A   1      34.291  23.404  23.286  1.00  0.00     0.269 C 
ATOM      8  O   UNL A   1      34.351  23.311  22.054  1.00  0.00    -0.268 OA
BRANCH   7   9
ATOM      9  C   UNL A   1      35.210  22.558  24.103  1.00  0.00     0.096 A 
ATOM     10  C   UNL A   1      35.204  21.253  24.634  1.00  0.00    -0.025 A 
ATOM     11  C   UNL A   1      36.439  20.985  25.335  1.00  0.00     0.016 A 
ATOM     12  C   UNL A   1      37.344  22.010  25.279  1.00  0.00     0.066 A 
ATOM     13  S   UNL A   1      36.730  23.343  24.439  1.00  0.00    -0.138 S 
BRANCH  10  14
ATOM     14  C   UNL A   1      34.108  20.206  24.544  1.00  0.00     0.034 C 
ATOM     15  C   UNL A   1      33.022  20.250  25.611  1.00  0.00     0.009 C 
ENDBRANCH  10  14
ENDBRANCH   7   9
ENDBRANCH   6   7
BRANCH   6  16
ATOM     16  C   UNL A   1      32.454  23.957  24.901  1.00  0.00     0.068 A 
ATOM     17  C   UNL A   1      32.904  23.842  26.226  1.00  0.00     0.028 A 
ATOM     18  C   UNL A   1      31.087  23.644  24.651  1.00  0.00     0.056 A 
ATOM     19  C   UNL A   1      32.077  23.378  27.256  1.00  0.00     0.002 A 
ATOM     20  C   UNL A   1      30.286  23.131  25.692  1.00  0.00     0.028 A 
ATOM     21  C   UNL A   1      30.773  23.006  26.988  1.00  0.00     0.002 A 
BRANCH  18  22
ATOM     22  N   UNL A   1      30.510  23.646  23.370  1.00  0.00    -0.397 N 
ATOM     23  H   UNL A   1      29.641  23.207  23.220  1.00  0.00     0.156 HD
ATOM     24  H   UNL A   1      30.974  24.085  22.621  1.00  0.00     0.156 HD
ENDBRANCH  18  22
ENDBRANCH   6  16
ENDBRANCH   5   6
ENDBRANCH   3   5
ENDBRANCH   2   3
ENDBRANCH   1   2
BRANCH   1  25
ATOM     25  C   UNL A   1      32.196  29.467  24.918  1.00  0.00     0.275 C 
BRANCH  25  26
ATOM     26  O   UNL A   1      33.404  29.860  25.597  1.00  0.00    -0.458 OA
BRANCH  26  27
ATOM     27  C   UNL A   1      33.227  30.679  26.656  1.00  0.00     0.338 C 
ATOM     28  O   UNL A   1      32.273  31.416  26.866  1.00  0.00    -0.246 OA
BRANCH  27  29
ATOM     29  C   UNL A   1      34.402  30.655  27.538  1.00  0.00     0.060 A 
ATOM     30  C   UNL A   1      35.241  31.766  27.674  1.00  0.00     0.016 A 
ATOM     31  C   UNL A   1      34.741  29.436  28.127  1.00  0.00     0.016 A 
ATOM     32  C   UNL A   1      36.444  31.646  28.381  1.00  0.00     0.010 A 
ATOM     33  C   UNL A   1      35.924  29.327  28.856  1.00  0.00     0.010 A 
ATOM     34  C   UNL A   1      36.797  30.422  28.969  1.00  0.00    -0.014 A 
BRANCH  34  35
ATOM     35  C   UNL A   1      38.081  30.229  29.686  1.00  0.00     0.031 A 
ATOM     36  C   UNL A   1      39.107  29.280  29.136  1.00  0.00     0.074 A 
ATOM     37  C   UNL A   1      38.283  30.823  30.875  1.00  0.00     0.049 A 
ATOM     38  N   UNL A   1      40.158  28.764  29.718  1.00  0.00    -0.248 NA
ATOM     39  C   UNL A   1      38.914  28.848  27.743  1.00  0.00     0.031 C 
ATOM     40  C   UNL A   1      37.385  31.792  31.498  1.00  0.00     0.029 A 
ATOM     41  N   UNL A   1      39.297  30.665  31.787  1.00  0.00    -0.354 N 
ATOM     42  C   UNL A   1      40.736  27.922  28.778  1.00  0.00     0.074 A 
ATOM     43  C   UNL A   1      39.917  27.996  27.585  1.00  0.00     0.031 C 
ATOM     44  C   UNL A   1      37.875  32.129  32.702  1.00  0.00     0.029 A 
ATOM     45  C   UNL A   1      39.087  31.354  32.957  1.00  0.00     0.049 A 
ATOM     46  H   UNL A   1      40.095  30.112  31.620  1.00  0.00     0.167 HD
ATOM     47  C   UNL A   1      41.846  27.154  28.903  1.00  0.00     0.037 A 
ATOM     48  C   UNL A   1      39.767  31.325  34.118  1.00  0.00     0.037 A 
ATOM     49  C   UNL A   1      42.663  27.094  30.089  1.00  0.00     0.049 A 
ATOM     50  C   UNL A   1      40.960  30.421  34.257  1.00  0.00     0.074 A 
ATOM     51  C   UNL A   1      43.811  26.354  30.312  1.00  0.00     0.029 A 
ATOM     52  N   UNL A   1      42.417  27.810  31.251  1.00  0.00    -0.354 N 
ATOM     53  N   UNL A   1      41.482  29.601  33.378  1.00  0.00    -0.248 NA
ATOM     54  C   UNL A   1      41.648  30.427  35.556  1.00  0.00     0.031 C 
ATOM     55  C   UNL A   1      44.242  26.598  31.621  1.00  0.00     0.029 A 
ATOM     56  C   UNL A   1      43.384  27.520  32.200  1.00  0.00     0.049 A 
ATOM     57  H   UNL A   1      41.666  28.433  31.382  1.00  0.00     0.167 HD
ATOM     58  C   UNL A   1      42.571  29.011  34.006  1.00  0.00     0.074 A 
ATOM     59  C   UNL A   1      42.637  29.571  35.341  1.00  0.00     0.031 C 
ATOM     60  C   UNL A   1      43.437  28.091  33.520  1.00  0.00     0.037 A 
BRANCH  47  61
ATOM     61  C   UNL A   1      42.229  26.293  27.738  1.00  0.00     0.064 A 
ATOM     62  C   UNL A   1      43.213  26.688  26.822  1.00  0.00     0.173 A 
ATOM     63  C   UNL A   1      41.630  25.036  27.559  1.00  0.00     0.173 A 
ATOM     64  F   UNL A   1      43.805  27.886  26.943  1.00  0.00    -0.203 F 
ATOM     65  C   UNL A   1      43.572  25.865  25.757  1.00  0.00     0.198 A 
ATOM     66  C   UNL A   1      42.007  24.205  26.507  1.00  0.00     0.198 A 
ATOM     67  F   UNL A   1      40.686  24.609  28.411  1.00  0.00    -0.203 F 
ATOM     68  F   UNL A   1      44.491  26.277  24.872  1.00  0.00    -0.200 F 
ATOM     69  C   UNL A   1      42.973  24.623  25.604  1.00  0.00     0.200 A 
ATOM     70  F   UNL A   1      41.434  23.002  26.366  1.00  0.00    -0.200 F 
ATOM     71  F   UNL A   1      43.324  23.829  24.582  1.00  0.00    -0.200 F 
ENDBRANCH  47  61
BRANCH  48  72
ATOM     72  C   UNL A   1      39.313  32.168  35.250  1.00  0.00     0.064 A 
ATOM     73  C   UNL A   1      38.526  31.626  36.275  1.00  0.00     0.173 A 
ATOM     74  C   UNL A   1      39.675  33.520  35.346  1.00  0.00     0.173 A 
ATOM     75  F   UNL A   1      38.134  30.346  36.211  1.00  0.00    -0.203 F 
ATOM     76  C   UNL A   1      38.116  32.406  37.354  1.00  0.00     0.198 A 
ATOM     77  C   UNL A   1      39.285  34.292  36.437  1.00  0.00     0.198 A 
ATOM     78  F   UNL A   1      40.427  34.082  34.389  1.00  0.00    -0.203 F 
ATOM     79  F   UNL A   1      37.342  31.872  38.308  1.00  0.00    -0.200 F 
ATOM     80  C   UNL A   1      38.505  33.735  37.439  1.00  0.00     0.200 A 
ATOM     81  F   UNL A   1      39.670  35.572  36.521  1.00  0.00    -0.200 F 
ATOM     82  F   UNL A   1      38.121  34.482  38.484  1.00  0.00    -0.200 F 
ENDBRANCH  48  72
BRANCH  60  83
ATOM     83  C   UNL A   1      44.553  27.659  34.424  1.00  0.00     0.064 A 
ATOM     84  C   UNL A   1      45.767  28.358  34.474  1.00  0.00     0.173 A 
ATOM     85  C   UNL A   1      44.392  26.551  35.268  1.00  0.00     0.173 A 
ATOM     86  F   UNL A   1      45.972  29.413  33.672  1.00  0.00    -0.203 F 
ATOM     87  C   UNL A   1      46.789  27.949  35.327  1.00  0.00     0.198 A 
ATOM     88  C   UNL A   1      45.409  26.158  36.133  1.00  0.00     0.198 A 
ATOM     89  F   UNL A   1      43.246  25.853  35.257  1.00  0.00    -0.203 F 
ATOM     90  F   UNL A   1      47.957  28.608  35.334  1.00  0.00    -0.200 F 
ATOM     91  C   UNL A   1      46.608  26.855  36.159  1.00  0.00     0.200 A 
ATOM     92  F   UNL A   1      45.229  25.104  36.941  1.00  0.00    -0.200 F 
ATOM     93  F   UNL A   1      47.593  26.465  36.979  1.00  0.00    -0.200 F 
ENDBRANCH  60  83
ENDBRANCH  34  35
ENDBRANCH  27  29
ENDBRANCH  26  27
ENDBRANCH  25  26
ENDBRANCH   1  25
TORSDOF 17
ENDMDL
MODEL 2
REMARK VINA RESULT:     -11.4      1.781      3.193
REMARK SMILES CCc1ccsc1C(=O)N(CC(=O)OCCOC(=O)c1ccc(-c2c3nc(c(-c4c(F)c(F)c(F)c(F)c4F)c4ccc([nH]4)c(-c4c(F)c(F)c(F)c(F)c4F)c4nc(c(-c5c(F)c(F)c(F)c(F)c5F)c5ccc2[nH]5)C=C4)C=C3)cc1)c1ccccc1N
REMARK SMILES IDX 15 1 14 2 12 3 13 4 11 5 10 6 8 7 9 8 7 9 3 10 4 11 5 12
REMARK SMILES IDX 6 13 2 14 1 15 83 16 84 17 88 18 85 19 87 20 86 21 89 22
REMARK SMILES IDX 16 25 17 26 18 27 19 28 20 29 21 30 82 31 22 32 81 33 23 34
REMARK SMILES IDX 24 35 25 36 75 37 26 38 80 39 74 40 76 41 27 42 79 43 73 44
REMARK SMILES IDX 72 45 28 47 60 48 40 49 59 50 41 51 44 52 58 53 77 54 42 55
REMARK SMILES IDX 43 56 57 58 78 59 45 60 29 61 30 62 38 63 31 64 32 65 36 66
REMARK SMILES IDX 39 67 33 68 34 69 37 70 35 71 61 72 62 73 70 74 63 75 64 76
REMARK SMILES IDX 68 77 71 78 65 79 66 80 69 81 67 82 46 83 47 84 55 85 48 86
REMARK SMILES IDX 49 87 53 88 56 89 50 90 51 91 54 92 52 93
REMARK H PARENT 89 23 89 24 76 46 44 57
REMARK Flexibility Score: inf
ROOT
ATOM      1  C   UNL A   1      31.504  28.411  26.847  1.00  0.00     0.274 C 
ENDROOT
BRANCH   1   2
ATOM      2  O   UNL A   1      31.867  27.078  26.431  1.00  0.00    -0.461 OA
BRANCH   2   3
ATOM      3  C   UNL A   1      30.811  26.311  26.083  1.00  0.00     0.326 C 
ATOM      4  O   UNL A   1      30.510  25.262  26.655  1.00  0.00    -0.250 OA
BRANCH   3   5
ATOM      5  C   UNL A   1      30.126  26.658  24.771  1.00  0.00     0.248 C 
BRANCH   5   6
ATOM      6  N   UNL A   1      30.412  27.244  23.470  1.00  0.00    -0.294 N 
BRANCH   6   7
ATOM      7  C   UNL A   1      31.248  26.540  22.551  1.00  0.00     0.269 C 
ATOM      8  O   UNL A   1      31.028  26.631  21.337  1.00  0.00    -0.268 OA
BRANCH   7   9
ATOM      9  C   UNL A   1      32.433  25.750  22.995  1.00  0.00     0.096 A 
ATOM     10  C   UNL A   1      33.668  26.015  23.621  1.00  0.00    -0.025 A 
ATOM     11  C   UNL A   1      34.406  24.790  23.826  1.00  0.00     0.016 A 
ATOM     12  C   UNL A   1      33.735  23.664  23.431  1.00  0.00     0.066 A 
ATOM     13  S   UNL A   1      32.231  24.036  22.754  1.00  0.00    -0.138 S 
BRANCH  10  14
ATOM     14  C   UNL A   1      34.235  27.356  24.052  1.00  0.00     0.034 C 
ATOM     15  C   UNL A   1      34.357  28.431  22.980  1.00  0.00     0.009 C 
ENDBRANCH  10  14
ENDBRANCH   7   9
ENDBRANCH   6   7
BRANCH   6  16
ATOM     16  C   UNL A   1      29.559  28.333  23.019  1.00  0.00     0.068 A 
ATOM     17  C   UNL A   1      28.175  28.235  23.231  1.00  0.00     0.028 A 
ATOM     18  C   UNL A   1      30.031  29.496  22.345  1.00  0.00     0.056 A 
ATOM     19  C   UNL A   1      27.277  29.196  22.750  1.00  0.00     0.002 A 
ATOM     20  C   UNL A   1      29.106  30.425  21.825  1.00  0.00     0.028 A 
ATOM     21  C   UNL A   1      27.740  30.283  22.032  1.00  0.00     0.002 A 
BRANCH  18  22
ATOM     22  N   UNL A   1      31.377  29.703  22.000  1.00  0.00    -0.397 N 
ATOM     23  H   UNL A   1      32.034  29.932  22.697  1.00  0.00     0.156 HD
ATOM     24  H   UNL A   1      31.664  29.620  21.062  1.00  0.00     0.156 HD
ENDBRANCH  18  22
ENDBRANCH   6  16
ENDBRANCH   5   6
ENDBRANCH   3   5
ENDBRANCH   2   3
ENDBRANCH   1   2
BRANCH   1  25
ATOM     25  C   UNL A   1      31.905  29.484  25.834  1.00  0.00     0.275 C 
BRANCH  25  26
ATOM     26  O   UNL A   1      33.226  30.000  26.085  1.00  0.00    -0.458 OA
BRANCH  26  27
ATOM     27  C   UNL A   1      33.278  31.078  26.896  1.00  0.00     0.338 C 
ATOM     28  O   UNL A   1      32.526  32.043  26.886  1.00  0.00    -0.246 OA
BRANCH  27  29
ATOM     29  C   UNL A   1      34.444  31.007  27.787  1.00  0.00     0.060 A 
ATOM     30  C   UNL A   1      35.315  32.090  27.942  1.00  0.00     0.016 A 
ATOM     31  C   UNL A   1      34.740  29.772  28.365  1.00  0.00     0.016 A 
ATOM     32  C   UNL A   1      36.508  31.926  28.657  1.00  0.00     0.010 A 
ATOM     33  C   UNL A   1      35.914  29.619  29.102  1.00  0.00     0.010 A 
ATOM     34  C   UNL A   1      36.818  30.685  29.234  1.00  0.00    -0.014 A 
BRANCH  34  35
ATOM     35  C   UNL A   1      38.090  30.445  29.959  1.00  0.00     0.031 A 
ATOM     36  C   UNL A   1      39.116  29.515  29.377  1.00  0.00     0.074 A 
ATOM     37  C   UNL A   1      38.280  30.977  31.179  1.00  0.00     0.049 A 
ATOM     38  N   UNL A   1      40.154  28.960  29.948  1.00  0.00    -0.248 NA
ATOM     39  C   UNL A   1      38.940  29.154  27.962  1.00  0.00     0.031 C 
ATOM     40  C   UNL A   1      37.382  31.923  31.836  1.00  0.00     0.029 A 
ATOM     41  N   UNL A   1      39.279  30.765  32.096  1.00  0.00    -0.354 N 
ATOM     42  C   UNL A   1      40.738  28.161  28.975  1.00  0.00     0.074 A 
ATOM     43  C   UNL A   1      39.938  28.301  27.776  1.00  0.00     0.031 C 
ATOM     44  C   UNL A   1      37.856  32.195  33.062  1.00  0.00     0.029 A 
ATOM     45  C   UNL A   1      39.058  31.397  33.295  1.00  0.00     0.049 A 
ATOM     46  H   UNL A   1      40.074  30.213  31.913  1.00  0.00     0.167 HD
ATOM     47  C   UNL A   1      41.839  27.378  29.079  1.00  0.00     0.037 A 
ATOM     48  C   UNL A   1      39.720  31.304  34.463  1.00  0.00     0.037 A 
ATOM     49  C   UNL A   1      42.638  27.251  30.271  1.00  0.00     0.049 A 
ATOM     50  C   UNL A   1      40.903  30.383  34.575  1.00  0.00     0.074 A 
ATOM     51  C   UNL A   1      43.776  26.490  30.474  1.00  0.00     0.029 A 
ATOM     52  N   UNL A   1      42.382  27.911  31.463  1.00  0.00    -0.354 N 
ATOM     53  N   UNL A   1      41.431  29.604  33.664  1.00  0.00    -0.248 NA
ATOM     54  C   UNL A   1      41.572  30.319  35.882  1.00  0.00     0.031 C 
ATOM     55  C   UNL A   1      44.190  26.665  31.800  1.00  0.00     0.029 A 
ATOM     56  C   UNL A   1      43.332  27.565  32.411  1.00  0.00     0.049 A 
ATOM     57  H   UNL A   1      41.634  28.534  31.615  1.00  0.00     0.167 HD
ATOM     58  C   UNL A   1      42.505  28.973  34.277  1.00  0.00     0.074 A 
ATOM     59  C   UNL A   1      42.556  29.465  35.639  1.00  0.00     0.031 C 
ATOM     60  C   UNL A   1      43.371  28.069  33.759  1.00  0.00     0.037 A 
BRANCH  47  61
ATOM     61  C   UNL A   1      42.232  26.571  27.877  1.00  0.00     0.064 A 
ATOM     62  C   UNL A   1      43.203  27.023  26.972  1.00  0.00     0.173 A 
ATOM     63  C   UNL A   1      41.657  25.311  27.652  1.00  0.00     0.173 A 
ATOM     64  F   UNL A   1      43.772  28.226  27.138  1.00  0.00    -0.203 F 
ATOM     65  C   UNL A   1      43.571  26.250  25.874  1.00  0.00     0.198 A 
ATOM     66  C   UNL A   1      42.044  24.531  26.565  1.00  0.00     0.198 A 
ATOM     67  F   UNL A   1      40.727  24.831  28.491  1.00  0.00    -0.203 F 
ATOM     68  F   UNL A   1      44.476  26.715  25.001  1.00  0.00    -0.200 F 
ATOM     69  C   UNL A   1      42.996  25.004  25.674  1.00  0.00     0.200 A 
ATOM     70  F   UNL A   1      41.494  23.322  26.379  1.00  0.00    -0.200 F 
ATOM     71  F   UNL A   1      43.356  24.258  24.620  1.00  0.00    -0.200 F 
ENDBRANCH  47  61
BRANCH  48  72
ATOM     72  C   UNL A   1      39.257  32.094  35.630  1.00  0.00     0.064 A 
ATOM     73  C   UNL A   1      38.346  31.552  36.546  1.00  0.00     0.173 A 
ATOM     74  C   UNL A   1      39.732  33.393  35.867  1.00  0.00     0.173 A 
ATOM     75  F   UNL A   1      37.846  30.324  36.343  1.00  0.00    -0.203 F 
ATOM     76  C   UNL A   1      37.925  32.280  37.656  1.00  0.00     0.198 A 
ATOM     77  C   UNL A   1      39.329  34.111  36.991  1.00  0.00     0.198 A 
ATOM     78  F   UNL A   1      40.603  33.955  35.018  1.00  0.00    -0.203 F 
ATOM     79  F   UNL A   1      37.034  31.749  38.503  1.00  0.00    -0.200 F 
ATOM     80  C   UNL A   1      38.425  33.554  37.883  1.00  0.00     0.200 A 
ATOM     81  F   UNL A   1      39.820  35.336  37.212  1.00  0.00    -0.200 F 
ATOM     82  F   UNL A   1      38.029  34.248  38.959  1.00  0.00    -0.200 F 
ENDBRANCH  48  72
BRANCH  60  83
ATOM     83  C   UNL A   1      44.469  27.583  34.655  1.00  0.00     0.064 A 
ATOM     84  C   UNL A   1      44.350  26.390  35.380  1.00  0.00     0.173 A 
ATOM     85  C   UNL A   1      45.666  28.308  34.765  1.00  0.00     0.173 A 
ATOM     86  F   UNL A   1      43.218  25.674  35.320  1.00  0.00    -0.203 F 
ATOM     87  C   UNL A   1      45.386  25.948  36.200  1.00  0.00     0.198 A 
ATOM     88  C   UNL A   1      46.706  27.853  35.570  1.00  0.00     0.198 A 
ATOM     89  F   UNL A   1      45.827  29.454  34.087  1.00  0.00    -0.203 F 
ATOM     90  F   UNL A   1      45.237  24.824  36.916  1.00  0.00    -0.200 F 
ATOM     91  C   UNL A   1      46.563  26.676  36.290  1.00  0.00     0.200 A 
ATOM     92  F   UNL A   1      47.845  28.553  35.651  1.00  0.00    -0.200 F 
ATOM     93  F   UNL A   1      47.557  26.248  37.080  1.00  0.00    -0.200 F 
ENDBRANCH  60  83
ENDBRANCH  34  35
ENDBRANCH  27  29
ENDBRANCH  26  27
ENDBRANCH  25  26
ENDBRANCH   1  25
TORSDOF 17
ENDMDL
MODEL 3
REMARK VINA RESULT:     -11.3      1.784      3.387
REMARK SMILES CCc1ccsc1C(=O)N(CC(=O)OCCOC(=O)c1ccc(-c2c3nc(c(-c4c(F)c(F)c(F)c(F)c4F)c4ccc([nH]4)c(-c4c(F)c(F)c(F)c(F)c4F)c4nc(c(-c5c(F)c(F)c(F)c(F)c5F)c5ccc2[nH]5)C=C4)C=C3)cc1)c1ccccc1N
REMARK SMILES IDX 15 1 14 2 12 3 13 4 11 5 10 6 8 7 9 8 7 9 3 10 4 11 5 12
REMARK SMILES IDX 6 13 2 14 1 15 83 16 84 17 88 18 85 19 87 20 86 21 89 22
REMARK SMILES IDX 16 25 17 26 18 27 19 28 20 29 21 30 82 31 22 32 81 33 23 34
REMARK SMILES IDX 24 35 25 36 75 37 26 38 80 39 74 40 76 41 27 42 79 43 73 44
REMARK SMILES IDX 72 45 28 47 60 48 40 49 59 50 41 51 44 52 58 53 77 54 42 55
REMARK SMILES IDX 43 56 57 58 78 59 45 60 29 61 30 62 38 63 31 64 32 65 36 66
REMARK SMILES IDX 39 67 33 68 34 69 37 70 35 71 61 72 62 73 70 74 63 75 64 76
REMARK SMILES IDX 68 77 71 78 65 79 66 80 69 81 67 82 46 83 47 84 55 85 48 86
REMARK SMILES IDX 49 87 53 88 56 89 50 90 51 91 54 92 52 93
REMARK H PARENT 89 23 89 24 76 46 44 57
REMARK Flexibility Score: inf
ROOT
ATOM      1  C   UNL A   1      31.577  28.456  26.935  1.00  0.00     0.274 C 
ENDROOT
BRANCH   1   2
ATOM      2  O   UNL A   1      31.906  27.146  26.428  1.00  0.00    -0.461 OA
BRANCH   2   3
ATOM      3  C   UNL A   1      30.826  26.395  26.122  1.00  0.00     0.326 C 
ATOM      4  O   UNL A   1      30.499  25.382  26.745  1.00  0.00    -0.250 OA
BRANCH   3   5
ATOM      5  C   UNL A   1      30.143  26.699  24.799  1.00  0.00     0.248 C 
BRANCH   5   6
ATOM      6  N   UNL A   1      30.426  27.261  23.486  1.00  0.00    -0.294 N 
BRANCH   6   7
ATOM      7  C   UNL A   1      31.251  26.537  22.575  1.00  0.00     0.269 C 
ATOM      8  O   UNL A   1      31.023  26.607  21.361  1.00  0.00    -0.268 OA
BRANCH   7   9
ATOM      9  C   UNL A   1      32.436  25.749  23.025  1.00  0.00     0.096 A 
ATOM     10  C   UNL A   1      33.657  26.013  23.676  1.00  0.00    -0.025 A 
ATOM     11  C   UNL A   1      34.403  24.790  23.872  1.00  0.00     0.016 A 
ATOM     12  C   UNL A   1      33.748  23.665  23.445  1.00  0.00     0.066 A 
ATOM     13  S   UNL A   1      32.253  24.037  22.749  1.00  0.00    -0.138 S 
BRANCH  10  14
ATOM     14  C   UNL A   1      34.206  27.350  24.141  1.00  0.00     0.034 C 
ATOM     15  C   UNL A   1      34.324  28.449  23.094  1.00  0.00     0.009 C 
ENDBRANCH  10  14
ENDBRANCH   7   9
ENDBRANCH   6   7
BRANCH   6  16
ATOM     16  C   UNL A   1      29.577  28.349  23.023  1.00  0.00     0.068 A 
ATOM     17  C   UNL A   1      28.192  28.258  23.231  1.00  0.00     0.028 A 
ATOM     18  C   UNL A   1      30.055  29.504  22.339  1.00  0.00     0.056 A 
ATOM     19  C   UNL A   1      27.300  29.216  22.739  1.00  0.00     0.002 A 
ATOM     20  C   UNL A   1      29.136  30.431  21.807  1.00  0.00     0.028 A 
ATOM     21  C   UNL A   1      27.768  30.295  22.011  1.00  0.00     0.002 A 
BRANCH  18  22
ATOM     22  N   UNL A   1      31.404  29.704  21.997  1.00  0.00    -0.397 N 
ATOM     23  H   UNL A   1      31.688  29.637  21.057  1.00  0.00     0.156 HD
ATOM     24  H   UNL A   1      32.064  29.909  22.697  1.00  0.00     0.156 HD
ENDBRANCH  18  22
ENDBRANCH   6  16
ENDBRANCH   5   6
ENDBRANCH   3   5
ENDBRANCH   2   3
ENDBRANCH   1   2
BRANCH   1  25
ATOM     25  C   UNL A   1      31.938  29.582  25.965  1.00  0.00     0.275 C 
BRANCH  25  26
ATOM     26  O   UNL A   1      33.274  30.075  26.181  1.00  0.00    -0.458 OA
BRANCH  26  27
ATOM     27  C   UNL A   1      33.363  31.165  26.973  1.00  0.00     0.338 C 
ATOM     28  O   UNL A   1      32.639  32.151  26.953  1.00  0.00    -0.246 OA
BRANCH  27  29
ATOM     29  C   UNL A   1      34.533  31.075  27.857  1.00  0.00     0.060 A 
ATOM     30  C   UNL A   1      35.427  32.141  28.002  1.00  0.00     0.016 A 
ATOM     31  C   UNL A   1      34.809  29.837  28.439  1.00  0.00     0.016 A 
ATOM     32  C   UNL A   1      36.621  31.957  28.709  1.00  0.00     0.010 A 
ATOM     33  C   UNL A   1      35.984  29.663  29.169  1.00  0.00     0.010 A 
ATOM     34  C   UNL A   1      36.910  30.712  29.290  1.00  0.00    -0.014 A 
BRANCH  34  35
ATOM     35  C   UNL A   1      38.182  30.450  30.008  1.00  0.00     0.031 A 
ATOM     36  C   UNL A   1      39.181  29.491  29.428  1.00  0.00     0.074 A 
ATOM     37  C   UNL A   1      38.394  30.991  31.221  1.00  0.00     0.049 A 
ATOM     38  N   UNL A   1      40.210  28.918  29.997  1.00  0.00    -0.248 NA
ATOM     39  C   UNL A   1      38.986  29.119  28.018  1.00  0.00     0.031 C 
ATOM     40  C   UNL A   1      37.523  31.964  31.875  1.00  0.00     0.029 A 
ATOM     41  N   UNL A   1      39.395  30.765  32.133  1.00  0.00    -0.354 N 
ATOM     42  C   UNL A   1      40.768  28.095  29.028  1.00  0.00     0.074 A 
ATOM     43  C   UNL A   1      39.962  28.242  27.834  1.00  0.00     0.031 C 
ATOM     44  C   UNL A   1      38.013  32.238  33.094  1.00  0.00     0.029 A 
ATOM     45  C   UNL A   1      39.198  31.415  33.326  1.00  0.00     0.049 A 
ATOM     46  H   UNL A   1      40.176  30.193  31.949  1.00  0.00     0.167 HD
ATOM     47  C   UNL A   1      41.852  27.288  29.132  1.00  0.00     0.037 A 
ATOM     48  C   UNL A   1      39.867  31.319  34.490  1.00  0.00     0.037 A 
ATOM     49  C   UNL A   1      42.657  27.155  30.319  1.00  0.00     0.049 A 
ATOM     50  C   UNL A   1      41.029  30.371  34.602  1.00  0.00     0.074 A 
ATOM     51  C   UNL A   1      43.779  26.369  30.522  1.00  0.00     0.029 A 
ATOM     52  N   UNL A   1      42.425  27.833  31.506  1.00  0.00    -0.354 N 
ATOM     53  N   UNL A   1      41.532  29.570  33.696  1.00  0.00    -0.248 NA
ATOM     54  C   UNL A   1      41.706  30.305  35.905  1.00  0.00     0.031 C 
ATOM     55  C   UNL A   1      44.207  26.549  31.842  1.00  0.00     0.029 A 
ATOM     56  C   UNL A   1      43.375  27.475  32.450  1.00  0.00     0.049 A 
ATOM     57  H   UNL A   1      41.694  28.475  31.657  1.00  0.00     0.167 HD
ATOM     58  C   UNL A   1      42.596  28.921  34.308  1.00  0.00     0.074 A 
ATOM     59  C   UNL A   1      42.669  29.426  35.663  1.00  0.00     0.031 C 
ATOM     60  C   UNL A   1      43.436  27.992  33.792  1.00  0.00     0.037 A 
BRANCH  47  61
ATOM     61  C   UNL A   1      42.216  26.459  27.936  1.00  0.00     0.064 A 
ATOM     62  C   UNL A   1      41.617  25.216  27.691  1.00  0.00     0.173 A 
ATOM     63  C   UNL A   1      43.147  26.937  27.001  1.00  0.00     0.173 A 
ATOM     64  F   UNL A   1      40.730  24.711  28.562  1.00  0.00    -0.203 F 
ATOM     65  C   UNL A   1      41.951  24.471  26.563  1.00  0.00     0.198 A 
ATOM     66  C   UNL A   1      43.463  26.199  25.862  1.00  0.00     0.198 A 
ATOM     67  F   UNL A   1      43.745  28.124  27.186  1.00  0.00    -0.203 F 
ATOM     68  F   UNL A   1      41.393  23.268  26.366  1.00  0.00    -0.200 F 
ATOM     69  C   UNL A   1      42.869  24.965  25.648  1.00  0.00     0.200 A 
ATOM     70  F   UNL A   1      44.342  26.683  24.974  1.00  0.00    -0.200 F 
ATOM     71  F   UNL A   1      43.185  24.249  24.560  1.00  0.00    -0.200 F 
ENDBRANCH  47  61
BRANCH  48  72
ATOM     72  C   UNL A   1      39.431  32.131  35.651  1.00  0.00     0.064 A 
ATOM     73  C   UNL A   1      39.970  33.405  35.877  1.00  0.00     0.173 A 
ATOM     74  C   UNL A   1      38.452  31.666  36.543  1.00  0.00     0.173 A 
ATOM     75  F   UNL A   1      40.926  33.878  35.065  1.00  0.00    -0.203 F 
ATOM     76  C   UNL A   1      39.547  34.183  36.952  1.00  0.00     0.198 A 
ATOM     77  C   UNL A   1      38.014  32.454  37.604  1.00  0.00     0.198 A 
ATOM     78  F   UNL A   1      37.909  30.453  36.369  1.00  0.00    -0.203 F 
ATOM     79  F   UNL A   1      40.097  35.387  37.161  1.00  0.00    -0.200 F 
ATOM     80  C   UNL A   1      38.563  33.711  37.808  1.00  0.00     0.200 A 
ATOM     81  F   UNL A   1      37.056  32.000  38.422  1.00  0.00    -0.200 F 
ATOM     82  F   UNL A   1      38.148  34.466  38.835  1.00  0.00    -0.200 F 
ENDBRANCH  48  72
BRANCH  60  83
ATOM     83  C   UNL A   1      44.530  27.490  34.685  1.00  0.00     0.064 A 
ATOM     84  C   UNL A   1      45.756  28.160  34.789  1.00  0.00     0.173 A 
ATOM     85  C   UNL A   1      44.335  26.342  35.467  1.00  0.00     0.173 A 
ATOM     86  F   UNL A   1      45.995  29.251  34.047  1.00  0.00    -0.203 F 
ATOM     87  C   UNL A   1      46.758  27.685  35.632  1.00  0.00     0.198 A 
ATOM     88  C   UNL A   1      45.331  25.883  36.324  1.00  0.00     0.198 A 
ATOM     89  F   UNL A   1      43.175  25.670  35.404  1.00  0.00    -0.203 F 
ATOM     90  F   UNL A   1      47.939  28.318  35.689  1.00  0.00    -0.200 F 
ATOM     91  C   UNL A   1      46.543  26.552  36.402  1.00  0.00     0.200 A 
ATOM     92  F   UNL A   1      45.119  24.791  37.071  1.00  0.00    -0.200 F 
ATOM     93  F   UNL A   1      47.509  26.098  37.213  1.00  0.00    -0.200 F 
ENDBRANCH  60  83
ENDBRANCH  34  35
ENDBRANCH  27  29
ENDBRANCH  26  27
ENDBRANCH  25  26
ENDBRANCH   1  25
TORSDOF 17
ENDMDL
