MODEL 1
REMARK VINA RESULT:     -10.8      0.000      0.000
REMARK SMILES O=C(OCCOC(=O)[C@H](CCO)NC(=O)c1cccc(C(F)(F)F)c1F)c1ccc(-c2c3nc(c(-c4c(F)c(F)c(F)c(F)c4F)c4ccc([nH]4)c(-c4c(F)c(F)c(F)c(F)c4F)c4nc(c(-c5c(F)c(F)c(F)c(F)c5F)c5ccc2[nH]5)C=C4)C=C3)cc1
REMARK SMILES IDX 5 1 4 2 3 3 2 4 1 5 27 6 28 7 89 8 29 9 88 10 30 11 31 12
REMARK SMILES IDX 32 13 82 14 33 15 87 16 81 17 83 18 34 19 86 20 80 21 79 22
REMARK SMILES IDX 35 24 67 25 47 26 66 27 48 28 51 29 65 30 84 31 49 32 50 33
REMARK SMILES IDX 64 35 85 36 52 37 36 38 37 39 45 40 38 41 39 42 43 43 46 44
REMARK SMILES IDX 40 45 41 46 44 47 42 48 68 49 69 50 77 51 70 52 71 53 75 54
REMARK SMILES IDX 78 55 72 56 73 57 76 58 74 59 53 60 54 61 62 62 55 63 56 64
REMARK SMILES IDX 60 65 63 66 57 67 58 68 61 69 59 70 6 71 7 72 8 73 9 74
REMARK SMILES IDX 13 75 14 76 15 78 16 79 17 80 25 81 18 82 20 83 26 84 19 85
REMARK SMILES IDX 21 86 22 87 23 88 24 89 10 90 11 91 12 92
REMARK H PARENT 83 23 51 34 13 77 12 93
REMARK Flexibility Score: inf
ROOT
ATOM      1  C   UNL A   1      41.015  19.744  26.372  1.00  0.00     0.274 C 
ENDROOT
BRANCH   1   2
ATOM      2  C   UNL A   1      39.792  20.648  26.153  1.00  0.00     0.275 C 
BRANCH   2   3
ATOM      3  O   UNL A   1      39.811  21.877  26.898  1.00  0.00    -0.458 OA
BRANCH   3   4
ATOM      4  C   UNL A   1      39.092  22.978  26.544  1.00  0.00     0.338 C 
ATOM      5  O   UNL A   1      38.179  22.924  25.739  1.00  0.00    -0.246 OA
BRANCH   4   6
ATOM      6  C   UNL A   1      39.633  24.294  26.959  1.00  0.00     0.060 A 
ATOM      7  C   UNL A   1      40.375  25.167  26.159  1.00  0.00     0.016 A 
ATOM      8  C   UNL A   1      39.285  24.673  28.241  1.00  0.00     0.016 A 
ATOM      9  C   UNL A   1      40.676  26.469  26.621  1.00  0.00     0.010 A 
ATOM     10  C   UNL A   1      39.544  25.968  28.670  1.00  0.00     0.010 A 
ATOM     11  C   UNL A   1      40.233  26.888  27.881  1.00  0.00    -0.014 A 
BRANCH  11  12
ATOM     12  C   UNL A   1      40.592  28.156  28.575  1.00  0.00     0.031 A 
ATOM     13  C   UNL A   1      41.881  28.180  29.359  1.00  0.00     0.074 A 
ATOM     14  C   UNL A   1      39.687  29.127  28.821  1.00  0.00     0.049 A 
ATOM     15  N   UNL A   1      42.380  29.129  30.110  1.00  0.00    -0.248 NA
ATOM     16  C   UNL A   1      42.673  26.937  29.355  1.00  0.00     0.031 C 
ATOM     17  C   UNL A   1      38.294  29.135  28.372  1.00  0.00     0.029 A 
ATOM     18  N   UNL A   1      39.787  30.260  29.602  1.00  0.00    -0.354 N 
ATOM     19  C   UNL A   1      43.556  28.610  30.631  1.00  0.00     0.074 A 
ATOM     20  C   UNL A   1      43.646  27.233  30.201  1.00  0.00     0.031 C 
ATOM     21  C   UNL A   1      37.660  30.186  28.927  1.00  0.00     0.029 A 
ATOM     22  C   UNL A   1      38.606  30.951  29.742  1.00  0.00     0.049 A 
ATOM     23  H   UNL A   1      40.631  30.548  30.021  1.00  0.00     0.167 HD
ATOM     24  C   UNL A   1      44.506  29.242  31.355  1.00  0.00     0.037 A 
ATOM     25  C   UNL A   1      38.325  32.079  30.429  1.00  0.00     0.037 A 
ATOM     26  C   UNL A   1      44.425  30.609  31.789  1.00  0.00     0.049 A 
ATOM     27  C   UNL A   1      39.422  32.828  31.147  1.00  0.00     0.074 A 
ATOM     28  C   UNL A   1      45.420  31.397  32.341  1.00  0.00     0.029 A 
ATOM     29  N   UNL A   1      43.277  31.378  31.751  1.00  0.00    -0.354 N 
ATOM     30  N   UNL A   1      40.660  32.468  31.374  1.00  0.00    -0.248 NA
ATOM     31  C   UNL A   1      39.098  34.175  31.655  1.00  0.00     0.031 C 
ATOM     32  C   UNL A   1      44.862  32.633  32.677  1.00  0.00     0.029 A 
ATOM     33  C   UNL A   1      43.535  32.629  32.284  1.00  0.00     0.049 A 
ATOM     34  H   UNL A   1      42.407  31.080  31.399  1.00  0.00     0.167 HD
ATOM     35  C   UNL A   1      41.272  33.556  31.989  1.00  0.00     0.074 A 
ATOM     36  C   UNL A   1      40.269  34.588  32.119  1.00  0.00     0.031 C 
ATOM     37  C   UNL A   1      42.560  33.682  32.385  1.00  0.00     0.037 A 
BRANCH  24  38
ATOM     38  C   UNL A   1      45.780  28.506  31.633  1.00  0.00     0.064 A 
ATOM     39  C   UNL A   1      46.813  28.463  30.688  1.00  0.00     0.173 A 
ATOM     40  C   UNL A   1      45.904  27.717  32.788  1.00  0.00     0.173 A 
ATOM     41  F   UNL A   1      46.737  29.195  29.565  1.00  0.00    -0.203 F 
ATOM     42  C   UNL A   1      47.913  27.630  30.875  1.00  0.00     0.198 A 
ATOM     43  C   UNL A   1      47.017  26.909  32.985  1.00  0.00     0.198 A 
ATOM     44  F   UNL A   1      44.940  27.726  33.720  1.00  0.00    -0.203 F 
ATOM     45  F   UNL A   1      48.865  27.560  29.935  1.00  0.00    -0.200 F 
ATOM     46  C   UNL A   1      48.012  26.853  32.021  1.00  0.00     0.200 A 
ATOM     47  F   UNL A   1      47.116  26.170  34.098  1.00  0.00    -0.200 F 
ATOM     48  F   UNL A   1      49.064  26.041  32.192  1.00  0.00    -0.200 F 
ENDBRANCH  24  38
BRANCH  25  49
ATOM     49  C   UNL A   1      36.959  32.664  30.384  1.00  0.00     0.064 A 
ATOM     50  C   UNL A   1      36.026  32.445  31.405  1.00  0.00     0.173 A 
ATOM     51  C   UNL A   1      36.587  33.509  29.328  1.00  0.00     0.173 A 
ATOM     52  F   UNL A   1      36.340  31.665  32.448  1.00  0.00    -0.203 F 
ATOM     53  C   UNL A   1      34.770  33.052  31.370  1.00  0.00     0.198 A 
ATOM     54  C   UNL A   1      35.342  34.130  29.305  1.00  0.00     0.198 A 
ATOM     55  F   UNL A   1      37.464  33.779  28.349  1.00  0.00    -0.203 F 
ATOM     56  F   UNL A   1      33.892  32.833  32.360  1.00  0.00    -0.200 F 
ATOM     57  C   UNL A   1      34.432  33.899  30.325  1.00  0.00     0.200 A 
ATOM     58  F   UNL A   1      35.036  34.976  28.311  1.00  0.00    -0.200 F 
ATOM     59  F   UNL A   1      33.237  34.506  30.308  1.00  0.00    -0.200 F 
ENDBRANCH  25  49
BRANCH  37  60
ATOM     60  C   UNL A   1      43.024  35.003  32.926  1.00  0.00     0.064 A 
ATOM     61  C   UNL A   1      42.904  35.277  34.299  1.00  0.00     0.173 A 
ATOM     62  C   UNL A   1      43.489  36.028  32.092  1.00  0.00     0.173 A 
ATOM     63  F   UNL A   1      42.454  34.333  35.140  1.00  0.00    -0.203 F 
ATOM     64  C   UNL A   1      43.214  36.533  34.811  1.00  0.00     0.198 A 
ATOM     65  C   UNL A   1      43.823  37.277  32.613  1.00  0.00     0.198 A 
ATOM     66  F   UNL A   1      43.629  35.816  30.775  1.00  0.00    -0.203 F 
ATOM     67  F   UNL A   1      43.053  36.781  36.118  1.00  0.00    -0.200 F 
ATOM     68  C   UNL A   1      43.675  37.532  33.968  1.00  0.00     0.200 A 
ATOM     69  F   UNL A   1      44.285  38.238  31.800  1.00  0.00    -0.200 F 
ATOM     70  F   UNL A   1      43.975  38.742  34.462  1.00  0.00    -0.200 F 
ENDBRANCH  37  60
ENDBRANCH  11  12
ENDBRANCH   4   6
ENDBRANCH   3   4
ENDBRANCH   2   3
ENDBRANCH   1   2
BRANCH   1  71
ATOM     71  O   UNL A   1      41.945  19.761  25.266  1.00  0.00    -0.461 OA
BRANCH  71  72
ATOM     72  C   UNL A   1      43.018  18.928  25.365  1.00  0.00     0.328 C 
ATOM     73  O   UNL A   1      42.947  17.820  25.890  1.00  0.00    -0.250 OA
BRANCH  72  74
ATOM     74  C   UNL A   1      44.339  19.524  24.753  1.00  0.00     0.194 C 
BRANCH  74  75
ATOM     75  N   UNL A   1      44.235  20.961  24.438  1.00  0.00    -0.338 N 
ATOM     76  C   UNL A   1      43.825  22.066  25.156  1.00  0.00     0.254 C 
ATOM     77  H   UNL A   1      44.518  21.178  23.520  1.00  0.00     0.164 HD
ATOM     78  O   UNL A   1      43.220  22.895  24.464  1.00  0.00    -0.269 OA
BRANCH  76  79
ATOM     79  C   UNL A   1      44.112  22.463  26.587  1.00  0.00     0.076 A 
ATOM     80  C   UNL A   1      43.036  22.276  27.486  1.00  0.00     0.017 A 
ATOM     81  C   UNL A   1      45.195  23.200  27.077  1.00  0.00     0.148 A 
ATOM     82  C   UNL A   1      43.015  22.845  28.764  1.00  0.00     0.002 A 
ATOM     83  C   UNL A   1      45.143  23.882  28.312  1.00  0.00     0.092 A 
ATOM     84  F   UNL A   1      46.312  23.311  26.362  1.00  0.00    -0.205 F 
ATOM     85  C   UNL A   1      44.051  23.674  29.166  1.00  0.00     0.016 A 
BRANCH  83  86
ATOM     86  C   UNL A   1      46.186  24.893  28.714  1.00  0.00     0.419 C 
ATOM     87  F   UNL A   1      45.967  26.104  28.114  1.00  0.00    -0.166 F 
ATOM     88  F   UNL A   1      46.188  25.150  30.050  1.00  0.00    -0.166 F 
ATOM     89  F   UNL A   1      47.462  24.565  28.381  1.00  0.00    -0.166 F 
ENDBRANCH  83  86
ENDBRANCH  76  79
ENDBRANCH  74  75
BRANCH  74  90
ATOM     90  C   UNL A   1      45.435  19.352  25.827  1.00  0.00     0.065 C 
BRANCH  90  91
ATOM     91  C   UNL A   1      46.771  18.987  25.200  1.00  0.00     0.159 C 
BRANCH  91  92
ATOM     92  O   UNL A   1      47.385  18.005  26.021  1.00  0.00    -0.396 OA
ATOM     93  H   UNL A   1      48.065  18.424  26.572  1.00  0.00     0.210 HD
ENDBRANCH  91  92
ENDBRANCH  90  91
ENDBRANCH  74  90
ENDBRANCH  72  74
ENDBRANCH  71  72
ENDBRANCH   1  71
TORSDOF 17
ENDMDL
MODEL 2
REMARK VINA RESULT:     -10.5      3.679      5.348
REMARK SMILES O=C(OCCOC(=O)[C@H](CCO)NC(=O)c1cccc(C(F)(F)F)c1F)c1ccc(-c2c3nc(c(-c4c(F)c(F)c(F)c(F)c4F)c4ccc([nH]4)c(-c4c(F)c(F)c(F)c(F)c4F)c4nc(c(-c5c(F)c(F)c(F)c(F)c5F)c5ccc2[nH]5)C=C4)C=C3)cc1
REMARK SMILES IDX 5 1 4 2 3 3 2 4 1 5 27 6 28 7 89 8 29 9 88 10 30 11 31 12
REMARK SMILES IDX 32 13 82 14 33 15 87 16 81 17 83 18 34 19 86 20 80 21 79 22
REMARK SMILES IDX 35 24 67 25 47 26 66 27 48 28 51 29 65 30 84 31 49 32 50 33
REMARK SMILES IDX 64 35 85 36 52 37 36 38 37 39 45 40 38 41 39 42 43 43 46 44
REMARK SMILES IDX 40 45 41 46 44 47 42 48 68 49 69 50 77 51 70 52 71 53 75 54
REMARK SMILES IDX 78 55 72 56 73 57 76 58 74 59 53 60 54 61 62 62 55 63 56 64
REMARK SMILES IDX 60 65 63 66 57 67 58 68 61 69 59 70 6 71 7 72 8 73 9 74
REMARK SMILES IDX 13 75 14 76 15 78 16 79 17 80 25 81 18 82 20 83 26 84 19 85
REMARK SMILES IDX 21 86 22 87 23 88 24 89 10 90 11 91 12 92
REMARK H PARENT 83 23 51 34 13 77 12 93
REMARK Flexibility Score: inf
ROOT
ATOM      1  C   UNL A   1      45.909  22.397  25.518  1.00  0.00     0.274 C 
ENDROOT
BRANCH   1   2
ATOM      2  C   UNL A   1      46.235  23.563  24.571  1.00  0.00     0.275 C 
BRANCH   2   3
ATOM      3  O   UNL A   1      45.215  24.573  24.488  1.00  0.00    -0.458 OA
BRANCH   3   4
ATOM      4  C   UNL A   1      45.409  25.864  24.879  1.00  0.00     0.338 C 
ATOM      5  O   UNL A   1      46.391  26.502  24.544  1.00  0.00    -0.246 OA
BRANCH   4   6
ATOM      6  C   UNL A   1      44.523  26.378  25.951  1.00  0.00     0.060 A 
ATOM      7  C   UNL A   1      43.415  25.718  26.488  1.00  0.00     0.016 A 
ATOM      8  C   UNL A   1      44.916  27.593  26.479  1.00  0.00     0.016 A 
ATOM      9  C   UNL A   1      42.764  26.240  27.630  1.00  0.00     0.010 A 
ATOM     10  C   UNL A   1      44.302  28.074  27.627  1.00  0.00     0.010 A 
ATOM     11  C   UNL A   1      43.229  27.418  28.226  1.00  0.00    -0.014 A 
BRANCH  11  12
ATOM     12  C   UNL A   1      42.571  28.177  29.327  1.00  0.00     0.031 A 
ATOM     13  C   UNL A   1      42.981  27.847  30.741  1.00  0.00     0.074 A 
ATOM     14  C   UNL A   1      41.421  28.861  29.147  1.00  0.00     0.049 A 
ATOM     15  N   UNL A   1      42.509  28.306  31.872  1.00  0.00    -0.248 NA
ATOM     16  C   UNL A   1      44.010  26.803  30.899  1.00  0.00     0.031 C 
ATOM     17  C   UNL A   1      40.724  29.046  27.874  1.00  0.00     0.029 A 
ATOM     18  N   UNL A   1      40.583  29.450  30.071  1.00  0.00    -0.354 N 
ATOM     19  C   UNL A   1      43.206  27.636  32.865  1.00  0.00     0.074 A 
ATOM     20  C   UNL A   1      44.057  26.666  32.214  1.00  0.00     0.031 C 
ATOM     21  C   UNL A   1      39.543  29.653  28.106  1.00  0.00     0.029 A 
ATOM     22  C   UNL A   1      39.413  29.936  29.536  1.00  0.00     0.049 A 
ATOM     23  H   UNL A   1      40.804  29.517  31.029  1.00  0.00     0.167 HD
ATOM     24  C   UNL A   1      43.185  27.850  34.200  1.00  0.00     0.037 A 
ATOM     25  C   UNL A   1      38.367  30.555  30.127  1.00  0.00     0.037 A 
ATOM     26  C   UNL A   1      42.342  28.809  34.858  1.00  0.00     0.049 A 
ATOM     27  C   UNL A   1      38.407  30.878  31.602  1.00  0.00     0.074 A 
ATOM     28  C   UNL A   1      42.396  29.247  36.169  1.00  0.00     0.029 A 
ATOM     29  N   UNL A   1      41.273  29.453  34.263  1.00  0.00    -0.354 N 
ATOM     30  N   UNL A   1      39.267  30.495  32.511  1.00  0.00    -0.248 NA
ATOM     31  C   UNL A   1      37.358  31.774  32.123  1.00  0.00     0.031 C 
ATOM     32  C   UNL A   1      41.332  30.127  36.382  1.00  0.00     0.029 A 
ATOM     33  C   UNL A   1      40.650  30.275  35.186  1.00  0.00     0.049 A 
ATOM     34  H   UNL A   1      40.997  29.344  33.324  1.00  0.00     0.167 HD
ATOM     35  C   UNL A   1      38.902  31.147  33.685  1.00  0.00     0.074 A 
ATOM     36  C   UNL A   1      37.732  31.938  33.385  1.00  0.00     0.031 C 
ATOM     37  C   UNL A   1      39.509  31.101  34.895  1.00  0.00     0.037 A 
BRANCH  24  38
ATOM     38  C   UNL A   1      44.182  27.118  35.043  1.00  0.00     0.064 A 
ATOM     39  C   UNL A   1      45.473  27.625  35.244  1.00  0.00     0.173 A 
ATOM     40  C   UNL A   1      43.893  25.832  35.526  1.00  0.00     0.173 A 
ATOM     41  F   UNL A   1      45.799  28.847  34.794  1.00  0.00    -0.203 F 
ATOM     42  C   UNL A   1      46.448  26.857  35.872  1.00  0.00     0.198 A 
ATOM     43  C   UNL A   1      44.861  25.079  36.179  1.00  0.00     0.198 A 
ATOM     44  F   UNL A   1      42.671  25.305  35.357  1.00  0.00    -0.203 F 
ATOM     45  F   UNL A   1      47.692  27.336  36.007  1.00  0.00    -0.200 F 
ATOM     46  C   UNL A   1      46.142  25.585  36.336  1.00  0.00     0.200 A 
ATOM     47  F   UNL A   1      44.559  23.857  36.637  1.00  0.00    -0.200 F 
ATOM     48  F   UNL A   1      47.087  24.841  36.927  1.00  0.00    -0.200 F 
ENDBRANCH  24  38
BRANCH  25  49
ATOM     49  C   UNL A   1      37.222  31.036  29.311  1.00  0.00     0.064 A 
ATOM     50  C   UNL A   1      36.161  30.194  28.955  1.00  0.00     0.173 A 
ATOM     51  C   UNL A   1      37.149  32.382  28.921  1.00  0.00     0.173 A 
ATOM     52  F   UNL A   1      36.172  28.905  29.323  1.00  0.00    -0.203 F 
ATOM     53  C   UNL A   1      35.068  30.682  28.238  1.00  0.00     0.198 A 
ATOM     54  C   UNL A   1      36.048  32.872  28.224  1.00  0.00     0.198 A 
ATOM     55  F   UNL A   1      38.123  33.233  29.275  1.00  0.00    -0.203 F 
ATOM     56  F   UNL A   1      34.061  29.861  27.911  1.00  0.00    -0.200 F 
ATOM     57  C   UNL A   1      35.009  32.021  27.880  1.00  0.00     0.200 A 
ATOM     58  F   UNL A   1      35.980  34.174  27.913  1.00  0.00    -0.200 F 
ATOM     59  F   UNL A   1      33.945  32.496  27.218  1.00  0.00    -0.200 F 
ENDBRANCH  25  49
BRANCH  37  60
ATOM     60  C   UNL A   1      38.997  31.984  35.994  1.00  0.00     0.064 A 
ATOM     61  C   UNL A   1      39.471  33.302  36.110  1.00  0.00     0.173 A 
ATOM     62  C   UNL A   1      38.126  31.513  36.986  1.00  0.00     0.173 A 
ATOM     63  F   UNL A   1      40.316  33.799  35.193  1.00  0.00    -0.203 F 
ATOM     64  C   UNL A   1      39.108  34.106  37.186  1.00  0.00     0.198 A 
ATOM     65  C   UNL A   1      37.744  32.330  38.049  1.00  0.00     0.198 A 
ATOM     66  F   UNL A   1      37.639  30.265  36.918  1.00  0.00    -0.203 F 
ATOM     67  F   UNL A   1      39.606  35.345  37.294  1.00  0.00    -0.200 F 
ATOM     68  C   UNL A   1      38.243  33.619  38.154  1.00  0.00     0.200 A 
ATOM     69  F   UNL A   1      36.895  31.865  38.976  1.00  0.00    -0.200 F 
ATOM     70  F   UNL A   1      37.892  34.394  39.190  1.00  0.00    -0.200 F 
ENDBRANCH  37  60
ENDBRANCH  11  12
ENDBRANCH   4   6
ENDBRANCH   3   4
ENDBRANCH   2   3
ENDBRANCH   1   2
BRANCH   1  71
ATOM     71  O   UNL A   1      44.642  22.548  26.196  1.00  0.00    -0.461 OA
BRANCH  71  72
ATOM     72  C   UNL A   1      43.604  21.808  25.712  1.00  0.00     0.328 C 
ATOM     73  O   UNL A   1      42.993  22.117  24.693  1.00  0.00    -0.250 OA
BRANCH  72  74
ATOM     74  C   UNL A   1      43.273  20.540  26.583  1.00  0.00     0.194 C 
BRANCH  74  75
ATOM     75  N   UNL A   1      42.341  20.826  27.690  1.00  0.00    -0.338 N 
ATOM     76  C   UNL A   1      41.364  21.779  27.891  1.00  0.00     0.254 C 
ATOM     77  H   UNL A   1      42.435  20.203  28.447  1.00  0.00     0.164 HD
ATOM     78  O   UNL A   1      41.297  22.163  29.066  1.00  0.00    -0.269 OA
BRANCH  76  79
ATOM     79  C   UNL A   1      40.309  22.312  26.947  1.00  0.00     0.076 A 
ATOM     80  C   UNL A   1      40.058  23.700  27.053  1.00  0.00     0.017 A 
ATOM     81  C   UNL A   1      39.400  21.586  26.172  1.00  0.00     0.148 A 
ATOM     82  C   UNL A   1      38.936  24.308  26.479  1.00  0.00     0.002 A 
ATOM     83  C   UNL A   1      38.201  22.154  25.688  1.00  0.00     0.092 A 
ATOM     84  F   UNL A   1      39.625  20.303  25.894  1.00  0.00    -0.205 F 
ATOM     85  C   UNL A   1      37.991  23.533  25.826  1.00  0.00     0.016 A 
BRANCH  83  86
ATOM     86  C   UNL A   1      37.097  21.316  25.097  1.00  0.00     0.419 C 
ATOM     87  F   UNL A   1      36.429  21.991  24.110  1.00  0.00    -0.166 F 
ATOM     88  F   UNL A   1      37.554  20.178  24.507  1.00  0.00    -0.166 F 
ATOM     89  F   UNL A   1      36.132  20.936  25.975  1.00  0.00    -0.166 F 
ENDBRANCH  83  86
ENDBRANCH  76  79
ENDBRANCH  74  75
BRANCH  74  90
ATOM     90  C   UNL A   1      42.590  19.528  25.637  1.00  0.00     0.065 C 
BRANCH  90  91
ATOM     91  C   UNL A   1      42.660  18.116  26.197  1.00  0.00     0.159 C 
BRANCH  91  92
ATOM     92  O   UNL A   1      43.936  17.947  26.796  1.00  0.00    -0.396 OA
ATOM     93  H   UNL A   1      43.904  18.251  27.717  1.00  0.00     0.210 HD
ENDBRANCH  91  92
ENDBRANCH  90  91
ENDBRANCH  74  90
ENDBRANCH  72  74
ENDBRANCH  71  72
ENDBRANCH   1  71
TORSDOF 17
ENDMDL
MODEL 3
REMARK VINA RESULT:     -10.4      2.764      4.061
REMARK SMILES O=C(OCCOC(=O)[C@H](CCO)NC(=O)c1cccc(C(F)(F)F)c1F)c1ccc(-c2c3nc(c(-c4c(F)c(F)c(F)c(F)c4F)c4ccc([nH]4)c(-c4c(F)c(F)c(F)c(F)c4F)c4nc(c(-c5c(F)c(F)c(F)c(F)c5F)c5ccc2[nH]5)C=C4)C=C3)cc1
REMARK SMILES IDX 5 1 4 2 3 3 2 4 1 5 27 6 28 7 89 8 29 9 88 10 30 11 31 12
REMARK SMILES IDX 32 13 82 14 33 15 87 16 81 17 83 18 34 19 86 20 80 21 79 22
REMARK SMILES IDX 35 24 67 25 47 26 66 27 48 28 51 29 65 30 84 31 49 32 50 33
REMARK SMILES IDX 64 35 85 36 52 37 36 38 37 39 45 40 38 41 39 42 43 43 46 44
REMARK SMILES IDX 40 45 41 46 44 47 42 48 68 49 69 50 77 51 70 52 71 53 75 54
REMARK SMILES IDX 78 55 72 56 73 57 76 58 74 59 53 60 54 61 62 62 55 63 56 64
REMARK SMILES IDX 60 65 63 66 57 67 58 68 61 69 59 70 6 71 7 72 8 73 9 74
REMARK SMILES IDX 13 75 14 76 15 78 16 79 17 80 25 81 18 82 20 83 26 84 19 85
REMARK SMILES IDX 21 86 22 87 23 88 24 89 10 90 11 91 12 92
REMARK H PARENT 83 23 51 34 13 77 12 93
REMARK Flexibility Score: inf
ROOT
ATOM      1  C   UNL A   1      42.655  19.381  26.281  1.00  0.00     0.274 C 
ENDROOT
BRANCH   1   2
ATOM      2  C   UNL A   1      41.130  19.572  26.270  1.00  0.00     0.275 C 
BRANCH   2   3
ATOM      3  O   UNL A   1      40.655  20.661  27.080  1.00  0.00    -0.458 OA
BRANCH   3   4
ATOM      4  C   UNL A   1      39.661  21.507  26.687  1.00  0.00     0.338 C 
ATOM      5  O   UNL A   1      38.656  21.108  26.127  1.00  0.00    -0.246 OA
BRANCH   4   6
ATOM      6  C   UNL A   1      39.967  22.957  26.714  1.00  0.00     0.060 A 
ATOM      7  C   UNL A   1      39.242  23.962  26.068  1.00  0.00     0.016 A 
ATOM      8  C   UNL A   1      41.034  23.298  27.523  1.00  0.00     0.016 A 
ATOM      9  C   UNL A   1      39.534  25.321  26.323  1.00  0.00     0.010 A 
ATOM     10  C   UNL A   1      41.285  24.634  27.804  1.00  0.00     0.010 A 
ATOM     11  C   UNL A   1      40.549  25.666  27.223  1.00  0.00    -0.014 A 
BRANCH  11  12
ATOM     12  C   UNL A   1      41.081  27.033  27.484  1.00  0.00     0.031 A 
ATOM     13  C   UNL A   1      42.547  27.271  27.216  1.00  0.00     0.074 A 
ATOM     14  C   UNL A   1      40.427  27.929  28.253  1.00  0.00     0.049 A 
ATOM     15  N   UNL A   1      43.268  28.342  27.432  1.00  0.00    -0.248 NA
ATOM     16  C   UNL A   1      43.316  26.121  26.708  1.00  0.00     0.031 C 
ATOM     17  C   UNL A   1      39.098  27.748  28.838  1.00  0.00     0.029 A 
ATOM     18  N   UNL A   1      40.844  29.145  28.752  1.00  0.00    -0.354 N 
ATOM     19  C   UNL A   1      44.557  28.005  27.051  1.00  0.00     0.074 A 
ATOM     20  C   UNL A   1      44.548  26.605  26.692  1.00  0.00     0.031 C 
ATOM     21  C   UNL A   1      38.836  28.785  29.658  1.00  0.00     0.029 A 
ATOM     22  C   UNL A   1      39.957  29.726  29.628  1.00  0.00     0.049 A 
ATOM     23  H   UNL A   1      41.701  29.561  28.502  1.00  0.00     0.167 HD
ATOM     24  C   UNL A   1      45.643  28.804  26.954  1.00  0.00     0.037 A 
ATOM     25  C   UNL A   1      40.031  30.889  30.311  1.00  0.00     0.037 A 
ATOM     26  C   UNL A   1      45.665  30.196  27.310  1.00  0.00     0.049 A 
ATOM     27  C   UNL A   1      41.204  31.819  30.109  1.00  0.00     0.074 A 
ATOM     28  C   UNL A   1      46.646  31.136  27.051  1.00  0.00     0.029 A 
ATOM     29  N   UNL A   1      44.673  30.837  28.029  1.00  0.00    -0.354 N 
ATOM     30  N   UNL A   1      42.323  31.611  29.464  1.00  0.00    -0.248 NA
ATOM     31  C   UNL A   1      41.095  33.174  30.682  1.00  0.00     0.031 C 
ATOM     32  C   UNL A   1      46.269  32.339  27.651  1.00  0.00     0.029 A 
ATOM     33  C   UNL A   1      45.028  32.159  28.237  1.00  0.00     0.049 A 
ATOM     34  H   UNL A   1      43.842  30.417  28.347  1.00  0.00     0.167 HD
ATOM     35  C   UNL A   1      43.019  32.817  29.501  1.00  0.00     0.074 A 
ATOM     36  C   UNL A   1      42.207  33.751  30.246  1.00  0.00     0.031 C 
ATOM     37  C   UNL A   1      44.215  33.114  28.942  1.00  0.00     0.037 A 
BRANCH  24  38
ATOM     38  C   UNL A   1      46.879  28.235  26.329  1.00  0.00     0.064 A 
ATOM     39  C   UNL A   1      46.930  27.939  24.961  1.00  0.00     0.173 A 
ATOM     40  C   UNL A   1      47.962  27.845  27.132  1.00  0.00     0.173 A 
ATOM     41  F   UNL A   1      45.915  28.286  24.154  1.00  0.00    -0.203 F 
ATOM     42  C   UNL A   1      48.009  27.244  24.424  1.00  0.00     0.198 A 
ATOM     43  C   UNL A   1      49.052  27.176  26.587  1.00  0.00     0.198 A 
ATOM     44  F   UNL A   1      47.958  28.107  28.448  1.00  0.00    -0.203 F 
ATOM     45  F   UNL A   1      48.016  26.921  23.123  1.00  0.00    -0.200 F 
ATOM     46  C   UNL A   1      49.066  26.861  25.238  1.00  0.00     0.200 A 
ATOM     47  F   UNL A   1      50.077  26.820  27.374  1.00  0.00    -0.200 F 
ATOM     48  F   UNL A   1      50.098  26.178  24.722  1.00  0.00    -0.200 F 
ENDBRANCH  24  38
BRANCH  25  49
ATOM     49  C   UNL A   1      38.901  31.325  31.172  1.00  0.00     0.064 A 
ATOM     50  C   UNL A   1      37.798  32.015  30.653  1.00  0.00     0.173 A 
ATOM     51  C   UNL A   1      38.886  31.000  32.536  1.00  0.00     0.173 A 
ATOM     52  F   UNL A   1      37.752  32.330  29.351  1.00  0.00    -0.203 F 
ATOM     53  C   UNL A   1      36.721  32.363  31.470  1.00  0.00     0.198 A 
ATOM     54  C   UNL A   1      37.802  31.329  33.345  1.00  0.00     0.198 A 
ATOM     55  F   UNL A   1      39.902  30.303  33.067  1.00  0.00    -0.203 F 
ATOM     56  F   UNL A   1      35.673  33.020  30.953  1.00  0.00    -0.200 F 
ATOM     57  C   UNL A   1      36.721  32.014  32.812  1.00  0.00     0.200 A 
ATOM     58  F   UNL A   1      37.792  30.956  34.632  1.00  0.00    -0.200 F 
ATOM     59  F   UNL A   1      35.673  32.320  33.589  1.00  0.00    -0.200 F 
ENDBRANCH  25  49
BRANCH  37  60
ATOM     60  C   UNL A   1      44.718  34.525  29.018  1.00  0.00     0.064 A 
ATOM     61  C   UNL A   1      45.481  34.938  30.123  1.00  0.00     0.173 A 
ATOM     62  C   UNL A   1      44.370  35.493  28.065  1.00  0.00     0.173 A 
ATOM     63  F   UNL A   1      45.832  34.053  31.069  1.00  0.00    -0.203 F 
ATOM     64  C   UNL A   1      45.859  36.268  30.280  1.00  0.00     0.198 A 
ATOM     65  C   UNL A   1      44.773  36.819  28.213  1.00  0.00     0.198 A 
ATOM     66  F   UNL A   1      43.649  35.151  26.987  1.00  0.00    -0.203 F 
ATOM     67  F   UNL A   1      46.553  36.642  31.365  1.00  0.00    -0.200 F 
ATOM     68  C   UNL A   1      45.506  37.207  29.325  1.00  0.00     0.200 A 
ATOM     69  F   UNL A   1      44.447  37.724  27.280  1.00  0.00    -0.200 F 
ATOM     70  F   UNL A   1      45.873  38.488  29.476  1.00  0.00    -0.200 F 
ENDBRANCH  37  60
ENDBRANCH  11  12
ENDBRANCH   4   6
ENDBRANCH   3   4
ENDBRANCH   2   3
ENDBRANCH   1   2
BRANCH   1  71
ATOM     71  O   UNL A   1      43.285  19.736  25.030  1.00  0.00    -0.461 OA
BRANCH  71  72
ATOM     72  C   UNL A   1      44.483  20.380  25.118  1.00  0.00     0.328 C 
ATOM     73  O   UNL A   1      45.525  19.896  24.686  1.00  0.00    -0.250 OA
BRANCH  72  74
ATOM     74  C   UNL A   1      44.395  21.783  25.824  1.00  0.00     0.194 C 
BRANCH  74  75
ATOM     75  N   UNL A   1      45.713  22.323  26.205  1.00  0.00    -0.338 N 
ATOM     76  C   UNL A   1      46.120  23.334  27.051  1.00  0.00     0.254 C 
ATOM     77  H   UNL A   1      46.463  21.864  25.761  1.00  0.00     0.164 HD
ATOM     78  O   UNL A   1      47.107  23.951  26.628  1.00  0.00    -0.269 OA
BRANCH  76  79
ATOM     79  C   UNL A   1      45.638  23.704  28.436  1.00  0.00     0.076 A 
ATOM     80  C   UNL A   1      44.497  22.996  28.880  1.00  0.00     0.017 A 
ATOM     81  C   UNL A   1      46.018  24.799  29.218  1.00  0.00     0.148 A 
ATOM     82  C   UNL A   1      43.747  23.398  29.992  1.00  0.00     0.002 A 
ATOM     83  C   UNL A   1      45.211  25.292  30.267  1.00  0.00     0.092 A 
ATOM     84  F   UNL A   1      47.156  25.443  28.966  1.00  0.00    -0.205 F 
ATOM     85  C   UNL A   1      44.083  24.562  30.665  1.00  0.00     0.016 A 
BRANCH  83  86
ATOM     86  C   UNL A   1      45.474  26.622  30.924  1.00  0.00     0.419 C 
ATOM     87  F   UNL A   1      46.701  26.645  31.534  1.00  0.00    -0.166 F 
ATOM     88  F   UNL A   1      45.495  27.655  30.040  1.00  0.00    -0.166 F 
ATOM     89  F   UNL A   1      44.593  26.964  31.900  1.00  0.00    -0.166 F 
ENDBRANCH  83  86
ENDBRANCH  76  79
ENDBRANCH  74  75
BRANCH  74  90
ATOM     90  C   UNL A   1      43.764  22.750  24.797  1.00  0.00     0.065 C 
BRANCH  90  91
ATOM     91  C   UNL A   1      44.390  22.578  23.422  1.00  0.00     0.159 C 
BRANCH  91  92
ATOM     92  O   UNL A   1      45.741  23.007  23.501  1.00  0.00    -0.396 OA
ATOM     93  H   UNL A   1      45.827  23.677  24.197  1.00  0.00     0.210 HD
ENDBRANCH  91  92
ENDBRANCH  90  91
ENDBRANCH  74  90
ENDBRANCH  72  74
ENDBRANCH  71  72
ENDBRANCH   1  71
TORSDOF 17
ENDMDL
