MODEL 1
REMARK VINA RESULT:     -10.8      0.000      0.000
REMARK SMILES CCC[C@H](C)C[N@H+]1[C@@H]2CC[C@H]1C[C@H](CC(=O)OCCOC(=O)c1ccc(-c3c4nc(c(-c5c(F)c(F)c(F)c(F)c5F)c5ccc([nH]5)c(-c5c(F)c(F)c(F)c(F)c5F)c5nc(c(-c6c(F)c(F)c(F)c(F)c6F)c6ccc3[nH]6)C=C5)C=C4)cc1)C2
REMARK SMILES IDX 17 1 15 2 16 3 14 4 13 5 7 6 8 7 11 8 9 10 86 11 10 12 12 13
REMARK SMILES IDX 6 14 4 15 5 16 3 17 2 18 1 19 18 20 19 21 20 22 21 23 22 24
REMARK SMILES IDX 23 25 24 26 85 27 25 28 84 29 26 30 27 31 28 32 78 33 29 34
REMARK SMILES IDX 83 35 77 36 79 37 30 38 82 39 76 40 75 41 31 43 63 44 43 45
REMARK SMILES IDX 62 46 44 47 47 48 61 49 80 50 45 51 46 52 60 54 81 55 48 56
REMARK SMILES IDX 32 57 33 58 41 59 34 60 35 61 39 62 42 63 36 64 37 65 40 66
REMARK SMILES IDX 38 67 64 68 65 69 73 70 66 71 67 72 71 73 74 74 68 75 69 76
REMARK SMILES IDX 72 77 70 78 49 79 50 80 58 81 51 82 52 83 56 84 59 85 53 86
REMARK SMILES IDX 54 87 57 88 55 89
REMARK H PARENT 7 9 79 42 47 53
REMARK Flexibility Score: inf
ROOT
ATOM      1  O   UNL A   1      30.972  27.836  25.034  1.00  0.00    -0.462 OA
ENDROOT
BRANCH   1   2
ATOM      2  C   UNL A   1      30.271  27.178  24.079  1.00  0.00     0.306 C 
ATOM      3  O   UNL A   1      29.772  27.695  23.087  1.00  0.00    -0.252 OA
BRANCH   2   4
ATOM      4  C   UNL A   1      30.127  25.705  24.392  1.00  0.00     0.126 C 
BRANCH   4   5
ATOM      5  C   UNL A   1      30.931  24.748  23.483  1.00  0.00     0.012 C 
ATOM      6  N   UNL A   1      33.548  23.535  24.130  1.00  0.00    -0.330 N 
ATOM      7  C   UNL A   1      32.393  22.643  23.965  1.00  0.00     0.184 C 
ATOM      8  C   UNL A   1      33.450  24.405  22.950  1.00  0.00     0.184 C 
ATOM      9  H   UNL A   1      34.423  23.013  24.180  1.00  0.00     0.348 HD
ATOM     10  C   UNL A   1      32.557  22.207  22.505  1.00  0.00     0.071 C 
ATOM     11  C   UNL A   1      31.052  23.367  24.176  1.00  0.00     0.069 C 
ATOM     12  C   UNL A   1      33.232  23.394  21.825  1.00  0.00     0.071 C 
ATOM     13  C   UNL A   1      32.277  25.385  23.067  1.00  0.00     0.069 C 
BRANCH   6  14
ATOM     14  C   UNL A   1      33.628  24.253  25.403  1.00  0.00     0.265 C 
BRANCH  14  15
ATOM     15  C   UNL A   1      34.882  23.903  26.232  1.00  0.00     0.041 C 
ATOM     16  C   UNL A   1      34.597  22.713  27.149  1.00  0.00     0.013 C 
BRANCH  15  17
ATOM     17  C   UNL A   1      36.043  23.686  25.226  1.00  0.00     0.009 C 
BRANCH  17  18
ATOM     18  C   UNL A   1      37.362  23.121  25.752  1.00  0.00    -0.003 C 
ATOM     19  C   UNL A   1      38.199  24.151  26.503  1.00  0.00     0.004 C 
ENDBRANCH  17  18
ENDBRANCH  15  17
ENDBRANCH  14  15
ENDBRANCH   6  14
ENDBRANCH   4   5
ENDBRANCH   2   4
ENDBRANCH   1   2
BRANCH   1  20
ATOM     20  C   UNL A   1      31.649  29.038  24.628  1.00  0.00     0.274 C 
BRANCH  20  21
ATOM     21  C   UNL A   1      31.760  30.008  25.804  1.00  0.00     0.275 C 
BRANCH  21  22
ATOM     22  O   UNL A   1      33.131  30.398  26.005  1.00  0.00    -0.458 OA
BRANCH  22  23
ATOM     23  C   UNL A   1      33.348  31.364  26.923  1.00  0.00     0.338 C 
ATOM     24  O   UNL A   1      32.625  32.308  27.207  1.00  0.00    -0.246 OA
BRANCH  23  25
ATOM     25  C   UNL A   1      34.595  31.062  27.638  1.00  0.00     0.060 A 
ATOM     26  C   UNL A   1      34.822  29.757  28.082  1.00  0.00     0.016 A 
ATOM     27  C   UNL A   1      35.514  32.076  27.909  1.00  0.00     0.016 A 
ATOM     28  C   UNL A   1      35.979  29.454  28.796  1.00  0.00     0.010 A 
ATOM     29  C   UNL A   1      36.679  31.769  28.616  1.00  0.00     0.010 A 
ATOM     30  C   UNL A   1      36.916  30.458  29.066  1.00  0.00    -0.014 A 
BRANCH  30  31
ATOM     31  C   UNL A   1      38.139  30.143  29.842  1.00  0.00     0.031 A 
ATOM     32  C   UNL A   1      39.158  29.198  29.280  1.00  0.00     0.074 A 
ATOM     33  C   UNL A   1      38.326  30.705  31.051  1.00  0.00     0.049 A 
ATOM     34  N   UNL A   1      40.233  28.708  29.843  1.00  0.00    -0.248 NA
ATOM     35  C   UNL A   1      38.936  28.741  27.901  1.00  0.00     0.031 C 
ATOM     36  C   UNL A   1      37.427  31.670  31.681  1.00  0.00     0.029 A 
ATOM     37  N   UNL A   1      39.333  30.534  31.967  1.00  0.00    -0.354 N 
ATOM     38  C   UNL A   1      40.804  27.870  28.896  1.00  0.00     0.074 A 
ATOM     39  C   UNL A   1      39.951  27.906  27.727  1.00  0.00     0.031 C 
ATOM     40  C   UNL A   1      37.920  32.004  32.885  1.00  0.00     0.029 A 
ATOM     41  C   UNL A   1      39.141  31.240  33.129  1.00  0.00     0.049 A 
ATOM     42  H   UNL A   1      40.118  29.961  31.807  1.00  0.00     0.167 HD
ATOM     43  C   UNL A   1      41.942  27.140  28.996  1.00  0.00     0.037 A 
ATOM     44  C   UNL A   1      39.851  31.243  34.272  1.00  0.00     0.037 A 
ATOM     45  C   UNL A   1      42.793  27.119  30.157  1.00  0.00     0.049 A 
ATOM     46  C   UNL A   1      41.074  30.374  34.381  1.00  0.00     0.074 A 
ATOM     47  C   UNL A   1      43.975  26.426  30.348  1.00  0.00     0.029 A 
ATOM     48  N   UNL A   1      42.549  27.822  31.327  1.00  0.00    -0.354 N 
ATOM     49  N   UNL A   1      41.608  29.581  33.483  1.00  0.00    -0.248 NA
ATOM     50  C   UNL A   1      41.787  30.392  35.664  1.00  0.00     0.031 C 
ATOM     51  C   UNL A   1      44.426  26.678  31.649  1.00  0.00     0.029 A 
ATOM     52  C   UNL A   1      43.547  27.563  32.253  1.00  0.00     0.049 A 
ATOM     53  H   UNL A   1      41.780  28.420  31.477  1.00  0.00     0.167 HD
ATOM     54  C   UNL A   1      42.726  29.021  34.084  1.00  0.00     0.074 A 
ATOM     55  C   UNL A   1      42.804  29.577  35.420  1.00  0.00     0.031 C 
ATOM     56  C   UNL A   1      43.607  28.125  33.577  1.00  0.00     0.037 A 
BRANCH  43  57
ATOM     57  C   UNL A   1      42.315  26.281  27.826  1.00  0.00     0.064 A 
ATOM     58  C   UNL A   1      41.763  25.006  27.641  1.00  0.00     0.173 A 
ATOM     59  C   UNL A   1      43.216  26.753  26.859  1.00  0.00     0.173 A 
ATOM     60  F   UNL A   1      40.907  24.503  28.545  1.00  0.00    -0.203 F 
ATOM     61  C   UNL A   1      42.115  24.224  26.543  1.00  0.00     0.198 A 
ATOM     62  C   UNL A   1      43.547  25.980  25.750  1.00  0.00     0.198 A 
ATOM     63  F   UNL A   1      43.771  27.968  26.988  1.00  0.00    -0.203 F 
ATOM     64  F   UNL A   1      41.606  22.992  26.409  1.00  0.00    -0.200 F 
ATOM     65  C   UNL A   1      43.002  24.714  25.596  1.00  0.00     0.200 A 
ATOM     66  F   UNL A   1      44.397  26.459  24.831  1.00  0.00    -0.200 F 
ATOM     67  F   UNL A   1      43.336  23.964  24.537  1.00  0.00    -0.200 F 
ENDBRANCH  43  57
BRANCH  44  68
ATOM     68  C   UNL A   1      39.408  32.081  35.416  1.00  0.00     0.064 A 
ATOM     69  C   UNL A   1      38.589  31.553  36.422  1.00  0.00     0.173 A 
ATOM     70  C   UNL A   1      39.791  33.426  35.523  1.00  0.00     0.173 A 
ATOM     71  F   UNL A   1      38.174  30.279  36.348  1.00  0.00    -0.203 F 
ATOM     72  C   UNL A   1      38.158  32.342  37.487  1.00  0.00     0.198 A 
ATOM     73  C   UNL A   1      39.382  34.207  36.602  1.00  0.00     0.198 A 
ATOM     74  F   UNL A   1      40.571  33.980  34.583  1.00  0.00    -0.203 F 
ATOM     75  F   UNL A   1      37.341  31.824  38.413  1.00  0.00    -0.200 F 
ATOM     76  C   UNL A   1      38.562  33.666  37.579  1.00  0.00     0.200 A 
ATOM     77  F   UNL A   1      39.781  35.483  36.692  1.00  0.00    -0.200 F 
ATOM     78  F   UNL A   1      38.151  34.423  38.606  1.00  0.00    -0.200 F 
ENDBRANCH  44  68
BRANCH  56  79
ATOM     79  C   UNL A   1      44.744  27.707  34.464  1.00  0.00     0.064 A 
ATOM     80  C   UNL A   1      44.650  26.581  35.294  1.00  0.00     0.173 A 
ATOM     81  C   UNL A   1      45.951  28.423  34.456  1.00  0.00     0.173 A 
ATOM     82  F   UNL A   1      43.511  25.876  35.349  1.00  0.00    -0.203 F 
ATOM     83  C   UNL A   1      45.718  26.198  36.101  1.00  0.00     0.198 A 
ATOM     84  C   UNL A   1      47.025  28.021  35.245  1.00  0.00     0.198 A 
ATOM     85  F   UNL A   1      46.091  29.504  33.675  1.00  0.00    -0.203 F 
ATOM     86  F   UNL A   1      45.593  25.144  36.919  1.00  0.00    -0.200 F 
ATOM     87  C   UNL A   1      46.906  26.913  36.071  1.00  0.00     0.200 A 
ATOM     88  F   UNL A   1      48.176  28.707  35.208  1.00  0.00    -0.200 F 
ATOM     89  F   UNL A   1      47.935  26.540  36.845  1.00  0.00    -0.200 F 
ENDBRANCH  56  79
ENDBRANCH  30  31
ENDBRANCH  23  25
ENDBRANCH  22  23
ENDBRANCH  21  22
ENDBRANCH  20  21
ENDBRANCH   1  20
TORSDOF 16
ENDMDL
MODEL 2
REMARK VINA RESULT:     -10.7      5.305     10.101
REMARK SMILES CCC[C@H](C)C[N@H+]1[C@@H]2CC[C@H]1C[C@H](CC(=O)OCCOC(=O)c1ccc(-c3c4nc(c(-c5c(F)c(F)c(F)c(F)c5F)c5ccc([nH]5)c(-c5c(F)c(F)c(F)c(F)c5F)c5nc(c(-c6c(F)c(F)c(F)c(F)c6F)c6ccc3[nH]6)C=C5)C=C4)cc1)C2
REMARK SMILES IDX 17 1 15 2 16 3 14 4 13 5 7 6 8 7 11 8 9 10 86 11 10 12 12 13
REMARK SMILES IDX 6 14 4 15 5 16 3 17 2 18 1 19 18 20 19 21 20 22 21 23 22 24
REMARK SMILES IDX 23 25 24 26 85 27 25 28 84 29 26 30 27 31 28 32 78 33 29 34
REMARK SMILES IDX 83 35 77 36 79 37 30 38 82 39 76 40 75 41 31 43 63 44 43 45
REMARK SMILES IDX 62 46 44 47 47 48 61 49 80 50 45 51 46 52 60 54 81 55 48 56
REMARK SMILES IDX 32 57 33 58 41 59 34 60 35 61 39 62 42 63 36 64 37 65 40 66
REMARK SMILES IDX 38 67 64 68 65 69 73 70 66 71 67 72 71 73 74 74 68 75 69 76
REMARK SMILES IDX 72 77 70 78 49 79 50 80 58 81 51 82 52 83 56 84 59 85 53 86
REMARK SMILES IDX 54 87 57 88 55 89
REMARK H PARENT 7 9 79 42 47 53
REMARK Flexibility Score: inf
ROOT
ATOM      1  O   UNL A   1      39.404  22.024  26.317  1.00  0.00    -0.462 OA
ENDROOT
BRANCH   1   2
ATOM      2  C   UNL A   1      38.461  22.982  26.145  1.00  0.00     0.306 C 
ATOM      3  O   UNL A   1      38.595  24.164  26.435  1.00  0.00    -0.252 OA
BRANCH   2   4
ATOM      4  C   UNL A   1      37.176  22.420  25.580  1.00  0.00     0.126 C 
BRANCH   4   5
ATOM      5  C   UNL A   1      36.136  23.465  25.117  1.00  0.00     0.012 C 
ATOM      6  N   UNL A   1      33.391  22.885  24.184  1.00  0.00    -0.330 N 
ATOM      7  C   UNL A   1      33.553  23.664  25.419  1.00  0.00     0.184 C 
ATOM      8  C   UNL A   1      34.321  23.552  23.262  1.00  0.00     0.184 C 
ATOM      9  H   UNL A   1      32.424  22.887  23.861  1.00  0.00     0.348 HD
ATOM     10  C   UNL A   1      33.426  25.096  24.888  1.00  0.00     0.071 C 
ATOM     11  C   UNL A   1      34.924  23.443  26.083  1.00  0.00     0.069 C 
ATOM     12  C   UNL A   1      33.966  25.026  23.463  1.00  0.00     0.071 C 
ATOM     13  C   UNL A   1      35.782  23.266  23.625  1.00  0.00     0.069 C 
BRANCH   6  14
ATOM     14  C   UNL A   1      33.597  21.441  24.306  1.00  0.00     0.265 C 
BRANCH  14  15
ATOM     15  C   UNL A   1      32.347  20.607  23.952  1.00  0.00     0.041 C 
ATOM     16  C   UNL A   1      32.114  20.615  22.441  1.00  0.00     0.013 C 
BRANCH  15  17
ATOM     17  C   UNL A   1      32.552  19.200  24.572  1.00  0.00     0.009 C 
BRANCH  17  18
ATOM     18  C   UNL A   1      33.848  18.452  24.260  1.00  0.00    -0.003 C 
ATOM     19  C   UNL A   1      33.657  17.303  23.278  1.00  0.00     0.004 C 
ENDBRANCH  17  18
ENDBRANCH  15  17
ENDBRANCH  14  15
ENDBRANCH   6  14
ENDBRANCH   4   5
ENDBRANCH   2   4
ENDBRANCH   1   2
BRANCH   1  20
ATOM     20  C   UNL A   1      39.278  20.839  25.512  1.00  0.00     0.274 C 
BRANCH  20  21
ATOM     21  C   UNL A   1      39.981  19.661  26.188  1.00  0.00     0.275 C 
BRANCH  21  22
ATOM     22  O   UNL A   1      41.092  19.214  25.388  1.00  0.00    -0.458 OA
BRANCH  22  23
ATOM     23  C   UNL A   1      42.294  19.183  26.001  1.00  0.00     0.338 C 
ATOM     24  O   UNL A   1      43.038  18.224  26.151  1.00  0.00    -0.246 OA
BRANCH  23  25
ATOM     25  C   UNL A   1      42.652  20.549  26.406  1.00  0.00     0.060 A 
ATOM     26  C   UNL A   1      43.114  21.443  25.437  1.00  0.00     0.016 A 
ATOM     27  C   UNL A   1      42.575  20.928  27.746  1.00  0.00     0.016 A 
ATOM     28  C   UNL A   1      43.496  22.732  25.801  1.00  0.00     0.010 A 
ATOM     29  C   UNL A   1      42.948  22.225  28.109  1.00  0.00     0.010 A 
ATOM     30  C   UNL A   1      43.413  23.132  27.140  1.00  0.00    -0.014 A 
BRANCH  30  31
ATOM     31  C   UNL A   1      43.837  24.496  27.535  1.00  0.00     0.031 A 
ATOM     32  C   UNL A   1      42.808  25.515  27.921  1.00  0.00     0.074 A 
ATOM     33  C   UNL A   1      45.145  24.815  27.540  1.00  0.00     0.049 A 
ATOM     34  N   UNL A   1      42.961  26.788  28.188  1.00  0.00    -0.248 NA
ATOM     35  C   UNL A   1      41.420  25.040  28.017  1.00  0.00     0.031 C 
ATOM     36  C   UNL A   1      46.238  23.897  27.225  1.00  0.00     0.029 A 
ATOM     37  N   UNL A   1      45.772  26.004  27.812  1.00  0.00    -0.354 N 
ATOM     38  C   UNL A   1      41.689  27.269  28.464  1.00  0.00     0.074 A 
ATOM     39  C   UNL A   1      40.773  26.158  28.318  1.00  0.00     0.031 C 
ATOM     40  C   UNL A   1      47.403  24.557  27.316  1.00  0.00     0.029 A 
ATOM     41  C   UNL A   1      47.134  25.954  27.648  1.00  0.00     0.049 A 
ATOM     42  H   UNL A   1      45.292  26.815  28.097  1.00  0.00     0.167 HD
ATOM     43  C   UNL A   1      41.323  28.527  28.811  1.00  0.00     0.037 A 
ATOM     44  C   UNL A   1      48.055  26.933  27.724  1.00  0.00     0.037 A 
ATOM     45  C   UNL A   1      42.241  29.626  28.967  1.00  0.00     0.049 A 
ATOM     46  C   UNL A   1      47.615  28.335  28.047  1.00  0.00     0.074 A 
ATOM     47  C   UNL A   1      41.969  30.932  29.332  1.00  0.00     0.029 A 
ATOM     48  N   UNL A   1      43.610  29.544  28.762  1.00  0.00    -0.354 N 
ATOM     49  N   UNL A   1      46.411  28.785  28.303  1.00  0.00    -0.248 NA
ATOM     50  C   UNL A   1      48.660  29.366  28.080  1.00  0.00     0.031 C 
ATOM     51  C   UNL A   1      43.170  31.652  29.309  1.00  0.00     0.029 A 
ATOM     52  C   UNL A   1      44.195  30.783  28.971  1.00  0.00     0.049 A 
ATOM     53  H   UNL A   1      44.096  28.726  28.505  1.00  0.00     0.167 HD
ATOM     54  C   UNL A   1      46.554  30.143  28.546  1.00  0.00     0.074 A 
ATOM     55  C   UNL A   1      47.967  30.442  28.421  1.00  0.00     0.031 C 
ATOM     56  C   UNL A   1      45.602  31.062  28.842  1.00  0.00     0.037 A 
BRANCH  43  57
ATOM     57  C   UNL A   1      39.862  28.788  29.017  1.00  0.00     0.064 A 
ATOM     58  C   UNL A   1      39.246  28.594  30.262  1.00  0.00     0.173 A 
ATOM     59  C   UNL A   1      39.072  29.270  27.962  1.00  0.00     0.173 A 
ATOM     60  F   UNL A   1      39.955  28.121  31.300  1.00  0.00    -0.203 F 
ATOM     61  C   UNL A   1      37.888  28.850  30.437  1.00  0.00     0.198 A 
ATOM     62  C   UNL A   1      37.721  29.549  28.147  1.00  0.00     0.198 A 
ATOM     63  F   UNL A   1      39.614  29.475  26.752  1.00  0.00    -0.203 F 
ATOM     64  F   UNL A   1      37.312  28.618  31.625  1.00  0.00    -0.200 F 
ATOM     65  C   UNL A   1      37.130  29.333  29.382  1.00  0.00     0.200 A 
ATOM     66  F   UNL A   1      36.992  30.025  27.128  1.00  0.00    -0.200 F 
ATOM     67  F   UNL A   1      35.824  29.585  29.553  1.00  0.00    -0.200 F 
ENDBRANCH  43  57
BRANCH  44  68
ATOM     68  C   UNL A   1      49.485  26.624  27.466  1.00  0.00     0.064 A 
ATOM     69  C   UNL A   1      49.966  26.481  26.158  1.00  0.00     0.173 A 
ATOM     70  C   UNL A   1      50.396  26.461  28.520  1.00  0.00     0.173 A 
ATOM     71  F   UNL A   1      49.127  26.600  25.118  1.00  0.00    -0.203 F 
ATOM     72  C   UNL A   1      51.304  26.174  25.914  1.00  0.00     0.198 A 
ATOM     73  C   UNL A   1      51.739  26.181  28.274  1.00  0.00     0.198 A 
ATOM     74  F   UNL A   1      49.983  26.584  29.790  1.00  0.00    -0.203 F 
ATOM     75  F   UNL A   1      51.730  26.001  24.656  1.00  0.00    -0.200 F 
ATOM     76  C   UNL A   1      52.189  26.033  26.972  1.00  0.00     0.200 A 
ATOM     77  F   UNL A   1      52.593  26.054  29.299  1.00  0.00    -0.200 F 
ATOM     78  F   UNL A   1      53.477  25.742  26.737  1.00  0.00    -0.200 F 
ENDBRANCH  44  68
BRANCH  56  79
ATOM     79  C   UNL A   1      46.061  32.472  29.073  1.00  0.00     0.064 A 
ATOM     80  C   UNL A   1      46.111  33.406  28.029  1.00  0.00     0.173 A 
ATOM     81  C   UNL A   1      46.421  32.900  30.359  1.00  0.00     0.173 A 
ATOM     82  F   UNL A   1      45.794  33.039  26.778  1.00  0.00    -0.203 F 
ATOM     83  C   UNL A   1      46.525  34.715  28.260  1.00  0.00     0.198 A 
ATOM     84  C   UNL A   1      46.809  34.216  30.592  1.00  0.00     0.198 A 
ATOM     85  F   UNL A   1      46.384  32.044  31.392  1.00  0.00    -0.203 F 
ATOM     86  F   UNL A   1      46.608  35.580  27.241  1.00  0.00    -0.200 F 
ATOM     87  C   UNL A   1      46.868  35.121  29.542  1.00  0.00     0.200 A 
ATOM     88  F   UNL A   1      47.131  34.609  31.833  1.00  0.00    -0.200 F 
ATOM     89  F   UNL A   1      47.263  36.382  29.765  1.00  0.00    -0.200 F 
ENDBRANCH  56  79
ENDBRANCH  30  31
ENDBRANCH  23  25
ENDBRANCH  22  23
ENDBRANCH  21  22
ENDBRANCH  20  21
ENDBRANCH   1  20
TORSDOF 16
ENDMDL
MODEL 3
REMARK VINA RESULT:     -10.7      2.261      4.127
REMARK SMILES CCC[C@H](C)C[N@H+]1[C@@H]2CC[C@H]1C[C@H](CC(=O)OCCOC(=O)c1ccc(-c3c4nc(c(-c5c(F)c(F)c(F)c(F)c5F)c5ccc([nH]5)c(-c5c(F)c(F)c(F)c(F)c5F)c5nc(c(-c6c(F)c(F)c(F)c(F)c6F)c6ccc3[nH]6)C=C5)C=C4)cc1)C2
REMARK SMILES IDX 17 1 15 2 16 3 14 4 13 5 7 6 8 7 11 8 9 10 86 11 10 12 12 13
REMARK SMILES IDX 6 14 4 15 5 16 3 17 2 18 1 19 18 20 19 21 20 22 21 23 22 24
REMARK SMILES IDX 23 25 24 26 85 27 25 28 84 29 26 30 27 31 28 32 78 33 29 34
REMARK SMILES IDX 83 35 77 36 79 37 30 38 82 39 76 40 75 41 31 43 63 44 43 45
REMARK SMILES IDX 62 46 44 47 47 48 61 49 80 50 45 51 46 52 60 54 81 55 48 56
REMARK SMILES IDX 32 57 33 58 41 59 34 60 35 61 39 62 42 63 36 64 37 65 40 66
REMARK SMILES IDX 38 67 64 68 65 69 73 70 66 71 67 72 71 73 74 74 68 75 69 76
REMARK SMILES IDX 72 77 70 78 49 79 50 80 58 81 51 82 52 83 56 84 59 85 53 86
REMARK SMILES IDX 54 87 57 88 55 89
REMARK H PARENT 7 9 79 42 47 53
REMARK Flexibility Score: inf
ROOT
ATOM      1  O   UNL A   1      32.055  30.326  27.251  1.00  0.00    -0.462 OA
ENDROOT
BRANCH   1   2
ATOM      2  C   UNL A   1      33.074  29.600  26.728  1.00  0.00     0.306 C 
ATOM      3  O   UNL A   1      33.926  29.010  27.380  1.00  0.00    -0.252 OA
BRANCH   2   4
ATOM      4  C   UNL A   1      33.075  29.628  25.217  1.00  0.00     0.126 C 
BRANCH   4   5
ATOM      5  C   UNL A   1      32.569  28.343  24.525  1.00  0.00     0.012 C 
ATOM      6  N   UNL A   1      29.971  28.023  23.149  1.00  0.00    -0.330 N 
ATOM      7  C   UNL A   1      31.198  27.913  22.348  1.00  0.00     0.184 C 
ATOM      8  C   UNL A   1      30.266  27.162  24.303  1.00  0.00     0.184 C 
ATOM      9  H   UNL A   1      29.149  27.730  22.622  1.00  0.00     0.348 HD
ATOM     10  C   UNL A   1      31.398  26.394  22.314  1.00  0.00     0.071 C 
ATOM     11  C   UNL A   1      32.400  28.611  23.007  1.00  0.00     0.069 C 
ATOM     12  C   UNL A   1      30.805  25.900  23.630  1.00  0.00     0.071 C 
ATOM     13  C   UNL A   1      31.307  27.797  25.232  1.00  0.00     0.069 C 
BRANCH   6  14
ATOM     14  C   UNL A   1      29.556  29.381  23.502  1.00  0.00     0.265 C 
BRANCH  14  15
ATOM     15  C   UNL A   1      28.227  29.811  22.843  1.00  0.00     0.041 C 
ATOM     16  C   UNL A   1      27.138  28.776  23.121  1.00  0.00     0.013 C 
BRANCH  15  17
ATOM     17  C   UNL A   1      27.912  31.242  23.353  1.00  0.00     0.009 C 
BRANCH  17  18
ATOM     18  C   UNL A   1      28.256  32.426  22.450  1.00  0.00    -0.003 C 
ATOM     19  C   UNL A   1      29.152  33.457  23.126  1.00  0.00     0.004 C 
ENDBRANCH  17  18
ENDBRANCH  15  17
ENDBRANCH  14  15
ENDBRANCH   6  14
ENDBRANCH   4   5
ENDBRANCH   2   4
ENDBRANCH   1   2
BRANCH   1  20
ATOM     20  C   UNL A   1      31.865  31.649  26.723  1.00  0.00     0.274 C 
BRANCH  20  21
ATOM     21  C   UNL A   1      32.882  32.615  27.334  1.00  0.00     0.275 C 
BRANCH  21  22
ATOM     22  O   UNL A   1      32.207  33.691  28.011  1.00  0.00    -0.458 OA
BRANCH  22  23
ATOM     23  C   UNL A   1      32.995  34.661  28.523  1.00  0.00     0.338 C 
ATOM     24  O   UNL A   1      32.773  35.862  28.574  1.00  0.00    -0.246 OA
BRANCH  23  25
ATOM     25  C   UNL A   1      34.180  34.036  29.124  1.00  0.00     0.060 A 
ATOM     26  C   UNL A   1      34.005  33.063  30.111  1.00  0.00     0.016 A 
ATOM     27  C   UNL A   1      35.459  34.446  28.748  1.00  0.00     0.016 A 
ATOM     28  C   UNL A   1      35.113  32.483  30.724  1.00  0.00     0.010 A 
ATOM     29  C   UNL A   1      36.570  33.856  29.356  1.00  0.00     0.010 A 
ATOM     30  C   UNL A   1      36.403  32.874  30.350  1.00  0.00    -0.014 A 
BRANCH  30  31
ATOM     31  C   UNL A   1      37.584  32.274  31.014  1.00  0.00     0.031 A 
ATOM     32  C   UNL A   1      38.355  31.188  30.326  1.00  0.00     0.074 A 
ATOM     33  C   UNL A   1      37.955  32.704  32.234  1.00  0.00     0.049 A 
ATOM     34  N   UNL A   1      39.344  30.459  30.780  1.00  0.00    -0.248 NA
ATOM     35  C   UNL A   1      37.961  30.878  28.945  1.00  0.00     0.031 C 
ATOM     36  C   UNL A   1      37.309  33.781  32.981  1.00  0.00     0.029 A 
ATOM     37  N   UNL A   1      38.963  32.277  33.062  1.00  0.00    -0.354 N 
ATOM     38  C   UNL A   1      39.675  29.592  29.748  1.00  0.00     0.074 A 
ATOM     39  C   UNL A   1      38.775  29.874  28.650  1.00  0.00     0.031 C 
ATOM     40  C   UNL A   1      37.933  33.929  34.161  1.00  0.00     0.029 A 
ATOM     41  C   UNL A   1      38.989  32.926  34.271  1.00  0.00     0.049 A 
ATOM     42  H   UNL A   1      39.605  31.574  32.813  1.00  0.00     0.167 HD
ATOM     43  C   UNL A   1      40.648  28.649  29.722  1.00  0.00     0.037 A 
ATOM     44  C   UNL A   1      39.756  32.711  35.357  1.00  0.00     0.037 A 
ATOM     45  C   UNL A   1      41.548  28.381  30.814  1.00  0.00     0.049 A 
ATOM     46  C   UNL A   1      40.784  31.614  35.325  1.00  0.00     0.074 A 
ATOM     47  C   UNL A   1      42.577  27.458  30.877  1.00  0.00     0.029 A 
ATOM     48  N   UNL A   1      41.524  29.037  32.035  1.00  0.00    -0.354 N 
ATOM     49  N   UNL A   1      41.091  30.795  34.349  1.00  0.00    -0.248 NA
ATOM     50  C   UNL A   1      41.565  31.404  36.551  1.00  0.00     0.031 C 
ATOM     51  C   UNL A   1      43.150  27.528  32.153  1.00  0.00     0.029 A 
ATOM     52  C   UNL A   1      42.505  28.525  32.868  1.00  0.00     0.049 A 
ATOM     53  H   UNL A   1      40.901  29.762  32.276  1.00  0.00     0.167 HD
ATOM     54  C   UNL A   1      42.110  29.987  34.833  1.00  0.00     0.074 A 
ATOM     55  C   UNL A   1      42.381  30.424  36.188  1.00  0.00     0.031 C 
ATOM     56  C   UNL A   1      42.760  28.972  34.214  1.00  0.00     0.037 A 
BRANCH  43  57
ATOM     57  C   UNL A   1      40.767  27.815  28.483  1.00  0.00     0.064 A 
ATOM     58  C   UNL A   1      40.071  26.607  28.336  1.00  0.00     0.173 A 
ATOM     59  C   UNL A   1      41.567  28.246  27.413  1.00  0.00     0.173 A 
ATOM     60  F   UNL A   1      39.303  26.144  29.336  1.00  0.00    -0.203 F 
ATOM     61  C   UNL A   1      40.188  25.849  27.174  1.00  0.00     0.198 A 
ATOM     62  C   UNL A   1      41.662  27.498  26.243  1.00  0.00     0.198 A 
ATOM     63  F   UNL A   1      42.252  29.395  27.502  1.00  0.00    -0.203 F 
ATOM     64  F   UNL A   1      39.545  24.677  27.072  1.00  0.00    -0.200 F 
ATOM     65  C   UNL A   1      40.978  26.298  26.127  1.00  0.00     0.200 A 
ATOM     66  F   UNL A   1      42.419  27.940  25.228  1.00  0.00    -0.200 F 
ATOM     67  F   UNL A   1      41.085  25.571  25.006  1.00  0.00    -0.200 F 
ENDBRANCH  43  57
BRANCH  44  68
ATOM     68  C   UNL A   1      39.562  33.540  36.574  1.00  0.00     0.064 A 
ATOM     69  C   UNL A   1      38.731  33.107  37.615  1.00  0.00     0.173 A 
ATOM     70  C   UNL A   1      40.199  34.781  36.718  1.00  0.00     0.173 A 
ATOM     71  F   UNL A   1      38.078  31.940  37.511  1.00  0.00    -0.203 F 
ATOM     72  C   UNL A   1      38.534  33.891  38.751  1.00  0.00     0.198 A 
ATOM     73  C   UNL A   1      40.024  35.551  37.866  1.00  0.00     0.198 A 
ATOM     74  F   UNL A   1      41.002  35.241  35.747  1.00  0.00    -0.203 F 
ATOM     75  F   UNL A   1      37.702  33.473  39.714  1.00  0.00    -0.200 F 
ATOM     76  C   UNL A   1      39.187  35.108  38.878  1.00  0.00     0.200 A 
ATOM     77  F   UNL A   1      40.663  36.723  37.988  1.00  0.00    -0.200 F 
ATOM     78  F   UNL A   1      39.001  35.859  39.972  1.00  0.00    -0.200 F 
ENDBRANCH  44  68
BRANCH  56  79
ATOM     79  C   UNL A   1      43.843  28.280  34.989  1.00  0.00     0.064 A 
ATOM     80  C   UNL A   1      45.161  28.758  34.992  1.00  0.00     0.173 A 
ATOM     81  C   UNL A   1      43.549  27.148  35.763  1.00  0.00     0.173 A 
ATOM     82  F   UNL A   1      45.493  29.827  34.253  1.00  0.00    -0.203 F 
ATOM     83  C   UNL A   1      46.152  28.114  35.727  1.00  0.00     0.198 A 
ATOM     84  C   UNL A   1      44.538  26.522  36.517  1.00  0.00     0.198 A 
ATOM     85  F   UNL A   1      42.302  26.655  35.796  1.00  0.00    -0.203 F 
ATOM     86  F   UNL A   1      47.414  28.561  35.683  1.00  0.00    -0.200 F 
ATOM     87  C   UNL A   1      45.839  27.001  36.494  1.00  0.00     0.200 A 
ATOM     88  F   UNL A   1      44.232  25.452  37.265  1.00  0.00    -0.200 F 
ATOM     89  F   UNL A   1      46.794  26.384  37.204  1.00  0.00    -0.200 F 
ENDBRANCH  56  79
ENDBRANCH  30  31
ENDBRANCH  23  25
ENDBRANCH  22  23
ENDBRANCH  21  22
ENDBRANCH  20  21
ENDBRANCH   1  20
TORSDOF 16
ENDMDL
