MODEL 1
REMARK VINA RESULT:     -12.6      0.000      0.000
REMARK SMILES Cc1nc(N2CCN(c3ccccc3)CC2)nc(OCC(=O)OCCOC(=O)c2ccc(-c3c4nc(c(-c5c(F)c(F)c(F)c(F)c5F)c5ccc([nH]5)c(-c5c(F)c(F)c(F)c(F)c5F)c5nc(c(-c6c(F)c(F)c(F)c(F)c6F)c6ccc3[nH]6)C=C5)C=C4)cc2)c1C
REMARK SMILES IDX 24 1 23 2 21 3 22 4 20 5 19 6 18 7 1 8 2 9 3 10 92 11 4 12
REMARK SMILES IDX 93 13 17 14 5 15 6 16 16 17 7 18 15 19 8 20 9 21 10 22 14 23
REMARK SMILES IDX 11 24 13 25 12 26 25 27 26 28 27 29 28 30 29 31 30 32 91 33
REMARK SMILES IDX 31 34 90 35 32 36 33 37 34 38 84 39 35 40 89 41 83 42 85 43
REMARK SMILES IDX 36 44 88 45 82 46 81 47 37 49 69 50 49 51 68 52 50 53 53 54
REMARK SMILES IDX 67 55 86 56 51 57 52 58 66 60 87 61 54 62 38 63 39 64 47 65
REMARK SMILES IDX 40 66 41 67 45 68 48 69 42 70 43 71 46 72 44 73 70 74 71 75
REMARK SMILES IDX 79 76 72 77 73 78 77 79 80 80 74 81 75 82 78 83 76 84 55 85
REMARK SMILES IDX 56 86 64 87 57 88 58 89 62 90 65 91 59 92 60 93 63 94 61 95
REMARK H PARENT 85 48 53 59
REMARK Flexibility Score: inf
ROOT
ATOM      1  C   UNL A   1      31.954  29.588  25.201  1.00  0.00     0.274 C 
ENDROOT
BRANCH   1   2
ATOM      2  O   UNL A   1      31.077  28.472  25.474  1.00  0.00    -0.460 OA
BRANCH   2   3
ATOM      3  C   UNL A   1      31.513  27.615  26.433  1.00  0.00     0.344 C 
ATOM      4  O   UNL A   1      31.262  27.720  27.631  1.00  0.00    -0.248 OA
BRANCH   3   5
ATOM      5  C   UNL A   1      32.473  26.540  25.913  1.00  0.00     0.353 C 
BRANCH   5   6
ATOM      6  O   UNL A   1      33.352  26.646  24.827  1.00  0.00    -0.465 OA
BRANCH   6   7
ATOM      7  C   UNL A   1      33.221  25.905  23.702  1.00  0.00     0.221 A 
ATOM      8  C   UNL A   1      32.476  25.574  20.032  1.00  0.00     0.067 C 
ATOM      9  C   UNL A   1      32.796  25.322  21.476  1.00  0.00     0.050 A 
ATOM     10  N   UNL A   1      33.264  24.077  21.707  1.00  0.00    -0.218 NA
ATOM     11  C   UNL A   1      32.648  26.263  22.496  1.00  0.00     0.033 A 
ATOM     12  C   UNL A   1      33.546  23.759  22.967  1.00  0.00     0.229 A 
ATOM     13  C   UNL A   1      31.799  27.480  22.363  1.00  0.00     0.052 C 
ATOM     14  N   UNL A   1      33.603  24.652  23.951  1.00  0.00    -0.177 NA
BRANCH  12  15
ATOM     15  N   UNL A   1      33.650  22.457  23.329  1.00  0.00    -0.337 N 
ATOM     16  C   UNL A   1      34.820  21.910  23.987  1.00  0.00     0.141 C 
ATOM     17  C   UNL A   1      32.722  21.514  22.710  1.00  0.00     0.141 C 
ATOM     18  C   UNL A   1      34.342  20.900  25.066  1.00  0.00     0.138 C 
ATOM     19  C   UNL A   1      32.252  20.488  23.752  1.00  0.00     0.138 C 
ATOM     20  N   UNL A   1      33.411  19.929  24.467  1.00  0.00    -0.368 N 
BRANCH  20  21
ATOM     21  C   UNL A   1      33.481  18.586  24.739  1.00  0.00     0.037 A 
ATOM     22  C   UNL A   1      32.673  17.984  25.708  1.00  0.00     0.026 A 
ATOM     23  C   UNL A   1      34.401  17.780  24.056  1.00  0.00     0.026 A 
ATOM     24  C   UNL A   1      32.780  16.620  25.988  1.00  0.00     0.002 A 
ATOM     25  C   UNL A   1      34.529  16.421  24.344  1.00  0.00     0.002 A 
ATOM     26  C   UNL A   1      33.715  15.840  25.312  1.00  0.00     0.000 A 
ENDBRANCH  20  21
ENDBRANCH  12  15
ENDBRANCH   6   7
ENDBRANCH   5   6
ENDBRANCH   3   5
ENDBRANCH   2   3
ENDBRANCH   1   2
BRANCH   1  27
ATOM     27  C   UNL A   1      31.646  30.794  26.087  1.00  0.00     0.275 C 
BRANCH  27  28
ATOM     28  O   UNL A   1      32.485  30.771  27.255  1.00  0.00    -0.458 OA
BRANCH  28  29
ATOM     29  C   UNL A   1      33.324  31.819  27.395  1.00  0.00     0.338 C 
ATOM     30  O   UNL A   1      33.061  32.995  27.172  1.00  0.00    -0.246 OA
BRANCH  29  31
ATOM     31  C   UNL A   1      34.641  31.385  27.928  1.00  0.00     0.060 A 
ATOM     32  C   UNL A   1      34.919  30.049  28.226  1.00  0.00     0.016 A 
ATOM     33  C   UNL A   1      35.590  32.365  28.238  1.00  0.00     0.016 A 
ATOM     34  C   UNL A   1      36.076  29.715  28.937  1.00  0.00     0.010 A 
ATOM     35  C   UNL A   1      36.791  32.015  28.865  1.00  0.00     0.010 A 
ATOM     36  C   UNL A   1      37.035  30.691  29.256  1.00  0.00    -0.014 A 
BRANCH  36  37
ATOM     37  C   UNL A   1      38.296  30.335  29.969  1.00  0.00     0.031 A 
ATOM     38  C   UNL A   1      39.329  29.444  29.328  1.00  0.00     0.074 A 
ATOM     39  C   UNL A   1      38.516  30.801  31.213  1.00  0.00     0.049 A 
ATOM     40  N   UNL A   1      40.376  28.865  29.866  1.00  0.00    -0.248 NA
ATOM     41  C   UNL A   1      39.165  29.159  27.895  1.00  0.00     0.031 C 
ATOM     42  C   UNL A   1      37.633  31.709  31.947  1.00  0.00     0.029 A 
ATOM     43  N   UNL A   1      39.555  30.576  32.083  1.00  0.00    -0.354 N 
ATOM     44  C   UNL A   1      40.967  28.121  28.851  1.00  0.00     0.074 A 
ATOM     45  C   UNL A   1      40.166  28.319  27.663  1.00  0.00     0.031 C 
ATOM     46  C   UNL A   1      38.187  32.000  33.132  1.00  0.00     0.029 A 
ATOM     47  C   UNL A   1      39.412  31.225  33.284  1.00  0.00     0.049 A 
ATOM     48  H   UNL A   1      40.327  30.006  31.865  1.00  0.00     0.167 HD
ATOM     49  C   UNL A   1      42.074  27.343  28.909  1.00  0.00     0.037 A 
ATOM     50  C   UNL A   1      40.151  31.167  34.408  1.00  0.00     0.037 A 
ATOM     51  C   UNL A   1      42.895  27.176  30.081  1.00  0.00     0.049 A 
ATOM     52  C   UNL A   1      41.331  30.246  34.473  1.00  0.00     0.074 A 
ATOM     53  C   UNL A   1      44.040  26.411  30.231  1.00  0.00     0.029 A 
ATOM     54  N   UNL A   1      42.668  27.796  31.300  1.00  0.00    -0.354 N 
ATOM     55  N   UNL A   1      41.827  29.477  33.536  1.00  0.00    -0.248 NA
ATOM     56  C   UNL A   1      42.032  30.159  35.761  1.00  0.00     0.031 C 
ATOM     57  C   UNL A   1      44.489  26.546  31.550  1.00  0.00     0.029 A 
ATOM     58  C   UNL A   1      43.643  27.421  32.210  1.00  0.00     0.049 A 
ATOM     59  H   UNL A   1      41.923  28.411  31.490  1.00  0.00     0.167 HD
ATOM     60  C   UNL A   1      42.891  28.807  34.121  1.00  0.00     0.074 A 
ATOM     61  C   UNL A   1      42.986  29.279  35.487  1.00  0.00     0.031 C 
ATOM     62  C   UNL A   1      43.712  27.880  33.572  1.00  0.00     0.037 A 
BRANCH  49  63
ATOM     63  C   UNL A   1      42.472  26.588  27.675  1.00  0.00     0.064 A 
ATOM     64  C   UNL A   1      43.416  27.098  26.774  1.00  0.00     0.173 A 
ATOM     65  C   UNL A   1      41.971  25.298  27.445  1.00  0.00     0.173 A 
ATOM     66  F   UNL A   1      43.914  28.332  26.946  1.00  0.00    -0.203 F 
ATOM     67  C   UNL A   1      43.842  26.345  25.683  1.00  0.00     0.198 A 
ATOM     68  C   UNL A   1      42.415  24.539  26.365  1.00  0.00     0.198 A 
ATOM     69  F   UNL A   1      41.072  24.762  28.284  1.00  0.00    -0.203 F 
ATOM     70  F   UNL A   1      44.734  26.857  24.823  1.00  0.00    -0.200 F 
ATOM     71  C   UNL A   1      43.350  25.062  25.484  1.00  0.00     0.200 A 
ATOM     72  F   UNL A   1      41.947  23.296  26.182  1.00  0.00    -0.200 F 
ATOM     73  F   UNL A   1      43.777  24.331  24.446  1.00  0.00    -0.200 F 
ENDBRANCH  49  63
BRANCH  50  74
ATOM     74  C   UNL A   1      39.752  31.994  35.574  1.00  0.00     0.064 A 
ATOM     75  C   UNL A   1      40.310  33.262  35.772  1.00  0.00     0.173 A 
ATOM     76  C   UNL A   1      38.758  31.564  36.465  1.00  0.00     0.173 A 
ATOM     77  F   UNL A   1      41.278  33.703  34.955  1.00  0.00    -0.203 F 
ATOM     78  C   UNL A   1      39.877  34.079  36.813  1.00  0.00     0.198 A 
ATOM     79  C   UNL A   1      38.310  32.390  37.491  1.00  0.00     0.198 A 
ATOM     80  F   UNL A   1      38.195  30.356  36.312  1.00  0.00    -0.203 F 
ATOM     81  F   UNL A   1      40.431  35.286  36.990  1.00  0.00    -0.200 F 
ATOM     82  C   UNL A   1      38.869  33.648  37.664  1.00  0.00     0.200 A 
ATOM     83  F   UNL A   1      37.324  31.977  38.299  1.00  0.00    -0.200 F 
ATOM     84  F   UNL A   1      38.433  34.446  38.648  1.00  0.00    -0.200 F 
ENDBRANCH  50  74
BRANCH  62  85
ATOM     85  C   UNL A   1      44.780  27.309  34.451  1.00  0.00     0.064 A 
ATOM     86  C   UNL A   1      44.567  26.129  35.177  1.00  0.00     0.173 A 
ATOM     87  C   UNL A   1      46.036  27.925  34.543  1.00  0.00     0.173 A 
ATOM     88  F   UNL A   1      43.374  25.515  35.131  1.00  0.00    -0.203 F 
ATOM     89  C   UNL A   1      45.572  25.592  35.977  1.00  0.00     0.198 A 
ATOM     90  C   UNL A   1      47.044  27.375  35.329  1.00  0.00     0.198 A 
ATOM     91  F   UNL A   1      46.287  29.054  33.863  1.00  0.00    -0.203 F 
ATOM     92  F   UNL A   1      45.337  24.481  36.689  1.00  0.00    -0.200 F 
ATOM     93  C   UNL A   1      46.811  26.213  36.047  1.00  0.00     0.200 A 
ATOM     94  F   UNL A   1      48.242  27.972  35.393  1.00  0.00    -0.200 F 
ATOM     95  F   UNL A   1      47.777  25.693  36.817  1.00  0.00    -0.200 F 
ENDBRANCH  62  85
ENDBRANCH  36  37
ENDBRANCH  29  31
ENDBRANCH  28  29
ENDBRANCH  27  28
ENDBRANCH   1  27
TORSDOF 15
ENDMDL
MODEL 2
REMARK VINA RESULT:     -12.5      1.698      3.130
REMARK SMILES Cc1nc(N2CCN(c3ccccc3)CC2)nc(OCC(=O)OCCOC(=O)c2ccc(-c3c4nc(c(-c5c(F)c(F)c(F)c(F)c5F)c5ccc([nH]5)c(-c5c(F)c(F)c(F)c(F)c5F)c5nc(c(-c6c(F)c(F)c(F)c(F)c6F)c6ccc3[nH]6)C=C5)C=C4)cc2)c1C
REMARK SMILES IDX 24 1 23 2 21 3 22 4 20 5 19 6 18 7 1 8 2 9 3 10 92 11 4 12
REMARK SMILES IDX 93 13 17 14 5 15 6 16 16 17 7 18 15 19 8 20 9 21 10 22 14 23
REMARK SMILES IDX 11 24 13 25 12 26 25 27 26 28 27 29 28 30 29 31 30 32 91 33
REMARK SMILES IDX 31 34 90 35 32 36 33 37 34 38 84 39 35 40 89 41 83 42 85 43
REMARK SMILES IDX 36 44 88 45 82 46 81 47 37 49 69 50 49 51 68 52 50 53 53 54
REMARK SMILES IDX 67 55 86 56 51 57 52 58 66 60 87 61 54 62 38 63 39 64 47 65
REMARK SMILES IDX 40 66 41 67 45 68 48 69 42 70 43 71 46 72 44 73 70 74 71 75
REMARK SMILES IDX 79 76 72 77 73 78 77 79 80 80 74 81 75 82 78 83 76 84 55 85
REMARK SMILES IDX 56 86 64 87 57 88 58 89 62 90 65 91 59 92 60 93 63 94 61 95
REMARK H PARENT 85 48 53 59
REMARK Flexibility Score: inf
ROOT
ATOM      1  C   UNL A   1      32.003  28.334  24.645  1.00  0.00     0.274 C 
ENDROOT
BRANCH   1   2
ATOM      2  O   UNL A   1      32.564  27.432  25.626  1.00  0.00    -0.460 OA
BRANCH   2   3
ATOM      3  C   UNL A   1      31.685  26.961  26.547  1.00  0.00     0.344 C 
ATOM      4  O   UNL A   1      31.461  27.488  27.634  1.00  0.00    -0.248 OA
BRANCH   3   5
ATOM      5  C   UNL A   1      31.060  25.613  26.174  1.00  0.00     0.353 C 
BRANCH   5   6
ATOM      6  O   UNL A   1      31.710  24.374  26.092  1.00  0.00    -0.465 OA
BRANCH   6   7
ATOM      7  C   UNL A   1      32.493  24.024  25.046  1.00  0.00     0.221 A 
ATOM      8  C   UNL A   1      33.076  23.575  21.359  1.00  0.00     0.067 C 
ATOM      9  C   UNL A   1      33.195  23.597  22.855  1.00  0.00     0.050 A 
ATOM     10  N   UNL A   1      34.458  23.407  23.290  1.00  0.00    -0.218 NA
ATOM     11  C   UNL A   1      32.128  23.806  23.731  1.00  0.00     0.033 A 
ATOM     12  C   UNL A   1      34.649  23.383  24.605  1.00  0.00     0.229 A 
ATOM     13  C   UNL A   1      30.703  23.639  23.332  1.00  0.00     0.052 C 
ATOM     14  N   UNL A   1      33.723  23.752  25.486  1.00  0.00    -0.177 NA
BRANCH  12  15
ATOM     15  N   UNL A   1      35.777  22.832  25.116  1.00  0.00    -0.337 N 
ATOM     16  C   UNL A   1      36.051  21.409  25.078  1.00  0.00     0.141 C 
ATOM     17  C   UNL A   1      36.553  23.643  26.051  1.00  0.00     0.141 C 
ATOM     18  C   UNL A   1      37.560  21.212  24.773  1.00  0.00     0.138 C 
ATOM     19  C   UNL A   1      38.054  23.448  25.785  1.00  0.00     0.138 C 
ATOM     20  N   UNL A   1      38.369  22.013  25.708  1.00  0.00    -0.368 N 
BRANCH  20  21
ATOM     21  C   UNL A   1      39.497  21.513  26.309  1.00  0.00     0.037 A 
ATOM     22  C   UNL A   1      40.050  20.283  25.939  1.00  0.00     0.026 A 
ATOM     23  C   UNL A   1      40.113  22.227  27.346  1.00  0.00     0.026 A 
ATOM     24  C   UNL A   1      41.183  19.781  26.583  1.00  0.00     0.002 A 
ATOM     25  C   UNL A   1      41.232  21.722  28.008  1.00  0.00     0.002 A 
ATOM     26  C   UNL A   1      41.769  20.497  27.625  1.00  0.00     0.000 A 
ENDBRANCH  20  21
ENDBRANCH  12  15
ENDBRANCH   6   7
ENDBRANCH   5   6
ENDBRANCH   3   5
ENDBRANCH   2   3
ENDBRANCH   1   2
BRANCH   1  27
ATOM     27  C   UNL A   1      31.942  29.773  25.153  1.00  0.00     0.275 C 
BRANCH  27  28
ATOM     28  O   UNL A   1      33.217  30.154  25.699  1.00  0.00    -0.458 OA
BRANCH  28  29
ATOM     29  C   UNL A   1      33.183  31.084  26.677  1.00  0.00     0.338 C 
ATOM     30  O   UNL A   1      32.299  31.912  26.861  1.00  0.00    -0.246 OA
BRANCH  29  31
ATOM     31  C   UNL A   1      34.354  30.956  27.581  1.00  0.00     0.060 A 
ATOM     32  C   UNL A   1      35.169  32.045  27.901  1.00  0.00     0.016 A 
ATOM     33  C   UNL A   1      34.709  29.682  28.036  1.00  0.00     0.016 A 
ATOM     34  C   UNL A   1      36.385  31.841  28.561  1.00  0.00     0.010 A 
ATOM     35  C   UNL A   1      35.880  29.495  28.780  1.00  0.00     0.010 A 
ATOM     36  C   UNL A   1      36.753  30.566  29.021  1.00  0.00    -0.014 A 
BRANCH  36  37
ATOM     37  C   UNL A   1      38.023  30.348  29.770  1.00  0.00     0.031 A 
ATOM     38  C   UNL A   1      39.164  29.573  29.163  1.00  0.00     0.074 A 
ATOM     39  C   UNL A   1      38.156  30.835  31.020  1.00  0.00     0.049 A 
ATOM     40  N   UNL A   1      40.251  29.110  29.731  1.00  0.00    -0.248 NA
ATOM     41  C   UNL A   1      39.073  29.272  27.726  1.00  0.00     0.031 C 
ATOM     42  C   UNL A   1      37.160  31.643  31.724  1.00  0.00     0.029 A 
ATOM     43  N   UNL A   1      39.188  30.723  31.919  1.00  0.00    -0.354 N 
ATOM     44  C   UNL A   1      40.948  28.434  28.737  1.00  0.00     0.074 A 
ATOM     45  C   UNL A   1      40.165  28.544  27.525  1.00  0.00     0.031 C 
ATOM     46  C   UNL A   1      37.645  31.992  32.924  1.00  0.00     0.029 A 
ATOM     47  C   UNL A   1      38.942  31.352  33.113  1.00  0.00     0.049 A 
ATOM     48  H   UNL A   1      40.023  30.240  31.725  1.00  0.00     0.167 HD
ATOM     49  C   UNL A   1      42.130  27.780  28.828  1.00  0.00     0.037 A 
ATOM     50  C   UNL A   1      39.650  31.375  34.258  1.00  0.00     0.037 A 
ATOM     51  C   UNL A   1      42.931  27.702  30.024  1.00  0.00     0.049 A 
ATOM     52  C   UNL A   1      40.920  30.587  34.360  1.00  0.00     0.074 A 
ATOM     53  C   UNL A   1      44.147  27.065  30.209  1.00  0.00     0.029 A 
ATOM     54  N   UNL A   1      42.603  28.294  31.234  1.00  0.00    -0.354 N 
ATOM     55  N   UNL A   1      41.523  29.875  33.440  1.00  0.00    -0.248 NA
ATOM     56  C   UNL A   1      41.589  30.576  35.667  1.00  0.00     0.031 C 
ATOM     57  C   UNL A   1      44.540  27.247  31.540  1.00  0.00     0.029 A 
ATOM     58  C   UNL A   1      43.586  28.026  32.172  1.00  0.00     0.049 A 
ATOM     59  H   UNL A   1      41.791  28.825  31.401  1.00  0.00     0.167 HD
ATOM     60  C   UNL A   1      42.635  29.324  34.057  1.00  0.00     0.074 A 
ATOM     61  C   UNL A   1      42.640  29.804  35.424  1.00  0.00     0.031 C 
ATOM     62  C   UNL A   1      43.567  28.491  33.535  1.00  0.00     0.037 A 
BRANCH  49  63
ATOM     63  C   UNL A   1      42.643  27.072  27.609  1.00  0.00     0.064 A 
ATOM     64  C   UNL A   1      43.496  27.705  26.695  1.00  0.00     0.173 A 
ATOM     65  C   UNL A   1      42.350  25.715  27.405  1.00  0.00     0.173 A 
ATOM     66  F   UNL A   1      43.796  29.005  26.842  1.00  0.00    -0.203 F 
ATOM     67  C   UNL A   1      44.036  27.006  25.618  1.00  0.00     0.198 A 
ATOM     68  C   UNL A   1      42.907  25.013  26.339  1.00  0.00     0.198 A 
ATOM     69  F   UNL A   1      41.544  25.062  28.257  1.00  0.00    -0.203 F 
ATOM     70  F   UNL A   1      44.837  27.634  24.747  1.00  0.00    -0.200 F 
ATOM     71  C   UNL A   1      43.750  25.658  25.447  1.00  0.00     0.200 A 
ATOM     72  F   UNL A   1      42.640  23.709  26.182  1.00  0.00    -0.200 F 
ATOM     73  F   UNL A   1      44.287  24.983  24.422  1.00  0.00    -0.200 F 
ENDBRANCH  49  63
BRANCH  50  74
ATOM     74  C   UNL A   1      39.131  32.154  35.409  1.00  0.00     0.064 A 
ATOM     75  C   UNL A   1      38.370  31.531  36.406  1.00  0.00     0.173 A 
ATOM     76  C   UNL A   1      39.445  33.511  35.572  1.00  0.00     0.173 A 
ATOM     77  F   UNL A   1      38.028  30.240  36.279  1.00  0.00    -0.203 F 
ATOM     78  C   UNL A   1      37.954  32.235  37.532  1.00  0.00     0.198 A 
ATOM     79  C   UNL A   1      39.049  34.207  36.710  1.00  0.00     0.198 A 
ATOM     80  F   UNL A   1      40.174  34.148  34.643  1.00  0.00    -0.203 F 
ATOM     81  F   UNL A   1      37.218  31.621  38.469  1.00  0.00    -0.200 F 
ATOM     82  C   UNL A   1      38.304  33.568  37.690  1.00  0.00     0.200 A 
ATOM     83  F   UNL A   1      39.405  35.489  36.866  1.00  0.00    -0.200 F 
ATOM     84  F   UNL A   1      37.927  34.237  38.788  1.00  0.00    -0.200 F 
ENDBRANCH  50  74
BRANCH  62  85
ATOM     85  C   UNL A   1      44.664  28.037  34.446  1.00  0.00     0.064 A 
ATOM     86  C   UNL A   1      45.837  28.790  34.598  1.00  0.00     0.173 A 
ATOM     87  C   UNL A   1      44.529  26.861  35.197  1.00  0.00     0.173 A 
ATOM     88  F   UNL A   1      46.016  29.913  33.886  1.00  0.00    -0.203 F 
ATOM     89  C   UNL A   1      46.845  28.371  35.462  1.00  0.00     0.198 A 
ATOM     90  C   UNL A   1      45.531  26.457  36.074  1.00  0.00     0.198 A 
ATOM     91  F   UNL A   1      43.423  26.111  35.086  1.00  0.00    -0.203 F 
ATOM     92  F   UNL A   1      47.973  29.087  35.569  1.00  0.00    -0.200 F 
ATOM     93  C   UNL A   1      46.689  27.209  36.203  1.00  0.00     0.200 A 
ATOM     94  F   UNL A   1      45.377  25.337  36.793  1.00  0.00    -0.200 F 
ATOM     95  F   UNL A   1      47.660  26.809  37.036  1.00  0.00    -0.200 F 
ENDBRANCH  62  85
ENDBRANCH  36  37
ENDBRANCH  29  31
ENDBRANCH  28  29
ENDBRANCH  27  28
ENDBRANCH   1  27
TORSDOF 15
ENDMDL
MODEL 3
REMARK VINA RESULT:     -12.4      4.322      9.206
REMARK SMILES Cc1nc(N2CCN(c3ccccc3)CC2)nc(OCC(=O)OCCOC(=O)c2ccc(-c3c4nc(c(-c5c(F)c(F)c(F)c(F)c5F)c5ccc([nH]5)c(-c5c(F)c(F)c(F)c(F)c5F)c5nc(c(-c6c(F)c(F)c(F)c(F)c6F)c6ccc3[nH]6)C=C5)C=C4)cc2)c1C
REMARK SMILES IDX 24 1 23 2 21 3 22 4 20 5 19 6 18 7 1 8 2 9 3 10 92 11 4 12
REMARK SMILES IDX 93 13 17 14 5 15 6 16 16 17 7 18 15 19 8 20 9 21 10 22 14 23
REMARK SMILES IDX 11 24 13 25 12 26 25 27 26 28 27 29 28 30 29 31 30 32 91 33
REMARK SMILES IDX 31 34 90 35 32 36 33 37 34 38 84 39 35 40 89 41 83 42 85 43
REMARK SMILES IDX 36 44 88 45 82 46 81 47 37 49 69 50 49 51 68 52 50 53 53 54
REMARK SMILES IDX 67 55 86 56 51 57 52 58 66 60 87 61 54 62 38 63 39 64 47 65
REMARK SMILES IDX 40 66 41 67 45 68 48 69 42 70 43 71 46 72 44 73 70 74 71 75
REMARK SMILES IDX 79 76 72 77 73 78 77 79 80 80 74 81 75 82 78 83 76 84 55 85
REMARK SMILES IDX 56 86 64 87 57 88 58 89 62 90 65 91 59 92 60 93 63 94 61 95
REMARK H PARENT 85 48 53 59
REMARK Flexibility Score: inf
ROOT
ATOM      1  C   UNL A   1      45.127  21.176  24.965  1.00  0.00     0.274 C 
ENDROOT
BRANCH   1   2
ATOM      2  O   UNL A   1      44.241  20.212  24.352  1.00  0.00    -0.460 OA
BRANCH   2   3
ATOM      3  C   UNL A   1      43.780  19.241  25.181  1.00  0.00     0.344 C 
ATOM      4  O   UNL A   1      44.327  18.156  25.359  1.00  0.00    -0.248 OA
BRANCH   3   5
ATOM      5  C   UNL A   1      42.419  19.558  25.809  1.00  0.00     0.353 C 
BRANCH   5   6
ATOM      6  O   UNL A   1      42.175  20.331  26.952  1.00  0.00    -0.465 OA
BRANCH   6   7
ATOM      7  C   UNL A   1      41.274  21.340  26.977  1.00  0.00     0.221 A 
ATOM      8  C   UNL A   1      40.223  24.807  27.980  1.00  0.00     0.067 C 
ATOM      9  C   UNL A   1      40.281  23.406  27.446  1.00  0.00     0.050 A 
ATOM     10  N   UNL A   1      39.265  23.115  26.607  1.00  0.00    -0.218 NA
ATOM     11  C   UNL A   1      41.279  22.481  27.756  1.00  0.00     0.033 A 
ATOM     12  C   UNL A   1      39.223  21.883  26.110  1.00  0.00     0.229 A 
ATOM     13  C   UNL A   1      42.177  22.618  28.938  1.00  0.00     0.052 C 
ATOM     14  N   UNL A   1      40.227  21.017  26.215  1.00  0.00    -0.177 NA
BRANCH  12  15
ATOM     15  N   UNL A   1      38.069  21.403  25.585  1.00  0.00    -0.337 N 
ATOM     16  C   UNL A   1      38.016  20.246  24.713  1.00  0.00     0.141 C 
ATOM     17  C   UNL A   1      36.909  22.291  25.598  1.00  0.00     0.141 C 
ATOM     18  C   UNL A   1      36.758  19.415  25.085  1.00  0.00     0.138 C 
ATOM     19  C   UNL A   1      35.644  21.488  25.940  1.00  0.00     0.138 C 
ATOM     20  N   UNL A   1      35.569  20.284  25.096  1.00  0.00    -0.368 N 
BRANCH  20  21
ATOM     21  C   UNL A   1      34.376  19.896  24.539  1.00  0.00     0.037 A 
ATOM     22  C   UNL A   1      34.033  18.550  24.390  1.00  0.00     0.026 A 
ATOM     23  C   UNL A   1      33.472  20.862  24.076  1.00  0.00     0.026 A 
ATOM     24  C   UNL A   1      32.824  18.177  23.797  1.00  0.00     0.002 A 
ATOM     25  C   UNL A   1      32.273  20.497  23.463  1.00  0.00     0.002 A 
ATOM     26  C   UNL A   1      31.948  19.152  23.325  1.00  0.00     0.000 A 
ENDBRANCH  20  21
ENDBRANCH  12  15
ENDBRANCH   6   7
ENDBRANCH   5   6
ENDBRANCH   3   5
ENDBRANCH   2   3
ENDBRANCH   1   2
BRANCH   1  27
ATOM     27  C   UNL A   1      45.192  22.482  24.175  1.00  0.00     0.275 C 
BRANCH  27  28
ATOM     28  O   UNL A   1      44.581  23.542  24.932  1.00  0.00    -0.458 OA
BRANCH  28  29
ATOM     29  C   UNL A   1      45.262  24.708  24.965  1.00  0.00     0.338 C 
ATOM     30  O   UNL A   1      46.255  24.987  24.305  1.00  0.00    -0.246 OA
BRANCH  29  31
ATOM     31  C   UNL A   1      44.617  25.680  25.885  1.00  0.00     0.060 A 
ATOM     32  C   UNL A   1      44.844  27.055  25.790  1.00  0.00     0.016 A 
ATOM     33  C   UNL A   1      43.846  25.187  26.943  1.00  0.00     0.016 A 
ATOM     34  C   UNL A   1      44.409  27.909  26.808  1.00  0.00     0.010 A 
ATOM     35  C   UNL A   1      43.331  26.057  27.910  1.00  0.00     0.010 A 
ATOM     36  C   UNL A   1      43.635  27.425  27.876  1.00  0.00    -0.014 A 
BRANCH  36  37
ATOM     37  C   UNL A   1      43.124  28.338  28.939  1.00  0.00     0.031 A 
ATOM     38  C   UNL A   1      43.959  28.670  30.150  1.00  0.00     0.074 A 
ATOM     39  C   UNL A   1      41.889  28.865  28.833  1.00  0.00     0.049 A 
ATOM     40  N   UNL A   1      43.609  29.270  31.262  1.00  0.00    -0.248 NA
ATOM     41  C   UNL A   1      45.374  28.275  30.110  1.00  0.00     0.031 C 
ATOM     42  C   UNL A   1      40.981  28.674  27.701  1.00  0.00     0.029 A 
ATOM     43  N   UNL A   1      41.184  29.674  29.689  1.00  0.00    -0.354 N 
ATOM     44  C   UNL A   1      44.744  29.285  32.064  1.00  0.00     0.074 A 
ATOM     45  C   UNL A   1      45.798  28.638  31.314  1.00  0.00     0.031 C 
ATOM     46  C   UNL A   1      39.861  29.380  27.910  1.00  0.00     0.029 A 
ATOM     47  C   UNL A   1      39.930  29.994  29.231  1.00  0.00     0.049 A 
ATOM     48  H   UNL A   1      41.543  29.994  30.548  1.00  0.00     0.167 HD
ATOM     49  C   UNL A   1      44.890  29.793  33.311  1.00  0.00     0.037 A 
ATOM     50  C   UNL A   1      38.922  30.662  29.821  1.00  0.00     0.037 A 
ATOM     51  C   UNL A   1      43.852  30.473  34.044  1.00  0.00     0.049 A 
ATOM     52  C   UNL A   1      39.081  31.152  31.228  1.00  0.00     0.074 A 
ATOM     53  C   UNL A   1      43.911  31.025  35.314  1.00  0.00     0.029 A 
ATOM     54  N   UNL A   1      42.572  30.708  33.567  1.00  0.00    -0.354 N 
ATOM     55  N   UNL A   1      40.128  31.081  32.011  1.00  0.00    -0.248 NA
ATOM     56  C   UNL A   1      37.907  31.783  31.845  1.00  0.00     0.031 C 
ATOM     57  C   UNL A   1      42.658  31.569  35.615  1.00  0.00     0.029 A 
ATOM     58  C   UNL A   1      41.830  31.385  34.520  1.00  0.00     0.049 A 
ATOM     59  H   UNL A   1      42.241  30.433  32.682  1.00  0.00     0.167 HD
ATOM     60  C   UNL A   1      39.740  31.648  33.215  1.00  0.00     0.074 A 
ATOM     61  C   UNL A   1      38.368  32.083  33.052  1.00  0.00     0.031 C 
ATOM     62  C   UNL A   1      40.459  31.791  34.354  1.00  0.00     0.037 A 
BRANCH  49  63
ATOM     63  C   UNL A   1      46.217  29.626  33.990  1.00  0.00     0.064 A 
ATOM     64  C   UNL A   1      46.514  28.491  34.756  1.00  0.00     0.173 A 
ATOM     65  C   UNL A   1      47.236  30.571  33.792  1.00  0.00     0.173 A 
ATOM     66  F   UNL A   1      45.570  27.565  34.983  1.00  0.00    -0.203 F 
ATOM     67  C   UNL A   1      47.782  28.308  35.302  1.00  0.00     0.198 A 
ATOM     68  C   UNL A   1      48.508  30.376  34.322  1.00  0.00     0.198 A 
ATOM     69  F   UNL A   1      47.004  31.671  33.059  1.00  0.00    -0.203 F 
ATOM     70  F   UNL A   1      48.041  27.223  36.045  1.00  0.00    -0.200 F 
ATOM     71  C   UNL A   1      48.781  29.245  35.077  1.00  0.00     0.200 A 
ATOM     72  F   UNL A   1      49.475  31.276  34.093  1.00  0.00    -0.200 F 
ATOM     73  F   UNL A   1      50.006  29.058  35.587  1.00  0.00    -0.200 F 
ENDBRANCH  49  63
BRANCH  50  74
ATOM     74  C   UNL A   1      37.656  30.861  29.073  1.00  0.00     0.064 A 
ATOM     75  C   UNL A   1      36.765  29.798  28.882  1.00  0.00     0.173 A 
ATOM     76  C   UNL A   1      37.282  32.128  28.600  1.00  0.00     0.173 A 
ATOM     77  F   UNL A   1      37.094  28.567  29.300  1.00  0.00    -0.203 F 
ATOM     78  C   UNL A   1      35.537  29.998  28.258  1.00  0.00     0.198 A 
ATOM     79  C   UNL A   1      36.044  32.331  27.997  1.00  0.00     0.198 A 
ATOM     80  F   UNL A   1      38.104  33.175  28.762  1.00  0.00    -0.203 F 
ATOM     81  F   UNL A   1      34.704  28.963  28.078  1.00  0.00    -0.200 F 
ATOM     82  C   UNL A   1      35.172  31.265  27.827  1.00  0.00     0.200 A 
ATOM     83  F   UNL A   1      35.688  33.559  27.600  1.00  0.00    -0.200 F 
ATOM     84  F   UNL A   1      33.978  31.461  27.253  1.00  0.00    -0.200 F 
ENDBRANCH  50  74
BRANCH  62  85
ATOM     85  C   UNL A   1      39.773  32.436  35.518  1.00  0.00     0.064 A 
ATOM     86  C   UNL A   1      39.920  33.806  35.776  1.00  0.00     0.173 A 
ATOM     87  C   UNL A   1      38.937  31.688  36.359  1.00  0.00     0.173 A 
ATOM     88  F   UNL A   1      40.723  34.556  35.007  1.00  0.00    -0.203 F 
ATOM     89  C   UNL A   1      39.263  34.403  36.850  1.00  0.00     0.198 A 
ATOM     90  C   UNL A   1      38.267  32.293  37.418  1.00  0.00     0.198 A 
ATOM     91  F   UNL A   1      38.764  30.375  36.147  1.00  0.00    -0.203 F 
ATOM     92  F   UNL A   1      39.441  35.707  37.100  1.00  0.00    -0.200 F 
ATOM     93  C   UNL A   1      38.433  33.647  37.665  1.00  0.00     0.200 A 
ATOM     94  F   UNL A   1      37.462  31.563  38.203  1.00  0.00    -0.200 F 
ATOM     95  F   UNL A   1      37.801  34.224  38.696  1.00  0.00    -0.200 F 
ENDBRANCH  62  85
ENDBRANCH  36  37
ENDBRANCH  29  31
ENDBRANCH  28  29
ENDBRANCH  27  28
ENDBRANCH   1  27
TORSDOF 15
ENDMDL
