
     RDKit          3D

119130  0  0  0  0  0  0  0  0999 V2000
   31.6050   24.3630   27.2170 O   0  0  0  0  0  0  0  0  0  0  0  0
   32.1380   25.1660   26.4940 C   0  0  0  0  0  0  0  0  0  0  0  0
   32.5820   26.4020   26.7530 O   0  0  0  0  0  0  0  0  0  0  0  0
   31.4490   27.4690   26.7540 C   0  0  0  0  0  0  0  0  0  0  0  0
   31.6920   29.6210   26.6110 C   0  0  0  0  0  0  0  0  0  0  0  0
   32.8200   30.5470   27.6090 O   0  0  0  0  0  0  0  0  0  0  0  0
   33.5020   31.7610   27.6200 C   0  0  0  0  0  0  0  0  0  0  0  0
   33.0700   32.8770   27.8420 O   0  0  0  0  0  0  0  0  0  0  0  0
   34.9860   31.4680   27.6410 C   0  0  0  0  0  0  0  0  0  0  0  0
   35.9090   32.5310   27.8090 C   0  0  0  0  0  0  0  0  0  0  0  0
   37.0830   32.3160   28.5850 C   0  0  0  0  0  0  0  0  0  0  0  0
   37.3510   31.0390   29.1160 C   0  0  0  0  0  0  0  0  0  0  0  0
   38.5280   30.7290   29.9890 C   0  0  0  0  0  0  0  0  0  0  0  0
   39.4830   29.7160   29.4400 C   0  0  0  0  0  0  0  0  0  0  0  0
   40.4540   29.0710   30.0290 N   0  0  0  0  0  0  0  0  0  0  0  0
   40.9430   28.2010   29.0680 C   0  0  0  0  0  0  0  0  0  0  0  0
   41.9780   27.3400   29.1600 C   0  0  0  0  0  0  0  0  0  0  0  0
   42.2670   26.5100   27.9510 C   0  0  0  0  0  0  0  0  0  0  0  0
   41.6160   25.2880   27.7280 C   0  0  0  0  0  0  0  0  0  0  0  0
   40.7220   24.8270   28.6170 F   0  0  0  0  0  0  0  0  0  0  0  0
   41.9320   24.5040   26.6240 C   0  0  0  0  0  0  0  0  0  0  0  0
   41.3470   23.3090   26.4650 F   0  0  0  0  0  0  0  0  0  0  0  0
   42.8730   24.9470   25.7060 C   0  0  0  0  0  0  0  0  0  0  0  0
   43.1730   24.1930   24.6400 F   0  0  0  0  0  0  0  0  0  0  0  0
   43.5110   26.1640   25.8960 C   0  0  0  0  0  0  0  0  0  0  0  0
   44.4160   26.5930   25.0060 F   0  0  0  0  0  0  0  0  0  0  0  0
   43.2220   26.9340   27.0170 C   0  0  0  0  0  0  0  0  0  0  0  0
   43.8800   28.0890   27.1970 F   0  0  0  0  0  0  0  0  0  0  0  0
   42.7860   27.1640   30.3280 C   0  0  0  0  0  0  0  0  0  0  0  0
   43.8890   26.3480   30.4910 C   0  0  0  0  0  0  0  0  0  0  0  0
   44.3110   26.4540   31.8170 C   0  0  0  0  0  0  0  0  0  0  0  0
   43.5060   27.3790   32.4630 C   0  0  0  0  0  0  0  0  0  0  0  0
   42.5720   27.8080   31.5360 N   0  0  0  0  0  0  0  0  0  0  0  0
   43.5720   27.8290   33.8280 C   0  0  0  0  0  0  0  0  0  0  0  0
   44.6330   27.2170   34.6970 C   0  0  0  0  0  0  0  0  0  0  0  0
   45.8760   27.8370   34.8890 C   0  0  0  0  0  0  0  0  0  0  0  0
   46.1910   28.9460   34.2030 F   0  0  0  0  0  0  0  0  0  0  0  0
   46.8070   27.3100   35.7820 C   0  0  0  0  0  0  0  0  0  0  0  0
   47.9990   27.9050   35.9300 F   0  0  0  0  0  0  0  0  0  0  0  0
   46.5010   26.1760   36.5210 C   0  0  0  0  0  0  0  0  0  0  0  0
   47.3880   25.6890   37.4000 F   0  0  0  0  0  0  0  0  0  0  0  0
   45.2780   25.5490   36.3490 C   0  0  0  0  0  0  0  0  0  0  0  0
   44.9710   24.4670   37.0780 F   0  0  0  0  0  0  0  0  0  0  0  0
   44.3590   26.0530   35.4340 C   0  0  0  0  0  0  0  0  0  0  0  0
   43.1790   25.4280   35.2960 F   0  0  0  0  0  0  0  0  0  0  0  0
   42.7510   28.7590   34.3740 C   0  0  0  0  0  0  0  0  0  0  0  0
   41.7200   29.4780   33.7780 N   0  0  0  0  0  0  0  0  0  0  0  0
   41.2070   30.2310   34.7210 C   0  0  0  0  0  0  0  0  0  0  0  0
   40.0750   31.2420   34.6370 C   0  0  0  0  0  0  0  0  0  0  0  0
   39.6860   31.9870   35.8800 C   0  0  0  0  0  0  0  0  0  0  0  0
   38.6120   31.5540   36.6810 C   0  0  0  0  0  0  0  0  0  0  0  0
   37.9770   30.4110   36.3840 F   0  0  0  0  0  0  0  0  0  0  0  0
   38.1150   32.3380   37.7260 C   0  0  0  0  0  0  0  0  0  0  0  0
   37.0280   31.9400   38.4030 F   0  0  0  0  0  0  0  0  0  0  0  0
   38.7080   33.5530   38.0270 C   0  0  0  0  0  0  0  0  0  0  0  0
   38.2150   34.3180   39.0110 F   0  0  0  0  0  0  0  0  0  0  0  0
   39.7960   33.9840   37.2850 C   0  0  0  0  0  0  0  0  0  0  0  0
   40.3720   35.1600   37.5720 F   0  0  0  0  0  0  0  0  0  0  0  0
   40.2720   33.2170   36.2170 C   0  0  0  0  0  0  0  0  0  0  0  0
   41.2840   33.7010   35.4840 F   0  0  0  0  0  0  0  0  0  0  0  0
   39.4320   31.4150   33.4570 C   0  0  0  0  0  0  0  0  0  0  0  0
   38.3020   32.3120   33.2180 C   0  0  0  0  0  0  0  0  0  0  0  0
   37.8630   32.1560   31.9500 C   0  0  0  0  0  0  0  0  0  0  0  0
   38.6960   31.1720   31.2610 C   0  0  0  0  0  0  0  0  0  0  0  0
   39.6270   30.8190   32.2240 N   0  0  0  0  0  0  0  0  0  0  0  0
   41.8450   30.0370   36.0380 C   0  0  0  0  0  0  0  0  0  0  0  0
   42.8110   29.1750   35.7570 C   0  0  0  0  0  0  0  0  0  0  0  0
   40.1410   28.3700   27.8780 C   0  0  0  0  0  0  0  0  0  0  0  0
   39.2690   29.3480   28.0320 C   0  0  0  0  0  0  0  0  0  0  0  0
   36.5590   29.9610   28.6730 C   0  0  0  0  0  0  0  0  0  0  0  0
   35.3860   30.1700   27.9380 C   0  0  0  0  0  0  0  0  0  0  0  0
   32.8940   25.0220   25.2730 C   0  0  0  0  0  0  0  0  0  0  0  0
   34.2930   24.7690   25.4890 C   0  0  0  0  0  0  0  0  0  0  0  0
   35.0540   23.2010   25.1600 C   0  0  0  0  0  0  0  0  0  0  0  0
   36.3710   23.1150   25.5150 C   0  0  0  0  0  0  0  0  0  0  0  0
   36.9010   21.8330   25.4620 C   0  0  0  0  0  0  0  0  0  0  0  0
   38.5610   21.6510   25.9180 Cl  0  0  0  0  0  0  0  0  0  0  0  0
   36.1480   20.6470   25.1200 C   0  0  0  0  0  0  0  0  0  0  0  0
   34.7530   20.5440   24.7480 C   0  0  0  0  0  0  0  0  0  0  0  0
   34.1980   19.1970   24.7200 C   0  0  0  0  0  0  0  0  0  0  0  0
   32.9650   18.9690   25.3810 C   0  0  0  0  0  0  0  0  0  0  0  0
   32.5010   17.6790   25.6400 C   0  0  0  0  0  0  0  0  0  0  0  0
   33.2630   16.5930   25.2300 C   0  0  0  0  0  0  0  0  0  0  0  0
   32.7250   14.9980   25.5860 Cl  0  0  0  0  0  0  0  0  0  0  0  0
   34.4700   16.7930   24.5580 C   0  0  0  0  0  0  0  0  0  0  0  0
   34.9370   18.0900   24.3020 C   0  0  0  0  0  0  0  0  0  0  0  0
   34.1650   21.7880   24.6700 C   0  0  0  0  0  0  0  0  0  0  0  0
   32.4210   22.0780   24.1540 O   0  0  0  0  0  0  0  0  0  0  0  0
   31.6490   23.8520   24.4050 C   0  0  2  0  0  0  0  0  0  0  0  0
   31.3170   25.1540   23.4880 C   0  0  0  0  0  0  0  0  0  0  0  0
   32.3480   25.8310   23.0570 F   0  0  0  0  0  0  0  0  0  0  0  0
   30.7460   24.7290   22.3190 F   0  0  0  0  0  0  0  0  0  0  0  0
   30.4210   26.0420   23.9880 F   0  0  0  0  0  0  0  0  0  0  0  0
   30.8026   27.1986   25.9061 H   0  0  0  0  0  0  0  0  0  0  0  0
   31.1324   27.3936   27.8048 H   0  0  0  0  0  0  0  0  0  0  0  0
   31.9793   29.8219   25.5683 H   0  0  0  0  0  0  0  0  0  0  0  0
   30.7250   29.9713   27.0010 H   0  0  0  0  0  0  0  0  0  0  0  0
   35.7202   33.5104   27.3452 H   0  0  0  0  0  0  0  0  0  0  0  0
   37.7803   33.1464   28.7698 H   0  0  0  0  0  0  0  0  0  0  0  0
   44.3529   25.7245   29.7125 H   0  0  0  0  0  0  0  0  0  0  0  0
   45.1428   25.8970   32.2729 H   0  0  0  0  0  0  0  0  0  0  0  0
   41.8640   28.4690   31.7090 H   0  0  0  0  0  0  0  0  0  0  0  0
   37.8754   33.0065   33.9567 H   0  0  0  0  0  0  0  0  0  0  0  0
   37.0095   32.6879   31.5043 H   0  0  0  0  0  0  0  0  0  0  0  0
   40.3650   30.1920   32.0470 H   0  0  0  0  0  0  0  0  0  0  0  0
   41.5849   30.4918   37.0052 H   0  0  0  0  0  0  0  0  0  0  0  0
   43.5603   28.8222   36.4810 H   0  0  0  0  0  0  0  0  0  0  0  0
   40.2438   27.7642   26.9656 H   0  0  0  0  0  0  0  0  0  0  0  0
   38.5673   29.7754   27.3006 H   0  0  0  0  0  0  0  0  0  0  0  0
   36.8693   28.9326   28.9099 H   0  0  0  0  0  0  0  0  0  0  0  0
   34.7852   29.3136   27.5980 H   0  0  0  0  0  0  0  0  0  0  0  0
   34.9201   25.5856   25.8761 H   0  0  0  0  0  0  0  0  0  0  0  0
   36.9633   23.9909   25.8183 H   0  0  0  0  0  0  0  0  0  0  0  0
   36.7078   19.7004   25.1459 H   0  0  0  0  0  0  0  0  0  0  0  0
   32.3589   19.8306   25.6976 H   0  0  0  0  0  0  0  0  0  0  0  0
   31.5450   17.5244   26.1617 H   0  0  0  0  0  0  0  0  0  0  0  0
   35.0598   15.9257   24.2265 H   0  0  0  0  0  0  0  0  0  0  0  0
   35.8888   18.2351   23.7700 H   0  0  0  0  0  0  0  0  0  0  0  0
   30.7312   23.3048   24.6662 H   0  0  0  0  0  0  0  0  0  0  0  0
  1  2  2  0
  2  3  1  0
  3  4  1  0
  4  5  1  0
  5  6  1  0
  6  7  1  0
  7  8  2  0
  7  9  1  0
  9 10  2  0
 10 11  1  0
 11 12  2  0
 12 13  1  0
 13 14  1  0
 14 15  2  0
 15 16  1  0
 16 17  2  0
 17 18  1  0
 18 19  2  0
 19 20  1  0
 19 21  1  0
 21 22  1  0
 21 23  2  0
 23 24  1  0
 23 25  1  0
 25 26  1  0
 25 27  2  0
 27 28  1  0
 17 29  1  0
 29 30  2  0
 30 31  1  0
 31 32  2  0
 32 33  1  0
 32 34  1  0
 34 35  1  0
 35 36  2  0
 36 37  1  0
 36 38  1  0
 38 39  1  0
 38 40  2  0
 40 41  1  0
 40 42  1  0
 42 43  1  0
 42 44  2  0
 44 45  1  0
 34 46  2  0
 46 47  1  0
 47 48  2  0
 48 49  1  0
 49 50  1  0
 50 51  2  0
 51 52  1  0
 51 53  1  0
 53 54  1  0
 53 55  2  0
 55 56  1  0
 55 57  1  0
 57 58  1  0
 57 59  2  0
 59 60  1  0
 49 61  2  0
 61 62  1  0
 62 63  2  0
 63 64  1  0
 64 65  1  0
 48 66  1  0
 66 67  2  0
 16 68  1  0
 68 69  2  0
 12 70  1  0
 70 71  2  0
  2 72  1  0
 72 73  2  0
 73 74  1  0
 74 75  2  0
 75 76  1  0
 76 77  1  0
 76 78  2  0
 78 79  1  0
 79 80  1  0
 80 81  2  0
 81 82  1  0
 82 83  2  0
 83 84  1  0
 83 85  1  0
 85 86  2  0
 79 87  2  0
 87 88  1  0
 88 89  1  0
 89 90  1  0
 90 91  1  0
 90 92  1  0
 90 93  1  0
 71  9  1  0
 89 72  1  0
 64 13  2  0
 87 74  1  0
 69 14  1  0
 86 80  1  0
 27 18  1  0
 33 29  1  0
 44 35  1  0
 67 46  1  0
 59 50  1  0
 65 61  1  0
  4 94  1  0
  4 95  1  0
  5 96  1  0
  5 97  1  0
 10 98  1  0
 11 99  1  0
 30100  1  0
 31101  1  0
 33102  1  0
 62103  1  0
 63104  1  0
 65105  1  0
 66106  1  0
 67107  1  0
 68108  1  0
 69109  1  0
 70110  1  0
 71111  1  0
 73112  1  0
 75113  1  0
 78114  1  0
 81115  1  0
 82116  1  0
 85117  1  0
 86118  1  0
 89119  1  1
M  END
>  <meeko>  (1) 
{"free_energy": -16.0}

$$$$

     RDKit          3D

119130  0  0  0  0  0  0  0  0999 V2000
   31.8530   24.6420   27.0350 O   0  0  0  0  0  0  0  0  0  0  0  0
   32.3710   25.4110   26.2670 C   0  0  0  0  0  0  0  0  0  0  0  0
   32.7840   26.6710   26.4510 O   0  0  0  0  0  0  0  0  0  0  0  0
   31.6270   27.7100   26.3600 C   0  0  0  0  0  0  0  0  0  0  0  0
   31.8170   29.8710   26.4080 C   0  0  0  0  0  0  0  0  0  0  0  0
   32.8060   30.7420   27.5880 O   0  0  0  0  0  0  0  0  0  0  0  0
   33.6720   31.8280   27.6750 C   0  0  0  0  0  0  0  0  0  0  0  0
   33.4270   32.9760   28.0000 O   0  0  0  0  0  0  0  0  0  0  0  0
   35.0910   31.3060   27.6260 C   0  0  0  0  0  0  0  0  0  0  0  0
   36.1630   32.1460   28.0200 C   0  0  0  0  0  0  0  0  0  0  0  0
   37.2640   31.5840   28.7260 C   0  0  0  0  0  0  0  0  0  0  0  0
   37.3130   30.1960   28.9620 C   0  0  0  0  0  0  0  0  0  0  0  0
   38.3990   29.5200   29.7410 C   0  0  0  0  0  0  0  0  0  0  0  0
   38.6270   30.0590   31.1190 C   0  0  0  0  0  0  0  0  0  0  0  0
   39.6170   29.8580   31.9470 N   0  0  0  0  0  0  0  0  0  0  0  0
   39.3490   30.6720   33.0350 C   0  0  0  0  0  0  0  0  0  0  0  0
   40.0460   30.8020   34.1820 C   0  0  0  0  0  0  0  0  0  0  0  0
   39.5170   31.7810   35.1800 C   0  0  0  0  0  0  0  0  0  0  0  0
   39.9070   33.1280   35.1630 C   0  0  0  0  0  0  0  0  0  0  0  0
   40.7880   33.5650   34.2490 F   0  0  0  0  0  0  0  0  0  0  0  0
   39.4440   34.0160   36.1280 C   0  0  0  0  0  0  0  0  0  0  0  0
   39.8810   35.2820   36.1340 F   0  0  0  0  0  0  0  0  0  0  0  0
   38.5540   33.5820   37.0990 C   0  0  0  0  0  0  0  0  0  0  0  0
   38.1050   34.4390   38.0260 F   0  0  0  0  0  0  0  0  0  0  0  0
   38.1380   32.2590   37.1190 C   0  0  0  0  0  0  0  0  0  0  0  0
   37.2740   31.8410   38.0550 F   0  0  0  0  0  0  0  0  0  0  0  0
   38.6250   31.3600   36.1760 C   0  0  0  0  0  0  0  0  0  0  0  0
   38.2360   30.0780   36.2390 F   0  0  0  0  0  0  0  0  0  0  0  0
   41.2480   30.0870   34.4870 C   0  0  0  0  0  0  0  0  0  0  0  0
   41.9930   30.1200   35.6500 C   0  0  0  0  0  0  0  0  0  0  0  0
   43.1160   29.3120   35.4660 C   0  0  0  0  0  0  0  0  0  0  0  0
   43.0390   28.7320   34.2100 C   0  0  0  0  0  0  0  0  0  0  0  0
   41.8860   29.2170   33.6180 N   0  0  0  0  0  0  0  0  0  0  0  0
   43.9560   27.8140   33.5880 C   0  0  0  0  0  0  0  0  0  0  0  0
   45.1780   27.4320   34.3730 C   0  0  0  0  0  0  0  0  0  0  0  0
   46.3460   28.2070   34.3430 C   0  0  0  0  0  0  0  0  0  0  0  0
   46.4380   29.2580   33.5140 F   0  0  0  0  0  0  0  0  0  0  0  0
   47.4310   27.8970   35.1590 C   0  0  0  0  0  0  0  0  0  0  0  0
   48.5480   28.6350   35.0940 F   0  0  0  0  0  0  0  0  0  0  0  0
   47.3580   26.8280   36.0410 C   0  0  0  0  0  0  0  0  0  0  0  0
   48.3930   26.5490   36.8450 F   0  0  0  0  0  0  0  0  0  0  0  0
   46.2120   26.0500   36.0890 C   0  0  0  0  0  0  0  0  0  0  0  0
   46.1300   25.0310   36.9570 F   0  0  0  0  0  0  0  0  0  0  0  0
   45.1390   26.3370   35.2520 C   0  0  0  0  0  0  0  0  0  0  0  0
   44.0400   25.5710   35.3280 F   0  0  0  0  0  0  0  0  0  0  0  0
   43.7910   27.2760   32.3550 C   0  0  0  0  0  0  0  0  0  0  0  0
   42.7470   27.4530   31.4520 N   0  0  0  0  0  0  0  0  0  0  0  0
   43.0580   26.7480   30.3910 C   0  0  0  0  0  0  0  0  0  0  0  0
   42.2720   26.5460   29.1060 C   0  0  0  0  0  0  0  0  0  0  0  0
   42.8580   25.6680   28.0380 C   0  0  0  0  0  0  0  0  0  0  0  0
   43.7310   26.1900   27.0660 C   0  0  0  0  0  0  0  0  0  0  0  0
   44.1200   27.4720   27.1370 F   0  0  0  0  0  0  0  0  0  0  0  0
   44.1280   25.4370   25.9580 C   0  0  0  0  0  0  0  0  0  0  0  0
   44.8800   26.0000   25.0000 F   0  0  0  0  0  0  0  0  0  0  0  0
   43.7010   24.1270   25.8180 C   0  0  0  0  0  0  0  0  0  0  0  0
   44.0600   23.4120   24.7420 F   0  0  0  0  0  0  0  0  0  0  0  0
   42.8780   23.5710   26.7840 C   0  0  0  0  0  0  0  0  0  0  0  0
   42.4610   22.3030   26.6520 F   0  0  0  0  0  0  0  0  0  0  0  0
   42.4510   24.3350   27.8740 C   0  0  0  0  0  0  0  0  0  0  0  0
   41.6030   23.7780   28.7510 F   0  0  0  0  0  0  0  0  0  0  0  0
   41.0890   27.1860   28.9480 C   0  0  0  0  0  0  0  0  0  0  0  0
   40.2330   27.1330   27.7630 C   0  0  0  0  0  0  0  0  0  0  0  0
   39.1830   27.9650   27.9280 C   0  0  0  0  0  0  0  0  0  0  0  0
   39.2580   28.5960   29.2440 C   0  0  0  0  0  0  0  0  0  0  0  0
   40.4020   28.0390   29.7930 N   0  0  0  0  0  0  0  0  0  0  0  0
   44.3650   26.0710   30.4990 C   0  0  0  0  0  0  0  0  0  0  0  0
   44.7400   26.3810   31.7320 C   0  0  0  0  0  0  0  0  0  0  0  0
   38.1330   31.3990   32.7460 C   0  0  0  0  0  0  0  0  0  0  0  0
   37.6070   31.0020   31.6030 C   0  0  0  0  0  0  0  0  0  0  0  0
   36.3760   29.3800   28.2960 C   0  0  0  0  0  0  0  0  0  0  0  0
   35.2740   29.9270   27.6280 C   0  0  0  0  0  0  0  0  0  0  0  0
   33.1400   25.2100   25.0620 C   0  0  0  0  0  0  0  0  0  0  0  0
   34.5250   24.9150   25.3050 C   0  0  0  0  0  0  0  0  0  0  0  0
   35.2370   23.3130   25.0290 C   0  0  0  0  0  0  0  0  0  0  0  0
   36.5450   23.1920   25.4050 C   0  0  0  0  0  0  0  0  0  0  0  0
   37.0310   21.8920   25.3940 C   0  0  0  0  0  0  0  0  0  0  0  0
   38.6770   21.6660   25.8790 Cl  0  0  0  0  0  0  0  0  0  0  0  0
   36.2420   20.7230   25.0700 C   0  0  0  0  0  0  0  0  0  0  0  0
   34.8510   20.6590   24.6800 C   0  0  0  0  0  0  0  0  0  0  0  0
   34.2500   19.3310   24.6790 C   0  0  0  0  0  0  0  0  0  0  0  0
   33.0280   19.1500   25.3730 C   0  0  0  0  0  0  0  0  0  0  0  0
   32.5280   17.8790   25.6550 C   0  0  0  0  0  0  0  0  0  0  0  0
   33.2410   16.7640   25.2350 C   0  0  0  0  0  0  0  0  0  0  0  0
   32.6590   15.1910   25.6180 Cl  0  0  0  0  0  0  0  0  0  0  0  0
   34.4370   16.9180   24.5300 C   0  0  0  0  0  0  0  0  0  0  0  0
   34.9400   18.1970   24.2510 C   0  0  0  0  0  0  0  0  0  0  0  0
   34.3070   21.9190   24.5610 C   0  0  0  0  0  0  0  0  0  0  0  0
   32.5820   22.2550   24.0110 O   0  0  0  0  0  0  0  0  0  0  0  0
   31.8670   24.0610   24.2050 C   0  0  2  0  0  0  0  0  0  0  0  0
   31.5930   25.3480   23.2500 C   0  0  0  0  0  0  0  0  0  0  0  0
   32.6270   26.1100   23.0020 F   0  0  0  0  0  0  0  0  0  0  0  0
   31.2630   24.9010   21.9990 F   0  0  0  0  0  0  0  0  0  0  0  0
   30.5590   26.1570   23.5950 F   0  0  0  0  0  0  0  0  0  0  0  0
   31.1207   27.4897   25.4086 H   0  0  0  0  0  0  0  0  0  0  0  0
   31.1628   27.5486   27.3441 H   0  0  0  0  0  0  0  0  0  0  0  0
   32.2049   30.1599   25.4201 H   0  0  0  0  0  0  0  0  0  0  0  0
   30.8043   30.1670   26.7191 H   0  0  0  0  0  0  0  0  0  0  0  0
   36.1442   33.2200   27.7828 H   0  0  0  0  0  0  0  0  0  0  0  0
   38.0757   32.2328   29.0869 H   0  0  0  0  0  0  0  0  0  0  0  0
   41.7447   30.6841   36.5611 H   0  0  0  0  0  0  0  0  0  0  0  0
   43.9257   29.1611   36.1951 H   0  0  0  0  0  0  0  0  0  0  0  0
   41.5690   28.9800   32.7170 H   0  0  0  0  0  0  0  0  0  0  0  0
   40.4167   26.5111   26.8745 H   0  0  0  0  0  0  0  0  0  0  0  0
   38.3913   28.1413   27.1849 H   0  0  0  0  0  0  0  0  0  0  0  0
   40.7030   28.2360   30.7100 H   0  0  0  0  0  0  0  0  0  0  0  0
   44.8928   25.4644   29.7484 H   0  0  0  0  0  0  0  0  0  0  0  0
   45.6533   26.0064   32.2174 H   0  0  0  0  0  0  0  0  0  0  0  0
   37.7039   32.1787   33.3925 H   0  0  0  0  0  0  0  0  0  0  0  0
   36.6564   31.2981   31.1353 H   0  0  0  0  0  0  0  0  0  0  0  0
   36.5139   28.2887   28.3013 H   0  0  0  0  0  0  0  0  0  0  0  0
   34.5588   29.2719   27.1091 H   0  0  0  0  0  0  0  0  0  0  0  0
   35.1745   25.7198   25.6797 H   0  0  0  0  0  0  0  0  0  0  0  0
   37.1629   24.0552   25.6932 H   0  0  0  0  0  0  0  0  0  0  0  0
   36.7682   19.7588   25.1278 H   0  0  0  0  0  0  0  0  0  0  0  0
   32.4595   20.0341   25.6974 H   0  0  0  0  0  0  0  0  0  0  0  0
   31.5814   17.7614   26.2028 H   0  0  0  0  0  0  0  0  0  0  0  0
   34.9888   16.0289   24.1909 H   0  0  0  0  0  0  0  0  0  0  0  0
   35.8816   18.3062   23.6929 H   0  0  0  0  0  0  0  0  0  0  0  0
   30.9270   23.5530   24.4665 H   0  0  0  0  0  0  0  0  0  0  0  0
  1  2  2  0
  2  3  1  0
  3  4  1  0
  4  5  1  0
  5  6  1  0
  6  7  1  0
  7  8  2  0
  7  9  1  0
  9 10  2  0
 10 11  1  0
 11 12  2  0
 12 13  1  0
 13 14  1  0
 14 15  2  0
 15 16  1  0
 16 17  2  0
 17 18  1  0
 18 19  2  0
 19 20  1  0
 19 21  1  0
 21 22  1  0
 21 23  2  0
 23 24  1  0
 23 25  1  0
 25 26  1  0
 25 27  2  0
 27 28  1  0
 17 29  1  0
 29 30  2  0
 30 31  1  0
 31 32  2  0
 32 33  1  0
 32 34  1  0
 34 35  1  0
 35 36  2  0
 36 37  1  0
 36 38  1  0
 38 39  1  0
 38 40  2  0
 40 41  1  0
 40 42  1  0
 42 43  1  0
 42 44  2  0
 44 45  1  0
 34 46  2  0
 46 47  1  0
 47 48  2  0
 48 49  1  0
 49 50  1  0
 50 51  2  0
 51 52  1  0
 51 53  1  0
 53 54  1  0
 53 55  2  0
 55 56  1  0
 55 57  1  0
 57 58  1  0
 57 59  2  0
 59 60  1  0
 49 61  2  0
 61 62  1  0
 62 63  2  0
 63 64  1  0
 64 65  1  0
 48 66  1  0
 66 67  2  0
 16 68  1  0
 68 69  2  0
 12 70  1  0
 70 71  2  0
  2 72  1  0
 72 73  2  0
 73 74  1  0
 74 75  2  0
 75 76  1  0
 76 77  1  0
 76 78  2  0
 78 79  1  0
 79 80  1  0
 80 81  2  0
 81 82  1  0
 82 83  2  0
 83 84  1  0
 83 85  1  0
 85 86  2  0
 79 87  2  0
 87 88  1  0
 88 89  1  0
 89 90  1  0
 90 91  1  0
 90 92  1  0
 90 93  1  0
 71  9  1  0
 89 72  1  0
 64 13  2  0
 87 74  1  0
 69 14  1  0
 86 80  1  0
 27 18  1  0
 33 29  1  0
 44 35  1  0
 67 46  1  0
 59 50  1  0
 65 61  1  0
  4 94  1  0
  4 95  1  0
  5 96  1  0
  5 97  1  0
 10 98  1  0
 11 99  1  0
 30100  1  0
 31101  1  0
 33102  1  0
 62103  1  0
 63104  1  0
 65105  1  0
 66106  1  0
 67107  1  0
 68108  1  0
 69109  1  0
 70110  1  0
 71111  1  0
 73112  1  0
 75113  1  0
 78114  1  0
 81115  1  0
 82116  1  0
 85117  1  0
 86118  1  0
 89119  1  1
M  END
>  <meeko>  (2) 
{"free_energy": -15.7}

$$$$

     RDKit          3D

119130  0  0  0  0  0  0  0  0999 V2000
   31.8660   25.2300   26.8410 O   0  0  0  0  0  0  0  0  0  0  0  0
   32.5990   25.9230   26.1830 C   0  0  0  0  0  0  0  0  0  0  0  0
   33.2800   27.0250   26.5200 O   0  0  0  0  0  0  0  0  0  0  0  0
   32.3610   28.1860   27.0000 C   0  0  0  0  0  0  0  0  0  0  0  0
   32.4030   30.2440   26.3130 C   0  0  0  0  0  0  0  0  0  0  0  0
   32.9920   31.5920   27.2940 O   0  0  0  0  0  0  0  0  0  0  0  0
   32.8050   32.9610   27.4650 C   0  0  0  0  0  0  0  0  0  0  0  0
   31.8320   33.6390   27.1910 O   0  0  0  0  0  0  0  0  0  0  0  0
   33.8950   33.4740   28.3800 C   0  0  0  0  0  0  0  0  0  0  0  0
   33.7450   33.3580   29.7850 C   0  0  0  0  0  0  0  0  0  0  0  0
   34.8860   33.0610   30.5840 C   0  0  0  0  0  0  0  0  0  0  0  0
   36.1560   32.9580   29.9840 C   0  0  0  0  0  0  0  0  0  0  0  0
   37.4030   32.5950   30.7300 C   0  0  0  0  0  0  0  0  0  0  0  0
   38.1850   31.4560   30.1540 C   0  0  0  0  0  0  0  0  0  0  0  0
   39.1620   30.7600   30.6710 N   0  0  0  0  0  0  0  0  0  0  0  0
   39.4440   29.7820   29.7320 C   0  0  0  0  0  0  0  0  0  0  0  0
   40.4000   28.8310   29.7670 C   0  0  0  0  0  0  0  0  0  0  0  0
   40.4570   27.8940   28.6040 C   0  0  0  0  0  0  0  0  0  0  0  0
   39.7740   26.6680   28.6170 C   0  0  0  0  0  0  0  0  0  0  0  0
   39.0640   26.3020   29.6950 F   0  0  0  0  0  0  0  0  0  0  0  0
   39.8760   25.7860   27.5470 C   0  0  0  0  0  0  0  0  0  0  0  0
   39.2710   24.5920   27.6070 F   0  0  0  0  0  0  0  0  0  0  0  0
   40.6270   26.1310   26.4320 C   0  0  0  0  0  0  0  0  0  0  0  0
   40.7200   25.2820   25.4000 F   0  0  0  0  0  0  0  0  0  0  0  0
   41.2890   27.3490   26.3900 C   0  0  0  0  0  0  0  0  0  0  0  0
   42.0110   27.6830   25.3120 F   0  0  0  0  0  0  0  0  0  0  0  0
   41.2180   28.2190   27.4730 C   0  0  0  0  0  0  0  0  0  0  0  0
   41.8980   29.3740   27.4230 F   0  0  0  0  0  0  0  0  0  0  0  0
   41.3340   28.6580   30.8390 C   0  0  0  0  0  0  0  0  0  0  0  0
   42.3720   27.7510   30.9320 C   0  0  0  0  0  0  0  0  0  0  0  0
   42.9690   27.9070   32.1840 C   0  0  0  0  0  0  0  0  0  0  0  0
   42.3390   28.9490   32.8450 C   0  0  0  0  0  0  0  0  0  0  0  0
   41.3360   29.4030   32.0070 N   0  0  0  0  0  0  0  0  0  0  0  0
   42.6210   29.4840   34.1500 C   0  0  0  0  0  0  0  0  0  0  0  0
   43.7260   28.8330   34.9310 C   0  0  0  0  0  0  0  0  0  0  0  0
   43.4800   27.7660   35.8060 C   0  0  0  0  0  0  0  0  0  0  0  0
   42.2220   27.3720   36.0540 F   0  0  0  0  0  0  0  0  0  0  0  0
   44.5300   27.1060   36.4410 C   0  0  0  0  0  0  0  0  0  0  0  0
   44.2700   26.1060   37.2940 F   0  0  0  0  0  0  0  0  0  0  0  0
   45.8430   27.4780   36.1890 C   0  0  0  0  0  0  0  0  0  0  0  0
   46.8510   26.8220   36.7790 F   0  0  0  0  0  0  0  0  0  0  0  0
   46.1090   28.5290   35.3250 C   0  0  0  0  0  0  0  0  0  0  0  0
   47.3770   28.8750   35.0620 F   0  0  0  0  0  0  0  0  0  0  0  0
   45.0620   29.2120   34.7150 C   0  0  0  0  0  0  0  0  0  0  0  0
   45.3520   30.2190   33.8780 F   0  0  0  0  0  0  0  0  0  0  0  0
   41.9640   30.5270   34.7140 C   0  0  0  0  0  0  0  0  0  0  0  0
   40.9330   31.3020   34.1920 N   0  0  0  0  0  0  0  0  0  0  0  0
   40.6140   32.1650   35.1260 C   0  0  0  0  0  0  0  0  0  0  0  0
   39.5760   33.2750   35.0980 C   0  0  0  0  0  0  0  0  0  0  0  0
   39.4180   34.1400   36.3140 C   0  0  0  0  0  0  0  0  0  0  0  0
   40.1080   35.3620   36.4300 C   0  0  0  0  0  0  0  0  0  0  0  0
   40.8520   35.8090   35.4070 F   0  0  0  0  0  0  0  0  0  0  0  0
   40.1260   36.0820   37.6280 C   0  0  0  0  0  0  0  0  0  0  0  0
   40.8750   37.1890   37.7320 F   0  0  0  0  0  0  0  0  0  0  0  0
   39.4170   35.6230   38.7260 C   0  0  0  0  0  0  0  0  0  0  0  0
   39.4560   36.2980   39.8830 F   0  0  0  0  0  0  0  0  0  0  0  0
   38.6910   34.4470   38.6260 C   0  0  0  0  0  0  0  0  0  0  0  0
   38.0040   33.9990   39.6870 F   0  0  0  0  0  0  0  0  0  0  0  0
   38.7010   33.7080   37.4400 C   0  0  0  0  0  0  0  0  0  0  0  0
   38.0380   32.5430   37.4070 F   0  0  0  0  0  0  0  0  0  0  0  0
   38.8050   33.4280   33.9940 C   0  0  0  0  0  0  0  0  0  0  0  0
   37.7380   34.4140   33.8220 C   0  0  0  0  0  0  0  0  0  0  0  0
   37.1270   34.2140   32.6350 C   0  0  0  0  0  0  0  0  0  0  0  0
   37.7720   33.1070   31.9320 C   0  0  0  0  0  0  0  0  0  0  0  0
   38.7840   32.7310   32.8000 N   0  0  0  0  0  0  0  0  0  0  0  0
   41.3970   32.0020   36.3660 C   0  0  0  0  0  0  0  0  0  0  0  0
   42.2380   31.0310   36.0410 C   0  0  0  0  0  0  0  0  0  0  0  0
   38.5130   29.9450   28.6390 C   0  0  0  0  0  0  0  0  0  0  0  0
   37.7590   31.0130   28.8170 C   0  0  0  0  0  0  0  0  0  0  0  0
   36.2890   33.3720   28.6440 C   0  0  0  0  0  0  0  0  0  0  0  0
   35.1690   33.6330   27.8460 C   0  0  0  0  0  0  0  0  0  0  0  0
   33.3780   25.6590   24.9970 C   0  0  0  0  0  0  0  0  0  0  0  0
   34.7460   25.3110   25.2720 C   0  0  0  0  0  0  0  0  0  0  0  0
   35.3910   23.6740   25.0450 C   0  0  0  0  0  0  0  0  0  0  0  0
   36.6860   23.5050   25.4470 C   0  0  0  0  0  0  0  0  0  0  0  0
   37.1160   22.1860   25.4740 C   0  0  0  0  0  0  0  0  0  0  0  0
   38.7420   21.9000   25.9940 Cl  0  0  0  0  0  0  0  0  0  0  0  0
   36.2820   21.0450   25.1640 C   0  0  0  0  0  0  0  0  0  0  0  0
   34.8960   21.0310   24.7500 C   0  0  0  0  0  0  0  0  0  0  0  0
   34.2380   19.7310   24.7680 C   0  0  0  0  0  0  0  0  0  0  0  0
   33.0500   19.5940   25.5290 C   0  0  0  0  0  0  0  0  0  0  0  0
   32.5110   18.3420   25.8260 C   0  0  0  0  0  0  0  0  0  0  0  0
   33.1490   17.2030   25.3540 C   0  0  0  0  0  0  0  0  0  0  0  0
   32.5210   15.6520   25.7520 Cl  0  0  0  0  0  0  0  0  0  0  0  0
   34.3090   17.3150   24.5830 C   0  0  0  0  0  0  0  0  0  0  0  0
   34.8520   18.5740   24.2900 C   0  0  0  0  0  0  0  0  0  0  0  0
   34.4090   22.3110   24.5920 C   0  0  0  0  0  0  0  0  0  0  0  0
   32.7100   22.7070   24.0050 O   0  0  0  0  0  0  0  0  0  0  0  0
   32.0720   24.5470   24.1440 C   0  0  2  0  0  0  0  0  0  0  0  0
   31.8700   25.8220   23.1550 C   0  0  0  0  0  0  0  0  0  0  0  0
   32.9640   26.3710   22.6960 F   0  0  0  0  0  0  0  0  0  0  0  0
   31.2640   25.3910   22.0060 F   0  0  0  0  0  0  0  0  0  0  0  0
   31.0640   26.8190   23.5990 F   0  0  0  0  0  0  0  0  0  0  0  0
   31.3365   27.8397   26.7990 H   0  0  0  0  0  0  0  0  0  0  0  0
   32.7646   28.3270   28.0135 H   0  0  0  0  0  0  0  0  0  0  0  0
   33.0200   30.2437   25.4023 H   0  0  0  0  0  0  0  0  0  0  0  0
   31.3284   30.4728   26.2596 H   0  0  0  0  0  0  0  0  0  0  0  0
   32.7589   33.4958   30.2526 H   0  0  0  0  0  0  0  0  0  0  0  0
   34.7755   32.9123   31.6683 H   0  0  0  0  0  0  0  0  0  0  0  0
   42.6747   27.0325   30.1560 H   0  0  0  0  0  0  0  0  0  0  0  0
   43.7998   27.3041   32.5793 H   0  0  0  0  0  0  0  0  0  0  0  0
   40.7170   30.1410   32.2100 H   0  0  0  0  0  0  0  0  0  0  0  0
   37.4743   35.1974   34.5478 H   0  0  0  0  0  0  0  0  0  0  0  0
   36.2740   34.7954   32.2550 H   0  0  0  0  0  0  0  0  0  0  0  0
   39.4350   32.0230   32.5860 H   0  0  0  0  0  0  0  0  0  0  0  0
   41.3059   32.5472   37.3170 H   0  0  0  0  0  0  0  0  0  0  0  0
   43.0396   30.6574   36.6951 H   0  0  0  0  0  0  0  0  0  0  0  0
   38.4423   29.2690   27.7741 H   0  0  0  0  0  0  0  0  0  0  0  0
   37.0099   31.4553   28.1438 H   0  0  0  0  0  0  0  0  0  0  0  0
   37.2949   33.4928   28.2155 H   0  0  0  0  0  0  0  0  0  0  0  0
   35.2958   33.9615   26.8039 H   0  0  0  0  0  0  0  0  0  0  0  0
   35.4234   26.0957   25.6399 H   0  0  0  0  0  0  0  0  0  0  0  0
   37.3357   24.3473   25.7269 H   0  0  0  0  0  0  0  0  0  0  0  0
   36.7644   20.0606   25.2549 H   0  0  0  0  0  0  0  0  0  0  0  0
   32.5402   20.4976   25.8946 H   0  0  0  0  0  0  0  0  0  0  0  0
   31.5929   18.2585   26.4261 H   0  0  0  0  0  0  0  0  0  0  0  0
   34.8005   16.4074   24.2026 H   0  0  0  0  0  0  0  0  0  0  0  0
   35.7651   18.6492   23.6812 H   0  0  0  0  0  0  0  0  0  0  0  0
   31.1065   24.0861   24.3996 H   0  0  0  0  0  0  0  0  0  0  0  0
  1  2  2  0
  2  3  1  0
  3  4  1  0
  4  5  1  0
  5  6  1  0
  6  7  1  0
  7  8  2  0
  7  9  1  0
  9 10  2  0
 10 11  1  0
 11 12  2  0
 12 13  1  0
 13 14  1  0
 14 15  2  0
 15 16  1  0
 16 17  2  0
 17 18  1  0
 18 19  2  0
 19 20  1  0
 19 21  1  0
 21 22  1  0
 21 23  2  0
 23 24  1  0
 23 25  1  0
 25 26  1  0
 25 27  2  0
 27 28  1  0
 17 29  1  0
 29 30  2  0
 30 31  1  0
 31 32  2  0
 32 33  1  0
 32 34  1  0
 34 35  1  0
 35 36  2  0
 36 37  1  0
 36 38  1  0
 38 39  1  0
 38 40  2  0
 40 41  1  0
 40 42  1  0
 42 43  1  0
 42 44  2  0
 44 45  1  0
 34 46  2  0
 46 47  1  0
 47 48  2  0
 48 49  1  0
 49 50  1  0
 50 51  2  0
 51 52  1  0
 51 53  1  0
 53 54  1  0
 53 55  2  0
 55 56  1  0
 55 57  1  0
 57 58  1  0
 57 59  2  0
 59 60  1  0
 49 61  2  0
 61 62  1  0
 62 63  2  0
 63 64  1  0
 64 65  1  0
 48 66  1  0
 66 67  2  0
 16 68  1  0
 68 69  2  0
 12 70  1  0
 70 71  2  0
  2 72  1  0
 72 73  2  0
 73 74  1  0
 74 75  2  0
 75 76  1  0
 76 77  1  0
 76 78  2  0
 78 79  1  0
 79 80  1  0
 80 81  2  0
 81 82  1  0
 82 83  2  0
 83 84  1  0
 83 85  1  0
 85 86  2  0
 79 87  2  0
 87 88  1  0
 88 89  1  0
 89 90  1  0
 90 91  1  0
 90 92  1  0
 90 93  1  0
 71  9  1  0
 89 72  1  0
 64 13  2  0
 87 74  1  0
 69 14  1  0
 86 80  1  0
 27 18  1  0
 33 29  1  0
 44 35  1  0
 67 46  1  0
 59 50  1  0
 65 61  1  0
  4 94  1  0
  4 95  1  0
  5 96  1  0
  5 97  1  0
 10 98  1  0
 11 99  1  0
 30100  1  0
 31101  1  0
 33102  1  0
 62103  1  0
 63104  1  0
 65105  1  0
 66106  1  0
 67107  1  0
 68108  1  0
 69109  1  0
 70110  1  0
 71111  1  0
 73112  1  0
 75113  1  0
 78114  1  0
 81115  1  0
 82116  1  0
 85117  1  0
 86118  1  0
 89119  1  1
M  END
>  <meeko>  (3) 
{"free_energy": -15.4}

$$$$

