MODEL 1
REMARK VINA RESULT:     -11.2      0.000      0.000
REMARK SMILES CCN(CC(=O)NC)C(=O)c1ccncc1/C=C/C(=O)OCCOC(=O)c1ccc(-c2c3nc(c(-c4c(F)c(F)c(F)c(F)c4F)c4ccc([nH]4)c(-c4c(F)c(F)c(F)c(F)c4F)c4nc(c(-c5c(F)c(F)c(F)c(F)c5F)c5ccc2[nH]5)C=C4)C=C3)cc1
REMARK SMILES IDX 21 1 19 2 20 3 18 4 17 5 16 6 11 7 12 8 13 9 15 10 14 11
REMARK SMILES IDX 9 12 10 13 3 14 2 15 1 16 4 17 5 18 6 19 7 20 8 21 22 23
REMARK SMILES IDX 23 24 24 25 25 26 26 27 27 28 28 29 89 30 29 31 88 32 30 33
REMARK SMILES IDX 31 34 32 35 82 36 33 37 87 38 81 39 83 40 34 41 86 42 80 43
REMARK SMILES IDX 79 44 35 46 67 47 47 48 66 49 48 50 51 51 65 52 84 53 49 54
REMARK SMILES IDX 50 55 64 57 85 58 52 59 36 60 37 61 45 62 38 63 39 64 43 65
REMARK SMILES IDX 46 66 40 67 41 68 44 69 42 70 68 71 69 72 77 73 70 74 71 75
REMARK SMILES IDX 75 76 78 77 72 78 73 79 76 80 74 81 53 82 54 83 62 84 55 85
REMARK SMILES IDX 56 86 60 87 63 88 57 89 58 90 61 91 59 92
REMARK H PARENT 7 22 83 45 51 56
REMARK Flexibility Score: inf
ROOT
ATOM      1  O   UNL A   1      33.620  31.222  27.768  1.00  0.00    -0.459 OA
ENDROOT
BRANCH   1   2
ATOM      2  C   UNL A   1      33.759  29.983  27.247  1.00  0.00     0.330 C 
ATOM      3  O   UNL A   1      34.610  29.160  27.554  1.00  0.00    -0.247 OA
BRANCH   2   4
ATOM      4  C   UNL A   1      32.699  29.641  26.280  1.00  0.00     0.094 C 
ATOM      5  C   UNL A   1      32.404  28.422  25.799  1.00  0.00     0.018 C 
BRANCH   5   6
ATOM      6  C   UNL A   1      31.373  28.289  24.757  1.00  0.00     0.006 A 
ATOM      7  C   UNL A   1      30.511  27.193  24.619  1.00  0.00     0.050 A 
ATOM      8  C   UNL A   1      29.448  27.247  23.713  1.00  0.00     0.034 A 
ATOM      9  C   UNL A   1      29.352  28.345  22.880  1.00  0.00     0.112 A 
ATOM     10  C   UNL A   1      31.186  29.332  23.849  1.00  0.00     0.119 A 
ATOM     11  N   UNL A   1      30.210  29.381  22.914  1.00  0.00    -0.264 NA
BRANCH   7  12
ATOM     12  C   UNL A   1      30.665  25.992  25.471  1.00  0.00     0.255 C 
ATOM     13  O   UNL A   1      29.898  25.868  26.423  1.00  0.00    -0.269 OA
BRANCH  12  14
ATOM     14  N   UNL A   1      31.687  25.073  25.193  1.00  0.00    -0.330 N 
BRANCH  14  15
ATOM     15  C   UNL A   1      31.841  24.647  23.801  1.00  0.00     0.117 C 
ATOM     16  C   UNL A   1      30.695  23.752  23.348  1.00  0.00     0.027 C 
ENDBRANCH  14  15
BRANCH  14  17
ATOM     17  C   UNL A   1      32.443  24.325  26.211  1.00  0.00     0.219 C 
BRANCH  17  18
ATOM     18  C   UNL A   1      31.827  23.033  26.783  1.00  0.00     0.239 C 
ATOM     19  O   UNL A   1      30.917  23.096  27.616  1.00  0.00    -0.273 OA
ATOM     20  N   UNL A   1      32.154  21.794  26.322  1.00  0.00    -0.358 N 
ATOM     21  C   UNL A   1      33.048  21.413  25.259  1.00  0.00     0.142 C 
ATOM     22  H   UNL A   1      31.713  21.046  26.785  1.00  0.00     0.163 HD
ENDBRANCH  17  18
ENDBRANCH  14  17
ENDBRANCH  12  14
ENDBRANCH   7  12
ENDBRANCH   5   6
ENDBRANCH   2   4
ENDBRANCH   1   2
BRANCH   1  23
ATOM     23  C   UNL A   1      32.476  31.963  27.303  1.00  0.00     0.275 C 
BRANCH  23  24
ATOM     24  C   UNL A   1      32.799  33.454  27.164  1.00  0.00     0.275 C 
BRANCH  24  25
ATOM     25  O   UNL A   1      32.244  34.233  28.241  1.00  0.00    -0.458 OA
BRANCH  25  26
ATOM     26  C   UNL A   1      33.065  35.180  28.755  1.00  0.00     0.338 C 
ATOM     27  O   UNL A   1      32.866  36.380  28.818  1.00  0.00    -0.246 OA
BRANCH  26  28
ATOM     28  C   UNL A   1      34.237  34.532  29.369  1.00  0.00     0.060 A 
ATOM     29  C   UNL A   1      34.058  33.855  30.578  1.00  0.00     0.016 A 
ATOM     30  C   UNL A   1      35.506  34.626  28.792  1.00  0.00     0.016 A 
ATOM     31  C   UNL A   1      35.145  33.258  31.212  1.00  0.00     0.010 A 
ATOM     32  C   UNL A   1      36.597  34.025  29.428  1.00  0.00     0.010 A 
ATOM     33  C   UNL A   1      36.423  33.336  30.641  1.00  0.00    -0.014 A 
BRANCH  33  34
ATOM     34  C   UNL A   1      37.575  32.676  31.303  1.00  0.00     0.031 A 
ATOM     35  C   UNL A   1      38.287  31.537  30.636  1.00  0.00     0.074 A 
ATOM     36  C   UNL A   1      37.975  33.106  32.515  1.00  0.00     0.049 A 
ATOM     37  N   UNL A   1      39.263  30.792  31.089  1.00  0.00    -0.248 NA
ATOM     38  C   UNL A   1      37.842  31.189  29.278  1.00  0.00     0.031 C 
ATOM     39  C   UNL A   1      37.379  34.222  33.248  1.00  0.00     0.029 A 
ATOM     40  N   UNL A   1      38.968  32.650  33.343  1.00  0.00    -0.354 N 
ATOM     41  C   UNL A   1      39.547  29.883  30.079  1.00  0.00     0.074 A 
ATOM     42  C   UNL A   1      38.624  30.155  28.996  1.00  0.00     0.031 C 
ATOM     43  C   UNL A   1      38.017  34.362  34.422  1.00  0.00     0.029 A 
ATOM     44  C   UNL A   1      39.034  33.320  34.539  1.00  0.00     0.049 A 
ATOM     45  H   UNL A   1      39.576  31.912  33.104  1.00  0.00     0.167 HD
ATOM     46  C   UNL A   1      40.495  28.915  30.059  1.00  0.00     0.037 A 
ATOM     47  C   UNL A   1      39.806  33.099  35.620  1.00  0.00     0.037 A 
ATOM     48  C   UNL A   1      41.413  28.652  31.137  1.00  0.00     0.049 A 
ATOM     49  C   UNL A   1      40.796  31.968  35.601  1.00  0.00     0.074 A 
ATOM     50  C   UNL A   1      42.430  27.715  31.195  1.00  0.00     0.029 A 
ATOM     51  N   UNL A   1      41.420  29.323  32.351  1.00  0.00    -0.354 N 
ATOM     52  N   UNL A   1      41.072  31.127  34.635  1.00  0.00    -0.248 NA
ATOM     53  C   UNL A   1      41.577  31.749  36.827  1.00  0.00     0.031 C 
ATOM     54  C   UNL A   1      43.021  27.785  32.462  1.00  0.00     0.029 A 
ATOM     55  C   UNL A   1      42.402  28.796  33.177  1.00  0.00     0.049 A 
ATOM     56  H   UNL A   1      40.818  30.063  32.590  1.00  0.00     0.167 HD
ATOM     57  C   UNL A   1      42.065  30.291  35.127  1.00  0.00     0.074 A 
ATOM     58  C   UNL A   1      42.357  30.737  36.473  1.00  0.00     0.031 C 
ATOM     59  C   UNL A   1      42.676  29.246  34.518  1.00  0.00     0.037 A 
BRANCH  46  60
ATOM     60  C   UNL A   1      40.574  28.045  28.838  1.00  0.00     0.064 A 
ATOM     61  C   UNL A   1      39.854  26.845  28.742  1.00  0.00     0.173 A 
ATOM     62  C   UNL A   1      41.340  28.444  27.733  1.00  0.00     0.173 A 
ATOM     63  F   UNL A   1      39.114  26.417  29.774  1.00  0.00    -0.203 F 
ATOM     64  C   UNL A   1      39.917  26.065  27.590  1.00  0.00     0.198 A 
ATOM     65  C   UNL A   1      41.380  27.674  26.574  1.00  0.00     0.198 A 
ATOM     66  F   UNL A   1      42.040  29.588  27.772  1.00  0.00    -0.203 F 
ATOM     67  F   UNL A   1      39.250  24.904  27.531  1.00  0.00    -0.200 F 
ATOM     68  C   UNL A   1      40.674  26.483  26.505  1.00  0.00     0.200 A 
ATOM     69  F   UNL A   1      42.103  28.086  25.523  1.00  0.00    -0.200 F 
ATOM     70  F   UNL A   1      40.726  25.736  25.394  1.00  0.00    -0.200 F 
ENDBRANCH  46  60
BRANCH  47  71
ATOM     71  C   UNL A   1      39.649  33.954  36.825  1.00  0.00     0.064 A 
ATOM     72  C   UNL A   1      40.312  35.184  36.929  1.00  0.00     0.173 A 
ATOM     73  C   UNL A   1      38.836  33.557  37.897  1.00  0.00     0.173 A 
ATOM     74  F   UNL A   1      41.123  35.593  35.942  1.00  0.00    -0.203 F 
ATOM     75  C   UNL A   1      40.176  35.979  38.065  1.00  0.00     0.198 A 
ATOM     76  C   UNL A   1      38.679  34.366  39.020  1.00  0.00     0.198 A 
ATOM     77  F   UNL A   1      38.184  32.386  37.848  1.00  0.00    -0.203 F 
ATOM     78  F   UNL A   1      40.854  37.132  38.158  1.00  0.00    -0.200 F 
ATOM     79  C   UNL A   1      39.354  35.574  39.106  1.00  0.00     0.200 A 
ATOM     80  F   UNL A   1      37.877  33.973  40.019  1.00  0.00    -0.200 F 
ATOM     81  F   UNL A   1      39.221  36.341  40.196  1.00  0.00    -0.200 F 
ENDBRANCH  47  71
BRANCH  59  82
ATOM     82  C   UNL A   1      43.732  28.519  35.299  1.00  0.00     0.064 A 
ATOM     83  C   UNL A   1      45.075  28.921  35.261  1.00  0.00     0.173 A 
ATOM     84  C   UNL A   1      43.391  27.438  36.126  1.00  0.00     0.173 A 
ATOM     85  F   UNL A   1      45.453  29.938  34.473  1.00  0.00    -0.203 F 
ATOM     86  C   UNL A   1      46.042  28.253  36.008  1.00  0.00     0.198 A 
ATOM     87  C   UNL A   1      44.356  26.789  36.890  1.00  0.00     0.198 A 
ATOM     88  F   UNL A   1      42.119  27.018  36.200  1.00  0.00    -0.203 F 
ATOM     89  F   UNL A   1      47.327  28.627  35.925  1.00  0.00    -0.200 F 
ATOM     90  C   UNL A   1      45.681  27.194  36.827  1.00  0.00     0.200 A 
ATOM     91  F   UNL A   1      44.004  25.773  37.690  1.00  0.00    -0.200 F 
ATOM     92  F   UNL A   1      46.612  26.557  37.551  1.00  0.00    -0.200 F 
ENDBRANCH  59  82
ENDBRANCH  33  34
ENDBRANCH  26  28
ENDBRANCH  25  26
ENDBRANCH  24  25
ENDBRANCH  23  24
ENDBRANCH   1  23
TORSDOF 17
ENDMDL
MODEL 2
REMARK VINA RESULT:     -11.1      5.807     11.220
REMARK SMILES CCN(CC(=O)NC)C(=O)c1ccncc1/C=C/C(=O)OCCOC(=O)c1ccc(-c2c3nc(c(-c4c(F)c(F)c(F)c(F)c4F)c4ccc([nH]4)c(-c4c(F)c(F)c(F)c(F)c4F)c4nc(c(-c5c(F)c(F)c(F)c(F)c5F)c5ccc2[nH]5)C=C4)C=C3)cc1
REMARK SMILES IDX 21 1 19 2 20 3 18 4 17 5 16 6 11 7 12 8 13 9 15 10 14 11
REMARK SMILES IDX 9 12 10 13 3 14 2 15 1 16 4 17 5 18 6 19 7 20 8 21 22 23
REMARK SMILES IDX 23 24 24 25 25 26 26 27 27 28 28 29 89 30 29 31 88 32 30 33
REMARK SMILES IDX 31 34 32 35 82 36 33 37 87 38 81 39 83 40 34 41 86 42 80 43
REMARK SMILES IDX 79 44 35 46 67 47 47 48 66 49 48 50 51 51 65 52 84 53 49 54
REMARK SMILES IDX 50 55 64 57 85 58 52 59 36 60 37 61 45 62 38 63 39 64 43 65
REMARK SMILES IDX 46 66 40 67 41 68 44 69 42 70 68 71 69 72 77 73 70 74 71 75
REMARK SMILES IDX 75 76 78 77 72 78 73 79 76 80 74 81 53 82 54 83 62 84 55 85
REMARK SMILES IDX 56 86 60 87 63 88 57 89 58 90 61 91 59 92
REMARK H PARENT 7 22 83 45 51 56
REMARK Flexibility Score: inf
ROOT
ATOM      1  O   UNL A   1      39.027  21.907  25.913  1.00  0.00    -0.459 OA
ENDROOT
BRANCH   1   2
ATOM      2  C   UNL A   1      38.023  22.806  25.804  1.00  0.00     0.330 C 
ATOM      3  O   UNL A   1      38.114  24.015  25.963  1.00  0.00    -0.247 OA
BRANCH   2   4
ATOM      4  C   UNL A   1      36.749  22.199  25.374  1.00  0.00     0.094 C 
ATOM      5  C   UNL A   1      35.510  22.630  25.661  1.00  0.00     0.018 C 
BRANCH   5   6
ATOM      6  C   UNL A   1      34.352  21.831  25.227  1.00  0.00     0.006 A 
ATOM      7  C   UNL A   1      33.565  22.108  24.101  1.00  0.00     0.050 A 
ATOM      8  C   UNL A   1      32.606  21.186  23.672  1.00  0.00     0.034 A 
ATOM      9  C   UNL A   1      32.373  20.071  24.453  1.00  0.00     0.112 A 
ATOM     10  C   UNL A   1      34.011  20.683  25.943  1.00  0.00     0.119 A 
ATOM     11  N   UNL A   1      33.041  19.808  25.591  1.00  0.00    -0.264 NA
BRANCH   7  12
ATOM     12  C   UNL A   1      33.778  23.340  23.309  1.00  0.00     0.255 C 
ATOM     13  O   UNL A   1      34.719  23.353  22.518  1.00  0.00    -0.269 OA
BRANCH  12  14
ATOM     14  N   UNL A   1      32.939  24.447  23.511  1.00  0.00    -0.330 N 
BRANCH  14  15
ATOM     15  C   UNL A   1      32.628  24.804  24.896  1.00  0.00     0.117 C 
ATOM     16  C   UNL A   1      33.606  25.827  25.455  1.00  0.00     0.027 C 
ENDBRANCH  14  15
BRANCH  14  17
ATOM     17  C   UNL A   1      32.160  25.114  22.455  1.00  0.00     0.219 C 
BRANCH  17  18
ATOM     18  C   UNL A   1      32.660  26.470  21.919  1.00  0.00     0.239 C 
ATOM     19  O   UNL A   1      33.737  26.541  21.318  1.00  0.00    -0.273 OA
ATOM     20  N   UNL A   1      31.906  27.603  21.965  1.00  0.00    -0.358 N 
ATOM     21  C   UNL A   1      30.563  27.797  22.448  1.00  0.00     0.142 C 
ATOM     22  H   UNL A   1      32.344  28.412  21.615  1.00  0.00     0.163 HD
ENDBRANCH  17  18
ENDBRANCH  14  17
ENDBRANCH  12  14
ENDBRANCH   7  12
ENDBRANCH   5   6
ENDBRANCH   2   4
ENDBRANCH   1   2
BRANCH   1  23
ATOM     23  C   UNL A   1      38.755  20.608  25.355  1.00  0.00     0.275 C 
BRANCH  23  24
ATOM     24  C   UNL A   1      39.577  19.521  26.054  1.00  0.00     0.275 C 
BRANCH  24  25
ATOM     25  O   UNL A   1      40.790  19.213  25.341  1.00  0.00    -0.458 OA
BRANCH  25  26
ATOM     26  C   UNL A   1      41.913  19.166  26.098  1.00  0.00     0.338 C 
ATOM     27  O   UNL A   1      42.581  18.187  26.374  1.00  0.00    -0.246 OA
BRANCH  26  28
ATOM     28  C   UNL A   1      42.312  20.536  26.468  1.00  0.00     0.060 A 
ATOM     29  C   UNL A   1      42.673  21.415  25.443  1.00  0.00     0.016 A 
ATOM     30  C   UNL A   1      42.378  20.939  27.803  1.00  0.00     0.016 A 
ATOM     31  C   UNL A   1      43.092  22.708  25.749  1.00  0.00     0.010 A 
ATOM     32  C   UNL A   1      42.797  22.238  28.109  1.00  0.00     0.010 A 
ATOM     33  C   UNL A   1      43.154  23.131  27.084  1.00  0.00    -0.014 A 
BRANCH  33  34
ATOM     34  C   UNL A   1      43.573  24.517  27.406  1.00  0.00     0.031 A 
ATOM     35  C   UNL A   1      42.573  25.521  27.898  1.00  0.00     0.074 A 
ATOM     36  C   UNL A   1      44.863  24.870  27.249  1.00  0.00     0.049 A 
ATOM     37  N   UNL A   1      42.737  26.793  28.159  1.00  0.00    -0.248 NA
ATOM     38  C   UNL A   1      41.206  25.029  28.124  1.00  0.00     0.031 C 
ATOM     39  C   UNL A   1      45.931  23.974  26.806  1.00  0.00     0.029 A 
ATOM     40  N   UNL A   1      45.490  26.076  27.434  1.00  0.00    -0.354 N 
ATOM     41  C   UNL A   1      41.497  27.257  28.575  1.00  0.00     0.074 A 
ATOM     42  C   UNL A   1      40.583  26.135  28.509  1.00  0.00     0.031 C 
ATOM     43  C   UNL A   1      47.082  24.663  26.750  1.00  0.00     0.029 A 
ATOM     44  C   UNL A   1      46.824  26.054  27.111  1.00  0.00     0.049 A 
ATOM     45  H   UNL A   1      45.029  26.880  27.768  1.00  0.00     0.167 HD
ATOM     46  C   UNL A   1      41.157  28.505  28.979  1.00  0.00     0.037 A 
ATOM     47  C   UNL A   1      47.728  27.051  27.078  1.00  0.00     0.037 A 
ATOM     48  C   UNL A   1      42.071  29.617  29.047  1.00  0.00     0.049 A 
ATOM     49  C   UNL A   1      47.305  28.444  27.456  1.00  0.00     0.074 A 
ATOM     50  C   UNL A   1      41.827  30.910  29.476  1.00  0.00     0.029 A 
ATOM     51  N   UNL A   1      43.405  29.567  28.668  1.00  0.00    -0.354 N 
ATOM     52  N   UNL A   1      46.137  28.870  27.867  1.00  0.00    -0.248 NA
ATOM     53  C   UNL A   1      48.326  29.497  27.356  1.00  0.00     0.031 C 
ATOM     54  C   UNL A   1      43.000  31.657  29.310  1.00  0.00     0.029 A 
ATOM     55  C   UNL A   1      43.987  30.818  28.821  1.00  0.00     0.049 A 
ATOM     56  H   UNL A   1      43.869  28.765  28.340  1.00  0.00     0.167 HD
ATOM     57  C   UNL A   1      46.282  30.233  28.089  1.00  0.00     0.074 A 
ATOM     58  C   UNL A   1      47.660  30.560  27.785  1.00  0.00     0.031 C 
ATOM     59  C   UNL A   1      45.357  31.130  28.506  1.00  0.00     0.037 A 
BRANCH  46  60
ATOM     60  C   UNL A   1      39.725  28.747  29.357  1.00  0.00     0.064 A 
ATOM     61  C   UNL A   1      39.261  28.524  30.662  1.00  0.00     0.173 A 
ATOM     62  C   UNL A   1      38.820  29.256  28.414  1.00  0.00     0.173 A 
ATOM     63  F   UNL A   1      40.085  28.030  31.596  1.00  0.00    -0.203 F 
ATOM     64  C   UNL A   1      37.935  28.781  31.002  1.00  0.00     0.198 A 
ATOM     65  C   UNL A   1      37.502  29.535  28.765  1.00  0.00     0.198 A 
ATOM     66  F   UNL A   1      39.217  29.495  27.155  1.00  0.00    -0.203 F 
ATOM     67  F   UNL A   1      37.502  28.527  32.245  1.00  0.00    -0.200 F 
ATOM     68  C   UNL A   1      37.059  29.292  30.056  1.00  0.00     0.200 A 
ATOM     69  F   UNL A   1      36.660  30.041  27.852  1.00  0.00    -0.200 F 
ATOM     70  F   UNL A   1      35.786  29.548  30.387  1.00  0.00    -0.200 F 
ENDBRANCH  46  60
BRANCH  47  71
ATOM     71  C   UNL A   1      49.121  26.770  26.642  1.00  0.00     0.064 A 
ATOM     72  C   UNL A   1      50.103  26.384  27.564  1.00  0.00     0.173 A 
ATOM     73  C   UNL A   1      49.497  26.884  25.295  1.00  0.00     0.173 A 
ATOM     74  F   UNL A   1      49.797  26.289  28.866  1.00  0.00    -0.203 F 
ATOM     75  C   UNL A   1      51.411  26.134  27.157  1.00  0.00     0.198 A 
ATOM     76  C   UNL A   1      50.799  26.606  24.886  1.00  0.00     0.198 A 
ATOM     77  F   UNL A   1      48.595  27.255  24.375  1.00  0.00    -0.203 F 
ATOM     78  F   UNL A   1      52.341  25.807  28.065  1.00  0.00    -0.200 F 
ATOM     79  C   UNL A   1      51.757  26.237  25.818  1.00  0.00     0.200 A 
ATOM     80  F   UNL A   1      51.126  26.700  23.590  1.00  0.00    -0.200 F 
ATOM     81  F   UNL A   1      53.015  25.992  25.427  1.00  0.00    -0.200 F 
ENDBRANCH  47  71
BRANCH  59  82
ATOM     82  C   UNL A   1      45.806  32.553  28.668  1.00  0.00     0.064 A 
ATOM     83  C   UNL A   1      46.365  33.010  29.870  1.00  0.00     0.173 A 
ATOM     84  C   UNL A   1      45.715  33.457  27.599  1.00  0.00     0.173 A 
ATOM     85  F   UNL A   1      46.459  32.189  30.926  1.00  0.00    -0.203 F 
ATOM     86  C   UNL A   1      46.800  34.326  30.001  1.00  0.00     0.198 A 
ATOM     87  C   UNL A   1      46.174  34.765  27.726  1.00  0.00     0.198 A 
ATOM     88  F   UNL A   1      45.191  33.067  26.426  1.00  0.00    -0.203 F 
ATOM     89  F   UNL A   1      47.294  34.754  31.172  1.00  0.00    -0.200 F 
ATOM     90  C   UNL A   1      46.711  35.200  28.927  1.00  0.00     0.200 A 
ATOM     91  F   UNL A   1      46.097  35.604  26.683  1.00  0.00    -0.200 F 
ATOM     92  F   UNL A   1      47.136  36.465  29.053  1.00  0.00    -0.200 F 
ENDBRANCH  59  82
ENDBRANCH  33  34
ENDBRANCH  26  28
ENDBRANCH  25  26
ENDBRANCH  24  25
ENDBRANCH  23  24
ENDBRANCH   1  23
TORSDOF 17
ENDMDL
MODEL 3
REMARK VINA RESULT:     -11.1      5.686     10.113
REMARK SMILES CCN(CC(=O)NC)C(=O)c1ccncc1/C=C/C(=O)OCCOC(=O)c1ccc(-c2c3nc(c(-c4c(F)c(F)c(F)c(F)c4F)c4ccc([nH]4)c(-c4c(F)c(F)c(F)c(F)c4F)c4nc(c(-c5c(F)c(F)c(F)c(F)c5F)c5ccc2[nH]5)C=C4)C=C3)cc1
REMARK SMILES IDX 21 1 19 2 20 3 18 4 17 5 16 6 11 7 12 8 13 9 15 10 14 11
REMARK SMILES IDX 9 12 10 13 3 14 2 15 1 16 4 17 5 18 6 19 7 20 8 21 22 23
REMARK SMILES IDX 23 24 24 25 25 26 26 27 27 28 28 29 89 30 29 31 88 32 30 33
REMARK SMILES IDX 31 34 32 35 82 36 33 37 87 38 81 39 83 40 34 41 86 42 80 43
REMARK SMILES IDX 79 44 35 46 67 47 47 48 66 49 48 50 51 51 65 52 84 53 49 54
REMARK SMILES IDX 50 55 64 57 85 58 52 59 36 60 37 61 45 62 38 63 39 64 43 65
REMARK SMILES IDX 46 66 40 67 41 68 44 69 42 70 68 71 69 72 77 73 70 74 71 75
REMARK SMILES IDX 75 76 78 77 72 78 73 79 76 80 74 81 53 82 54 83 62 84 55 85
REMARK SMILES IDX 56 86 60 87 63 88 57 89 58 90 61 91 59 92
REMARK H PARENT 7 22 83 45 51 56
REMARK Flexibility Score: inf
ROOT
ATOM      1  O   UNL A   1      39.094  21.839  26.046  1.00  0.00    -0.459 OA
ENDROOT
BRANCH   1   2
ATOM      2  C   UNL A   1      38.054  22.692  25.912  1.00  0.00     0.330 C 
ATOM      3  O   UNL A   1      38.100  23.911  26.004  1.00  0.00    -0.247 OA
BRANCH   2   4
ATOM      4  C   UNL A   1      36.796  22.015  25.542  1.00  0.00     0.094 C 
ATOM      5  C   UNL A   1      35.725  22.565  24.948  1.00  0.00     0.018 C 
BRANCH   5   6
ATOM      6  C   UNL A   1      34.514  21.752  24.752  1.00  0.00     0.006 A 
ATOM      7  C   UNL A   1      33.499  22.038  23.828  1.00  0.00     0.050 A 
ATOM      8  C   UNL A   1      32.486  21.106  23.590  1.00  0.00     0.034 A 
ATOM      9  C   UNL A   1      32.443  19.968  24.372  1.00  0.00     0.112 A 
ATOM     10  C   UNL A   1      34.354  20.580  25.492  1.00  0.00     0.119 A 
ATOM     11  N   UNL A   1      33.345  19.693  25.333  1.00  0.00    -0.264 NA
BRANCH   7  12
ATOM     12  C   UNL A   1      33.517  23.292  23.043  1.00  0.00     0.255 C 
ATOM     13  O   UNL A   1      34.241  23.333  22.050  1.00  0.00    -0.269 OA
BRANCH  12  14
ATOM     14  N   UNL A   1      32.751  24.387  23.470  1.00  0.00    -0.330 N 
BRANCH  14  15
ATOM     15  C   UNL A   1      32.585  24.562  24.913  1.00  0.00     0.117 C 
ATOM     16  C   UNL A   1      33.543  25.602  25.476  1.00  0.00     0.027 C 
ENDBRANCH  14  15
BRANCH  14  17
ATOM     17  C   UNL A   1      31.910  25.217  22.592  1.00  0.00     0.219 C 
BRANCH  17  18
ATOM     18  C   UNL A   1      32.522  26.491  21.977  1.00  0.00     0.239 C 
ATOM     19  O   UNL A   1      33.593  26.432  21.365  1.00  0.00    -0.273 OA
ATOM     20  N   UNL A   1      31.873  27.688  21.966  1.00  0.00    -0.358 N 
ATOM     21  C   UNL A   1      30.560  28.029  22.448  1.00  0.00     0.142 C 
ATOM     22  H   UNL A   1      32.378  28.434  21.568  1.00  0.00     0.163 HD
ENDBRANCH  17  18
ENDBRANCH  14  17
ENDBRANCH  12  14
ENDBRANCH   7  12
ENDBRANCH   5   6
ENDBRANCH   2   4
ENDBRANCH   1   2
BRANCH   1  23
ATOM     23  C   UNL A   1      38.951  20.579  25.366  1.00  0.00     0.275 C 
BRANCH  23  24
ATOM     24  C   UNL A   1      39.682  19.459  26.112  1.00  0.00     0.275 C 
BRANCH  24  25
ATOM     25  O   UNL A   1      40.910  19.082  25.461  1.00  0.00    -0.458 OA
BRANCH  25  26
ATOM     26  C   UNL A   1      42.019  19.137  26.236  1.00  0.00     0.338 C 
ATOM     27  O   UNL A   1      42.729  18.210  26.584  1.00  0.00    -0.246 OA
BRANCH  26  28
ATOM     28  C   UNL A   1      42.345  20.545  26.525  1.00  0.00     0.060 A 
ATOM     29  C   UNL A   1      42.643  21.385  25.449  1.00  0.00     0.016 A 
ATOM     30  C   UNL A   1      42.406  21.023  27.836  1.00  0.00     0.016 A 
ATOM     31  C   UNL A   1      42.992  22.715  25.677  1.00  0.00     0.010 A 
ATOM     32  C   UNL A   1      42.755  22.359  28.064  1.00  0.00     0.010 A 
ATOM     33  C   UNL A   1      43.048  23.213  26.986  1.00  0.00    -0.014 A 
BRANCH  33  34
ATOM     34  C   UNL A   1      43.393  24.635  27.226  1.00  0.00     0.031 A 
ATOM     35  C   UNL A   1      44.788  25.132  26.987  1.00  0.00     0.074 A 
ATOM     36  C   UNL A   1      42.442  25.480  27.666  1.00  0.00     0.049 A 
ATOM     37  N   UNL A   1      45.294  26.319  27.210  1.00  0.00    -0.248 NA
ATOM     38  C   UNL A   1      45.742  24.165  26.424  1.00  0.00     0.031 C 
ATOM     39  C   UNL A   1      41.045  25.120  27.907  1.00  0.00     0.029 A 
ATOM     40  N   UNL A   1      42.508  26.809  27.997  1.00  0.00    -0.354 N 
ATOM     41  C   UNL A   1      46.624  26.243  26.821  1.00  0.00     0.074 A 
ATOM     42  C   UNL A   1      46.855  24.885  26.370  1.00  0.00     0.031 C 
ATOM     43  C   UNL A   1      40.386  26.203  28.351  1.00  0.00     0.029 A 
ATOM     44  C   UNL A   1      41.322  27.317  28.467  1.00  0.00     0.049 A 
ATOM     45  H   UNL A   1      43.328  27.349  27.907  1.00  0.00     0.167 HD
ATOM     46  C   UNL A   1      47.563  27.219  26.837  1.00  0.00     0.037 A 
ATOM     47  C   UNL A   1      41.032  28.534  28.965  1.00  0.00     0.037 A 
ATOM     48  C   UNL A   1      47.327  28.569  27.282  1.00  0.00     0.049 A 
ATOM     49  C   UNL A   1      42.113  29.576  29.044  1.00  0.00     0.074 A 
ATOM     50  C   UNL A   1      48.208  29.637  27.303  1.00  0.00     0.029 A 
ATOM     51  N   UNL A   1      46.124  29.034  27.793  1.00  0.00    -0.354 N 
ATOM     52  N   UNL A   1      43.363  29.503  28.656  1.00  0.00    -0.248 NA
ATOM     53  C   UNL A   1      41.745  30.869  29.639  1.00  0.00     0.031 C 
ATOM     54  C   UNL A   1      47.552  30.735  27.872  1.00  0.00     0.029 A 
ATOM     55  C   UNL A   1      46.250  30.365  28.164  1.00  0.00     0.049 A 
ATOM     56  H   UNL A   1      45.303  28.499  27.880  1.00  0.00     0.167 HD
ATOM     57  C   UNL A   1      43.926  30.738  28.943  1.00  0.00     0.074 A 
ATOM     58  C   UNL A   1      42.877  31.550  29.523  1.00  0.00     0.031 C 
ATOM     59  C   UNL A   1      45.199  31.159  28.747  1.00  0.00     0.037 A 
BRANCH  46  60
ATOM     60  C   UNL A   1      48.947  26.860  26.380  1.00  0.00     0.064 A 
ATOM     61  C   UNL A   1      49.340  27.001  25.041  1.00  0.00     0.173 A 
ATOM     62  C   UNL A   1      49.904  26.417  27.304  1.00  0.00     0.173 A 
ATOM     63  F   UNL A   1      48.459  27.413  24.119  1.00  0.00    -0.203 F 
ATOM     64  C   UNL A   1      50.637  26.690  24.640  1.00  0.00     0.198 A 
ATOM     65  C   UNL A   1      51.207  26.131  26.904  1.00  0.00     0.198 A 
ATOM     66  F   UNL A   1      49.581  26.273  28.598  1.00  0.00    -0.203 F 
ATOM     67  F   UNL A   1      50.982  26.797  23.350  1.00  0.00    -0.200 F 
ATOM     68  C   UNL A   1      51.570  26.262  25.573  1.00  0.00     0.200 A 
ATOM     69  F   UNL A   1      52.111  25.729  27.809  1.00  0.00    -0.200 F 
ATOM     70  F   UNL A   1      52.821  25.971  25.187  1.00  0.00    -0.200 F 
ENDBRANCH  46  60
BRANCH  47  71
ATOM     71  C   UNL A   1      39.660  28.821  29.456  1.00  0.00     0.064 A 
ATOM     72  C   UNL A   1      39.289  28.532  30.776  1.00  0.00     0.173 A 
ATOM     73  C   UNL A   1      38.692  29.390  28.614  1.00  0.00     0.173 A 
ATOM     74  F   UNL A   1      40.171  27.963  31.609  1.00  0.00    -0.203 F 
ATOM     75  C   UNL A   1      37.998  28.790  31.231  1.00  0.00     0.198 A 
ATOM     76  C   UNL A   1      37.410  29.672  29.079  1.00  0.00     0.198 A 
ATOM     77  F   UNL A   1      38.996  29.680  27.341  1.00  0.00    -0.203 F 
ATOM     78  F   UNL A   1      37.656  28.465  32.486  1.00  0.00    -0.200 F 
ATOM     79  C   UNL A   1      37.061  29.366  30.386  1.00  0.00     0.200 A 
ATOM     80  F   UNL A   1      36.512  30.236  28.260  1.00  0.00    -0.200 F 
ATOM     81  F   UNL A   1      35.821  29.617  30.827  1.00  0.00    -0.200 F 
ENDBRANCH  47  71
BRANCH  59  82
ATOM     82  C   UNL A   1      45.527  32.566  29.153  1.00  0.00     0.064 A 
ATOM     83  C   UNL A   1      46.061  32.856  30.416  1.00  0.00     0.173 A 
ATOM     84  C   UNL A   1      45.344  33.628  28.255  1.00  0.00     0.173 A 
ATOM     85  F   UNL A   1      46.238  31.877  31.316  1.00  0.00    -0.203 F 
ATOM     86  C   UNL A   1      46.383  34.163  30.773  1.00  0.00     0.198 A 
ATOM     87  C   UNL A   1      45.691  34.930  28.606  1.00  0.00     0.198 A 
ATOM     88  F   UNL A   1      44.840  33.402  27.032  1.00  0.00    -0.203 F 
ATOM     89  F   UNL A   1      46.854  34.424  32.001  1.00  0.00    -0.200 F 
ATOM     90  C   UNL A   1      46.205  35.197  29.866  1.00  0.00     0.200 A 
ATOM     91  F   UNL A   1      45.529  35.926  27.724  1.00  0.00    -0.200 F 
ATOM     92  F   UNL A   1      46.522  36.453  30.208  1.00  0.00    -0.200 F 
ENDBRANCH  59  82
ENDBRANCH  33  34
ENDBRANCH  26  28
ENDBRANCH  25  26
ENDBRANCH  24  25
ENDBRANCH  23  24
ENDBRANCH   1  23
TORSDOF 17
ENDMDL
