MODEL 1
REMARK VINA RESULT:     -12.2      0.000      0.000
REMARK SMILES COc1cc(C(=O)N[C@H]2CCCC[C@H]2C(=O)OCCOC(=O)c2ccc(-c3c4nc(c(-c5c(F)c(F)c(F)c(F)c5F)c5ccc([nH]5)c(-c5c(F)c(F)c(F)c(F)c5F)c5nc(c(-c6c(F)c(F)c(F)c(F)c6F)c6ccc3[nH]6)C=C5)C=C4)cc2)cc(Cl)c1OC
REMARK SMILES IDX 18 1 17 2 15 3 16 4 14 5 9 6 10 7 11 8 13 9 12 10 8 11 6 12
REMARK SMILES IDX 7 13 5 15 3 16 4 17 89 18 87 19 86 20 88 21 2 22 1 23 90 24
REMARK SMILES IDX 91 25 19 26 20 27 21 28 22 29 23 30 24 31 85 32 25 33 84 34
REMARK SMILES IDX 26 35 27 36 28 37 78 38 29 39 83 40 77 41 79 42 30 43 82 44
REMARK SMILES IDX 76 45 75 46 31 48 63 49 43 50 62 51 44 52 47 53 61 54 80 55
REMARK SMILES IDX 45 56 46 57 60 59 81 60 48 61 32 62 33 63 41 64 34 65 35 66
REMARK SMILES IDX 39 67 42 68 36 69 37 70 40 71 38 72 64 73 65 74 73 75 66 76
REMARK SMILES IDX 67 77 71 78 74 79 68 80 69 81 72 82 70 83 49 84 50 85 58 86
REMARK SMILES IDX 51 87 52 88 56 89 59 90 53 91 54 92 57 93 55 94
REMARK H PARENT 8 14 79 47 47 58
REMARK Flexibility Score: inf
ROOT
ATOM      1  C   UNL A   1      31.434  29.653  24.660  1.00  0.00     0.274 C 
ENDROOT
BRANCH   1   2
ATOM      2  O   UNL A   1      32.776  29.329  24.251  1.00  0.00    -0.462 OA
BRANCH   2   3
ATOM      3  C   UNL A   1      32.995  28.086  23.747  1.00  0.00     0.311 C 
ATOM      4  O   UNL A   1      33.839  27.807  22.906  1.00  0.00    -0.252 OA
BRANCH   3   5
ATOM      5  C   UNL A   1      32.177  27.049  24.500  1.00  0.00     0.121 C 
ATOM      6  C   UNL A   1      31.280  26.178  23.619  1.00  0.00     0.096 C 
ATOM      7  C   UNL A   1      30.455  25.209  24.481  1.00  0.00     0.026 C 
ATOM      8  C   UNL A   1      31.317  24.361  25.404  1.00  0.00     0.002 C 
ATOM      9  C   UNL A   1      32.991  26.301  25.562  1.00  0.00     0.017 C 
ATOM     10  C   UNL A   1      32.214  25.211  26.296  1.00  0.00     0.001 C 
BRANCH   6  11
ATOM     11  N   UNL A   1      31.762  25.512  22.398  1.00  0.00    -0.348 N 
ATOM     12  C   UNL A   1      32.908  24.892  21.987  1.00  0.00     0.251 C 
ATOM     13  O   UNL A   1      33.275  25.059  20.824  1.00  0.00    -0.269 OA
ATOM     14  H   UNL A   1      31.077  25.512  21.690  1.00  0.00     0.164 HD
BRANCH  12  15
ATOM     15  C   UNL A   1      33.666  23.933  22.810  1.00  0.00     0.045 A 
ATOM     16  C   UNL A   1      33.751  21.754  23.883  1.00  0.00     0.163 A 
ATOM     17  C   UNL A   1      33.164  22.635  22.965  1.00  0.00     0.064 A 
ATOM     18  C   UNL A   1      34.894  22.151  24.597  1.00  0.00     0.179 A 
ATOM     19  C   UNL A   1      35.358  23.467  24.476  1.00  0.00     0.087 A 
ATOM     20  C   UNL A   1      34.718  24.361  23.614  1.00  0.00     0.038 A 
ATOM     21  Cl  UNL A   1      36.685  24.077  25.399  1.00  0.00    -0.080 Cl
BRANCH  16  22
ATOM     22  O   UNL A   1      33.272  20.491  24.122  1.00  0.00    -0.493 OA
ATOM     23  C   UNL A   1      32.153  20.419  25.003  1.00  0.00     0.278 C 
ENDBRANCH  16  22
BRANCH  18  24
ATOM     24  O   UNL A   1      35.423  21.265  25.504  1.00  0.00    -0.491 OA
ATOM     25  C   UNL A   1      36.563  20.570  25.000  1.00  0.00     0.278 C 
ENDBRANCH  18  24
ENDBRANCH  12  15
ENDBRANCH   6  11
ENDBRANCH   3   5
ENDBRANCH   2   3
ENDBRANCH   1   2
BRANCH   1  26
ATOM     26  C   UNL A   1      31.481  30.516  25.922  1.00  0.00     0.275 C 
BRANCH  26  27
ATOM     27  O   UNL A   1      32.743  30.347  26.597  1.00  0.00    -0.458 OA
BRANCH  27  28
ATOM     28  C   UNL A   1      33.268  31.471  27.134  1.00  0.00     0.338 C 
ATOM     29  O   UNL A   1      32.743  32.564  27.252  1.00  0.00    -0.246 OA
BRANCH  28  30
ATOM     30  C   UNL A   1      34.586  31.165  27.703  1.00  0.00     0.060 A 
ATOM     31  C   UNL A   1      34.857  29.846  28.062  1.00  0.00     0.016 A 
ATOM     32  C   UNL A   1      35.490  32.182  28.001  1.00  0.00     0.016 A 
ATOM     33  C   UNL A   1      36.002  29.540  28.787  1.00  0.00     0.010 A 
ATOM     34  C   UNL A   1      36.677  31.862  28.668  1.00  0.00     0.010 A 
ATOM     35  C   UNL A   1      36.929  30.544  29.090  1.00  0.00    -0.014 A 
BRANCH  35  36
ATOM     36  C   UNL A   1      38.145  30.217  29.875  1.00  0.00     0.031 A 
ATOM     37  C   UNL A   1      39.183  29.295  29.300  1.00  0.00     0.074 A 
ATOM     38  C   UNL A   1      38.325  30.758  31.095  1.00  0.00     0.049 A 
ATOM     39  N   UNL A   1      40.222  28.752  29.880  1.00  0.00    -0.248 NA
ATOM     40  C   UNL A   1      39.026  28.932  27.883  1.00  0.00     0.031 C 
ATOM     41  C   UNL A   1      37.422  31.712  31.738  1.00  0.00     0.029 A 
ATOM     42  N   UNL A   1      39.329  30.578  32.013  1.00  0.00    -0.354 N 
ATOM     43  C   UNL A   1      40.817  27.950  28.915  1.00  0.00     0.074 A 
ATOM     44  C   UNL A   1      40.023  28.074  27.712  1.00  0.00     0.031 C 
ATOM     45  C   UNL A   1      37.919  32.045  32.940  1.00  0.00     0.029 A 
ATOM     46  C   UNL A   1      39.132  31.272  33.181  1.00  0.00     0.049 A 
ATOM     47  H   UNL A   1      40.115  30.008  31.850  1.00  0.00     0.167 HD
ATOM     48  C   UNL A   1      41.924  27.177  29.031  1.00  0.00     0.037 A 
ATOM     49  C   UNL A   1      39.825  31.252  34.335  1.00  0.00     0.037 A 
ATOM     50  C   UNL A   1      42.729  27.087  30.221  1.00  0.00     0.049 A 
ATOM     51  C   UNL A   1      41.025  30.355  34.450  1.00  0.00     0.074 A 
ATOM     52  C   UNL A   1      43.868  26.334  30.440  1.00  0.00     0.029 A 
ATOM     53  N   UNL A   1      42.483  27.790  31.391  1.00  0.00    -0.354 N 
ATOM     54  N   UNL A   1      41.549  29.555  33.554  1.00  0.00    -0.248 NA
ATOM     55  C   UNL A   1      41.720  30.344  35.745  1.00  0.00     0.031 C 
ATOM     56  C   UNL A   1      44.293  26.557  31.754  1.00  0.00     0.029 A 
ATOM     57  C   UNL A   1      43.442  27.479  32.341  1.00  0.00     0.049 A 
ATOM     58  H   UNL A   1      41.736  28.417  31.528  1.00  0.00     0.167 HD
ATOM     59  C   UNL A   1      42.639  28.956  34.168  1.00  0.00     0.074 A 
ATOM     60  C   UNL A   1      42.713  29.498  35.509  1.00  0.00     0.031 C 
ATOM     61  C   UNL A   1      43.498  28.034  33.668  1.00  0.00     0.037 A 
BRANCH  48  62
ATOM     62  C   UNL A   1      42.308  26.338  27.848  1.00  0.00     0.064 A 
ATOM     63  C   UNL A   1      43.293  26.747  26.938  1.00  0.00     0.173 A 
ATOM     64  C   UNL A   1      41.698  25.091  27.640  1.00  0.00     0.173 A 
ATOM     65  F   UNL A   1      43.893  27.937  27.082  1.00  0.00    -0.203 F 
ATOM     66  C   UNL A   1      43.638  25.947  25.850  1.00  0.00     0.198 A 
ATOM     67  C   UNL A   1      42.063  24.283  26.567  1.00  0.00     0.198 A 
ATOM     68  F   UNL A   1      40.751  24.653  28.484  1.00  0.00    -0.203 F 
ATOM     69  F   UNL A   1      44.552  26.377  24.969  1.00  0.00    -0.200 F 
ATOM     70  C   UNL A   1      43.027  24.715  25.669  1.00  0.00     0.200 A 
ATOM     71  F   UNL A   1      41.478  23.090  26.398  1.00  0.00    -0.200 F 
ATOM     72  F   UNL A   1      43.363  23.946  24.624  1.00  0.00    -0.200 F 
ENDBRANCH  48  62
BRANCH  49  73
ATOM     73  C   UNL A   1      39.373  32.080  35.482  1.00  0.00     0.064 A 
ATOM     74  C   UNL A   1      38.492  31.564  36.441  1.00  0.00     0.173 A 
ATOM     75  C   UNL A   1      39.820  33.399  35.648  1.00  0.00     0.173 A 
ATOM     76  F   UNL A   1      38.018  30.316  36.311  1.00  0.00    -0.203 F 
ATOM     77  C   UNL A   1      38.069  32.339  37.518  1.00  0.00     0.198 A 
ATOM     78  C   UNL A   1      39.419  34.164  36.740  1.00  0.00     0.198 A 
ATOM     79  F   UNL A   1      40.664  33.939  34.756  1.00  0.00    -0.203 F 
ATOM     80  F   UNL A   1      37.197  31.834  38.403  1.00  0.00    -0.200 F 
ATOM     81  C   UNL A   1      38.539  33.635  37.672  1.00  0.00     0.200 A 
ATOM     82  F   UNL A   1      39.886  35.411  36.891  1.00  0.00    -0.200 F 
ATOM     83  F   UNL A   1      38.139  34.376  38.713  1.00  0.00    -0.200 F 
ENDBRANCH  49  73
BRANCH  61  84
ATOM     84  C   UNL A   1      44.606  27.579  34.569  1.00  0.00     0.064 A 
ATOM     85  C   UNL A   1      44.465  26.449  35.387  1.00  0.00     0.173 A 
ATOM     86  C   UNL A   1      45.831  28.260  34.587  1.00  0.00     0.173 A 
ATOM     87  F   UNL A   1      43.305  25.776  35.415  1.00  0.00    -0.203 F 
ATOM     88  C   UNL A   1      45.507  26.029  36.209  1.00  0.00     0.198 A 
ATOM     89  C   UNL A   1      46.879  27.823  35.393  1.00  0.00     0.198 A 
ATOM     90  F   UNL A   1      46.014  29.343  33.818  1.00  0.00    -0.203 F 
ATOM     91  F   UNL A   1      45.339  24.972  37.015  1.00  0.00    -0.200 F 
ATOM     92  C   UNL A   1      46.714  26.713  36.207  1.00  0.00     0.200 A 
ATOM     93  F   UNL A   1      48.047  28.479  35.383  1.00  0.00    -0.200 F 
ATOM     94  F   UNL A   1      47.717  26.305  36.997  1.00  0.00    -0.200 F 
ENDBRANCH  61  84
ENDBRANCH  35  36
ENDBRANCH  28  30
ENDBRANCH  27  28
ENDBRANCH  26  27
ENDBRANCH   1  26
TORSDOF 15
ENDMDL
MODEL 2
REMARK VINA RESULT:     -12.1      0.245      1.591
REMARK SMILES COc1cc(C(=O)N[C@H]2CCCC[C@H]2C(=O)OCCOC(=O)c2ccc(-c3c4nc(c(-c5c(F)c(F)c(F)c(F)c5F)c5ccc([nH]5)c(-c5c(F)c(F)c(F)c(F)c5F)c5nc(c(-c6c(F)c(F)c(F)c(F)c6F)c6ccc3[nH]6)C=C5)C=C4)cc2)cc(Cl)c1OC
REMARK SMILES IDX 18 1 17 2 15 3 16 4 14 5 9 6 10 7 11 8 13 9 12 10 8 11 6 12
REMARK SMILES IDX 7 13 5 15 3 16 4 17 89 18 87 19 86 20 88 21 2 22 1 23 90 24
REMARK SMILES IDX 91 25 19 26 20 27 21 28 22 29 23 30 24 31 85 32 25 33 84 34
REMARK SMILES IDX 26 35 27 36 28 37 78 38 29 39 83 40 77 41 79 42 30 43 82 44
REMARK SMILES IDX 76 45 75 46 31 48 63 49 43 50 62 51 44 52 47 53 61 54 80 55
REMARK SMILES IDX 45 56 46 57 60 59 81 60 48 61 32 62 33 63 41 64 34 65 35 66
REMARK SMILES IDX 39 67 42 68 36 69 37 70 40 71 38 72 64 73 65 74 73 75 66 76
REMARK SMILES IDX 67 77 71 78 74 79 68 80 69 81 72 82 70 83 49 84 50 85 58 86
REMARK SMILES IDX 51 87 52 88 56 89 59 90 53 91 54 92 57 93 55 94
REMARK H PARENT 8 14 79 47 47 58
REMARK Flexibility Score: inf
ROOT
ATOM      1  C   UNL A   1      31.358  29.676  24.672  1.00  0.00     0.274 C 
ENDROOT
BRANCH   1   2
ATOM      2  O   UNL A   1      32.670  29.327  24.191  1.00  0.00    -0.462 OA
BRANCH   2   3
ATOM      3  C   UNL A   1      32.820  28.110  23.606  1.00  0.00     0.311 C 
ATOM      4  O   UNL A   1      33.572  27.868  22.671  1.00  0.00    -0.252 OA
BRANCH   3   5
ATOM      5  C   UNL A   1      32.068  27.043  24.383  1.00  0.00     0.121 C 
ATOM      6  C   UNL A   1      31.217  26.105  23.525  1.00  0.00     0.096 C 
ATOM      7  C   UNL A   1      30.454  25.107  24.411  1.00  0.00     0.026 C 
ATOM      8  C   UNL A   1      31.368  24.328  25.344  1.00  0.00     0.002 C 
ATOM      9  C   UNL A   1      32.928  26.363  25.454  1.00  0.00     0.017 C 
ATOM     10  C   UNL A   1      32.219  25.245  26.214  1.00  0.00     0.001 C 
BRANCH   6  11
ATOM     11  N   UNL A   1      31.730  25.444  22.314  1.00  0.00    -0.348 N 
ATOM     12  C   UNL A   1      32.891  24.840  21.925  1.00  0.00     0.251 C 
ATOM     13  O   UNL A   1      33.277  25.011  20.767  1.00  0.00    -0.269 OA
ATOM     14  H   UNL A   1      31.057  25.434  21.594  1.00  0.00     0.164 HD
BRANCH  12  15
ATOM     15  C   UNL A   1      33.648  23.893  22.762  1.00  0.00     0.045 A 
ATOM     16  C   UNL A   1      33.736  21.726  23.857  1.00  0.00     0.163 A 
ATOM     17  C   UNL A   1      33.151  22.595  22.927  1.00  0.00     0.064 A 
ATOM     18  C   UNL A   1      34.873  22.135  24.575  1.00  0.00     0.179 A 
ATOM     19  C   UNL A   1      35.331  23.452  24.443  1.00  0.00     0.087 A 
ATOM     20  C   UNL A   1      34.692  24.335  23.568  1.00  0.00     0.038 A 
ATOM     21  Cl  UNL A   1      36.649  24.077  25.369  1.00  0.00    -0.080 Cl
BRANCH  16  22
ATOM     22  O   UNL A   1      33.261  20.463  24.107  1.00  0.00    -0.493 OA
ATOM     23  C   UNL A   1      32.152  20.392  25.001  1.00  0.00     0.278 C 
ENDBRANCH  16  22
BRANCH  18  24
ATOM     24  O   UNL A   1      35.399  21.261  25.495  1.00  0.00    -0.491 OA
ATOM     25  C   UNL A   1      36.551  20.572  25.008  1.00  0.00     0.278 C 
ENDBRANCH  18  24
ENDBRANCH  12  15
ENDBRANCH   6  11
ENDBRANCH   3   5
ENDBRANCH   2   3
ENDBRANCH   1   2
BRANCH   1  26
ATOM     26  C   UNL A   1      31.489  30.500  25.954  1.00  0.00     0.275 C 
BRANCH  26  27
ATOM     27  O   UNL A   1      32.816  30.369  26.501  1.00  0.00    -0.458 OA
BRANCH  27  28
ATOM     28  C   UNL A   1      33.303  31.472  27.111  1.00  0.00     0.338 C 
ATOM     29  O   UNL A   1      32.756  32.550  27.266  1.00  0.00    -0.246 OA
BRANCH  28  30
ATOM     30  C   UNL A   1      34.608  31.160  27.705  1.00  0.00     0.060 A 
ATOM     31  C   UNL A   1      34.850  29.848  28.108  1.00  0.00     0.016 A 
ATOM     32  C   UNL A   1      35.528  32.169  27.984  1.00  0.00     0.016 A 
ATOM     33  C   UNL A   1      35.980  29.542  28.858  1.00  0.00     0.010 A 
ATOM     34  C   UNL A   1      36.700  31.847  28.676  1.00  0.00     0.010 A 
ATOM     35  C   UNL A   1      36.922  30.538  29.142  1.00  0.00    -0.014 A 
BRANCH  35  36
ATOM     36  C   UNL A   1      38.121  30.213  29.953  1.00  0.00     0.031 A 
ATOM     37  C   UNL A   1      39.193  29.327  29.383  1.00  0.00     0.074 A 
ATOM     38  C   UNL A   1      38.256  30.723  31.191  1.00  0.00     0.049 A 
ATOM     39  N   UNL A   1      40.226  28.789  29.979  1.00  0.00    -0.248 NA
ATOM     40  C   UNL A   1      39.083  29.000  27.953  1.00  0.00     0.031 C 
ATOM     41  C   UNL A   1      37.316  31.643  31.834  1.00  0.00     0.029 A 
ATOM     42  N   UNL A   1      39.237  30.538  32.133  1.00  0.00    -0.354 N 
ATOM     43  C   UNL A   1      40.863  28.024  29.010  1.00  0.00     0.074 A 
ATOM     44  C   UNL A   1      40.101  28.167  27.788  1.00  0.00     0.031 C 
ATOM     45  C   UNL A   1      37.772  31.951  33.058  1.00  0.00     0.029 A 
ATOM     46  C   UNL A   1      38.993  31.195  33.313  1.00  0.00     0.049 A 
ATOM     47  H   UNL A   1      40.038  29.987  31.977  1.00  0.00     0.167 HD
ATOM     48  C   UNL A   1      41.981  27.270  29.136  1.00  0.00     0.037 A 
ATOM     49  C   UNL A   1      39.653  31.157  34.485  1.00  0.00     0.037 A 
ATOM     50  C   UNL A   1      42.754  27.163  30.346  1.00  0.00     0.049 A 
ATOM     51  C   UNL A   1      40.867  30.280  34.611  1.00  0.00     0.074 A 
ATOM     52  C   UNL A   1      43.901  26.426  30.578  1.00  0.00     0.029 A 
ATOM     53  N   UNL A   1      42.461  27.828  31.528  1.00  0.00    -0.354 N 
ATOM     54  N   UNL A   1      41.432  29.515  33.710  1.00  0.00    -0.248 NA
ATOM     55  C   UNL A   1      41.525  30.247  35.925  1.00  0.00     0.031 C 
ATOM     56  C   UNL A   1      44.285  26.620  31.910  1.00  0.00     0.029 A 
ATOM     57  C   UNL A   1      43.399  27.510  32.496  1.00  0.00     0.049 A 
ATOM     58  H   UNL A   1      41.698  28.437  31.660  1.00  0.00     0.167 HD
ATOM     59  C   UNL A   1      42.516  28.920  34.338  1.00  0.00     0.074 A 
ATOM     60  C   UNL A   1      42.541  29.427  35.695  1.00  0.00     0.031 C 
ATOM     61  C   UNL A   1      43.406  28.029  33.839  1.00  0.00     0.037 A 
BRANCH  48  62
ATOM     62  C   UNL A   1      42.415  26.471  27.943  1.00  0.00     0.064 A 
ATOM     63  C   UNL A   1      41.921  25.184  27.693  1.00  0.00     0.173 A 
ATOM     64  C   UNL A   1      43.319  27.019  27.019  1.00  0.00     0.173 A 
ATOM     65  F   UNL A   1      41.067  24.609  28.554  1.00  0.00    -0.203 F 
ATOM     66  C   UNL A   1      42.333  24.464  26.574  1.00  0.00     0.198 A 
ATOM     67  C   UNL A   1      43.710  26.307  25.888  1.00  0.00     0.198 A 
ATOM     68  F   UNL A   1      43.820  28.249  27.211  1.00  0.00    -0.203 F 
ATOM     69  F   UNL A   1      41.880  23.217  26.377  1.00  0.00    -0.200 F 
ATOM     70  C   UNL A   1      43.222  25.027  25.670  1.00  0.00     0.200 A 
ATOM     71  F   UNL A   1      44.563  26.856  25.013  1.00  0.00    -0.200 F 
ATOM     72  F   UNL A   1      43.614  24.334  24.593  1.00  0.00    -0.200 F 
ENDBRANCH  48  62
BRANCH  49  73
ATOM     73  C   UNL A   1      39.152  31.945  35.641  1.00  0.00     0.064 A 
ATOM     74  C   UNL A   1      38.320  31.361  36.605  1.00  0.00     0.173 A 
ATOM     75  C   UNL A   1      39.503  33.292  35.809  1.00  0.00     0.173 A 
ATOM     76  F   UNL A   1      37.937  30.082  36.473  1.00  0.00    -0.203 F 
ATOM     77  C   UNL A   1      37.852  32.098  37.690  1.00  0.00     0.198 A 
ATOM     78  C   UNL A   1      39.057  34.021  36.910  1.00  0.00     0.198 A 
ATOM     79  F   UNL A   1      40.297  33.897  34.913  1.00  0.00    -0.203 F 
ATOM     80  F   UNL A   1      37.027  31.527  38.579  1.00  0.00    -0.200 F 
ATOM     81  C   UNL A   1      38.227  33.424  37.846  1.00  0.00     0.200 A 
ATOM     82  F   UNL A   1      39.434  35.297  37.063  1.00  0.00    -0.200 F 
ATOM     83  F   UNL A   1      37.784  34.130  38.895  1.00  0.00    -0.200 F 
ENDBRANCH  49  73
BRANCH  61  84
ATOM     84  C   UNL A   1      44.497  27.571  34.759  1.00  0.00     0.064 A 
ATOM     85  C   UNL A   1      45.703  28.277  34.872  1.00  0.00     0.173 A 
ATOM     86  C   UNL A   1      44.319  26.433  35.559  1.00  0.00     0.173 A 
ATOM     87  F   UNL A   1      45.924  29.361  34.113  1.00  0.00    -0.203 F 
ATOM     88  C   UNL A   1      46.703  27.847  35.740  1.00  0.00     0.198 A 
ATOM     89  C   UNL A   1      45.312  26.020  36.443  1.00  0.00     0.198 A 
ATOM     90  F   UNL A   1      43.181  25.728  35.488  1.00  0.00    -0.203 F 
ATOM     91  F   UNL A   1      47.864  28.512  35.803  1.00  0.00    -0.200 F 
ATOM     92  C   UNL A   1      46.504  26.724  36.529  1.00  0.00     0.200 A 
ATOM     93  F   UNL A   1      45.115  24.940  37.211  1.00  0.00    -0.200 F 
ATOM     94  F   UNL A   1      47.466  26.313  37.367  1.00  0.00    -0.200 F 
ENDBRANCH  61  84
ENDBRANCH  35  36
ENDBRANCH  28  30
ENDBRANCH  27  28
ENDBRANCH  26  27
ENDBRANCH   1  26
TORSDOF 15
ENDMDL
MODEL 3
REMARK VINA RESULT:     -12.1      4.151      9.676
REMARK SMILES COc1cc(C(=O)N[C@H]2CCCC[C@H]2C(=O)OCCOC(=O)c2ccc(-c3c4nc(c(-c5c(F)c(F)c(F)c(F)c5F)c5ccc([nH]5)c(-c5c(F)c(F)c(F)c(F)c5F)c5nc(c(-c6c(F)c(F)c(F)c(F)c6F)c6ccc3[nH]6)C=C5)C=C4)cc2)cc(Cl)c1OC
REMARK SMILES IDX 18 1 17 2 15 3 16 4 14 5 9 6 10 7 11 8 13 9 12 10 8 11 6 12
REMARK SMILES IDX 7 13 5 15 3 16 4 17 89 18 87 19 86 20 88 21 2 22 1 23 90 24
REMARK SMILES IDX 91 25 19 26 20 27 21 28 22 29 23 30 24 31 85 32 25 33 84 34
REMARK SMILES IDX 26 35 27 36 28 37 78 38 29 39 83 40 77 41 79 42 30 43 82 44
REMARK SMILES IDX 76 45 75 46 31 48 63 49 43 50 62 51 44 52 47 53 61 54 80 55
REMARK SMILES IDX 45 56 46 57 60 59 81 60 48 61 32 62 33 63 41 64 34 65 35 66
REMARK SMILES IDX 39 67 42 68 36 69 37 70 40 71 38 72 64 73 65 74 73 75 66 76
REMARK SMILES IDX 67 77 71 78 74 79 68 80 69 81 72 82 70 83 49 84 50 85 58 86
REMARK SMILES IDX 51 87 52 88 56 89 59 90 53 91 54 92 57 93 55 94
REMARK H PARENT 8 14 79 47 47 58
REMARK Flexibility Score: inf
ROOT
ATOM      1  C   UNL A   1      35.515  20.692  25.148  1.00  0.00     0.274 C 
ENDROOT
BRANCH   1   2
ATOM      2  O   UNL A   1      35.243  21.422  26.359  1.00  0.00    -0.462 OA
BRANCH   2   3
ATOM      3  C   UNL A   1      34.161  22.244  26.367  1.00  0.00     0.311 C 
ATOM      4  O   UNL A   1      33.656  22.732  27.369  1.00  0.00    -0.252 OA
BRANCH   3   5
ATOM      5  C   UNL A   1      33.768  22.628  24.950  1.00  0.00     0.121 C 
ATOM      6  C   UNL A   1      32.313  22.329  24.585  1.00  0.00     0.096 C 
ATOM      7  C   UNL A   1      32.037  22.698  23.118  1.00  0.00     0.026 C 
ATOM      8  C   UNL A   1      32.406  24.137  22.793  1.00  0.00     0.002 C 
ATOM      9  C   UNL A   1      34.283  24.012  24.540  1.00  0.00     0.017 C 
ATOM     10  C   UNL A   1      33.856  24.453  23.142  1.00  0.00     0.001 C 
BRANCH   6  11
ATOM     11  N   UNL A   1      31.179  22.711  25.442  1.00  0.00    -0.348 N 
ATOM     12  C   UNL A   1      30.858  23.754  26.264  1.00  0.00     0.251 C 
ATOM     13  O   UNL A   1      30.254  23.507  27.309  1.00  0.00    -0.269 OA
ATOM     14  H   UNL A   1      30.461  22.037  25.415  1.00  0.00     0.164 HD
BRANCH  12  15
ATOM     15  C   UNL A   1      31.077  25.170  25.921  1.00  0.00     0.045 A 
ATOM     16  C   UNL A   1      30.516  27.054  24.493  1.00  0.00     0.163 A 
ATOM     17  C   UNL A   1      30.231  25.773  24.982  1.00  0.00     0.064 A 
ATOM     18  C   UNL A   1      31.616  27.767  25.001  1.00  0.00     0.179 A 
ATOM     19  C   UNL A   1      32.485  27.137  25.900  1.00  0.00     0.087 A 
ATOM     20  C   UNL A   1      32.233  25.829  26.324  1.00  0.00     0.038 A 
ATOM     21  Cl  UNL A   1      33.924  27.892  26.490  1.00  0.00    -0.080 Cl
BRANCH  16  22
ATOM     22  O   UNL A   1      29.760  27.676  23.530  1.00  0.00    -0.493 OA
ATOM     23  C   UNL A   1      28.367  27.373  23.558  1.00  0.00     0.278 C 
ENDBRANCH  16  22
BRANCH  18  24
ATOM     24  O   UNL A   1      31.873  29.009  24.475  1.00  0.00    -0.491 OA
ATOM     25  C   UNL A   1      31.474  30.071  25.342  1.00  0.00     0.278 C 
ENDBRANCH  18  24
ENDBRANCH  12  15
ENDBRANCH   6  11
ENDBRANCH   3   5
ENDBRANCH   2   3
ENDBRANCH   1   2
BRANCH   1  26
ATOM     26  C   UNL A   1      37.026  20.523  24.985  1.00  0.00     0.275 C 
BRANCH  26  27
ATOM     27  O   UNL A   1      37.724  21.610  25.625  1.00  0.00    -0.458 OA
BRANCH  27  28
ATOM     28  C   UNL A   1      38.954  21.309  26.098  1.00  0.00     0.338 C 
ATOM     29  O   UNL A   1      39.552  20.251  26.021  1.00  0.00    -0.246 OA
BRANCH  28  30
ATOM     30  C   UNL A   1      39.570  22.523  26.648  1.00  0.00     0.060 A 
ATOM     31  C   UNL A   1      39.127  23.757  26.176  1.00  0.00     0.016 A 
ATOM     32  C   UNL A   1      40.658  22.443  27.514  1.00  0.00     0.016 A 
ATOM     33  C   UNL A   1      39.811  24.920  26.507  1.00  0.00     0.010 A 
ATOM     34  C   UNL A   1      41.302  23.622  27.906  1.00  0.00     0.010 A 
ATOM     35  C   UNL A   1      40.901  24.866  27.384  1.00  0.00    -0.014 A 
BRANCH  35  36
ATOM     36  C   UNL A   1      41.638  26.107  27.727  1.00  0.00     0.031 A 
ATOM     37  C   UNL A   1      40.973  27.167  28.559  1.00  0.00     0.074 A 
ATOM     38  C   UNL A   1      42.905  26.276  27.306  1.00  0.00     0.049 A 
ATOM     39  N   UNL A   1      41.374  28.384  28.825  1.00  0.00    -0.248 NA
ATOM     40  C   UNL A   1      39.682  26.810  29.168  1.00  0.00     0.031 C 
ATOM     41  C   UNL A   1      43.681  25.298  26.544  1.00  0.00     0.029 A 
ATOM     42  N   UNL A   1      43.763  27.336  27.457  1.00  0.00    -0.354 N 
ATOM     43  C   UNL A   1      40.366  28.952  29.594  1.00  0.00     0.074 A 
ATOM     44  C   UNL A   1      39.335  27.949  29.751  1.00  0.00     0.031 C 
ATOM     45  C   UNL A   1      44.904  25.796  26.306  1.00  0.00     0.029 A 
ATOM     46  C   UNL A   1      44.972  27.155  26.832  1.00  0.00     0.049 A 
ATOM     47  H   UNL A   1      43.535  28.148  27.965  1.00  0.00     0.167 HD
ATOM     48  C   UNL A   1      40.311  30.202  30.115  1.00  0.00     0.037 A 
ATOM     49  C   UNL A   1      46.002  28.005  26.661  1.00  0.00     0.037 A 
ATOM     50  C   UNL A   1      41.358  31.181  29.985  1.00  0.00     0.049 A 
ATOM     51  C   UNL A   1      45.898  29.398  27.214  1.00  0.00     0.074 A 
ATOM     52  C   UNL A   1      41.400  32.474  30.475  1.00  0.00     0.029 A 
ATOM     53  N   UNL A   1      42.559  30.965  29.324  1.00  0.00    -0.354 N 
ATOM     54  N   UNL A   1      44.920  29.949  27.890  1.00  0.00    -0.248 NA
ATOM     55  C   UNL A   1      47.035  30.295  26.964  1.00  0.00     0.031 C 
ATOM     56  C   UNL A   1      42.612  33.051  30.084  1.00  0.00     0.029 A 
ATOM     57  C   UNL A   1      43.344  32.105  29.384  1.00  0.00     0.049 A 
ATOM     58  H   UNL A   1      42.816  30.126  28.878  1.00  0.00     0.167 HD
ATOM     59  C   UNL A   1      45.325  31.249  28.157  1.00  0.00     0.074 A 
ATOM     60  C   UNL A   1      46.647  31.400  27.585  1.00  0.00     0.031 C 
ATOM     61  C   UNL A   1      44.658  32.231  28.811  1.00  0.00     0.037 A 
BRANCH  48  62
ATOM     62  C   UNL A   1      39.059  30.592  30.844  1.00  0.00     0.064 A 
ATOM     63  C   UNL A   1      38.936  30.450  32.233  1.00  0.00     0.173 A 
ATOM     64  C   UNL A   1      37.977  31.145  30.141  1.00  0.00     0.173 A 
ATOM     65  F   UNL A   1      39.935  29.912  32.949  1.00  0.00    -0.203 F 
ATOM     66  C   UNL A   1      37.766  30.826  32.889  1.00  0.00     0.198 A 
ATOM     67  C   UNL A   1      36.819  31.543  30.803  1.00  0.00     0.198 A 
ATOM     68  F   UNL A   1      38.046  31.304  28.810  1.00  0.00    -0.203 F 
ATOM     69  F   UNL A   1      37.653  30.642  34.212  1.00  0.00    -0.200 F 
ATOM     70  C   UNL A   1      36.712  31.377  32.175  1.00  0.00     0.200 A 
ATOM     71  F   UNL A   1      35.805  32.082  30.113  1.00  0.00    -0.200 F 
ATOM     72  F   UNL A   1      35.589  31.741  32.809  1.00  0.00    -0.200 F 
ENDBRANCH  48  62
BRANCH  49  73
ATOM     73  C   UNL A   1      47.200  27.568  25.899  1.00  0.00     0.064 A 
ATOM     74  C   UNL A   1      47.264  27.720  24.508  1.00  0.00     0.173 A 
ATOM     75  C   UNL A   1      48.307  27.002  26.547  1.00  0.00     0.173 A 
ATOM     76  F   UNL A   1      46.220  28.234  23.842  1.00  0.00    -0.203 F 
ATOM     77  C   UNL A   1      48.388  27.314  23.793  1.00  0.00     0.198 A 
ATOM     78  C   UNL A   1      49.442  26.622  25.834  1.00  0.00     0.198 A 
ATOM     79  F   UNL A   1      48.294  26.835  27.878  1.00  0.00    -0.203 F 
ATOM     80  F   UNL A   1      48.410  27.436  22.458  1.00  0.00    -0.200 F 
ATOM     81  C   UNL A   1      49.479  26.773  24.457  1.00  0.00     0.200 A 
ATOM     82  F   UNL A   1      50.498  26.112  26.482  1.00  0.00    -0.200 F 
ATOM     83  F   UNL A   1      50.564  26.391  23.769  1.00  0.00    -0.200 F 
ENDBRANCH  49  73
BRANCH  61  84
ATOM     84  C   UNL A   1      45.365  33.544  28.966  1.00  0.00     0.064 A 
ATOM     85  C   UNL A   1      45.209  34.573  28.026  1.00  0.00     0.173 A 
ATOM     86  C   UNL A   1      46.177  33.786  30.083  1.00  0.00     0.173 A 
ATOM     87  F   UNL A   1      44.455  34.381  26.933  1.00  0.00    -0.203 F 
ATOM     88  C   UNL A   1      45.860  35.792  28.190  1.00  0.00     0.198 A 
ATOM     89  C   UNL A   1      46.807  35.014  30.254  1.00  0.00     0.198 A 
ATOM     90  F   UNL A   1      46.352  32.833  31.010  1.00  0.00    -0.203 F 
ATOM     91  F   UNL A   1      45.732  36.748  27.260  1.00  0.00    -0.200 F 
ATOM     92  C   UNL A   1      46.653  36.014  29.306  1.00  0.00     0.200 A 
ATOM     93  F   UNL A   1      47.566  35.231  31.338  1.00  0.00    -0.200 F 
ATOM     94  F   UNL A   1      47.276  37.190  29.463  1.00  0.00    -0.200 F 
ENDBRANCH  61  84
ENDBRANCH  35  36
ENDBRANCH  28  30
ENDBRANCH  27  28
ENDBRANCH  26  27
ENDBRANCH   1  26
TORSDOF 15
ENDMDL
