MODEL 1
REMARK VINA RESULT:     -11.3      0.000      0.000
REMARK SMILES C[N@H+]1CCO[C@](C)(C(=O)OCCOC(=O)c2ccc(-c3c4nc(c(-c5c(F)c(F)c(F)c(F)c5F)c5ccc([nH]5)c(-c5c(F)c(F)c(F)c(F)c5F)c5nc(c(-c6c(F)c(F)c(F)c(F)c6F)c6ccc3[nH]6)C=C5)C=C4)cc2)C1
REMARK SMILES IDX 12 1 11 2 10 3 8 4 9 5 6 6 1 7 2 8 3 9 79 10 4 12 5 13 7 14
REMARK SMILES IDX 13 15 14 16 15 17 16 18 17 19 78 20 18 21 77 22 19 23 20 24
REMARK SMILES IDX 21 25 71 26 22 27 76 28 70 29 72 30 23 31 75 32 69 33 68 34
REMARK SMILES IDX 24 36 56 37 36 38 55 39 37 40 40 41 54 42 73 43 38 44 39 45
REMARK SMILES IDX 53 47 74 48 41 49 25 50 26 51 34 52 27 53 28 54 32 55 35 56
REMARK SMILES IDX 29 57 30 58 33 59 31 60 57 61 58 62 66 63 59 64 60 65 64 66
REMARK SMILES IDX 67 67 61 68 62 69 65 70 63 71 42 72 43 73 51 74 44 75 45 76
REMARK SMILES IDX 49 77 52 78 46 79 47 80 50 81 48 82
REMARK H PARENT 2 11 72 35 40 46
REMARK Flexibility Score: inf
ROOT
ATOM      1  C   UNL A   1      40.579  19.508  26.142  1.00  0.00     0.275 C 
ENDROOT
BRANCH   1   2
ATOM      2  C   UNL A   1      42.044  19.070  26.213  1.00  0.00     0.274 C 
BRANCH   2   3
ATOM      3  O   UNL A   1      42.754  19.390  24.999  1.00  0.00    -0.460 OA
BRANCH   3   4
ATOM      4  C   UNL A   1      44.112  19.251  25.046  1.00  0.00     0.344 C 
ATOM      5  O   UNL A   1      44.679  18.173  25.200  1.00  0.00    -0.249 OA
BRANCH   4   6
ATOM      6  C   UNL A   1      44.849  20.610  24.925  1.00  0.00     0.211 C 
ATOM      7  C   UNL A   1      46.045  23.416  26.175  1.00  0.00     0.332 C 
ATOM      8  N   UNL A   1      44.671  22.994  25.936  1.00  0.00    -0.333 N 
ATOM      9  C   UNL A   1      44.179  23.408  24.614  1.00  0.00     0.290 C 
ATOM     10  C   UNL A   1      44.443  21.545  26.102  1.00  0.00     0.310 C 
ATOM     11  H   UNL A   1      44.140  23.475  26.662  1.00  0.00     0.348 HD
ATOM     12  C   UNL A   1      44.731  22.549  23.471  1.00  0.00     0.223 C 
ATOM     13  O   UNL A   1      44.441  21.161  23.649  1.00  0.00    -0.353 OA
ATOM     14  C   UNL A   1      46.344  20.286  24.877  1.00  0.00     0.061 C 
ENDBRANCH   4   6
ENDBRANCH   3   4
ENDBRANCH   2   3
ENDBRANCH   1   2
BRANCH   1  15
ATOM     15  O   UNL A   1      40.353  20.661  26.972  1.00  0.00    -0.458 OA
BRANCH  15  16
ATOM     16  C   UNL A   1      39.544  21.612  26.454  1.00  0.00     0.338 C 
ATOM     17  O   UNL A   1      38.598  21.462  25.702  1.00  0.00    -0.246 OA
BRANCH  16  18
ATOM     18  C   UNL A   1      39.921  22.920  27.006  1.00  0.00     0.060 A 
ATOM     19  C   UNL A   1      39.328  24.060  26.464  1.00  0.00     0.016 A 
ATOM     20  C   UNL A   1      40.928  23.032  27.965  1.00  0.00     0.016 A 
ATOM     21  C   UNL A   1      39.747  25.325  26.862  1.00  0.00     0.010 A 
ATOM     22  C   UNL A   1      41.338  24.306  28.380  1.00  0.00     0.010 A 
ATOM     23  C   UNL A   1      40.763  25.460  27.817  1.00  0.00    -0.014 A 
BRANCH  23  24
ATOM     24  C   UNL A   1      41.271  26.811  28.163  1.00  0.00     0.031 A 
ATOM     25  C   UNL A   1      42.710  27.154  27.910  1.00  0.00     0.074 A 
ATOM     26  C   UNL A   1      40.438  27.741  28.665  1.00  0.00     0.049 A 
ATOM     27  N   UNL A   1      43.372  28.239  28.222  1.00  0.00    -0.248 NA
ATOM     28  C   UNL A   1      43.512  26.141  27.207  1.00  0.00     0.031 C 
ATOM     29  C   UNL A   1      39.008  27.553  28.904  1.00  0.00     0.029 A 
ATOM     30  N   UNL A   1      40.679  29.034  29.058  1.00  0.00    -0.354 N 
ATOM     31  C   UNL A   1      44.673  28.027  27.787  1.00  0.00     0.074 A 
ATOM     32  C   UNL A   1      44.709  26.709  27.186  1.00  0.00     0.031 C 
ATOM     33  C   UNL A   1      38.494  28.693  29.392  1.00  0.00     0.029 A 
ATOM     34  C   UNL A   1      39.566  29.674  29.543  1.00  0.00     0.049 A 
ATOM     35  H   UNL A   1      41.563  29.461  28.997  1.00  0.00     0.167 HD
ATOM     36  C   UNL A   1      45.740  28.855  27.882  1.00  0.00     0.037 A 
ATOM     37  C   UNL A   1      39.432  30.905  30.074  1.00  0.00     0.037 A 
ATOM     38  C   UNL A   1      45.700  30.176  28.450  1.00  0.00     0.049 A 
ATOM     39  C   UNL A   1      40.637  31.795  30.195  1.00  0.00     0.074 A 
ATOM     40  C   UNL A   1      46.731  31.088  28.594  1.00  0.00     0.029 A 
ATOM     41  N   UNL A   1      44.560  30.777  28.960  1.00  0.00    -0.354 N 
ATOM     42  N   UNL A   1      41.874  31.567  29.825  1.00  0.00    -0.248 NA
ATOM     43  C   UNL A   1      40.430  33.109  30.820  1.00  0.00     0.031 C 
ATOM     44  C   UNL A   1      46.219  32.234  29.213  1.00  0.00     0.029 A 
ATOM     45  C   UNL A   1      44.864  32.047  29.428  1.00  0.00     0.049 A 
ATOM     46  H   UNL A   1      43.667  30.365  28.986  1.00  0.00     0.167 HD
ATOM     47  C   UNL A   1      42.590  32.703  30.170  1.00  0.00     0.074 A 
ATOM     48  C   UNL A   1      41.648  33.631  30.760  1.00  0.00     0.031 C 
ATOM     49  C   UNL A   1      43.913  32.953  30.018  1.00  0.00     0.037 A 
BRANCH  36  50
ATOM     50  C   UNL A   1      47.055  28.336  27.386  1.00  0.00     0.064 A 
ATOM     51  C   UNL A   1      48.010  27.799  28.258  1.00  0.00     0.173 A 
ATOM     52  C   UNL A   1      47.351  28.361  26.015  1.00  0.00     0.173 A 
ATOM     53  F   UNL A   1      47.778  27.769  29.579  1.00  0.00    -0.203 F 
ATOM     54  C   UNL A   1      49.228  27.323  27.777  1.00  0.00     0.198 A 
ATOM     55  C   UNL A   1      48.560  27.866  25.535  1.00  0.00     0.198 A 
ATOM     56  F   UNL A   1      46.466  28.864  25.141  1.00  0.00    -0.203 F 
ATOM     57  F   UNL A   1      50.145  26.848  28.631  1.00  0.00    -0.200 F 
ATOM     58  C   UNL A   1      49.500  27.352  26.416  1.00  0.00     0.200 A 
ATOM     59  F   UNL A   1      48.818  27.890  24.220  1.00  0.00    -0.200 F 
ATOM     60  F   UNL A   1      50.671  26.894  25.956  1.00  0.00    -0.200 F 
ENDBRANCH  36  50
BRANCH  37  61
ATOM     61  C   UNL A   1      38.102  31.354  30.553  1.00  0.00     0.064 A 
ATOM     62  C   UNL A   1      37.771  31.305  31.913  1.00  0.00     0.173 A 
ATOM     63  C   UNL A   1      37.142  31.854  29.661  1.00  0.00     0.173 A 
ATOM     64  F   UNL A   1      38.649  30.808  32.797  1.00  0.00    -0.203 F 
ATOM     65  C   UNL A   1      36.526  31.738  32.365  1.00  0.00     0.198 A 
ATOM     66  C   UNL A   1      35.905  32.306  30.116  1.00  0.00     0.198 A 
ATOM     67  F   UNL A   1      37.411  31.914  28.349  1.00  0.00    -0.203 F 
ATOM     68  F   UNL A   1      36.222  31.654  33.666  1.00  0.00    -0.200 F 
ATOM     69  C   UNL A   1      35.598  32.245  31.467  1.00  0.00     0.200 A 
ATOM     70  F   UNL A   1      35.013  32.800  29.247  1.00  0.00    -0.200 F 
ATOM     71  F   UNL A   1      34.404  32.668  31.903  1.00  0.00    -0.200 F 
ENDBRANCH  37  61
BRANCH  49  72
ATOM     72  C   UNL A   1      44.417  34.281  30.493  1.00  0.00     0.064 A 
ATOM     73  C   UNL A   1      44.396  35.407  29.659  1.00  0.00     0.173 A 
ATOM     74  C   UNL A   1      44.888  34.437  31.805  1.00  0.00     0.173 A 
ATOM     75  F   UNL A   1      43.967  35.299  28.393  1.00  0.00    -0.203 F 
ATOM     76  C   UNL A   1      44.844  36.643  30.117  1.00  0.00     0.198 A 
ATOM     77  C   UNL A   1      45.318  35.678  32.265  1.00  0.00     0.198 A 
ATOM     78  F   UNL A   1      44.924  33.388  32.641  1.00  0.00    -0.203 F 
ATOM     79  F   UNL A   1      44.845  37.700  29.294  1.00  0.00    -0.200 F 
ATOM     80  C   UNL A   1      45.299  36.779  31.420  1.00  0.00     0.200 A 
ATOM     81  F   UNL A   1      45.754  35.811  33.526  1.00  0.00    -0.200 F 
ATOM     82  F   UNL A   1      45.728  37.969  31.860  1.00  0.00    -0.200 F 
ENDBRANCH  49  72
ENDBRANCH  23  24
ENDBRANCH  16  18
ENDBRANCH  15  16
ENDBRANCH   1  15
TORSDOF 11
ENDMDL
MODEL 2
REMARK VINA RESULT:     -11.3      0.083      1.199
REMARK SMILES C[N@H+]1CCO[C@](C)(C(=O)OCCOC(=O)c2ccc(-c3c4nc(c(-c5c(F)c(F)c(F)c(F)c5F)c5ccc([nH]5)c(-c5c(F)c(F)c(F)c(F)c5F)c5nc(c(-c6c(F)c(F)c(F)c(F)c6F)c6ccc3[nH]6)C=C5)C=C4)cc2)C1
REMARK SMILES IDX 12 1 11 2 10 3 8 4 9 5 6 6 1 7 2 8 3 9 79 10 4 12 5 13 7 14
REMARK SMILES IDX 13 15 14 16 15 17 16 18 17 19 78 20 18 21 77 22 19 23 20 24
REMARK SMILES IDX 21 25 71 26 22 27 76 28 70 29 72 30 23 31 75 32 69 33 68 34
REMARK SMILES IDX 24 36 56 37 36 38 55 39 37 40 40 41 54 42 73 43 38 44 39 45
REMARK SMILES IDX 53 47 74 48 41 49 25 50 26 51 34 52 27 53 28 54 32 55 35 56
REMARK SMILES IDX 29 57 30 58 33 59 31 60 57 61 58 62 66 63 59 64 60 65 64 66
REMARK SMILES IDX 67 67 61 68 62 69 65 70 63 71 42 72 43 73 51 74 44 75 45 76
REMARK SMILES IDX 49 77 52 78 46 79 47 80 50 81 48 82
REMARK H PARENT 2 11 72 35 40 46
REMARK Flexibility Score: inf
ROOT
ATOM      1  C   UNL A   1      40.541  19.537  26.140  1.00  0.00     0.275 C 
ENDROOT
BRANCH   1   2
ATOM      2  C   UNL A   1      42.015  19.132  26.224  1.00  0.00     0.274 C 
BRANCH   2   3
ATOM      3  O   UNL A   1      42.719  19.431  25.001  1.00  0.00    -0.460 OA
BRANCH   3   4
ATOM      4  C   UNL A   1      44.073  19.252  25.031  1.00  0.00     0.344 C 
ATOM      5  O   UNL A   1      44.610  18.154  25.136  1.00  0.00    -0.249 OA
BRANCH   4   6
ATOM      6  C   UNL A   1      44.847  20.595  24.962  1.00  0.00     0.211 C 
ATOM      7  C   UNL A   1      46.031  23.367  26.295  1.00  0.00     0.332 C 
ATOM      8  N   UNL A   1      44.665  22.978  25.972  1.00  0.00    -0.333 N 
ATOM      9  C   UNL A   1      44.262  23.409  24.625  1.00  0.00     0.290 C 
ATOM     10  C   UNL A   1      44.394  21.534  26.117  1.00  0.00     0.310 C 
ATOM     11  H   UNL A   1      44.103  23.469  26.668  1.00  0.00     0.348 HD
ATOM     12  C   UNL A   1      44.860  22.541  23.513  1.00  0.00     0.223 C 
ATOM     13  O   UNL A   1      44.528  21.160  23.666  1.00  0.00    -0.353 OA
ATOM     14  C   UNL A   1      46.334  20.235  25.000  1.00  0.00     0.061 C 
ENDBRANCH   4   6
ENDBRANCH   3   4
ENDBRANCH   2   3
ENDBRANCH   1   2
BRANCH   1  15
ATOM     15  O   UNL A   1      40.274  20.663  26.994  1.00  0.00    -0.458 OA
BRANCH  15  16
ATOM     16  C   UNL A   1      39.467  21.617  26.479  1.00  0.00     0.338 C 
ATOM     17  O   UNL A   1      38.516  21.470  25.733  1.00  0.00    -0.246 OA
BRANCH  16  18
ATOM     18  C   UNL A   1      39.854  22.924  27.026  1.00  0.00     0.060 A 
ATOM     19  C   UNL A   1      39.253  24.065  26.494  1.00  0.00     0.016 A 
ATOM     20  C   UNL A   1      40.876  23.035  27.968  1.00  0.00     0.016 A 
ATOM     21  C   UNL A   1      39.679  25.330  26.886  1.00  0.00     0.010 A 
ATOM     22  C   UNL A   1      41.294  24.308  28.377  1.00  0.00     0.010 A 
ATOM     23  C   UNL A   1      40.711  25.464  27.824  1.00  0.00    -0.014 A 
BRANCH  23  24
ATOM     24  C   UNL A   1      41.226  26.813  28.162  1.00  0.00     0.031 A 
ATOM     25  C   UNL A   1      42.664  27.151  27.897  1.00  0.00     0.074 A 
ATOM     26  C   UNL A   1      40.400  27.747  28.668  1.00  0.00     0.049 A 
ATOM     27  N   UNL A   1      43.332  28.235  28.202  1.00  0.00    -0.248 NA
ATOM     28  C   UNL A   1      43.458  26.134  27.191  1.00  0.00     0.031 C 
ATOM     29  C   UNL A   1      38.971  27.564  28.918  1.00  0.00     0.029 A 
ATOM     30  N   UNL A   1      40.647  29.040  29.055  1.00  0.00    -0.354 N 
ATOM     31  C   UNL A   1      44.628  28.017  27.757  1.00  0.00     0.074 A 
ATOM     32  C   UNL A   1      44.656  26.698  27.160  1.00  0.00     0.031 C 
ATOM     33  C   UNL A   1      38.464  28.707  29.406  1.00  0.00     0.029 A 
ATOM     34  C   UNL A   1      39.540  29.685  29.547  1.00  0.00     0.049 A 
ATOM     35  H   UNL A   1      41.532  29.465  28.987  1.00  0.00     0.167 HD
ATOM     36  C   UNL A   1      45.699  28.843  27.842  1.00  0.00     0.037 A 
ATOM     37  C   UNL A   1      39.413  30.918  30.075  1.00  0.00     0.037 A 
ATOM     38  C   UNL A   1      45.667  30.166  28.407  1.00  0.00     0.049 A 
ATOM     39  C   UNL A   1      40.622  31.805  30.184  1.00  0.00     0.074 A 
ATOM     40  C   UNL A   1      46.702  31.075  28.541  1.00  0.00     0.029 A 
ATOM     41  N   UNL A   1      44.533  30.772  28.924  1.00  0.00    -0.354 N 
ATOM     42  N   UNL A   1      41.855  31.572  29.806  1.00  0.00    -0.248 NA
ATOM     43  C   UNL A   1      40.424  33.121  30.808  1.00  0.00     0.031 C 
ATOM     44  C   UNL A   1      46.198  32.224  29.161  1.00  0.00     0.029 A 
ATOM     45  C   UNL A   1      44.844  32.041  29.386  1.00  0.00     0.049 A 
ATOM     46  H   UNL A   1      43.639  30.362  28.958  1.00  0.00     0.167 HD
ATOM     47  C   UNL A   1      42.578  32.707  30.142  1.00  0.00     0.074 A 
ATOM     48  C   UNL A   1      41.643  33.640  30.737  1.00  0.00     0.031 C 
ATOM     49  C   UNL A   1      43.901  32.952  29.980  1.00  0.00     0.037 A 
BRANCH  36  50
ATOM     50  C   UNL A   1      47.008  28.318  27.338  1.00  0.00     0.064 A 
ATOM     51  C   UNL A   1      47.973  27.791  28.206  1.00  0.00     0.173 A 
ATOM     52  C   UNL A   1      47.289  28.327  25.964  1.00  0.00     0.173 A 
ATOM     53  F   UNL A   1      47.756  27.776  29.529  1.00  0.00    -0.203 F 
ATOM     54  C   UNL A   1      49.185  27.310  27.717  1.00  0.00     0.198 A 
ATOM     55  C   UNL A   1      48.494  27.828  25.476  1.00  0.00     0.198 A 
ATOM     56  F   UNL A   1      46.395  28.821  25.094  1.00  0.00    -0.203 F 
ATOM     57  F   UNL A   1      50.112  26.844  28.566  1.00  0.00    -0.200 F 
ATOM     58  C   UNL A   1      49.443  27.324  26.353  1.00  0.00     0.200 A 
ATOM     59  F   UNL A   1      48.738  27.837  24.158  1.00  0.00    -0.200 F 
ATOM     60  F   UNL A   1      50.609  26.860  25.886  1.00  0.00    -0.200 F 
ENDBRANCH  36  50
BRANCH  37  61
ATOM     61  C   UNL A   1      38.089  31.373  30.563  1.00  0.00     0.064 A 
ATOM     62  C   UNL A   1      37.750  31.284  31.919  1.00  0.00     0.173 A 
ATOM     63  C   UNL A   1      37.141  31.918  29.684  1.00  0.00     0.173 A 
ATOM     64  F   UNL A   1      38.615  30.743  32.790  1.00  0.00    -0.203 F 
ATOM     65  C   UNL A   1      36.510  31.721  32.379  1.00  0.00     0.198 A 
ATOM     66  C   UNL A   1      35.910  32.375  30.148  1.00  0.00     0.198 A 
ATOM     67  F   UNL A   1      37.418  32.018  28.376  1.00  0.00    -0.203 F 
ATOM     68  F   UNL A   1      36.197  31.599  33.676  1.00  0.00    -0.200 F 
ATOM     69  C   UNL A   1      35.595  32.274  31.494  1.00  0.00     0.200 A 
ATOM     70  F   UNL A   1      35.031  32.913  29.292  1.00  0.00    -0.200 F 
ATOM     71  F   UNL A   1      34.405  32.701  31.939  1.00  0.00    -0.200 F 
ENDBRANCH  37  61
BRANCH  49  72
ATOM     72  C   UNL A   1      44.412  34.280  30.448  1.00  0.00     0.064 A 
ATOM     73  C   UNL A   1      44.925  34.446  31.742  1.00  0.00     0.173 A 
ATOM     74  C   UNL A   1      44.425  35.384  29.584  1.00  0.00     0.173 A 
ATOM     75  F   UNL A   1      44.918  33.420  32.606  1.00  0.00    -0.203 F 
ATOM     76  C   UNL A   1      45.420  35.678  32.160  1.00  0.00     0.198 A 
ATOM     77  C   UNL A   1      44.938  36.610  30.000  1.00  0.00     0.198 A 
ATOM     78  F   UNL A   1      43.947  35.272  28.335  1.00  0.00    -0.203 F 
ATOM     79  F   UNL A   1      45.877  35.824  33.412  1.00  0.00    -0.200 F 
ATOM     80  C   UNL A   1      45.431  36.756  31.289  1.00  0.00     0.200 A 
ATOM     81  F   UNL A   1      44.953  37.650  29.155  1.00  0.00    -0.200 F 
ATOM     82  F   UNL A   1      45.910  37.940  31.692  1.00  0.00    -0.200 F 
ENDBRANCH  49  72
ENDBRANCH  23  24
ENDBRANCH  16  18
ENDBRANCH  15  16
ENDBRANCH   1  15
TORSDOF 11
ENDMDL
MODEL 3
REMARK VINA RESULT:     -11.3      0.146      1.697
REMARK SMILES C[N@H+]1CCO[C@](C)(C(=O)OCCOC(=O)c2ccc(-c3c4nc(c(-c5c(F)c(F)c(F)c(F)c5F)c5ccc([nH]5)c(-c5c(F)c(F)c(F)c(F)c5F)c5nc(c(-c6c(F)c(F)c(F)c(F)c6F)c6ccc3[nH]6)C=C5)C=C4)cc2)C1
REMARK SMILES IDX 12 1 11 2 10 3 8 4 9 5 6 6 1 7 2 8 3 9 79 10 4 12 5 13 7 14
REMARK SMILES IDX 13 15 14 16 15 17 16 18 17 19 78 20 18 21 77 22 19 23 20 24
REMARK SMILES IDX 21 25 71 26 22 27 76 28 70 29 72 30 23 31 75 32 69 33 68 34
REMARK SMILES IDX 24 36 56 37 36 38 55 39 37 40 40 41 54 42 73 43 38 44 39 45
REMARK SMILES IDX 53 47 74 48 41 49 25 50 26 51 34 52 27 53 28 54 32 55 35 56
REMARK SMILES IDX 29 57 30 58 33 59 31 60 57 61 58 62 66 63 59 64 60 65 64 66
REMARK SMILES IDX 67 67 61 68 62 69 65 70 63 71 42 72 43 73 51 74 44 75 45 76
REMARK SMILES IDX 49 77 52 78 46 79 47 80 50 81 48 82
REMARK H PARENT 2 11 72 35 40 46
REMARK Flexibility Score: inf
ROOT
ATOM      1  C   UNL A   1      40.611  19.552  26.122  1.00  0.00     0.275 C 
ENDROOT
BRANCH   1   2
ATOM      2  C   UNL A   1      42.071  19.105  26.212  1.00  0.00     0.274 C 
BRANCH   2   3
ATOM      3  O   UNL A   1      42.778  19.347  24.977  1.00  0.00    -0.460 OA
BRANCH   3   4
ATOM      4  C   UNL A   1      44.137  19.224  25.032  1.00  0.00     0.344 C 
ATOM      5  O   UNL A   1      44.716  18.153  25.188  1.00  0.00    -0.249 OA
BRANCH   4   6
ATOM      6  C   UNL A   1      44.858  20.593  24.918  1.00  0.00     0.211 C 
ATOM      7  C   UNL A   1      46.019  23.407  26.181  1.00  0.00     0.332 C 
ATOM      8  N   UNL A   1      44.651  22.971  25.937  1.00  0.00    -0.333 N 
ATOM      9  C   UNL A   1      44.156  23.384  24.616  1.00  0.00     0.290 C 
ATOM     10  C   UNL A   1      44.440  21.518  26.098  1.00  0.00     0.310 C 
ATOM     11  H   UNL A   1      44.112  23.442  26.664  1.00  0.00     0.348 HD
ATOM     12  C   UNL A   1      44.720  22.535  23.471  1.00  0.00     0.223 C 
ATOM     13  O   UNL A   1      44.446  21.143  23.643  1.00  0.00    -0.353 OA
ATOM     14  C   UNL A   1      46.357  20.286  24.871  1.00  0.00     0.061 C 
ENDBRANCH   4   6
ENDBRANCH   3   4
ENDBRANCH   2   3
ENDBRANCH   1   2
BRANCH   1  15
ATOM     15  O   UNL A   1      40.372  20.684  26.977  1.00  0.00    -0.458 OA
BRANCH  15  16
ATOM     16  C   UNL A   1      39.555  21.638  26.479  1.00  0.00     0.338 C 
ATOM     17  O   UNL A   1      38.593  21.494  25.748  1.00  0.00    -0.246 OA
BRANCH  16  18
ATOM     18  C   UNL A   1      39.949  22.944  27.027  1.00  0.00     0.060 A 
ATOM     19  C   UNL A   1      39.358  24.088  26.491  1.00  0.00     0.016 A 
ATOM     20  C   UNL A   1      40.966  23.049  27.974  1.00  0.00     0.016 A 
ATOM     21  C   UNL A   1      39.791  25.351  26.884  1.00  0.00     0.010 A 
ATOM     22  C   UNL A   1      41.391  24.319  28.384  1.00  0.00     0.010 A 
ATOM     23  C   UNL A   1      40.819  25.478  27.827  1.00  0.00    -0.014 A 
BRANCH  23  24
ATOM     24  C   UNL A   1      41.341  26.825  28.166  1.00  0.00     0.031 A 
ATOM     25  C   UNL A   1      42.778  27.159  27.890  1.00  0.00     0.074 A 
ATOM     26  C   UNL A   1      40.523  27.759  28.684  1.00  0.00     0.049 A 
ATOM     27  N   UNL A   1      43.452  28.240  28.193  1.00  0.00    -0.248 NA
ATOM     28  C   UNL A   1      43.562  26.142  27.172  1.00  0.00     0.031 C 
ATOM     29  C   UNL A   1      39.096  27.580  28.947  1.00  0.00     0.029 A 
ATOM     30  N   UNL A   1      40.778  29.050  29.075  1.00  0.00    -0.354 N 
ATOM     31  C   UNL A   1      44.743  28.020  27.735  1.00  0.00     0.074 A 
ATOM     32  C   UNL A   1      44.762  26.703  27.132  1.00  0.00     0.031 C 
ATOM     33  C   UNL A   1      38.597  28.722  29.445  1.00  0.00     0.029 A 
ATOM     34  C   UNL A   1      39.677  29.696  29.580  1.00  0.00     0.049 A 
ATOM     35  H   UNL A   1      41.664  29.472  29.000  1.00  0.00     0.167 HD
ATOM     36  C   UNL A   1      45.818  28.841  27.813  1.00  0.00     0.037 A 
ATOM     37  C   UNL A   1      39.560  30.927  30.114  1.00  0.00     0.037 A 
ATOM     38  C   UNL A   1      45.795  30.162  28.385  1.00  0.00     0.049 A 
ATOM     39  C   UNL A   1      40.773  31.809  30.216  1.00  0.00     0.074 A 
ATOM     40  C   UNL A   1      46.835  31.067  28.513  1.00  0.00     0.029 A 
ATOM     41  N   UNL A   1      44.668  30.769  28.915  1.00  0.00    -0.354 N 
ATOM     42  N   UNL A   1      42.001  31.574  29.826  1.00  0.00    -0.248 NA
ATOM     43  C   UNL A   1      40.585  33.123  30.848  1.00  0.00     0.031 C 
ATOM     44  C   UNL A   1      46.340  32.215  29.143  1.00  0.00     0.029 A 
ATOM     45  C   UNL A   1      44.988  32.036  29.380  1.00  0.00     0.049 A 
ATOM     46  H   UNL A   1      43.773  30.362  28.955  1.00  0.00     0.167 HD
ATOM     47  C   UNL A   1      42.731  32.705  30.160  1.00  0.00     0.074 A 
ATOM     48  C   UNL A   1      41.804  33.638  30.768  1.00  0.00     0.031 C 
ATOM     49  C   UNL A   1      44.053  32.947  29.987  1.00  0.00     0.037 A 
BRANCH  36  50
ATOM     50  C   UNL A   1      47.121  28.315  27.295  1.00  0.00     0.064 A 
ATOM     51  C   UNL A   1      48.090  27.775  28.151  1.00  0.00     0.173 A 
ATOM     52  C   UNL A   1      47.391  28.335  25.919  1.00  0.00     0.173 A 
ATOM     53  F   UNL A   1      47.882  27.750  29.476  1.00  0.00    -0.203 F 
ATOM     54  C   UNL A   1      49.295  27.292  27.649  1.00  0.00     0.198 A 
ATOM     55  C   UNL A   1      48.590  27.833  25.418  1.00  0.00     0.198 A 
ATOM     56  F   UNL A   1      46.493  28.840  25.060  1.00  0.00    -0.203 F 
ATOM     57  F   UNL A   1      50.226  26.815  28.487  1.00  0.00    -0.200 F 
ATOM     58  C   UNL A   1      49.543  27.318  26.283  1.00  0.00     0.200 A 
ATOM     59  F   UNL A   1      48.823  27.853  24.098  1.00  0.00    -0.200 F 
ATOM     60  F   UNL A   1      50.703  26.852  25.802  1.00  0.00    -0.200 F 
ENDBRANCH  36  50
BRANCH  37  61
ATOM     61  C   UNL A   1      38.241  31.384  30.616  1.00  0.00     0.064 A 
ATOM     62  C   UNL A   1      37.269  31.883  29.740  1.00  0.00     0.173 A 
ATOM     63  C   UNL A   1      37.923  31.317  31.981  1.00  0.00     0.173 A 
ATOM     64  F   UNL A   1      37.541  31.991  28.431  1.00  0.00    -0.203 F 
ATOM     65  C   UNL A   1      36.027  32.302  30.210  1.00  0.00     0.198 A 
ATOM     66  C   UNL A   1      36.673  31.716  32.447  1.00  0.00     0.198 A 
ATOM     67  F   UNL A   1      38.824  30.852  32.858  1.00  0.00    -0.203 F 
ATOM     68  F   UNL A   1      35.124  32.804  29.357  1.00  0.00    -0.200 F 
ATOM     69  C   UNL A   1      35.727  32.211  31.562  1.00  0.00     0.200 A 
ATOM     70  F   UNL A   1      36.385  31.621  33.752  1.00  0.00    -0.200 F 
ATOM     71  F   UNL A   1      34.529  32.607  32.012  1.00  0.00    -0.200 F 
ENDBRANCH  37  61
BRANCH  49  72
ATOM     72  C   UNL A   1      44.573  34.271  30.456  1.00  0.00     0.064 A 
ATOM     73  C   UNL A   1      45.097  34.430  31.746  1.00  0.00     0.173 A 
ATOM     74  C   UNL A   1      44.583  35.378  29.596  1.00  0.00     0.173 A 
ATOM     75  F   UNL A   1      45.094  33.400  32.606  1.00  0.00    -0.203 F 
ATOM     76  C   UNL A   1      45.600  35.658  32.165  1.00  0.00     0.198 A 
ATOM     77  C   UNL A   1      45.103  36.601  30.013  1.00  0.00     0.198 A 
ATOM     78  F   UNL A   1      44.094  35.273  28.351  1.00  0.00    -0.203 F 
ATOM     79  F   UNL A   1      46.068  35.797  33.413  1.00  0.00    -0.200 F 
ATOM     80  C   UNL A   1      45.607  36.740  31.298  1.00  0.00     0.200 A 
ATOM     81  F   UNL A   1      45.114  37.645  29.172  1.00  0.00    -0.200 F 
ATOM     82  F   UNL A   1      46.094  37.921  31.702  1.00  0.00    -0.200 F 
ENDBRANCH  49  72
ENDBRANCH  23  24
ENDBRANCH  16  18
ENDBRANCH  15  16
ENDBRANCH   1  15
TORSDOF 11
ENDMDL
