MODEL 1
REMARK VINA RESULT:     -11.2      0.000      0.000
REMARK SMILES Cc1csc(=O)n1CC(=O)N[C@@H](C(=O)OCCOC(=O)c1ccc(-c2c3nc(c(-c4c(F)c(F)c(F)c(F)c4F)c4ccc([nH]4)c(-c4c(F)c(F)c(F)c(F)c4F)c4nc(c(-c5c(F)c(F)c(F)c(F)c5F)c5ccc2[nH]5)C=C4)C=C3)cc1)[C@@H](C)O
REMARK SMILES IDX 16 1 15 2 13 3 14 4 12 5 11 6 9 7 10 8 8 10 7 11 1 12 2 13
REMARK SMILES IDX 3 14 4 15 5 16 6 17 84 18 85 19 86 20 17 22 18 23 19 24
REMARK SMILES IDX 20 25 21 26 22 27 83 28 23 29 82 30 24 31 25 32 26 33 76 34
REMARK SMILES IDX 27 35 81 36 75 37 77 38 28 39 80 40 74 41 73 42 29 44 61 45
REMARK SMILES IDX 41 46 60 47 42 48 45 49 59 50 78 51 43 52 44 53 58 55 79 56
REMARK SMILES IDX 46 57 30 58 31 59 39 60 32 61 33 62 37 63 40 64 34 65 35 66
REMARK SMILES IDX 38 67 36 68 62 69 63 70 71 71 64 72 65 73 69 74 72 75 66 76
REMARK SMILES IDX 67 77 70 78 68 79 47 80 48 81 56 82 49 83 50 84 54 85 57 86
REMARK SMILES IDX 51 87 52 88 55 89 53 90
REMARK H PARENT 11 9 86 21 77 43 45 54
REMARK Flexibility Score: inf
ROOT
ATOM      1  C   UNL A   1      34.401  34.920  27.655  1.00  0.00     0.274 C 
ENDROOT
BRANCH   1   2
ATOM      2  O   UNL A   1      34.501  35.711  28.852  1.00  0.00    -0.460 OA
BRANCH   2   3
ATOM      3  C   UNL A   1      33.364  35.885  29.585  1.00  0.00     0.331 C 
ATOM      4  O   UNL A   1      32.259  36.123  29.107  1.00  0.00    -0.250 OA
BRANCH   3   5
ATOM      5  C   UNL A   1      33.640  35.864  31.102  1.00  0.00     0.221 C 
BRANCH   5   6
ATOM      6  N   UNL A   1      33.236  34.618  31.753  1.00  0.00    -0.339 N 
ATOM      7  C   UNL A   1      34.003  33.558  32.130  1.00  0.00     0.240 C 
ATOM      8  O   UNL A   1      33.532  32.758  32.940  1.00  0.00    -0.273 OA
ATOM      9  H   UNL A   1      32.274  34.535  31.947  1.00  0.00     0.164 HD
BRANCH   7  10
ATOM     10  C   UNL A   1      35.467  33.468  31.672  1.00  0.00     0.226 C 
BRANCH  10  11
ATOM     11  N   UNL A   1      36.353  33.048  32.749  1.00  0.00    -0.294 N 
ATOM     12  C   UNL A   1      36.520  30.546  32.205  1.00  0.00     0.065 C 
ATOM     13  C   UNL A   1      36.834  31.767  33.011  1.00  0.00     0.029 A 
ATOM     14  C   UNL A   1      37.612  31.714  34.104  1.00  0.00     0.091 A 
ATOM     15  S   UNL A   1      37.857  33.269  34.823  1.00  0.00    -0.082 S 
ATOM     16  C   UNL A   1      36.836  34.038  33.605  1.00  0.00     0.307 A 
ATOM     17  O   UNL A   1      36.618  35.240  33.571  1.00  0.00    -0.257 OA
ENDBRANCH  10  11
ENDBRANCH   7  10
ENDBRANCH   5   6
BRANCH   5  18
ATOM     18  C   UNL A   1      33.083  37.094  31.858  1.00  0.00     0.145 C 
ATOM     19  C   UNL A   1      33.913  37.367  33.116  1.00  0.00     0.041 C 
BRANCH  18  20
ATOM     20  O   UNL A   1      33.126  38.315  31.114  1.00  0.00    -0.391 OA
ATOM     21  H   UNL A   1      33.297  38.118  30.180  1.00  0.00     0.211 HD
ENDBRANCH  18  20
ENDBRANCH   5  18
ENDBRANCH   3   5
ENDBRANCH   2   3
ENDBRANCH   1   2
BRANCH   1  22
ATOM     22  C   UNL A   1      34.220  33.456  28.019  1.00  0.00     0.275 C 
BRANCH  22  23
ATOM     23  O   UNL A   1      35.466  32.759  27.983  1.00  0.00    -0.458 OA
BRANCH  23  24
ATOM     24  C   UNL A   1      35.353  31.416  27.955  1.00  0.00     0.338 C 
ATOM     25  O   UNL A   1      34.395  30.740  27.619  1.00  0.00    -0.246 OA
BRANCH  24  26
ATOM     26  C   UNL A   1      36.499  30.815  28.617  1.00  0.00     0.060 A 
ATOM     27  C   UNL A   1      37.510  31.681  29.046  1.00  0.00     0.016 A 
ATOM     28  C   UNL A   1      36.691  29.436  28.477  1.00  0.00     0.016 A 
ATOM     29  C   UNL A   1      38.777  31.179  29.191  1.00  0.00     0.010 A 
ATOM     30  C   UNL A   1      37.960  28.939  28.608  1.00  0.00     0.010 A 
ATOM     31  C   UNL A   1      38.992  29.830  28.897  1.00  0.00    -0.014 A 
BRANCH  31  32
ATOM     32  C   UNL A   1      40.328  29.312  29.064  1.00  0.00     0.031 A 
ATOM     33  C   UNL A   1      40.700  29.193  30.495  1.00  0.00     0.074 A 
ATOM     34  C   UNL A   1      41.037  28.868  28.011  1.00  0.00     0.049 A 
ATOM     35  N   UNL A   1      41.695  29.750  31.100  1.00  0.00    -0.248 NA
ATOM     36  C   UNL A   1      39.745  28.528  31.404  1.00  0.00     0.031 C 
ATOM     37  C   UNL A   1      40.606  28.739  26.617  1.00  0.00     0.029 A 
ATOM     38  N   UNL A   1      42.273  28.306  28.000  1.00  0.00    -0.354 N 
ATOM     39  C   UNL A   1      41.601  29.344  32.427  1.00  0.00     0.074 A 
ATOM     40  C   UNL A   1      40.299  28.762  32.592  1.00  0.00     0.031 C 
ATOM     41  C   UNL A   1      41.457  27.916  25.962  1.00  0.00     0.029 A 
ATOM     42  C   UNL A   1      42.546  27.566  26.855  1.00  0.00     0.049 A 
ATOM     43  H   UNL A   1      42.917  28.413  28.737  1.00  0.00     0.167 HD
ATOM     44  C   UNL A   1      42.713  29.279  33.206  1.00  0.00     0.037 A 
ATOM     45  C   UNL A   1      43.538  26.645  26.746  1.00  0.00     0.037 A 
ATOM     46  C   UNL A   1      43.756  30.120  32.677  1.00  0.00     0.049 A 
ATOM     47  C   UNL A   1      44.514  26.921  27.840  1.00  0.00     0.074 A 
ATOM     48  C   UNL A   1      43.853  31.475  32.420  1.00  0.00     0.029 A 
ATOM     49  N   UNL A   1      44.759  29.528  31.948  1.00  0.00    -0.354 N 
ATOM     50  N   UNL A   1      45.258  27.992  27.882  1.00  0.00    -0.248 NA
ATOM     51  C   UNL A   1      44.274  26.275  29.125  1.00  0.00     0.031 C 
ATOM     52  C   UNL A   1      44.562  31.565  31.187  1.00  0.00     0.029 A 
ATOM     53  C   UNL A   1      44.933  30.274  30.810  1.00  0.00     0.049 A 
ATOM     54  H   UNL A   1      45.260  28.718  32.196  1.00  0.00     0.167 HD
ATOM     55  C   UNL A   1      45.216  28.399  29.209  1.00  0.00     0.074 A 
ATOM     56  C   UNL A   1      44.635  27.272  29.938  1.00  0.00     0.031 C 
ATOM     57  C   UNL A   1      45.365  29.711  29.555  1.00  0.00     0.037 A 
BRANCH  44  58
ATOM     58  C   UNL A   1      42.985  28.153  34.175  1.00  0.00     0.064 A 
ATOM     59  C   UNL A   1      43.202  28.471  35.531  1.00  0.00     0.173 A 
ATOM     60  C   UNL A   1      43.355  26.844  33.792  1.00  0.00     0.173 A 
ATOM     61  F   UNL A   1      42.891  29.686  36.006  1.00  0.00    -0.203 F 
ATOM     62  C   UNL A   1      43.840  27.585  36.402  1.00  0.00     0.198 A 
ATOM     63  C   UNL A   1      43.944  25.946  34.679  1.00  0.00     0.198 A 
ATOM     64  F   UNL A   1      43.272  26.408  32.531  1.00  0.00    -0.203 F 
ATOM     65  F   UNL A   1      44.152  27.986  37.641  1.00  0.00    -0.200 F 
ATOM     66  C   UNL A   1      44.222  26.329  35.971  1.00  0.00     0.200 A 
ATOM     67  F   UNL A   1      44.319  24.737  34.235  1.00  0.00    -0.200 F 
ATOM     68  F   UNL A   1      44.898  25.506  36.783  1.00  0.00    -0.200 F 
ENDBRANCH  44  58
BRANCH  45  69
ATOM     69  C   UNL A   1      43.491  25.350  26.021  1.00  0.00     0.064 A 
ATOM     70  C   UNL A   1      44.516  24.975  25.137  1.00  0.00     0.173 A 
ATOM     71  C   UNL A   1      42.576  24.337  26.377  1.00  0.00     0.173 A 
ATOM     72  F   UNL A   1      45.460  25.861  24.786  1.00  0.00    -0.203 F 
ATOM     73  C   UNL A   1      44.624  23.667  24.649  1.00  0.00     0.198 A 
ATOM     74  C   UNL A   1      42.681  23.036  25.884  1.00  0.00     0.198 A 
ATOM     75  F   UNL A   1      41.616  24.562  27.285  1.00  0.00    -0.203 F 
ATOM     76  F   UNL A   1      45.648  23.334  23.851  1.00  0.00    -0.200 F 
ATOM     77  C   UNL A   1      43.711  22.697  25.030  1.00  0.00     0.200 A 
ATOM     78  F   UNL A   1      41.812  22.100  26.293  1.00  0.00    -0.200 F 
ATOM     79  F   UNL A   1      43.847  21.432  24.609  1.00  0.00    -0.200 F 
ENDBRANCH  45  69
BRANCH  57  80
ATOM     80  C   UNL A   1      45.801  30.684  28.496  1.00  0.00     0.064 A 
ATOM     81  C   UNL A   1      44.926  31.321  27.600  1.00  0.00     0.173 A 
ATOM     82  C   UNL A   1      47.135  31.112  28.506  1.00  0.00     0.173 A 
ATOM     83  F   UNL A   1      43.614  31.048  27.604  1.00  0.00    -0.203 F 
ATOM     84  C   UNL A   1      45.379  32.309  26.725  1.00  0.00     0.198 A 
ATOM     85  C   UNL A   1      47.577  32.125  27.661  1.00  0.00     0.198 A 
ATOM     86  F   UNL A   1      48.004  30.581  29.382  1.00  0.00    -0.203 F 
ATOM     87  F   UNL A   1      44.526  32.896  25.873  1.00  0.00    -0.200 F 
ATOM     88  C   UNL A   1      46.702  32.715  26.764  1.00  0.00     0.200 A 
ATOM     89  F   UNL A   1      48.844  32.552  27.743  1.00  0.00    -0.200 F 
ATOM     90  F   UNL A   1      47.129  33.696  25.956  1.00  0.00    -0.200 F 
ENDBRANCH  57  80
ENDBRANCH  31  32
ENDBRANCH  24  26
ENDBRANCH  23  24
ENDBRANCH  22  23
ENDBRANCH   1  22
TORSDOF 16
ENDMDL
MODEL 2
REMARK VINA RESULT:     -10.9      1.583      2.216
REMARK SMILES Cc1csc(=O)n1CC(=O)N[C@@H](C(=O)OCCOC(=O)c1ccc(-c2c3nc(c(-c4c(F)c(F)c(F)c(F)c4F)c4ccc([nH]4)c(-c4c(F)c(F)c(F)c(F)c4F)c4nc(c(-c5c(F)c(F)c(F)c(F)c5F)c5ccc2[nH]5)C=C4)C=C3)cc1)[C@@H](C)O
REMARK SMILES IDX 16 1 15 2 13 3 14 4 12 5 11 6 9 7 10 8 8 10 7 11 1 12 2 13
REMARK SMILES IDX 3 14 4 15 5 16 6 17 84 18 85 19 86 20 17 22 18 23 19 24
REMARK SMILES IDX 20 25 21 26 22 27 83 28 23 29 82 30 24 31 25 32 26 33 76 34
REMARK SMILES IDX 27 35 81 36 75 37 77 38 28 39 80 40 74 41 73 42 29 44 61 45
REMARK SMILES IDX 41 46 60 47 42 48 45 49 59 50 78 51 43 52 44 53 58 55 79 56
REMARK SMILES IDX 46 57 30 58 31 59 39 60 32 61 33 62 37 63 40 64 34 65 35 66
REMARK SMILES IDX 38 67 36 68 62 69 63 70 71 71 64 72 65 73 69 74 72 75 66 76
REMARK SMILES IDX 67 77 70 78 68 79 47 80 48 81 56 82 49 83 50 84 54 85 57 86
REMARK SMILES IDX 51 87 52 88 55 89 53 90
REMARK H PARENT 11 9 86 21 77 43 45 54
REMARK Flexibility Score: inf
ROOT
ATOM      1  C   UNL A   1      35.139  34.243  28.719  1.00  0.00     0.274 C 
ENDROOT
BRANCH   1   2
ATOM      2  O   UNL A   1      33.774  34.150  29.165  1.00  0.00    -0.460 OA
BRANCH   2   3
ATOM      3  C   UNL A   1      33.193  35.287  29.647  1.00  0.00     0.331 C 
ATOM      4  O   UNL A   1      32.440  36.008  29.002  1.00  0.00    -0.250 OA
BRANCH   3   5
ATOM      5  C   UNL A   1      33.681  35.633  31.068  1.00  0.00     0.221 C 
BRANCH   5   6
ATOM      6  N   UNL A   1      33.421  34.580  32.049  1.00  0.00    -0.339 N 
ATOM      7  C   UNL A   1      34.298  33.718  32.636  1.00  0.00     0.240 C 
ATOM      8  O   UNL A   1      33.939  33.131  33.658  1.00  0.00    -0.273 OA
ATOM      9  H   UNL A   1      32.482  34.481  32.324  1.00  0.00     0.164 HD
BRANCH   7  10
ATOM     10  C   UNL A   1      35.741  33.618  32.118  1.00  0.00     0.226 C 
BRANCH  10  11
ATOM     11  N   UNL A   1      36.630  32.994  33.088  1.00  0.00    -0.294 N 
ATOM     12  C   UNL A   1      36.479  30.560  32.290  1.00  0.00     0.065 C 
ATOM     13  C   UNL A   1      36.974  31.647  33.191  1.00  0.00     0.029 A 
ATOM     14  C   UNL A   1      37.798  31.396  34.219  1.00  0.00     0.091 A 
ATOM     15  S   UNL A   1      38.259  32.830  35.071  1.00  0.00    -0.082 S 
ATOM     16  C   UNL A   1      37.268  33.829  34.004  1.00  0.00     0.307 A 
ATOM     17  O   UNL A   1      37.187  35.046  34.103  1.00  0.00    -0.257 OA
ENDBRANCH  10  11
ENDBRANCH   7  10
ENDBRANCH   5   6
BRANCH   5  18
ATOM     18  C   UNL A   1      33.189  37.007  31.582  1.00  0.00     0.145 C 
ATOM     19  C   UNL A   1      34.039  37.468  32.771  1.00  0.00     0.041 C 
BRANCH  18  20
ATOM     20  O   UNL A   1      33.286  38.067  30.626  1.00  0.00    -0.391 OA
ATOM     21  H   UNL A   1      33.373  37.691  29.736  1.00  0.00     0.211 HD
ENDBRANCH  18  20
ENDBRANCH   5  18
ENDBRANCH   3   5
ENDBRANCH   2   3
ENDBRANCH   1   2
BRANCH   1  22
ATOM     22  C   UNL A   1      35.489  33.026  27.879  1.00  0.00     0.275 C 
BRANCH  22  23
ATOM     23  O   UNL A   1      36.585  32.308  28.448  1.00  0.00    -0.458 OA
BRANCH  23  24
ATOM     24  C   UNL A   1      36.622  31.000  28.122  1.00  0.00     0.338 C 
ATOM     25  O   UNL A   1      35.862  30.372  27.403  1.00  0.00    -0.246 OA
BRANCH  24  26
ATOM     26  C   UNL A   1      37.609  30.319  28.945  1.00  0.00     0.060 A 
ATOM     27  C   UNL A   1      38.764  31.036  29.273  1.00  0.00     0.016 A 
ATOM     28  C   UNL A   1      37.520  28.928  29.061  1.00  0.00     0.016 A 
ATOM     29  C   UNL A   1      39.900  30.332  29.578  1.00  0.00     0.010 A 
ATOM     30  C   UNL A   1      38.659  28.226  29.351  1.00  0.00     0.010 A 
ATOM     31  C   UNL A   1      39.844  28.935  29.539  1.00  0.00    -0.014 A 
BRANCH  31  32
ATOM     32  C   UNL A   1      41.043  28.207  29.872  1.00  0.00     0.031 A 
ATOM     33  C   UNL A   1      41.321  28.233  31.329  1.00  0.00     0.074 A 
ATOM     34  C   UNL A   1      41.699  27.487  28.944  1.00  0.00     0.049 A 
ATOM     35  N   UNL A   1      42.376  28.678  31.923  1.00  0.00    -0.248 NA
ATOM     36  C   UNL A   1      40.214  27.902  32.248  1.00  0.00     0.031 C 
ATOM     37  C   UNL A   1      41.314  27.236  27.552  1.00  0.00     0.029 A 
ATOM     38  N   UNL A   1      42.800  26.708  29.099  1.00  0.00    -0.354 N 
ATOM     39  C   UNL A   1      42.146  28.497  33.283  1.00  0.00     0.074 A 
ATOM     40  C   UNL A   1      40.749  28.201  33.431  1.00  0.00     0.031 C 
ATOM     41  C   UNL A   1      42.016  26.181  27.080  1.00  0.00     0.029 A 
ATOM     42  C   UNL A   1      42.974  25.768  28.089  1.00  0.00     0.049 A 
ATOM     43  H   UNL A   1      43.418  26.800  29.860  1.00  0.00     0.167 HD
ATOM     44  C   UNL A   1      43.187  28.341  34.142  1.00  0.00     0.037 A 
ATOM     45  C   UNL A   1      43.769  24.673  28.179  1.00  0.00     0.037 A 
ATOM     46  C   UNL A   1      44.397  28.885  33.580  1.00  0.00     0.049 A 
ATOM     47  C   UNL A   1      44.730  24.919  29.294  1.00  0.00     0.074 A 
ATOM     48  C   UNL A   1      44.770  30.144  33.148  1.00  0.00     0.029 A 
ATOM     49  N   UNL A   1      45.297  28.013  33.013  1.00  0.00    -0.354 N 
ATOM     50  N   UNL A   1      45.668  25.827  29.243  1.00  0.00    -0.248 NA
ATOM     51  C   UNL A   1      44.311  24.528  30.634  1.00  0.00     0.031 C 
ATOM     52  C   UNL A   1      45.537  29.916  31.969  1.00  0.00     0.029 A 
ATOM     53  C   UNL A   1      45.665  28.537  31.801  1.00  0.00     0.049 A 
ATOM     54  H   UNL A   1      45.617  27.169  33.406  1.00  0.00     0.167 HD
ATOM     55  C   UNL A   1      45.646  26.426  30.495  1.00  0.00     0.074 A 
ATOM     56  C   UNL A   1      44.824  25.548  31.327  1.00  0.00     0.031 C 
ATOM     57  C   UNL A   1      46.034  27.723  30.669  1.00  0.00     0.037 A 
BRANCH  44  58
ATOM     58  C   UNL A   1      43.189  27.341  35.273  1.00  0.00     0.064 A 
ATOM     59  C   UNL A   1      43.601  27.771  36.550  1.00  0.00     0.173 A 
ATOM     60  C   UNL A   1      43.120  25.940  35.098  1.00  0.00     0.173 A 
ATOM     61  F   UNL A   1      43.706  29.079  36.830  1.00  0.00    -0.203 F 
ATOM     62  C   UNL A   1      44.015  26.869  37.533  1.00  0.00     0.198 A 
ATOM     63  C   UNL A   1      43.485  25.044  36.099  1.00  0.00     0.198 A 
ATOM     64  F   UNL A   1      42.808  25.372  33.929  1.00  0.00    -0.203 F 
ATOM     65  F   UNL A   1      44.532  27.332  38.679  1.00  0.00    -0.200 F 
ATOM     66  C   UNL A   1      43.968  25.507  37.302  1.00  0.00     0.200 A 
ATOM     67  F   UNL A   1      43.445  23.728  35.848  1.00  0.00    -0.200 F 
ATOM     68  F   UNL A   1      44.432  24.645  38.214  1.00  0.00    -0.200 F 
ENDBRANCH  44  58
BRANCH  45  69
ATOM     69  C   UNL A   1      43.502  23.316  27.637  1.00  0.00     0.064 A 
ATOM     70  C   UNL A   1      42.423  22.547  28.103  1.00  0.00     0.173 A 
ATOM     71  C   UNL A   1      44.138  22.850  26.468  1.00  0.00     0.173 A 
ATOM     72  F   UNL A   1      41.727  22.946  29.178  1.00  0.00    -0.203 F 
ATOM     73  C   UNL A   1      42.001  21.392  27.435  1.00  0.00     0.198 A 
ATOM     74  C   UNL A   1      43.722  21.693  25.807  1.00  0.00     0.198 A 
ATOM     75  F   UNL A   1      45.118  23.556  25.886  1.00  0.00    -0.203 F 
ATOM     76  F   UNL A   1      40.932  20.716  27.878  1.00  0.00    -0.200 F 
ATOM     77  C   UNL A   1      42.646  20.971  26.283  1.00  0.00     0.200 A 
ATOM     78  F   UNL A   1      44.332  21.321  24.673  1.00  0.00    -0.200 F 
ATOM     79  F   UNL A   1      42.207  19.897  25.612  1.00  0.00    -0.200 F 
ENDBRANCH  45  69
BRANCH  57  80
ATOM     80  C   UNL A   1      46.699  28.429  29.521  1.00  0.00     0.064 A 
ATOM     81  C   UNL A   1      46.009  29.129  28.517  1.00  0.00     0.173 A 
ATOM     82  C   UNL A   1      48.096  28.541  29.540  1.00  0.00     0.173 A 
ATOM     83  F   UNL A   1      44.670  29.164  28.495  1.00  0.00    -0.203 F 
ATOM     84  C   UNL A   1      46.692  29.870  27.551  1.00  0.00     0.198 A 
ATOM     85  C   UNL A   1      48.772  29.312  28.600  1.00  0.00     0.198 A 
ATOM     86  F   UNL A   1      48.804  27.943  30.511  1.00  0.00    -0.203 F 
ATOM     87  F   UNL A   1      46.010  30.522  26.598  1.00  0.00    -0.200 F 
ATOM     88  C   UNL A   1      48.072  29.966  27.600  1.00  0.00     0.200 A 
ATOM     89  F   UNL A   1      50.102  29.447  28.686  1.00  0.00    -0.200 F 
ATOM     90  F   UNL A   1      48.727  30.715  26.701  1.00  0.00    -0.200 F 
ENDBRANCH  57  80
ENDBRANCH  31  32
ENDBRANCH  24  26
ENDBRANCH  23  24
ENDBRANCH  22  23
ENDBRANCH   1  22
TORSDOF 16
ENDMDL
MODEL 3
REMARK VINA RESULT:     -10.8      5.345     10.637
REMARK SMILES Cc1csc(=O)n1CC(=O)N[C@@H](C(=O)OCCOC(=O)c1ccc(-c2c3nc(c(-c4c(F)c(F)c(F)c(F)c4F)c4ccc([nH]4)c(-c4c(F)c(F)c(F)c(F)c4F)c4nc(c(-c5c(F)c(F)c(F)c(F)c5F)c5ccc2[nH]5)C=C4)C=C3)cc1)[C@@H](C)O
REMARK SMILES IDX 16 1 15 2 13 3 14 4 12 5 11 6 9 7 10 8 8 10 7 11 1 12 2 13
REMARK SMILES IDX 3 14 4 15 5 16 6 17 84 18 85 19 86 20 17 22 18 23 19 24
REMARK SMILES IDX 20 25 21 26 22 27 83 28 23 29 82 30 24 31 25 32 26 33 76 34
REMARK SMILES IDX 27 35 81 36 75 37 77 38 28 39 80 40 74 41 73 42 29 44 61 45
REMARK SMILES IDX 41 46 60 47 42 48 45 49 59 50 78 51 43 52 44 53 58 55 79 56
REMARK SMILES IDX 46 57 30 58 31 59 39 60 32 61 33 62 37 63 40 64 34 65 35 66
REMARK SMILES IDX 38 67 36 68 62 69 63 70 71 71 64 72 65 73 69 74 72 75 66 76
REMARK SMILES IDX 67 77 70 78 68 79 47 80 48 81 56 82 49 83 50 84 54 85 57 86
REMARK SMILES IDX 51 87 52 88 55 89 53 90
REMARK H PARENT 11 9 86 21 77 43 45 54
REMARK Flexibility Score: inf
ROOT
ATOM      1  C   UNL A   1      36.647  20.875  25.370  1.00  0.00     0.274 C 
ENDROOT
BRANCH   1   2
ATOM      2  O   UNL A   1      35.515  21.495  24.735  1.00  0.00    -0.460 OA
BRANCH   2   3
ATOM      3  C   UNL A   1      34.287  21.275  25.287  1.00  0.00     0.331 C 
ATOM      4  O   UNL A   1      34.058  21.279  26.492  1.00  0.00    -0.250 OA
BRANCH   3   5
ATOM      5  C   UNL A   1      33.230  20.903  24.228  1.00  0.00     0.221 C 
BRANCH   5   6
ATOM      6  N   UNL A   1      32.136  21.868  24.129  1.00  0.00    -0.339 N 
ATOM      7  C   UNL A   1      32.085  23.040  23.436  1.00  0.00     0.240 C 
ATOM      8  O   UNL A   1      30.980  23.542  23.223  1.00  0.00    -0.273 OA
ATOM      9  H   UNL A   1      31.322  21.638  24.632  1.00  0.00     0.164 HD
BRANCH   7  10
ATOM     10  C   UNL A   1      33.363  23.619  22.810  1.00  0.00     0.226 C 
BRANCH  10  11
ATOM     11  N   UNL A   1      33.480  25.054  23.030  1.00  0.00    -0.294 N 
ATOM     12  C   UNL A   1      34.055  25.050  25.530  1.00  0.00     0.065 C 
ATOM     13  C   UNL A   1      33.783  25.716  24.218  1.00  0.00     0.029 A 
ATOM     14  C   UNL A   1      33.784  27.051  24.087  1.00  0.00     0.091 A 
ATOM     15  S   UNL A   1      33.490  27.562  22.459  1.00  0.00    -0.082 S 
ATOM     16  C   UNL A   1      33.328  25.888  21.922  1.00  0.00     0.307 A 
ATOM     17  O   UNL A   1      33.111  25.571  20.761  1.00  0.00    -0.257 OA
ENDBRANCH  10  11
ENDBRANCH   7  10
ENDBRANCH   5   6
BRANCH   5  18
ATOM     18  C   UNL A   1      32.689  19.460  24.362  1.00  0.00     0.145 C 
ATOM     19  C   UNL A   1      33.833  18.448  24.243  1.00  0.00     0.041 C 
BRANCH  18  20
ATOM     20  O   UNL A   1      32.072  19.173  25.620  1.00  0.00    -0.391 OA
ATOM     21  H   UNL A   1      31.260  19.696  25.708  1.00  0.00     0.211 HD
ENDBRANCH  18  20
ENDBRANCH   5  18
ENDBRANCH   3   5
ENDBRANCH   2   3
ENDBRANCH   1   2
BRANCH   1  22
ATOM     22  C   UNL A   1      37.902  21.685  25.090  1.00  0.00     0.275 C 
BRANCH  22  23
ATOM     23  O   UNL A   1      38.257  22.489  26.215  1.00  0.00    -0.458 OA
BRANCH  23  24
ATOM     24  C   UNL A   1      39.504  22.277  26.681  1.00  0.00     0.338 C 
ATOM     25  O   UNL A   1      40.006  21.233  27.063  1.00  0.00    -0.246 OA
BRANCH  24  26
ATOM     26  C   UNL A   1      40.169  23.551  26.896  1.00  0.00     0.060 A 
ATOM     27  C   UNL A   1      41.250  23.560  27.783  1.00  0.00     0.016 A 
ATOM     28  C   UNL A   1      39.502  24.715  26.501  1.00  0.00     0.016 A 
ATOM     29  C   UNL A   1      41.571  24.740  28.405  1.00  0.00     0.010 A 
ATOM     30  C   UNL A   1      39.814  25.890  27.133  1.00  0.00     0.010 A 
ATOM     31  C   UNL A   1      40.797  25.868  28.121  1.00  0.00    -0.014 A 
BRANCH  31  32
ATOM     32  C   UNL A   1      41.151  27.105  28.773  1.00  0.00     0.031 A 
ATOM     33  C   UNL A   1      42.375  27.707  28.190  1.00  0.00     0.074 A 
ATOM     34  C   UNL A   1      40.341  27.665  29.688  1.00  0.00     0.049 A 
ATOM     35  N   UNL A   1      43.479  27.993  28.795  1.00  0.00    -0.248 NA
ATOM     36  C   UNL A   1      42.452  27.828  26.720  1.00  0.00     0.031 C 
ATOM     37  C   UNL A   1      39.006  27.227  30.106  1.00  0.00     0.029 A 
ATOM     38  N   UNL A   1      40.496  28.840  30.350  1.00  0.00    -0.354 N 
ATOM     39  C   UNL A   1      44.318  28.517  27.817  1.00  0.00     0.074 A 
ATOM     40  C   UNL A   1      43.715  28.218  26.549  1.00  0.00     0.031 C 
ATOM     41  C   UNL A   1      38.384  28.245  30.745  1.00  0.00     0.029 A 
ATOM     42  C   UNL A   1      39.316  29.349  30.882  1.00  0.00     0.049 A 
ATOM     43  H   UNL A   1      41.366  29.291  30.444  1.00  0.00     0.167 HD
ATOM     44  C   UNL A   1      45.303  29.391  28.152  1.00  0.00     0.037 A 
ATOM     45  C   UNL A   1      39.134  30.635  31.274  1.00  0.00     0.037 A 
ATOM     46  C   UNL A   1      45.648  29.260  29.545  1.00  0.00     0.049 A 
ATOM     47  C   UNL A   1      40.490  31.227  31.476  1.00  0.00     0.074 A 
ATOM     48  C   UNL A   1      46.125  28.219  30.318  1.00  0.00     0.029 A 
ATOM     49  N   UNL A   1      45.129  30.176  30.429  1.00  0.00    -0.354 N 
ATOM     50  N   UNL A   1      41.299  30.853  32.430  1.00  0.00    -0.248 NA
ATOM     51  C   UNL A   1      41.129  31.839  30.317  1.00  0.00     0.031 C 
ATOM     52  C   UNL A   1      45.426  28.329  31.555  1.00  0.00     0.029 A 
ATOM     53  C   UNL A   1      44.634  29.476  31.499  1.00  0.00     0.049 A 
ATOM     54  H   UNL A   1      45.116  31.153  30.315  1.00  0.00     0.167 HD
ATOM     55  C   UNL A   1      42.546  30.778  31.825  1.00  0.00     0.074 A 
ATOM     56  C   UNL A   1      42.388  31.446  30.534  1.00  0.00     0.031 C 
ATOM     57  C   UNL A   1      43.506  29.921  32.279  1.00  0.00     0.037 A 
BRANCH  44  58
ATOM     58  C   UNL A   1      45.638  30.619  27.339  1.00  0.00     0.064 A 
ATOM     59  C   UNL A   1      46.992  30.899  27.070  1.00  0.00     0.173 A 
ATOM     60  C   UNL A   1      44.739  31.682  27.096  1.00  0.00     0.173 A 
ATOM     61  F   UNL A   1      47.936  29.965  27.268  1.00  0.00    -0.203 F 
ATOM     62  C   UNL A   1      47.421  32.173  26.694  1.00  0.00     0.198 A 
ATOM     63  C   UNL A   1      45.166  32.937  26.670  1.00  0.00     0.198 A 
ATOM     64  F   UNL A   1      43.431  31.599  27.359  1.00  0.00    -0.203 F 
ATOM     65  F   UNL A   1      48.732  32.426  26.589  1.00  0.00    -0.200 F 
ATOM     66  C   UNL A   1      46.508  33.194  26.507  1.00  0.00     0.200 A 
ATOM     67  F   UNL A   1      44.265  33.916  26.508  1.00  0.00    -0.200 F 
ATOM     68  F   UNL A   1      46.922  34.434  26.217  1.00  0.00    -0.200 F 
ENDBRANCH  44  58
BRANCH  45  69
ATOM     69  C   UNL A   1      37.914  31.465  31.112  1.00  0.00     0.064 A 
ATOM     70  C   UNL A   1      37.454  31.837  29.838  1.00  0.00     0.173 A 
ATOM     71  C   UNL A   1      37.026  31.690  32.183  1.00  0.00     0.173 A 
ATOM     72  F   UNL A   1      38.212  31.610  28.755  1.00  0.00    -0.203 F 
ATOM     73  C   UNL A   1      36.182  32.390  29.649  1.00  0.00     0.198 A 
ATOM     74  C   UNL A   1      35.761  32.249  31.995  1.00  0.00     0.198 A 
ATOM     75  F   UNL A   1      37.327  31.288  33.426  1.00  0.00    -0.203 F 
ATOM     76  F   UNL A   1      35.756  32.681  28.411  1.00  0.00    -0.200 F 
ATOM     77  C   UNL A   1      35.333  32.587  30.726  1.00  0.00     0.200 A 
ATOM     78  F   UNL A   1      34.938  32.397  33.043  1.00  0.00    -0.200 F 
ATOM     79  F   UNL A   1      34.095  33.063  30.539  1.00  0.00    -0.200 F 
ENDBRANCH  45  69
BRANCH  57  80
ATOM     80  C   UNL A   1      43.275  29.219  33.588  1.00  0.00     0.064 A 
ATOM     81  C   UNL A   1      43.581  29.769  34.845  1.00  0.00     0.173 A 
ATOM     82  C   UNL A   1      42.558  28.015  33.570  1.00  0.00     0.173 A 
ATOM     83  F   UNL A   1      44.166  30.969  34.949  1.00  0.00    -0.203 F 
ATOM     84  C   UNL A   1      43.224  29.118  36.026  1.00  0.00     0.198 A 
ATOM     85  C   UNL A   1      42.168  27.388  34.749  1.00  0.00     0.198 A 
ATOM     86  F   UNL A   1      42.185  27.473  32.399  1.00  0.00    -0.203 F 
ATOM     87  F   UNL A   1      43.536  29.659  37.213  1.00  0.00    -0.200 F 
ATOM     88  C   UNL A   1      42.510  27.932  35.975  1.00  0.00     0.200 A 
ATOM     89  F   UNL A   1      41.429  26.271  34.693  1.00  0.00    -0.200 F 
ATOM     90  F   UNL A   1      42.126  27.329  37.109  1.00  0.00    -0.200 F 
ENDBRANCH  57  80
ENDBRANCH  31  32
ENDBRANCH  24  26
ENDBRANCH  23  24
ENDBRANCH  22  23
ENDBRANCH   1  22
TORSDOF 16
ENDMDL
