MODEL 1
REMARK VINA RESULT:     -11.1      0.000      0.000
REMARK SMILES O=C(C[C@H]1CN(C(=O)c2sccc2Br)CCO1)OCCOC(=O)c1ccc(-c2c3nc(c(-c4c(F)c(F)c(F)c(F)c4F)c4ccc([nH]4)c(-c4c(F)c(F)c(F)c(F)c4F)c4nc(c(-c5c(F)c(F)c(F)c(F)c5F)c5ccc2[nH]5)C=C4)C=C3)cc1
REMARK SMILES IDX 19 1 18 2 2 3 1 4 3 5 4 6 5 7 17 8 6 9 16 10 15 11 7 12 8 13
REMARK SMILES IDX 9 14 10 15 13 16 11 17 12 18 14 19 20 20 21 21 22 22 23 23
REMARK SMILES IDX 24 24 25 25 86 26 26 27 85 28 27 29 28 30 29 31 79 32 30 33
REMARK SMILES IDX 84 34 78 35 80 36 31 37 83 38 77 39 76 40 32 42 64 43 44 44
REMARK SMILES IDX 63 45 45 46 48 47 62 48 81 49 46 50 47 51 61 53 82 54 49 55
REMARK SMILES IDX 33 56 34 57 42 58 35 59 36 60 40 61 43 62 37 63 38 64 41 65
REMARK SMILES IDX 39 66 65 67 66 68 74 69 67 70 68 71 72 72 75 73 69 74 70 75
REMARK SMILES IDX 73 76 71 77 50 78 51 79 59 80 52 81 53 82 57 83 60 84 54 85
REMARK SMILES IDX 55 86 58 87 56 88
REMARK H PARENT 80 41 48 52
REMARK Flexibility Score: inf
ROOT
ATOM      1  C   UNL A   1      37.802  20.352  24.985  1.00  0.00     0.274 C 
ENDROOT
BRANCH   1   2
ATOM      2  O   UNL A   1      37.465  21.525  25.756  1.00  0.00    -0.462 OA
BRANCH   2   3
ATOM      3  C   UNL A   1      36.771  22.595  25.304  1.00  0.00     0.308 C 
ATOM      4  O   UNL A   1      37.341  23.670  25.129  1.00  0.00    -0.252 OA
BRANCH   3   5
ATOM      5  C   UNL A   1      35.292  22.456  25.064  1.00  0.00     0.156 C 
BRANCH   5   6
ATOM      6  C   UNL A   1      34.598  21.576  26.100  1.00  0.00     0.148 C 
ATOM      7  C   UNL A   1      33.623  22.391  26.977  1.00  0.00     0.152 C 
ATOM      8  O   UNL A   1      33.875  20.485  25.503  1.00  0.00    -0.374 OA
ATOM      9  N   UNL A   1      32.531  22.924  26.178  1.00  0.00    -0.333 N 
ATOM     10  C   UNL A   1      32.772  20.915  24.694  1.00  0.00     0.182 C 
ATOM     11  C   UNL A   1      31.823  21.848  25.455  1.00  0.00     0.148 C 
BRANCH   9  12
ATOM     12  C   UNL A   1      31.840  24.135  26.354  1.00  0.00     0.265 C 
ATOM     13  O   UNL A   1      30.991  24.109  27.258  1.00  0.00    -0.268 OA
BRANCH  12  14
ATOM     14  C   UNL A   1      31.987  25.362  25.530  1.00  0.00     0.106 A 
ATOM     15  S   UNL A   1      31.450  26.804  26.420  1.00  0.00    -0.137 S 
ATOM     16  C   UNL A   1      32.366  25.791  24.262  1.00  0.00     0.041 A 
ATOM     17  C   UNL A   1      31.682  27.854  25.116  1.00  0.00     0.067 A 
ATOM     18  C   UNL A   1      32.187  27.196  24.029  1.00  0.00     0.028 A 
ATOM     19  Br  UNL A   1      33.065  24.903  22.742  1.00  0.00    -0.049 Br
ENDBRANCH  12  14
ENDBRANCH   9  12
ENDBRANCH   5   6
ENDBRANCH   3   5
ENDBRANCH   2   3
ENDBRANCH   1   2
BRANCH   1  20
ATOM     20  C   UNL A   1      38.995  19.595  25.582  1.00  0.00     0.275 C 
BRANCH  20  21
ATOM     21  O   UNL A   1      40.135  20.460  25.759  1.00  0.00    -0.458 OA
BRANCH  21  22
ATOM     22  C   UNL A   1      40.647  20.528  27.017  1.00  0.00     0.338 C 
ATOM     23  O   UNL A   1      40.890  19.589  27.748  1.00  0.00    -0.246 OA
BRANCH  22  24
ATOM     24  C   UNL A   1      41.024  21.931  27.333  1.00  0.00     0.060 A 
ATOM     25  C   UNL A   1      40.519  22.949  26.513  1.00  0.00     0.016 A 
ATOM     26  C   UNL A   1      41.846  22.262  28.412  1.00  0.00     0.016 A 
ATOM     27  C   UNL A   1      40.850  24.287  26.759  1.00  0.00     0.010 A 
ATOM     28  C   UNL A   1      42.163  23.605  28.665  1.00  0.00     0.010 A 
ATOM     29  C   UNL A   1      41.687  24.631  27.830  1.00  0.00    -0.014 A 
BRANCH  29  30
ATOM     30  C   UNL A   1      42.132  26.042  28.022  1.00  0.00     0.031 A 
ATOM     31  C   UNL A   1      43.483  26.481  27.524  1.00  0.00     0.074 A 
ATOM     32  C   UNL A   1      41.344  26.949  28.631  1.00  0.00     0.049 A 
ATOM     33  N   UNL A   1      44.036  27.670  27.559  1.00  0.00    -0.248 NA
ATOM     34  C   UNL A   1      44.328  25.447  26.908  1.00  0.00     0.031 C 
ATOM     35  C   UNL A   1      40.024  26.676  29.188  1.00  0.00     0.029 A 
ATOM     36  N   UNL A   1      41.552  28.281  28.908  1.00  0.00    -0.354 N 
ATOM     37  C   UNL A   1      45.270  27.533  26.942  1.00  0.00     0.074 A 
ATOM     38  C   UNL A   1      45.425  26.131  26.616  1.00  0.00     0.031 C 
ATOM     39  C   UNL A   1      39.553  27.790  29.775  1.00  0.00     0.029 A 
ATOM     40  C   UNL A   1      40.536  28.860  29.630  1.00  0.00     0.049 A 
ATOM     41  H   UNL A   1      42.353  28.772  28.615  1.00  0.00     0.167 HD
ATOM     42  C   UNL A   1      46.175  28.491  26.629  1.00  0.00     0.037 A 
ATOM     43  C   UNL A   1      40.411  30.108  30.123  1.00  0.00     0.037 A 
ATOM     44  C   UNL A   1      46.041  29.889  26.945  1.00  0.00     0.049 A 
ATOM     45  C   UNL A   1      41.467  31.141  29.831  1.00  0.00     0.074 A 
ATOM     46  C   UNL A   1      46.890  30.932  26.616  1.00  0.00     0.029 A 
ATOM     47  N   UNL A   1      44.999  30.439  27.672  1.00  0.00    -0.354 N 
ATOM     48  N   UNL A   1      42.580  31.020  29.150  1.00  0.00    -0.248 NA
ATOM     49  C   UNL A   1      41.231  32.498  30.350  1.00  0.00     0.031 C 
ATOM     50  C   UNL A   1      46.382  32.108  27.178  1.00  0.00     0.029 A 
ATOM     51  C   UNL A   1      45.194  31.804  27.821  1.00  0.00     0.049 A 
ATOM     52  H   UNL A   1      44.232  29.935  28.031  1.00  0.00     0.167 HD
ATOM     53  C   UNL A   1      43.147  32.287  29.118  1.00  0.00     0.074 A 
ATOM     54  C   UNL A   1      42.258  33.165  29.846  1.00  0.00     0.031 C 
ATOM     55  C   UNL A   1      44.301  32.684  28.527  1.00  0.00     0.037 A 
BRANCH  42  56
ATOM     56  C   UNL A   1      47.389  28.058  25.862  1.00  0.00     0.064 A 
ATOM     57  C   UNL A   1      48.592  27.766  26.522  1.00  0.00     0.173 A 
ATOM     58  C   UNL A   1      47.340  27.889  24.472  1.00  0.00     0.173 A 
ATOM     59  F   UNL A   1      48.690  27.924  27.851  1.00  0.00    -0.203 F 
ATOM     60  C   UNL A   1      49.711  27.340  25.814  1.00  0.00     0.198 A 
ATOM     61  C   UNL A   1      48.455  27.438  23.770  1.00  0.00     0.198 A 
ATOM     62  F   UNL A   1      46.211  28.150  23.796  1.00  0.00    -0.203 F 
ATOM     63  F   UNL A   1      50.862  27.107  26.459  1.00  0.00    -0.200 F 
ATOM     64  C   UNL A   1      49.639  27.170  24.439  1.00  0.00     0.200 A 
ATOM     65  F   UNL A   1      48.382  27.263  22.443  1.00  0.00    -0.200 F 
ATOM     66  F   UNL A   1      50.716  26.753  23.759  1.00  0.00    -0.200 F 
ENDBRANCH  42  56
BRANCH  43  67
ATOM     67  C   UNL A   1      39.223  30.475  30.936  1.00  0.00     0.064 A 
ATOM     68  C   UNL A   1      38.098  31.072  30.350  1.00  0.00     0.173 A 
ATOM     69  C   UNL A   1      39.219  30.298  32.328  1.00  0.00     0.173 A 
ATOM     70  F   UNL A   1      38.073  31.294  29.027  1.00  0.00    -0.203 F 
ATOM     71  C   UNL A   1      37.027  31.505  31.127  1.00  0.00     0.198 A 
ATOM     72  C   UNL A   1      38.134  30.706  33.101  1.00  0.00     0.198 A 
ATOM     73  F   UNL A   1      40.279  29.749  32.938  1.00  0.00    -0.203 F 
ATOM     74  F   UNL A   1      35.993  32.132  30.549  1.00  0.00    -0.200 F 
ATOM     75  C   UNL A   1      37.044  31.320  32.502  1.00  0.00     0.200 A 
ATOM     76  F   UNL A   1      38.153  30.529  34.429  1.00  0.00    -0.200 F 
ATOM     77  F   UNL A   1      36.019  31.751  33.250  1.00  0.00    -0.200 F 
ENDBRANCH  43  67
BRANCH  55  78
ATOM     78  C   UNL A   1      44.644  34.145  28.589  1.00  0.00     0.064 A 
ATOM     79  C   UNL A   1      45.469  34.671  29.594  1.00  0.00     0.173 A 
ATOM     80  C   UNL A   1      44.153  35.029  27.615  1.00  0.00     0.173 A 
ATOM     81  F   UNL A   1      45.951  33.872  30.558  1.00  0.00    -0.203 F 
ATOM     82  C   UNL A   1      45.765  36.031  29.639  1.00  0.00     0.198 A 
ATOM     83  C   UNL A   1      44.477  36.383  27.646  1.00  0.00     0.198 A 
ATOM     84  F   UNL A   1      43.365  34.578  26.627  1.00  0.00    -0.203 F 
ATOM     85  F   UNL A   1      46.514  36.519  30.638  1.00  0.00    -0.200 F 
ATOM     86  C   UNL A   1      45.275  36.884  28.662  1.00  0.00     0.200 A 
ATOM     87  F   UNL A   1      44.011  37.204  26.694  1.00  0.00    -0.200 F 
ATOM     88  F   UNL A   1      45.564  38.192  28.706  1.00  0.00    -0.200 F 
ENDBRANCH  55  78
ENDBRANCH  29  30
ENDBRANCH  22  24
ENDBRANCH  21  22
ENDBRANCH  20  21
ENDBRANCH   1  20
TORSDOF 14
ENDMDL
MODEL 2
REMARK VINA RESULT:     -11.0      4.839     10.591
REMARK SMILES O=C(C[C@H]1CN(C(=O)c2sccc2Br)CCO1)OCCOC(=O)c1ccc(-c2c3nc(c(-c4c(F)c(F)c(F)c(F)c4F)c4ccc([nH]4)c(-c4c(F)c(F)c(F)c(F)c4F)c4nc(c(-c5c(F)c(F)c(F)c(F)c5F)c5ccc2[nH]5)C=C4)C=C3)cc1
REMARK SMILES IDX 19 1 18 2 2 3 1 4 3 5 4 6 5 7 17 8 6 9 16 10 15 11 7 12 8 13
REMARK SMILES IDX 9 14 10 15 13 16 11 17 12 18 14 19 20 20 21 21 22 22 23 23
REMARK SMILES IDX 24 24 25 25 86 26 26 27 85 28 27 29 28 30 29 31 79 32 30 33
REMARK SMILES IDX 84 34 78 35 80 36 31 37 83 38 77 39 76 40 32 42 64 43 44 44
REMARK SMILES IDX 63 45 45 46 48 47 62 48 81 49 46 50 47 51 61 53 82 54 49 55
REMARK SMILES IDX 33 56 34 57 42 58 35 59 36 60 40 61 43 62 37 63 38 64 41 65
REMARK SMILES IDX 39 66 65 67 66 68 74 69 67 70 68 71 72 72 75 73 69 74 70 75
REMARK SMILES IDX 73 76 71 77 50 78 51 79 59 80 52 81 53 82 57 83 60 84 54 85
REMARK SMILES IDX 55 86 58 87 56 88
REMARK H PARENT 80 41 48 52
REMARK Flexibility Score: inf
ROOT
ATOM      1  C   UNL A   1      31.793  31.651  26.634  1.00  0.00     0.274 C 
ENDROOT
BRANCH   1   2
ATOM      2  O   UNL A   1      32.579  30.883  27.570  1.00  0.00    -0.462 OA
BRANCH   2   3
ATOM      3  C   UNL A   1      33.444  29.892  27.250  1.00  0.00     0.308 C 
ATOM      4  O   UNL A   1      34.653  30.112  27.230  1.00  0.00    -0.252 OA
BRANCH   3   5
ATOM      5  C   UNL A   1      32.897  28.540  26.878  1.00  0.00     0.156 C 
BRANCH   5   6
ATOM      6  C   UNL A   1      33.269  28.115  25.460  1.00  0.00     0.148 C 
ATOM      7  C   UNL A   1      33.561  26.602  25.378  1.00  0.00     0.152 C 
ATOM      8  O   UNL A   1      32.245  28.437  24.501  1.00  0.00    -0.374 OA
ATOM      9  N   UNL A   1      32.368  25.826  25.678  1.00  0.00    -0.333 N 
ATOM     10  C   UNL A   1      31.024  27.715  24.716  1.00  0.00     0.182 C 
ATOM     11  C   UNL A   1      31.250  26.201  24.788  1.00  0.00     0.148 C 
BRANCH   9  12
ATOM     12  C   UNL A   1      32.284  24.578  26.315  1.00  0.00     0.265 C 
ATOM     13  O   UNL A   1      31.405  24.511  27.188  1.00  0.00    -0.268 OA
BRANCH  12  14
ATOM     14  C   UNL A   1      33.174  23.410  26.089  1.00  0.00     0.106 A 
ATOM     15  S   UNL A   1      33.259  22.375  27.531  1.00  0.00    -0.137 S 
ATOM     16  C   UNL A   1      34.018  22.844  25.139  1.00  0.00     0.041 A 
ATOM     17  C   UNL A   1      34.403  21.322  26.867  1.00  0.00     0.067 A 
ATOM     18  C   UNL A   1      34.716  21.671  25.583  1.00  0.00     0.028 A 
ATOM     19  Br  UNL A   1      34.471  23.307  23.359  1.00  0.00    -0.049 Br
ENDBRANCH  12  14
ENDBRANCH   9  12
ENDBRANCH   5   6
ENDBRANCH   3   5
ENDBRANCH   2   3
ENDBRANCH   1   2
BRANCH   1  20
ATOM     20  C   UNL A   1      32.051  33.157  26.766  1.00  0.00     0.275 C 
BRANCH  20  21
ATOM     21  O   UNL A   1      32.254  33.539  28.142  1.00  0.00    -0.458 OA
BRANCH  21  22
ATOM     22  C   UNL A   1      33.280  34.399  28.380  1.00  0.00     0.338 C 
ATOM     23  O   UNL A   1      33.231  35.611  28.332  1.00  0.00    -0.246 OA
BRANCH  22  24
ATOM     24  C   UNL A   1      34.465  33.646  28.871  1.00  0.00     0.060 A 
ATOM     25  C   UNL A   1      34.257  32.637  29.819  1.00  0.00     0.016 A 
ATOM     26  C   UNL A   1      35.759  33.905  28.414  1.00  0.00     0.016 A 
ATOM     27  C   UNL A   1      35.337  31.903  30.323  1.00  0.00     0.010 A 
ATOM     28  C   UNL A   1      36.838  33.158  28.909  1.00  0.00     0.010 A 
ATOM     29  C   UNL A   1      36.644  32.164  29.884  1.00  0.00    -0.014 A 
BRANCH  29  30
ATOM     30  C   UNL A   1      37.806  31.463  30.504  1.00  0.00     0.031 A 
ATOM     31  C   UNL A   1      38.241  31.815  31.902  1.00  0.00     0.074 A 
ATOM     32  C   UNL A   1      38.483  30.505  29.841  1.00  0.00     0.049 A 
ATOM     33  N   UNL A   1      39.199  31.294  32.630  1.00  0.00    -0.248 NA
ATOM     34  C   UNL A   1      37.503  32.898  32.570  1.00  0.00     0.031 C 
ATOM     35  C   UNL A   1      38.202  30.069  28.478  1.00  0.00     0.029 A 
ATOM     36  N   UNL A   1      39.565  29.744  30.217  1.00  0.00    -0.354 N 
ATOM     37  C   UNL A   1      39.155  31.959  33.847  1.00  0.00     0.074 A 
ATOM     38  C   UNL A   1      38.133  32.979  33.733  1.00  0.00     0.031 C 
ATOM     39  C   UNL A   1      39.110  29.147  28.114  1.00  0.00     0.029 A 
ATOM     40  C   UNL A   1      40.034  28.921  29.222  1.00  0.00     0.049 A 
ATOM     41  H   UNL A   1      39.966  29.784  31.116  1.00  0.00     0.167 HD
ATOM     42  C   UNL A   1      39.864  31.715  34.975  1.00  0.00     0.037 A 
ATOM     43  C   UNL A   1      41.090  28.083  29.199  1.00  0.00     0.037 A 
ATOM     44  C   UNL A   1      40.884  30.709  35.108  1.00  0.00     0.049 A 
ATOM     45  C   UNL A   1      41.917  27.884  30.443  1.00  0.00     0.074 A 
ATOM     46  C   UNL A   1      41.614  30.364  36.234  1.00  0.00     0.029 A 
ATOM     47  N   UNL A   1      41.329  29.893  34.082  1.00  0.00    -0.354 N 
ATOM     48  N   UNL A   1      41.792  28.443  31.621  1.00  0.00    -0.248 NA
ATOM     49  C   UNL A   1      43.014  26.907  30.360  1.00  0.00     0.031 C 
ATOM     50  C   UNL A   1      42.527  29.366  35.879  1.00  0.00     0.029 A 
ATOM     51  C   UNL A   1      42.338  29.060  34.542  1.00  0.00     0.049 A 
ATOM     52  H   UNL A   1      40.981  29.903  33.160  1.00  0.00     0.167 HD
ATOM     53  C   UNL A   1      42.757  27.854  32.426  1.00  0.00     0.074 A 
ATOM     54  C   UNL A   1      43.460  26.892  31.607  1.00  0.00     0.031 C 
ATOM     55  C   UNL A   1      43.026  28.087  33.735  1.00  0.00     0.037 A 
BRANCH  42  56
ATOM     56  C   UNL A   1      39.528  32.538  36.182  1.00  0.00     0.064 A 
ATOM     57  C   UNL A   1      40.213  33.732  36.454  1.00  0.00     0.173 A 
ATOM     58  C   UNL A   1      38.491  32.161  37.045  1.00  0.00     0.173 A 
ATOM     59  F   UNL A   1      41.222  34.128  35.663  1.00  0.00    -0.203 F 
ATOM     60  C   UNL A   1      39.885  34.509  37.561  1.00  0.00     0.198 A 
ATOM     61  C   UNL A   1      38.148  32.954  38.137  1.00  0.00     0.198 A 
ATOM     62  F   UNL A   1      37.803  31.031  36.825  1.00  0.00    -0.203 F 
ATOM     63  F   UNL A   1      40.580  35.624  37.825  1.00  0.00    -0.200 F 
ATOM     64  C   UNL A   1      38.848  34.123  38.397  1.00  0.00     0.200 A 
ATOM     65  F   UNL A   1      37.139  32.587  38.939  1.00  0.00    -0.200 F 
ATOM     66  F   UNL A   1      38.528  34.875  39.459  1.00  0.00    -0.200 F 
ENDBRANCH  42  56
BRANCH  43  67
ATOM     67  C   UNL A   1      41.428  27.338  27.959  1.00  0.00     0.064 A 
ATOM     68  C   UNL A   1      40.937  26.045  27.733  1.00  0.00     0.173 A 
ATOM     69  C   UNL A   1      42.305  27.881  27.008  1.00  0.00     0.173 A 
ATOM     70  F   UNL A   1      40.123  25.472  28.632  1.00  0.00    -0.203 F 
ATOM     71  C   UNL A   1      41.333  25.310  26.618  1.00  0.00     0.198 A 
ATOM     72  C   UNL A   1      42.679  27.155  25.879  1.00  0.00     0.198 A 
ATOM     73  F   UNL A   1      42.817  29.107  27.189  1.00  0.00    -0.203 F 
ATOM     74  F   UNL A   1      40.900  24.052  26.459  1.00  0.00    -0.200 F 
ATOM     75  C   UNL A   1      42.202  25.866  25.691  1.00  0.00     0.200 A 
ATOM     76  F   UNL A   1      43.521  27.693  24.985  1.00  0.00    -0.200 F 
ATOM     77  F   UNL A   1      42.594  25.153  24.626  1.00  0.00    -0.200 F 
ENDBRANCH  43  67
BRANCH  55  78
ATOM     78  C   UNL A   1      44.089  27.248  34.384  1.00  0.00     0.064 A 
ATOM     79  C   UNL A   1      43.813  25.978  34.909  1.00  0.00     0.173 A 
ATOM     80  C   UNL A   1      45.410  27.717  34.463  1.00  0.00     0.173 A 
ATOM     81  F   UNL A   1      42.563  25.489  34.874  1.00  0.00    -0.203 F 
ATOM     82  C   UNL A   1      44.812  25.221  35.517  1.00  0.00     0.198 A 
ATOM     83  C   UNL A   1      46.413  26.944  35.044  1.00  0.00     0.198 A 
ATOM     84  F   UNL A   1      45.731  28.922  33.970  1.00  0.00    -0.203 F 
ATOM     85  F   UNL A   1      44.512  24.031  36.058  1.00  0.00    -0.200 F 
ATOM     86  C   UNL A   1      46.111  25.701  35.578  1.00  0.00     0.200 A 
ATOM     87  F   UNL A   1      47.670  27.405  35.090  1.00  0.00    -0.200 F 
ATOM     88  F   UNL A   1      47.071  24.970  36.160  1.00  0.00    -0.200 F 
ENDBRANCH  55  78
ENDBRANCH  29  30
ENDBRANCH  22  24
ENDBRANCH  21  22
ENDBRANCH  20  21
ENDBRANCH   1  20
TORSDOF 14
ENDMDL
MODEL 3
REMARK VINA RESULT:     -10.9      4.683     10.217
REMARK SMILES O=C(C[C@H]1CN(C(=O)c2sccc2Br)CCO1)OCCOC(=O)c1ccc(-c2c3nc(c(-c4c(F)c(F)c(F)c(F)c4F)c4ccc([nH]4)c(-c4c(F)c(F)c(F)c(F)c4F)c4nc(c(-c5c(F)c(F)c(F)c(F)c5F)c5ccc2[nH]5)C=C4)C=C3)cc1
REMARK SMILES IDX 19 1 18 2 2 3 1 4 3 5 4 6 5 7 17 8 6 9 16 10 15 11 7 12 8 13
REMARK SMILES IDX 9 14 10 15 13 16 11 17 12 18 14 19 20 20 21 21 22 22 23 23
REMARK SMILES IDX 24 24 25 25 86 26 26 27 85 28 27 29 28 30 29 31 79 32 30 33
REMARK SMILES IDX 84 34 78 35 80 36 31 37 83 38 77 39 76 40 32 42 64 43 44 44
REMARK SMILES IDX 63 45 45 46 48 47 62 48 81 49 46 50 47 51 61 53 82 54 49 55
REMARK SMILES IDX 33 56 34 57 42 58 35 59 36 60 40 61 43 62 37 63 38 64 41 65
REMARK SMILES IDX 39 66 65 67 66 68 74 69 67 70 68 71 72 72 75 73 69 74 70 75
REMARK SMILES IDX 73 76 71 77 50 78 51 79 59 80 52 81 53 82 57 83 60 84 54 85
REMARK SMILES IDX 55 86 58 87 56 88
REMARK H PARENT 80 41 48 52
REMARK Flexibility Score: inf
ROOT
ATOM      1  C   UNL A   1      31.424  29.331  25.443  1.00  0.00     0.274 C 
ENDROOT
BRANCH   1   2
ATOM      2  O   UNL A   1      30.831  29.541  24.144  1.00  0.00    -0.462 OA
BRANCH   2   3
ATOM      3  C   UNL A   1      30.835  28.656  23.121  1.00  0.00     0.308 C 
ATOM      4  O   UNL A   1      30.401  28.984  22.019  1.00  0.00    -0.252 OA
BRANCH   3   5
ATOM      5  C   UNL A   1      31.338  27.259  23.368  1.00  0.00     0.156 C 
BRANCH   5   6
ATOM      6  C   UNL A   1      32.822  27.093  23.054  1.00  0.00     0.148 C 
ATOM      7  C   UNL A   1      33.458  25.961  23.889  1.00  0.00     0.152 C 
ATOM      8  O   UNL A   1      33.064  26.826  21.661  1.00  0.00    -0.374 OA
ATOM      9  N   UNL A   1      32.877  24.673  23.543  1.00  0.00    -0.333 N 
ATOM     10  C   UNL A   1      32.528  25.569  21.225  1.00  0.00     0.182 C 
ATOM     11  C   UNL A   1      33.004  24.401  22.097  1.00  0.00     0.148 C 
BRANCH   9  12
ATOM     12  C   UNL A   1      32.659  23.568  24.382  1.00  0.00     0.265 C 
ATOM     13  O   UNL A   1      31.626  23.644  25.064  1.00  0.00    -0.268 OA
BRANCH  12  14
ATOM     14  C   UNL A   1      33.567  22.406  24.565  1.00  0.00     0.106 A 
ATOM     15  S   UNL A   1      32.698  20.870  24.358  1.00  0.00    -0.137 S 
ATOM     16  C   UNL A   1      34.881  22.084  24.889  1.00  0.00     0.041 A 
ATOM     17  C   UNL A   1      34.034  19.912  24.752  1.00  0.00     0.067 A 
ATOM     18  C   UNL A   1      35.140  20.676  25.001  1.00  0.00     0.028 A 
ATOM     19  Br  UNL A   1      36.428  23.119  25.239  1.00  0.00    -0.049 Br
ENDBRANCH  12  14
ENDBRANCH   9  12
ENDBRANCH   5   6
ENDBRANCH   3   5
ENDBRANCH   2   3
ENDBRANCH   1   2
BRANCH   1  20
ATOM     20  C   UNL A   1      31.760  30.653  26.143  1.00  0.00     0.275 C 
BRANCH  20  21
ATOM     21  O   UNL A   1      33.182  30.805  26.331  1.00  0.00    -0.458 OA
BRANCH  21  22
ATOM     22  C   UNL A   1      33.570  31.728  27.251  1.00  0.00     0.338 C 
ATOM     23  O   UNL A   1      32.932  32.695  27.615  1.00  0.00    -0.246 OA
BRANCH  22  24
ATOM     24  C   UNL A   1      34.846  31.304  27.884  1.00  0.00     0.060 A 
ATOM     25  C   UNL A   1      34.980  29.961  28.259  1.00  0.00     0.016 A 
ATOM     26  C   UNL A   1      35.904  32.188  28.104  1.00  0.00     0.016 A 
ATOM     27  C   UNL A   1      36.157  29.508  28.868  1.00  0.00     0.010 A 
ATOM     28  C   UNL A   1      37.088  31.728  28.701  1.00  0.00     0.010 A 
ATOM     29  C   UNL A   1      37.221  30.390  29.109  1.00  0.00    -0.014 A 
BRANCH  29  30
ATOM     30  C   UNL A   1      38.426  29.935  29.861  1.00  0.00     0.031 A 
ATOM     31  C   UNL A   1      38.708  30.479  31.236  1.00  0.00     0.074 A 
ATOM     32  C   UNL A   1      39.280  29.032  29.338  1.00  0.00     0.049 A 
ATOM     33  N   UNL A   1      39.679  30.181  32.065  1.00  0.00    -0.248 NA
ATOM     34  C   UNL A   1      37.776  31.496  31.747  1.00  0.00     0.031 C 
ATOM     35  C   UNL A   1      39.161  28.431  28.015  1.00  0.00     0.029 A 
ATOM     36  N   UNL A   1      40.433  28.483  29.850  1.00  0.00    -0.354 N 
ATOM     37  C   UNL A   1      39.455  30.943  33.202  1.00  0.00     0.074 A 
ATOM     38  C   UNL A   1      38.306  31.781  32.928  1.00  0.00     0.031 C 
ATOM     39  C   UNL A   1      40.216  27.628  27.798  1.00  0.00     0.029 A 
ATOM     40  C   UNL A   1      41.084  27.650  28.972  1.00  0.00     0.049 A 
ATOM     41  H   UNL A   1      40.760  28.668  30.760  1.00  0.00     0.167 HD
ATOM     42  C   UNL A   1      40.111  30.918  34.386  1.00  0.00     0.037 A 
ATOM     43  C   UNL A   1      42.249  26.984  29.094  1.00  0.00     0.037 A 
ATOM     44  C   UNL A   1      41.255  30.095  34.678  1.00  0.00     0.049 A 
ATOM     45  C   UNL A   1      43.008  27.031  30.394  1.00  0.00     0.074 A 
ATOM     46  C   UNL A   1      41.948  29.973  35.872  1.00  0.00     0.029 A 
ATOM     47  N   UNL A   1      41.885  29.263  33.768  1.00  0.00    -0.354 N 
ATOM     48  N   UNL A   1      42.723  27.674  31.499  1.00  0.00    -0.248 NA
ATOM     49  C   UNL A   1      44.240  26.228  30.473  1.00  0.00     0.031 C 
ATOM     50  C   UNL A   1      43.019  29.097  35.672  1.00  0.00     0.029 A 
ATOM     51  C   UNL A   1      42.970  28.640  34.366  1.00  0.00     0.049 A 
ATOM     52  H   UNL A   1      41.603  29.132  32.833  1.00  0.00     0.167 HD
ATOM     53  C   UNL A   1      43.705  27.317  32.413  1.00  0.00     0.074 A 
ATOM     54  C   UNL A   1      44.596  26.399  31.738  1.00  0.00     0.031 C 
ATOM     55  C   UNL A   1      43.846  27.711  33.703  1.00  0.00     0.037 A 
BRANCH  42  56
ATOM     56  C   UNL A   1      39.577  31.791  35.481  1.00  0.00     0.064 A 
ATOM     57  C   UNL A   1      38.608  31.314  36.376  1.00  0.00     0.173 A 
ATOM     58  C   UNL A   1      40.066  33.091  35.670  1.00  0.00     0.173 A 
ATOM     59  F   UNL A   1      38.102  30.080  36.229  1.00  0.00    -0.203 F 
ATOM     60  C   UNL A   1      38.131  32.115  37.409  1.00  0.00     0.198 A 
ATOM     61  C   UNL A   1      39.605  33.881  36.719  1.00  0.00     0.198 A 
ATOM     62  F   UNL A   1      40.997  33.591  34.843  1.00  0.00    -0.203 F 
ATOM     63  F   UNL A   1      37.175  31.654  38.226  1.00  0.00    -0.200 F 
ATOM     64  C   UNL A   1      38.635  33.396  37.583  1.00  0.00     0.200 A 
ATOM     65  F   UNL A   1      40.099  35.114  36.895  1.00  0.00    -0.200 F 
ATOM     66  F   UNL A   1      38.180  34.164  38.582  1.00  0.00    -0.200 F 
ENDBRANCH  42  56
BRANCH  43  67
ATOM     67  C   UNL A   1      42.778  26.185  27.958  1.00  0.00     0.064 A 
ATOM     68  C   UNL A   1      43.645  26.751  27.014  1.00  0.00     0.173 A 
ATOM     69  C   UNL A   1      42.370  24.857  27.760  1.00  0.00     0.173 A 
ATOM     70  F   UNL A   1      44.034  28.028  27.144  1.00  0.00    -0.203 F 
ATOM     71  C   UNL A   1      44.061  26.030  25.898  1.00  0.00     0.198 A 
ATOM     72  C   UNL A   1      42.809  24.128  26.657  1.00  0.00     0.198 A 
ATOM     73  F   UNL A   1      41.526  24.277  28.625  1.00  0.00    -0.203 F 
ATOM     74  F   UNL A   1      44.838  26.616  24.976  1.00  0.00    -0.200 F 
ATOM     75  C   UNL A   1      43.645  24.718  25.720  1.00  0.00     0.200 A 
ATOM     76  F   UNL A   1      42.404  22.862  26.486  1.00  0.00    -0.200 F 
ATOM     77  F   UNL A   1      44.035  24.031  24.638  1.00  0.00    -0.200 F 
ENDBRANCH  43  67
BRANCH  55  78
ATOM     78  C   UNL A   1      44.973  27.108  34.493  1.00  0.00     0.064 A 
ATOM     79  C   UNL A   1      46.232  27.718  34.571  1.00  0.00     0.173 A 
ATOM     80  C   UNL A   1      44.780  25.909  35.197  1.00  0.00     0.173 A 
ATOM     81  F   UNL A   1      46.474  28.857  33.904  1.00  0.00    -0.203 F 
ATOM     82  C   UNL A   1      47.266  27.136  35.301  1.00  0.00     0.198 A 
ATOM     83  C   UNL A   1      45.807  25.346  35.950  1.00  0.00     0.198 A 
ATOM     84  F   UNL A   1      43.592  25.286  35.162  1.00  0.00    -0.203 F 
ATOM     85  F   UNL A   1      48.477  27.712  35.319  1.00  0.00    -0.200 F 
ATOM     86  C   UNL A   1      47.051  25.954  35.994  1.00  0.00     0.200 A 
ATOM     87  F   UNL A   1      45.593  24.210  36.629  1.00  0.00    -0.200 F 
ATOM     88  F   UNL A   1      48.047  25.398  36.697  1.00  0.00    -0.200 F 
ENDBRANCH  55  78
ENDBRANCH  29  30
ENDBRANCH  22  24
ENDBRANCH  21  22
ENDBRANCH  20  21
ENDBRANCH   1  20
TORSDOF 14
ENDMDL
