MODEL 1
REMARK VINA RESULT:     -12.5      0.000      0.000
REMARK SMILES O=C(OCCOC(=O)c1cc(Br)ccc1OC(=O)c1ccc(F)cc1)c1ccc(-c2c3nc(c(-c4c(F)c(F)c(F)c(F)c4F)c4ccc([nH]4)c(-c4c(F)c(F)c(F)c(F)c4F)c4nc(c(-c5c(F)c(F)c(F)c(F)c5F)c5ccc2[nH]5)C=C4)C=C3)cc1
REMARK SMILES IDX 5 1 4 2 3 3 2 4 1 5 26 6 27 7 88 8 28 9 87 10 29 11 30 12
REMARK SMILES IDX 31 13 81 14 32 15 86 16 80 17 82 18 33 19 85 20 79 21 78 22
REMARK SMILES IDX 34 24 66 25 46 26 65 27 47 28 50 29 64 30 83 31 48 32 49 33
REMARK SMILES IDX 63 35 84 36 51 37 35 38 36 39 44 40 37 41 38 42 42 43 45 44
REMARK SMILES IDX 39 45 40 46 43 47 41 48 67 49 68 50 76 51 69 52 70 53 74 54
REMARK SMILES IDX 77 55 71 56 72 57 75 58 73 59 52 60 53 61 61 62 54 63 55 64
REMARK SMILES IDX 59 65 62 66 56 67 57 68 60 69 58 70 6 71 7 72 8 73 9 74
REMARK SMILES IDX 10 75 15 76 11 77 14 78 12 79 13 80 16 81 17 82 18 83 19 84
REMARK SMILES IDX 20 85 25 86 21 87 24 88 22 89 23 90
REMARK H PARENT 82 23 50 34
REMARK Flexibility Score: inf
ROOT
ATOM      1  C   UNL A   1      36.660  22.395  23.741  1.00  0.00     0.275 C 
ENDROOT
BRANCH   1   2
ATOM      2  C   UNL A   1      37.140  21.256  24.665  1.00  0.00     0.275 C 
BRANCH   2   3
ATOM      3  O   UNL A   1      37.677  21.554  25.962  1.00  0.00    -0.458 OA
BRANCH   3   4
ATOM      4  C   UNL A   1      39.011  21.475  26.123  1.00  0.00     0.338 C 
ATOM      5  O   UNL A   1      39.674  20.473  25.950  1.00  0.00    -0.246 OA
BRANCH   4   6
ATOM      6  C   UNL A   1      39.507  22.761  26.687  1.00  0.00     0.060 A 
ATOM      7  C   UNL A   1      40.544  22.757  27.631  1.00  0.00     0.016 A 
ATOM      8  C   UNL A   1      39.068  23.971  26.143  1.00  0.00     0.016 A 
ATOM      9  C   UNL A   1      41.172  23.938  27.985  1.00  0.00     0.010 A 
ATOM     10  C   UNL A   1      39.730  25.157  26.465  1.00  0.00     0.010 A 
ATOM     11  C   UNL A   1      40.784  25.140  27.389  1.00  0.00    -0.014 A 
BRANCH  11  12
ATOM     12  C   UNL A   1      41.420  26.378  27.871  1.00  0.00     0.031 A 
ATOM     13  C   UNL A   1      42.851  26.617  27.517  1.00  0.00     0.074 A 
ATOM     14  C   UNL A   1      40.688  27.324  28.487  1.00  0.00     0.049 A 
ATOM     15  N   UNL A   1      43.558  27.707  27.649  1.00  0.00    -0.248 NA
ATOM     16  C   UNL A   1      43.576  25.494  26.902  1.00  0.00     0.031 C 
ATOM     17  C   UNL A   1      39.270  27.206  28.824  1.00  0.00     0.029 A 
ATOM     18  N   UNL A   1      41.031  28.576  28.922  1.00  0.00    -0.354 N 
ATOM     19  C   UNL A   1      44.786  27.416  27.078  1.00  0.00     0.074 A 
ATOM     20  C   UNL A   1      44.768  26.025  26.689  1.00  0.00     0.031 C 
ATOM     21  C   UNL A   1      38.870  28.333  29.435  1.00  0.00     0.029 A 
ATOM     22  C   UNL A   1      40.002  29.245  29.537  1.00  0.00     0.049 A 
ATOM     23  H   UNL A   1      41.930  28.960  28.805  1.00  0.00     0.167 HD
ATOM     24  C   UNL A   1      45.815  28.259  26.844  1.00  0.00     0.037 A 
ATOM     25  C   UNL A   1      39.983  30.460  30.117  1.00  0.00     0.037 A 
ATOM     26  C   UNL A   1      45.821  29.634  27.247  1.00  0.00     0.049 A 
ATOM     27  C   UNL A   1      41.201  31.331  29.999  1.00  0.00     0.074 A 
ATOM     28  C   UNL A   1      46.798  30.588  27.041  1.00  0.00     0.029 A 
ATOM     29  N   UNL A   1      44.799  30.244  27.964  1.00  0.00    -0.354 N 
ATOM     30  N   UNL A   1      42.332  31.078  29.387  1.00  0.00    -0.248 NA
ATOM     31  C   UNL A   1      41.132  32.663  30.611  1.00  0.00     0.031 C 
ATOM     32  C   UNL A   1      46.392  31.762  27.684  1.00  0.00     0.029 A 
ATOM     33  C   UNL A   1      45.141  31.553  28.248  1.00  0.00     0.049 A 
ATOM     34  H   UNL A   1      43.957  29.808  28.230  1.00  0.00     0.167 HD
ATOM     35  C   UNL A   1      43.096  32.228  29.500  1.00  0.00     0.074 A 
ATOM     36  C   UNL A   1      42.305  33.178  30.259  1.00  0.00     0.031 C 
ATOM     37  C   UNL A   1      44.331  32.480  29.001  1.00  0.00     0.037 A 
BRANCH  24  38
ATOM     38  C   UNL A   1      46.996  27.692  26.123  1.00  0.00     0.064 A 
ATOM     39  C   UNL A   1      47.050  27.705  24.723  1.00  0.00     0.173 A 
ATOM     40  C   UNL A   1      48.097  27.171  26.822  1.00  0.00     0.173 A 
ATOM     41  F   UNL A   1      46.027  28.204  24.013  1.00  0.00    -0.203 F 
ATOM     42  C   UNL A   1      48.167  27.224  24.048  1.00  0.00     0.198 A 
ATOM     43  C   UNL A   1      49.223  26.714  26.145  1.00  0.00     0.198 A 
ATOM     44  F   UNL A   1      48.103  27.165  28.164  1.00  0.00    -0.203 F 
ATOM     45  F   UNL A   1      48.200  27.248  22.709  1.00  0.00    -0.200 F 
ATOM     46  C   UNL A   1      49.256  26.738  24.758  1.00  0.00     0.200 A 
ATOM     47  F   UNL A   1      50.288  26.280  26.833  1.00  0.00    -0.200 F 
ATOM     48  F   UNL A   1      50.345  26.309  24.107  1.00  0.00    -0.200 F 
ENDBRANCH  24  38
BRANCH  25  49
ATOM     49  C   UNL A   1      38.768  30.899  30.845  1.00  0.00     0.064 A 
ATOM     50  C   UNL A   1      37.724  31.541  30.159  1.00  0.00     0.173 A 
ATOM     51  C   UNL A   1      38.638  30.740  32.229  1.00  0.00     0.173 A 
ATOM     52  F   UNL A   1      37.800  31.710  28.831  1.00  0.00    -0.203 F 
ATOM     53  C   UNL A   1      36.605  32.023  30.835  1.00  0.00     0.198 A 
ATOM     54  C   UNL A   1      37.511  31.208  32.903  1.00  0.00     0.198 A 
ATOM     55  F   UNL A   1      39.602  30.119  32.925  1.00  0.00    -0.203 F 
ATOM     56  F   UNL A   1      35.633  32.649  30.158  1.00  0.00    -0.200 F 
ATOM     57  C   UNL A   1      36.499  31.856  32.207  1.00  0.00     0.200 A 
ATOM     58  F   UNL A   1      37.403  31.033  34.227  1.00  0.00    -0.200 F 
ATOM     59  F   UNL A   1      35.421  32.316  32.858  1.00  0.00    -0.200 F 
ENDBRANCH  25  49
BRANCH  37  60
ATOM     60  C   UNL A   1      44.908  33.844  29.223  1.00  0.00     0.064 A 
ATOM     61  C   UNL A   1      44.683  34.863  28.286  1.00  0.00     0.173 A 
ATOM     62  C   UNL A   1      45.789  34.098  30.282  1.00  0.00     0.173 A 
ATOM     63  F   UNL A   1      43.853  34.658  27.251  1.00  0.00    -0.203 F 
ATOM     64  C   UNL A   1      45.348  36.079  28.381  1.00  0.00     0.198 A 
ATOM     65  C   UNL A   1      46.433  35.327  30.389  1.00  0.00     0.198 A 
ATOM     66  F   UNL A   1      46.024  33.156  31.207  1.00  0.00    -0.203 F 
ATOM     67  F   UNL A   1      45.161  37.020  27.445  1.00  0.00    -0.200 F 
ATOM     68  C   UNL A   1      46.225  36.309  29.431  1.00  0.00     0.200 A 
ATOM     69  F   UNL A   1      47.267  35.556  31.412  1.00  0.00    -0.200 F 
ATOM     70  F   UNL A   1      46.875  37.478  29.517  1.00  0.00    -0.200 F 
ENDBRANCH  37  60
ENDBRANCH  11  12
ENDBRANCH   4   6
ENDBRANCH   3   4
ENDBRANCH   2   3
ENDBRANCH   1   2
BRANCH   1  71
ATOM     71  O   UNL A   1      35.674  23.277  24.310  1.00  0.00    -0.458 OA
BRANCH  71  72
ATOM     72  C   UNL A   1      34.521  23.322  23.584  1.00  0.00     0.342 C 
ATOM     73  O   UNL A   1      34.425  23.469  22.377  1.00  0.00    -0.246 OA
BRANCH  72  74
ATOM     74  C   UNL A   1      33.339  23.202  24.449  1.00  0.00     0.103 A 
ATOM     75  C   UNL A   1      32.602  24.355  24.744  1.00  0.00     0.035 A 
ATOM     76  C   UNL A   1      32.855  21.951  24.845  1.00  0.00     0.145 A 
ATOM     77  C   UNL A   1      31.413  24.240  25.470  1.00  0.00     0.019 A 
ATOM     78  C   UNL A   1      31.706  21.851  25.640  1.00  0.00     0.049 A 
ATOM     79  Br  UNL A   1      30.336  25.771  25.751  1.00  0.00    -0.051 Br
ATOM     80  C   UNL A   1      30.981  23.002  25.948  1.00  0.00     0.019 A 
BRANCH  76  81
ATOM     81  O   UNL A   1      33.554  20.782  24.509  1.00  0.00    -0.422 OA
BRANCH  81  82
ATOM     82  C   UNL A   1      32.849  19.920  23.688  1.00  0.00     0.343 C 
ATOM     83  O   UNL A   1      32.153  20.234  22.733  1.00  0.00    -0.246 OA
BRANCH  82  84
ATOM     84  C   UNL A   1      33.029  18.503  24.120  1.00  0.00     0.060 A 
ATOM     85  C   UNL A   1      32.528  18.130  25.377  1.00  0.00     0.019 A 
ATOM     86  C   UNL A   1      33.666  17.534  23.333  1.00  0.00     0.019 A 
ATOM     87  C   UNL A   1      32.624  16.805  25.815  1.00  0.00     0.040 A 
ATOM     88  C   UNL A   1      33.740  16.204  23.759  1.00  0.00     0.040 A 
ATOM     89  C   UNL A   1      33.213  15.852  24.993  1.00  0.00     0.123 A 
ATOM     90  F   UNL A   1      33.278  14.577  25.399  1.00  0.00    -0.207 F 
ENDBRANCH  82  84
ENDBRANCH  81  82
ENDBRANCH  76  81
ENDBRANCH  72  74
ENDBRANCH  71  72
ENDBRANCH   1  71
TORSDOF 14
ENDMDL
MODEL 2
REMARK VINA RESULT:     -12.3      5.029     10.259
REMARK SMILES O=C(OCCOC(=O)c1cc(Br)ccc1OC(=O)c1ccc(F)cc1)c1ccc(-c2c3nc(c(-c4c(F)c(F)c(F)c(F)c4F)c4ccc([nH]4)c(-c4c(F)c(F)c(F)c(F)c4F)c4nc(c(-c5c(F)c(F)c(F)c(F)c5F)c5ccc2[nH]5)C=C4)C=C3)cc1
REMARK SMILES IDX 5 1 4 2 3 3 2 4 1 5 26 6 27 7 88 8 28 9 87 10 29 11 30 12
REMARK SMILES IDX 31 13 81 14 32 15 86 16 80 17 82 18 33 19 85 20 79 21 78 22
REMARK SMILES IDX 34 24 66 25 46 26 65 27 47 28 50 29 64 30 83 31 48 32 49 33
REMARK SMILES IDX 63 35 84 36 51 37 35 38 36 39 44 40 37 41 38 42 42 43 45 44
REMARK SMILES IDX 39 45 40 46 43 47 41 48 67 49 68 50 76 51 69 52 70 53 74 54
REMARK SMILES IDX 77 55 71 56 72 57 75 58 73 59 52 60 53 61 61 62 54 63 55 64
REMARK SMILES IDX 59 65 62 66 56 67 57 68 60 69 58 70 6 71 7 72 8 73 9 74
REMARK SMILES IDX 10 75 15 76 11 77 14 78 12 79 13 80 16 81 17 82 18 83 19 84
REMARK SMILES IDX 20 85 25 86 21 87 24 88 22 89 23 90
REMARK H PARENT 82 23 50 34
REMARK Flexibility Score: inf
ROOT
ATOM      1  C   UNL A   1      31.752  28.620  26.348  1.00  0.00     0.275 C 
ENDROOT
BRANCH   1   2
ATOM      2  C   UNL A   1      32.027  30.050  26.860  1.00  0.00     0.275 C 
BRANCH   2   3
ATOM      3  O   UNL A   1      33.261  30.709  26.539  1.00  0.00    -0.458 OA
BRANCH   3   4
ATOM      4  C   UNL A   1      33.737  31.612  27.416  1.00  0.00     0.338 C 
ATOM      5  O   UNL A   1      33.222  32.684  27.658  1.00  0.00    -0.246 OA
BRANCH   4   6
ATOM      6  C   UNL A   1      35.060  31.148  27.918  1.00  0.00     0.060 A 
ATOM      7  C   UNL A   1      36.118  32.058  28.048  1.00  0.00     0.016 A 
ATOM      8  C   UNL A   1      35.193  29.853  28.428  1.00  0.00     0.016 A 
ATOM      9  C   UNL A   1      37.270  31.702  28.727  1.00  0.00     0.010 A 
ATOM     10  C   UNL A   1      36.335  29.506  29.151  1.00  0.00     0.010 A 
ATOM     11  C   UNL A   1      37.376  30.432  29.301  1.00  0.00    -0.014 A 
BRANCH  11  12
ATOM     12  C   UNL A   1      38.659  30.072  29.928  1.00  0.00     0.031 A 
ATOM     13  C   UNL A   1      38.964  30.635  31.277  1.00  0.00     0.074 A 
ATOM     14  C   UNL A   1      39.458  29.150  29.362  1.00  0.00     0.049 A 
ATOM     15  N   UNL A   1      39.918  30.309  32.106  1.00  0.00    -0.248 NA
ATOM     16  C   UNL A   1      38.058  31.683  31.776  1.00  0.00     0.031 C 
ATOM     17  C   UNL A   1      39.215  28.500  28.075  1.00  0.00     0.029 A 
ATOM     18  N   UNL A   1      40.626  28.588  29.805  1.00  0.00    -0.354 N 
ATOM     19  C   UNL A   1      39.686  31.065  33.244  1.00  0.00     0.074 A 
ATOM     20  C   UNL A   1      38.570  31.938  32.968  1.00  0.00     0.031 C 
ATOM     21  C   UNL A   1      40.218  27.643  27.821  1.00  0.00     0.029 A 
ATOM     22  C   UNL A   1      41.172  27.690  28.922  1.00  0.00     0.049 A 
ATOM     23  H   UNL A   1      41.034  28.807  30.673  1.00  0.00     0.167 HD
ATOM     24  C   UNL A   1      40.317  30.989  34.435  1.00  0.00     0.037 A 
ATOM     25  C   UNL A   1      42.318  26.987  29.000  1.00  0.00     0.037 A 
ATOM     26  C   UNL A   1      41.432  30.125  34.688  1.00  0.00     0.049 A 
ATOM     27  C   UNL A   1      43.108  27.042  30.275  1.00  0.00     0.074 A 
ATOM     28  C   UNL A   1      42.134  29.946  35.865  1.00  0.00     0.029 A 
ATOM     29  N   UNL A   1      42.023  29.309  33.732  1.00  0.00    -0.354 N 
ATOM     30  N   UNL A   1      42.840  27.699  31.377  1.00  0.00    -0.248 NA
ATOM     31  C   UNL A   1      44.333  26.235  30.338  1.00  0.00     0.031 C 
ATOM     32  C   UNL A   1      43.186  29.062  35.605  1.00  0.00     0.029 A 
ATOM     33  C   UNL A   1      43.110  28.654  34.280  1.00  0.00     0.049 A 
ATOM     34  H   UNL A   1      41.712  29.210  32.803  1.00  0.00     0.167 HD
ATOM     35  C   UNL A   1      43.833  27.356  32.281  1.00  0.00     0.074 A 
ATOM     36  C   UNL A   1      44.724  26.443  31.591  1.00  0.00     0.031 C 
ATOM     37  C   UNL A   1      43.978  27.745  33.571  1.00  0.00     0.037 A 
BRANCH  24  38
ATOM     38  C   UNL A   1      39.797  31.868  35.528  1.00  0.00     0.064 A 
ATOM     39  C   UNL A   1      40.336  33.144  35.732  1.00  0.00     0.173 A 
ATOM     40  C   UNL A   1      38.734  31.459  36.350  1.00  0.00     0.173 A 
ATOM     41  F   UNL A   1      41.344  33.583  34.964  1.00  0.00    -0.203 F 
ATOM     42  C   UNL A   1      39.824  33.985  36.715  1.00  0.00     0.198 A 
ATOM     43  C   UNL A   1      38.209  32.312  37.315  1.00  0.00     0.198 A 
ATOM     44  F   UNL A   1      38.167  30.256  36.172  1.00  0.00    -0.203 F 
ATOM     45  F   UNL A   1      40.352  35.203  36.893  1.00  0.00    -0.200 F 
ATOM     46  C   UNL A   1      38.756  33.573  37.500  1.00  0.00     0.200 A 
ATOM     47  F   UNL A   1      37.154  31.926  38.046  1.00  0.00    -0.200 F 
ATOM     48  F   UNL A   1      38.242  34.398  38.421  1.00  0.00    -0.200 F 
ENDBRANCH  24  38
BRANCH  25  49
ATOM     49  C   UNL A   1      42.758  26.183  27.833  1.00  0.00     0.064 A 
ATOM     50  C   UNL A   1      43.643  26.728  26.890  1.00  0.00     0.173 A 
ATOM     51  C   UNL A   1      42.276  24.889  27.605  1.00  0.00     0.173 A 
ATOM     52  F   UNL A   1      44.137  27.962  27.071  1.00  0.00    -0.203 F 
ATOM     53  C   UNL A   1      44.015  26.015  25.752  1.00  0.00     0.198 A 
ATOM     54  C   UNL A   1      42.660  24.170  26.474  1.00  0.00     0.198 A 
ATOM     55  F   UNL A   1      41.441  24.320  28.486  1.00  0.00    -0.203 F 
ATOM     56  F   UNL A   1      44.846  26.568  24.858  1.00  0.00    -0.200 F 
ATOM     57  C   UNL A   1      43.523  24.736  25.545  1.00  0.00     0.200 A 
ATOM     58  F   UNL A   1      42.196  22.928  26.282  1.00  0.00    -0.200 F 
ATOM     59  F   UNL A   1      43.882  24.047  24.452  1.00  0.00    -0.200 F 
ENDBRANCH  25  49
BRANCH  37  60
ATOM     60  C   UNL A   1      45.122  27.171  34.348  1.00  0.00     0.064 A 
ATOM     61  C   UNL A   1      44.952  25.982  35.073  1.00  0.00     0.173 A 
ATOM     62  C   UNL A   1      46.331  27.865  34.484  1.00  0.00     0.173 A 
ATOM     63  F   UNL A   1      43.806  25.291  34.978  1.00  0.00    -0.203 F 
ATOM     64  C   UNL A   1      45.941  25.526  35.937  1.00  0.00     0.198 A 
ATOM     65  C   UNL A   1      47.329  27.391  35.330  1.00  0.00     0.198 A 
ATOM     66  F   UNL A   1      46.540  28.999  33.800  1.00  0.00    -0.203 F 
ATOM     67  F   UNL A   1      45.737  24.418  36.662  1.00  0.00    -0.200 F 
ATOM     68  C   UNL A   1      47.127  26.232  36.066  1.00  0.00     0.200 A 
ATOM     69  F   UNL A   1      48.483  28.063  35.442  1.00  0.00    -0.200 F 
ATOM     70  F   UNL A   1      48.077  25.799  36.907  1.00  0.00    -0.200 F 
ENDBRANCH  37  60
ENDBRANCH  11  12
ENDBRANCH   4   6
ENDBRANCH   3   4
ENDBRANCH   2   3
ENDBRANCH   1   2
BRANCH   1  71
ATOM     71  O   UNL A   1      32.920  27.854  25.999  1.00  0.00    -0.458 OA
BRANCH  71  72
ATOM     72  C   UNL A   1      33.126  27.786  24.652  1.00  0.00     0.342 C 
ATOM     73  O   UNL A   1      33.361  28.719  23.903  1.00  0.00    -0.246 OA
BRANCH  72  74
ATOM     74  C   UNL A   1      32.998  26.406  24.160  1.00  0.00     0.103 A 
ATOM     75  C   UNL A   1      34.130  25.584  24.163  1.00  0.00     0.035 A 
ATOM     76  C   UNL A   1      31.748  25.863  23.845  1.00  0.00     0.145 A 
ATOM     77  C   UNL A   1      33.999  24.239  23.808  1.00  0.00     0.019 A 
ATOM     78  C   UNL A   1      31.638  24.536  23.412  1.00  0.00     0.049 A 
ATOM     79  Br  UNL A   1      35.493  23.084  23.946  1.00  0.00    -0.051 Br
ATOM     80  C   UNL A   1      32.769  23.721  23.399  1.00  0.00     0.019 A 
BRANCH  76  81
ATOM     81  O   UNL A   1      30.595  26.663  23.891  1.00  0.00    -0.422 OA
BRANCH  81  82
ATOM     82  C   UNL A   1      30.386  27.415  22.750  1.00  0.00     0.343 C 
ATOM     83  O   UNL A   1      30.882  27.217  21.649  1.00  0.00    -0.246 OA
BRANCH  82  84
ATOM     84  C   UNL A   1      29.457  28.551  23.020  1.00  0.00     0.060 A 
ATOM     85  C   UNL A   1      30.016  29.781  23.403  1.00  0.00     0.019 A 
ATOM     86  C   UNL A   1      28.064  28.449  22.906  1.00  0.00     0.019 A 
ATOM     87  C   UNL A   1      29.199  30.894  23.623  1.00  0.00     0.040 A 
ATOM     88  C   UNL A   1      27.248  29.568  23.101  1.00  0.00     0.040 A 
ATOM     89  C   UNL A   1      27.824  30.781  23.452  1.00  0.00     0.123 A 
ATOM     90  F   UNL A   1      27.044  31.854  23.632  1.00  0.00    -0.207 F 
ENDBRANCH  82  84
ENDBRANCH  81  82
ENDBRANCH  76  81
ENDBRANCH  72  74
ENDBRANCH  71  72
ENDBRANCH   1  71
TORSDOF 14
ENDMDL
MODEL 3
REMARK VINA RESULT:     -12.3      8.804     12.195
REMARK SMILES O=C(OCCOC(=O)c1cc(Br)ccc1OC(=O)c1ccc(F)cc1)c1ccc(-c2c3nc(c(-c4c(F)c(F)c(F)c(F)c4F)c4ccc([nH]4)c(-c4c(F)c(F)c(F)c(F)c4F)c4nc(c(-c5c(F)c(F)c(F)c(F)c5F)c5ccc2[nH]5)C=C4)C=C3)cc1
REMARK SMILES IDX 5 1 4 2 3 3 2 4 1 5 26 6 27 7 88 8 28 9 87 10 29 11 30 12
REMARK SMILES IDX 31 13 81 14 32 15 86 16 80 17 82 18 33 19 85 20 79 21 78 22
REMARK SMILES IDX 34 24 66 25 46 26 65 27 47 28 50 29 64 30 83 31 48 32 49 33
REMARK SMILES IDX 63 35 84 36 51 37 35 38 36 39 44 40 37 41 38 42 42 43 45 44
REMARK SMILES IDX 39 45 40 46 43 47 41 48 67 49 68 50 76 51 69 52 70 53 74 54
REMARK SMILES IDX 77 55 71 56 72 57 75 58 73 59 52 60 53 61 61 62 54 63 55 64
REMARK SMILES IDX 59 65 62 66 56 67 57 68 60 69 58 70 6 71 7 72 8 73 9 74
REMARK SMILES IDX 10 75 15 76 11 77 14 78 12 79 13 80 16 81 17 82 18 83 19 84
REMARK SMILES IDX 20 85 25 86 21 87 24 88 22 89 23 90
REMARK H PARENT 82 23 50 34
REMARK Flexibility Score: inf
ROOT
ATOM      1  C   UNL A   1      46.581  21.135  37.035  1.00  0.00     0.275 C 
ENDROOT
BRANCH   1   2
ATOM      2  C   UNL A   1      45.656  22.161  36.348  1.00  0.00     0.275 C 
BRANCH   2   3
ATOM      3  O   UNL A   1      45.470  23.464  36.919  1.00  0.00    -0.458 OA
BRANCH   3   4
ATOM      4  C   UNL A   1      46.220  24.473  36.440  1.00  0.00     0.338 C 
ATOM      5  O   UNL A   1      47.358  24.718  36.784  1.00  0.00    -0.246 OA
BRANCH   4   6
ATOM      6  C   UNL A   1      45.381  25.316  35.544  1.00  0.00     0.060 A 
ATOM      7  C   UNL A   1      44.042  24.972  35.309  1.00  0.00     0.016 A 
ATOM      8  C   UNL A   1      45.872  26.543  35.086  1.00  0.00     0.016 A 
ATOM      9  C   UNL A   1      43.190  25.860  34.678  1.00  0.00     0.010 A 
ATOM     10  C   UNL A   1      45.003  27.459  34.490  1.00  0.00     0.010 A 
ATOM     11  C   UNL A   1      43.660  27.117  34.285  1.00  0.00    -0.014 A 
BRANCH  11  12
ATOM     12  C   UNL A   1      42.738  27.986  33.533  1.00  0.00     0.031 A 
ATOM     13  C   UNL A   1      42.649  27.801  32.054  1.00  0.00     0.074 A 
ATOM     14  C   UNL A   1      41.903  28.816  34.183  1.00  0.00     0.049 A 
ATOM     15  N   UNL A   1      41.778  28.296  31.217  1.00  0.00    -0.248 NA
ATOM     16  C   UNL A   1      43.652  26.918  31.436  1.00  0.00     0.031 C 
ATOM     17  C   UNL A   1      41.875  29.020  35.630  1.00  0.00     0.029 A 
ATOM     18  N   UNL A   1      40.906  29.628  33.712  1.00  0.00    -0.354 N 
ATOM     19  C   UNL A   1      42.092  27.734  29.990  1.00  0.00     0.074 A 
ATOM     20  C   UNL A   1      43.288  26.943  30.165  1.00  0.00     0.031 C 
ATOM     21  C   UNL A   1      40.923  29.920  35.927  1.00  0.00     0.029 A 
ATOM     22  C   UNL A   1      40.281  30.356  34.693  1.00  0.00     0.049 A 
ATOM     23  H   UNL A   1      40.659  29.683  32.761  1.00  0.00     0.167 HD
ATOM     24  C   UNL A   1      41.402  27.824  28.833  1.00  0.00     0.037 A 
ATOM     25  C   UNL A   1      39.301  31.274  34.599  1.00  0.00     0.037 A 
ATOM     26  C   UNL A   1      40.223  28.623  28.673  1.00  0.00     0.049 A 
ATOM     27  C   UNL A   1      38.649  31.493  33.264  1.00  0.00     0.074 A 
ATOM     28  C   UNL A   1      39.427  28.771  27.554  1.00  0.00     0.029 A 
ATOM     29  N   UNL A   1      39.685  29.432  29.666  1.00  0.00    -0.354 N 
ATOM     30  N   UNL A   1      38.899  30.898  32.123  1.00  0.00    -0.248 NA
ATOM     31  C   UNL A   1      37.558  32.474  33.205  1.00  0.00     0.031 C 
ATOM     32  C   UNL A   1      38.439  29.714  27.853  1.00  0.00     0.029 A 
ATOM     33  C   UNL A   1      38.590  30.117  29.172  1.00  0.00     0.049 A 
ATOM     34  H   UNL A   1      40.032  29.506  30.585  1.00  0.00     0.167 HD
ATOM     35  C   UNL A   1      37.974  31.397  31.219  1.00  0.00     0.074 A 
ATOM     36  C   UNL A   1      37.166  32.361  31.941  1.00  0.00     0.031 C 
ATOM     37  C   UNL A   1      37.799  31.068  29.916  1.00  0.00     0.037 A 
BRANCH  24  38
ATOM     38  C   UNL A   1      41.924  27.033  27.676  1.00  0.00     0.064 A 
ATOM     39  C   UNL A   1      42.881  27.582  26.813  1.00  0.00     0.173 A 
ATOM     40  C   UNL A   1      41.503  25.714  27.444  1.00  0.00     0.173 A 
ATOM     41  F   UNL A   1      43.322  28.834  27.002  1.00  0.00    -0.203 F 
ATOM     42  C   UNL A   1      43.407  26.834  25.763  1.00  0.00     0.198 A 
ATOM     43  C   UNL A   1      42.049  24.961  26.409  1.00  0.00     0.198 A 
ATOM     44  F   UNL A   1      40.609  25.136  28.262  1.00  0.00    -0.203 F 
ATOM     45  F   UNL A   1      44.323  27.376  24.951  1.00  0.00    -0.200 F 
ATOM     46  C   UNL A   1      42.997  25.522  25.568  1.00  0.00     0.200 A 
ATOM     47  F   UNL A   1      41.680  23.683  26.245  1.00  0.00    -0.200 F 
ATOM     48  F   UNL A   1      43.532  24.793  24.579  1.00  0.00    -0.200 F 
ENDBRANCH  24  38
BRANCH  25  49
ATOM     49  C   UNL A   1      38.894  32.031  35.809  1.00  0.00     0.064 A 
ATOM     50  C   UNL A   1      39.346  33.345  36.006  1.00  0.00     0.173 A 
ATOM     51  C   UNL A   1      38.100  31.456  36.808  1.00  0.00     0.173 A 
ATOM     52  F   UNL A   1      40.103  33.941  35.073  1.00  0.00    -0.203 F 
ATOM     53  C   UNL A   1      39.033  34.049  37.167  1.00  0.00     0.198 A 
ATOM     54  C   UNL A   1      37.775  32.166  37.962  1.00  0.00     0.198 A 
ATOM     55  F   UNL A   1      37.633  30.208  36.655  1.00  0.00    -0.203 F 
ATOM     56  F   UNL A   1      39.494  35.296  37.339  1.00  0.00    -0.200 F 
ATOM     57  C   UNL A   1      38.247  33.459  38.145  1.00  0.00     0.200 A 
ATOM     58  F   UNL A   1      37.003  31.600  38.899  1.00  0.00    -0.200 F 
ATOM     59  F   UNL A   1      37.942  34.136  39.261  1.00  0.00    -0.200 F 
ENDBRANCH  25  49
BRANCH  37  60
ATOM     60  C   UNL A   1      36.674  31.723  29.176  1.00  0.00     0.064 A 
ATOM     61  C   UNL A   1      36.701  33.106  28.938  1.00  0.00     0.173 A 
ATOM     62  C   UNL A   1      35.518  31.012  28.829  1.00  0.00     0.173 A 
ATOM     63  F   UNL A   1      37.785  33.826  29.264  1.00  0.00    -0.203 F 
ATOM     64  C   UNL A   1      35.594  33.760  28.410  1.00  0.00     0.198 A 
ATOM     65  C   UNL A   1      34.422  31.667  28.276  1.00  0.00     0.198 A 
ATOM     66  F   UNL A   1      35.455  29.687  29.028  1.00  0.00    -0.203 F 
ATOM     67  F   UNL A   1      35.621  35.090  28.242  1.00  0.00    -0.200 F 
ATOM     68  C   UNL A   1      34.455  33.041  28.083  1.00  0.00     0.200 A 
ATOM     69  F   UNL A   1      33.327  30.970  27.943  1.00  0.00    -0.200 F 
ATOM     70  F   UNL A   1      33.384  33.674  27.584  1.00  0.00    -0.200 F 
ENDBRANCH  37  60
ENDBRANCH  11  12
ENDBRANCH   4   6
ENDBRANCH   3   4
ENDBRANCH   2   3
ENDBRANCH   1   2
BRANCH   1  71
ATOM     71  O   UNL A   1      46.023  20.472  38.185  1.00  0.00    -0.458 OA
BRANCH  71  72
ATOM     72  C   UNL A   1      45.937  19.120  38.028  1.00  0.00     0.342 C 
ATOM     73  O   UNL A   1      45.303  18.525  37.173  1.00  0.00    -0.246 OA
BRANCH  72  74
ATOM     74  C   UNL A   1      46.699  18.411  39.066  1.00  0.00     0.103 A 
ATOM     75  C   UNL A   1      48.023  18.796  39.308  1.00  0.00     0.035 A 
ATOM     76  C   UNL A   1      46.082  17.482  39.910  1.00  0.00     0.145 A 
ATOM     77  C   UNL A   1      48.722  18.211  40.367  1.00  0.00     0.019 A 
ATOM     78  C   UNL A   1      46.813  16.842  40.918  1.00  0.00     0.049 A 
ATOM     79  Br  UNL A   1      50.461  18.825  40.794  1.00  0.00    -0.051 Br
ATOM     80  C   UNL A   1      48.137  17.213  41.149  1.00  0.00     0.019 A 
BRANCH  76  81
ATOM     81  O   UNL A   1      44.738  17.129  39.713  1.00  0.00    -0.422 OA
BRANCH  81  82
ATOM     82  C   UNL A   1      43.941  17.301  40.830  1.00  0.00     0.343 C 
ATOM     83  O   UNL A   1      43.841  18.320  41.499  1.00  0.00    -0.246 OA
BRANCH  82  84
ATOM     84  C   UNL A   1      43.189  16.052  41.149  1.00  0.00     0.060 A 
ATOM     85  C   UNL A   1      42.511  15.408  40.103  1.00  0.00     0.019 A 
ATOM     86  C   UNL A   1      43.134  15.495  42.433  1.00  0.00     0.019 A 
ATOM     87  C   UNL A   1      41.830  14.208  40.331  1.00  0.00     0.040 A 
ATOM     88  C   UNL A   1      42.475  14.281  42.657  1.00  0.00     0.040 A 
ATOM     89  C   UNL A   1      41.834  13.648  41.602  1.00  0.00     0.123 A 
ATOM     90  F   UNL A   1      41.208  12.483  41.814  1.00  0.00    -0.207 F 
ENDBRANCH  82  84
ENDBRANCH  81  82
ENDBRANCH  76  81
ENDBRANCH  72  74
ENDBRANCH  71  72
ENDBRANCH   1  71
TORSDOF 14
ENDMDL
