MODEL 1
REMARK VINA RESULT:     -12.7      0.000      0.000
REMARK SMILES C[C@@H](c1cccc(O)c1)[N@H+]1[C@@H]2CC[C@H]1C[C@H](CC(=O)OCCOC(=O)c1ccc(-c3c4nc(c(-c5c(F)c(F)c(F)c(F)c5F)c5ccc([nH]5)c(-c5c(F)c(F)c(F)c(F)c5F)c5nc(c(-c6c(F)c(F)c(F)c(F)c6F)c6ccc3[nH]6)C=C5)C=C4)cc1)C2
REMARK SMILES IDX 21 1 20 2 18 3 19 4 17 5 16 6 10 7 11 8 14 9 12 11 89 12
REMARK SMILES IDX 13 13 15 14 2 15 1 16 3 17 4 18 9 19 5 20 7 21 6 22 8 23
REMARK SMILES IDX 22 25 23 26 24 27 25 28 26 29 27 30 88 31 28 32 87 33 29 34
REMARK SMILES IDX 30 35 31 36 81 37 32 38 86 39 80 40 82 41 33 42 85 43 79 44
REMARK SMILES IDX 78 45 34 47 66 48 46 49 65 50 47 51 50 52 64 53 83 54 48 55
REMARK SMILES IDX 49 56 63 58 84 59 51 60 35 61 36 62 44 63 37 64 38 65 42 66
REMARK SMILES IDX 45 67 39 68 40 69 43 70 41 71 67 72 68 73 76 74 69 75 70 76
REMARK SMILES IDX 74 77 77 78 71 79 72 80 75 81 73 82 52 83 53 84 61 85 54 86
REMARK SMILES IDX 55 87 59 88 62 89 56 90 57 91 60 92 58 93
REMARK H PARENT 10 10 8 24 82 46 50 57
REMARK Flexibility Score: inf
ROOT
ATOM      1  C   UNL A   1      31.445  28.857  24.878  1.00  0.00     0.274 C 
ENDROOT
BRANCH   1   2
ATOM      2  O   UNL A   1      32.347  27.876  25.420  1.00  0.00    -0.462 OA
BRANCH   2   3
ATOM      3  C   UNL A   1      31.788  26.942  26.228  1.00  0.00     0.306 C 
ATOM      4  O   UNL A   1      31.211  27.173  27.283  1.00  0.00    -0.252 OA
BRANCH   3   5
ATOM      5  C   UNL A   1      31.986  25.542  25.704  1.00  0.00     0.126 C 
BRANCH   5   6
ATOM      6  C   UNL A   1      33.434  25.003  25.766  1.00  0.00     0.012 C 
ATOM      7  N   UNL A   1      34.325  22.443  24.570  1.00  0.00    -0.324 N 
ATOM      8  C   UNL A   1      34.878  23.690  24.027  1.00  0.00     0.185 C 
ATOM      9  C   UNL A   1      34.487  22.643  26.022  1.00  0.00     0.185 C 
ATOM     10  H   UNL A   1      34.818  21.625  24.213  1.00  0.00     0.349 HD
ATOM     11  C   UNL A   1      36.213  23.776  24.770  1.00  0.00     0.071 C 
ATOM     12  C   UNL A   1      33.996  24.911  24.329  1.00  0.00     0.069 C 
ATOM     13  C   UNL A   1      35.930  23.152  26.128  1.00  0.00     0.071 C 
ATOM     14  C   UNL A   1      33.503  23.686  26.576  1.00  0.00     0.069 C 
BRANCH   7  15
ATOM     15  C   UNL A   1      32.988  22.009  24.105  1.00  0.00     0.212 C 
ATOM     16  C   UNL A   1      32.630  22.536  22.695  1.00  0.00     0.081 C 
BRANCH  15  17
ATOM     17  C   UNL A   1      32.835  20.478  24.160  1.00  0.00     0.013 A 
ATOM     18  C   UNL A   1      33.038  19.786  25.368  1.00  0.00     0.010 A 
ATOM     19  C   UNL A   1      32.451  19.720  23.039  1.00  0.00     0.056 A 
ATOM     20  C   UNL A   1      32.875  18.398  25.449  1.00  0.00     0.004 A 
ATOM     21  C   UNL A   1      32.242  18.347  23.139  1.00  0.00     0.116 A 
ATOM     22  C   UNL A   1      32.462  17.675  24.333  1.00  0.00     0.046 A 
BRANCH  21  23
ATOM     23  O   UNL A   1      31.797  17.693  22.027  1.00  0.00    -0.508 OA
ATOM     24  H   UNL A   1      31.961  18.050  21.176  1.00  0.00     0.293 HD
ENDBRANCH  21  23
ENDBRANCH  15  17
ENDBRANCH   7  15
ENDBRANCH   5   6
ENDBRANCH   3   5
ENDBRANCH   2   3
ENDBRANCH   1   2
BRANCH   1  25
ATOM     25  C   UNL A   1      31.727  30.232  25.482  1.00  0.00     0.275 C 
BRANCH  25  26
ATOM     26  O   UNL A   1      33.059  30.284  26.030  1.00  0.00    -0.458 OA
BRANCH  26  27
ATOM     27  C   UNL A   1      33.299  31.281  26.913  1.00  0.00     0.338 C 
ATOM     28  O   UNL A   1      32.594  32.238  27.175  1.00  0.00    -0.246 OA
BRANCH  27  29
ATOM     29  C   UNL A   1      34.564  31.000  27.608  1.00  0.00     0.060 A 
ATOM     30  C   UNL A   1      34.844  29.689  28.003  1.00  0.00     0.016 A 
ATOM     31  C   UNL A   1      35.435  32.041  27.927  1.00  0.00     0.016 A 
ATOM     32  C   UNL A   1      36.008  29.411  28.717  1.00  0.00     0.010 A 
ATOM     33  C   UNL A   1      36.607  31.759  28.635  1.00  0.00     0.010 A 
ATOM     34  C   UNL A   1      36.898  30.444  29.038  1.00  0.00    -0.014 A 
BRANCH  34  35
ATOM     35  C   UNL A   1      38.126  30.160  29.819  1.00  0.00     0.031 A 
ATOM     36  C   UNL A   1      39.171  29.239  29.265  1.00  0.00     0.074 A 
ATOM     37  C   UNL A   1      38.293  30.720  31.032  1.00  0.00     0.049 A 
ATOM     38  N   UNL A   1      40.252  28.769  29.837  1.00  0.00    -0.248 NA
ATOM     39  C   UNL A   1      38.975  28.783  27.880  1.00  0.00     0.031 C 
ATOM     40  C   UNL A   1      37.366  31.659  31.662  1.00  0.00     0.029 A 
ATOM     41  N   UNL A   1      39.297  30.566  31.955  1.00  0.00    -0.354 N 
ATOM     42  C   UNL A   1      40.851  27.948  28.894  1.00  0.00     0.074 A 
ATOM     43  C   UNL A   1      40.011  27.973  27.715  1.00  0.00     0.031 C 
ATOM     44  C   UNL A   1      37.841  31.994  32.873  1.00  0.00     0.029 A 
ATOM     45  C   UNL A   1      39.079  31.258  33.121  1.00  0.00     0.049 A 
ATOM     46  H   UNL A   1      40.096  30.012  31.797  1.00  0.00     0.167 HD
ATOM     47  C   UNL A   1      42.001  27.239  29.004  1.00  0.00     0.037 A 
ATOM     48  C   UNL A   1      39.781  31.270  34.269  1.00  0.00     0.037 A 
ATOM     49  C   UNL A   1      42.842  27.227  30.171  1.00  0.00     0.049 A 
ATOM     50  C   UNL A   1      41.022  30.428  34.386  1.00  0.00     0.074 A 
ATOM     51  C   UNL A   1      44.038  26.558  30.370  1.00  0.00     0.029 A 
ATOM     52  N   UNL A   1      42.574  27.919  31.344  1.00  0.00    -0.354 N 
ATOM     53  N   UNL A   1      41.580  29.649  33.492  1.00  0.00    -0.248 NA
ATOM     54  C   UNL A   1      41.723  30.459  35.677  1.00  0.00     0.031 C 
ATOM     55  C   UNL A   1      44.474  26.815  31.674  1.00  0.00     0.029 A 
ATOM     56  C   UNL A   1      43.570  27.676  32.276  1.00  0.00     0.049 A 
ATOM     57  H   UNL A   1      41.791  28.498  31.491  1.00  0.00     0.167 HD
ATOM     58  C   UNL A   1      42.702  29.108  34.105  1.00  0.00     0.074 A 
ATOM     59  C   UNL A   1      42.756  29.660  35.443  1.00  0.00     0.031 C 
ATOM     60  C   UNL A   1      43.605  28.230  33.605  1.00  0.00     0.037 A 
BRANCH  47  61
ATOM     61  C   UNL A   1      42.404  26.394  27.834  1.00  0.00     0.064 A 
ATOM     62  C   UNL A   1      41.884  25.106  27.643  1.00  0.00     0.173 A 
ATOM     63  C   UNL A   1      43.296  26.894  26.873  1.00  0.00     0.173 A 
ATOM     64  F   UNL A   1      41.039  24.579  28.541  1.00  0.00    -0.203 F 
ATOM     65  C   UNL A   1      42.258  24.341  26.541  1.00  0.00     0.198 A 
ATOM     66  C   UNL A   1      43.651  26.135  25.762  1.00  0.00     0.198 A 
ATOM     67  F   UNL A   1      43.818  28.122  27.009  1.00  0.00    -0.203 F 
ATOM     68  F   UNL A   1      41.778  23.098  26.396  1.00  0.00    -0.200 F 
ATOM     69  C   UNL A   1      43.137  24.858  25.599  1.00  0.00     0.200 A 
ATOM     70  F   UNL A   1      44.492  26.638  24.848  1.00  0.00    -0.200 F 
ATOM     71  F   UNL A   1      43.492  24.121  24.538  1.00  0.00    -0.200 F 
ENDBRANCH  47  61
BRANCH  48  72
ATOM     72  C   UNL A   1      39.310  32.090  35.413  1.00  0.00     0.064 A 
ATOM     73  C   UNL A   1      38.480  31.542  36.399  1.00  0.00     0.173 A 
ATOM     74  C   UNL A   1      39.680  33.437  35.542  1.00  0.00     0.173 A 
ATOM     75  F   UNL A   1      38.079  30.266  36.302  1.00  0.00    -0.203 F 
ATOM     76  C   UNL A   1      38.028  32.313  37.468  1.00  0.00     0.198 A 
ATOM     77  C   UNL A   1      39.246  34.201  36.623  1.00  0.00     0.198 A 
ATOM     78  F   UNL A   1      40.469  34.009  34.621  1.00  0.00    -0.203 F 
ATOM     79  F   UNL A   1      37.204  31.775  38.377  1.00  0.00    -0.200 F 
ATOM     80  C   UNL A   1      38.417  33.640  37.582  1.00  0.00     0.200 A 
ATOM     81  F   UNL A   1      39.631  35.480  36.735  1.00  0.00    -0.200 F 
ATOM     82  F   UNL A   1      37.985  34.380  38.612  1.00  0.00    -0.200 F 
ENDBRANCH  48  72
BRANCH  60  83
ATOM     83  C   UNL A   1      44.735  27.826  34.503  1.00  0.00     0.064 A 
ATOM     84  C   UNL A   1      45.928  28.560  34.550  1.00  0.00     0.173 A 
ATOM     85  C   UNL A   1      44.610  26.714  35.348  1.00  0.00     0.173 A 
ATOM     86  F   UNL A   1      46.101  29.620  33.749  1.00  0.00    -0.203 F 
ATOM     87  C   UNL A   1      46.965  28.183  35.400  1.00  0.00     0.198 A 
ATOM     88  C   UNL A   1      45.639  26.352  36.213  1.00  0.00     0.198 A 
ATOM     89  F   UNL A   1      43.485  25.981  35.341  1.00  0.00    -0.203 F 
ATOM     90  F   UNL A   1      48.113  28.874  35.402  1.00  0.00    -0.200 F 
ATOM     91  C   UNL A   1      46.818  27.084  36.234  1.00  0.00     0.200 A 
ATOM     92  F   UNL A   1      45.493  25.296  37.024  1.00  0.00    -0.200 F 
ATOM     93  F   UNL A   1      47.816  26.724  37.053  1.00  0.00    -0.200 F 
ENDBRANCH  60  83
ENDBRANCH  34  35
ENDBRANCH  27  29
ENDBRANCH  26  27
ENDBRANCH  25  26
ENDBRANCH   1  25
TORSDOF 15
ENDMDL
MODEL 2
REMARK VINA RESULT:     -12.5      1.716      2.932
REMARK SMILES C[C@@H](c1cccc(O)c1)[N@H+]1[C@@H]2CC[C@H]1C[C@H](CC(=O)OCCOC(=O)c1ccc(-c3c4nc(c(-c5c(F)c(F)c(F)c(F)c5F)c5ccc([nH]5)c(-c5c(F)c(F)c(F)c(F)c5F)c5nc(c(-c6c(F)c(F)c(F)c(F)c6F)c6ccc3[nH]6)C=C5)C=C4)cc1)C2
REMARK SMILES IDX 21 1 20 2 18 3 19 4 17 5 16 6 10 7 11 8 14 9 12 11 89 12
REMARK SMILES IDX 13 13 15 14 2 15 1 16 3 17 4 18 9 19 5 20 7 21 6 22 8 23
REMARK SMILES IDX 22 25 23 26 24 27 25 28 26 29 27 30 88 31 28 32 87 33 29 34
REMARK SMILES IDX 30 35 31 36 81 37 32 38 86 39 80 40 82 41 33 42 85 43 79 44
REMARK SMILES IDX 78 45 34 47 66 48 46 49 65 50 47 51 50 52 64 53 83 54 48 55
REMARK SMILES IDX 49 56 63 58 84 59 51 60 35 61 36 62 44 63 37 64 38 65 42 66
REMARK SMILES IDX 45 67 39 68 40 69 43 70 41 71 67 72 68 73 76 74 69 75 70 76
REMARK SMILES IDX 74 77 77 78 71 79 72 80 75 81 73 82 52 83 53 84 61 85 54 86
REMARK SMILES IDX 55 87 59 88 62 89 56 90 57 91 60 92 58 93
REMARK H PARENT 10 10 8 24 82 46 50 57
REMARK Flexibility Score: inf
ROOT
ATOM      1  C   UNL A   1      31.620  28.793  24.040  1.00  0.00     0.274 C 
ENDROOT
BRANCH   1   2
ATOM      2  O   UNL A   1      30.319  28.839  23.429  1.00  0.00    -0.462 OA
BRANCH   2   3
ATOM      3  C   UNL A   1      29.651  27.661  23.371  1.00  0.00     0.306 C 
ATOM      4  O   UNL A   1      28.444  27.523  23.528  1.00  0.00    -0.252 OA
BRANCH   3   5
ATOM      5  C   UNL A   1      30.572  26.493  23.126  1.00  0.00     0.126 C 
BRANCH   5   6
ATOM      6  C   UNL A   1      30.403  25.294  24.088  1.00  0.00     0.012 C 
ATOM      7  N   UNL A   1      32.618  24.021  25.588  1.00  0.00    -0.324 N 
ATOM      8  C   UNL A   1      31.567  24.704  26.353  1.00  0.00     0.185 C 
ATOM      9  C   UNL A   1      31.830  23.199  24.652  1.00  0.00     0.185 C 
ATOM     10  H   UNL A   1      33.231  23.475  26.193  1.00  0.00     0.349 HD
ATOM     11  C   UNL A   1      30.666  23.529  26.741  1.00  0.00     0.071 C 
ATOM     12  C   UNL A   1      30.801  25.738  25.515  1.00  0.00     0.069 C 
ATOM     13  C   UNL A   1      30.778  22.565  25.570  1.00  0.00     0.071 C 
ATOM     14  C   UNL A   1      31.155  24.049  23.562  1.00  0.00     0.069 C 
BRANCH   7  15
ATOM     15  C   UNL A   1      33.702  24.840  25.001  1.00  0.00     0.212 C 
ATOM     16  C   UNL A   1      33.965  26.153  25.777  1.00  0.00     0.081 C 
BRANCH  15  17
ATOM     17  C   UNL A   1      35.007  24.037  24.850  1.00  0.00     0.013 A 
ATOM     18  C   UNL A   1      35.296  23.371  23.645  1.00  0.00     0.010 A 
ATOM     19  C   UNL A   1      35.971  23.968  25.872  1.00  0.00     0.056 A 
ATOM     20  C   UNL A   1      36.490  22.660  23.473  1.00  0.00     0.004 A 
ATOM     21  C   UNL A   1      37.177  23.301  25.677  1.00  0.00     0.116 A 
ATOM     22  C   UNL A   1      37.441  22.634  24.489  1.00  0.00     0.046 A 
BRANCH  21  23
ATOM     23  O   UNL A   1      38.093  23.343  26.688  1.00  0.00    -0.508 OA
ATOM     24  H   UNL A   1      39.002  23.221  26.501  1.00  0.00     0.293 HD
ENDBRANCH  21  23
ENDBRANCH  15  17
ENDBRANCH   7  15
ENDBRANCH   5   6
ENDBRANCH   3   5
ENDBRANCH   2   3
ENDBRANCH   1   2
BRANCH   1  25
ATOM     25  C   UNL A   1      31.631  29.609  25.332  1.00  0.00     0.275 C 
BRANCH  25  26
ATOM     26  O   UNL A   1      32.979  29.958  25.703  1.00  0.00    -0.458 OA
BRANCH  26  27
ATOM     27  C   UNL A   1      33.106  30.869  26.694  1.00  0.00     0.338 C 
ATOM     28  O   UNL A   1      32.307  31.720  27.039  1.00  0.00    -0.246 OA
BRANCH  27  29
ATOM     29  C   UNL A   1      34.380  30.635  27.391  1.00  0.00     0.060 A 
ATOM     30  C   UNL A   1      34.678  29.346  27.843  1.00  0.00     0.016 A 
ATOM     31  C   UNL A   1      35.242  31.698  27.653  1.00  0.00     0.016 A 
ATOM     32  C   UNL A   1      35.851  29.114  28.558  1.00  0.00     0.010 A 
ATOM     33  C   UNL A   1      36.422  31.463  28.363  1.00  0.00     0.010 A 
ATOM     34  C   UNL A   1      36.732  30.170  28.824  1.00  0.00    -0.014 A 
BRANCH  34  35
ATOM     35  C   UNL A   1      37.970  29.937  29.606  1.00  0.00     0.031 A 
ATOM     36  C   UNL A   1      39.031  29.021  29.075  1.00  0.00     0.074 A 
ATOM     37  C   UNL A   1      38.131  30.537  30.800  1.00  0.00     0.049 A 
ATOM     38  N   UNL A   1      40.124  28.591  29.654  1.00  0.00    -0.248 NA
ATOM     39  C   UNL A   1      38.838  28.517  27.706  1.00  0.00     0.031 C 
ATOM     40  C   UNL A   1      37.189  31.476  31.406  1.00  0.00     0.029 A 
ATOM     41  N   UNL A   1      39.143  30.432  31.722  1.00  0.00    -0.354 N 
ATOM     42  C   UNL A   1      40.736  27.754  28.734  1.00  0.00     0.074 A 
ATOM     43  C   UNL A   1      39.889  27.724  27.559  1.00  0.00     0.031 C 
ATOM     44  C   UNL A   1      37.663  31.858  32.603  1.00  0.00     0.029 A 
ATOM     45  C   UNL A   1      38.917  31.155  32.866  1.00  0.00     0.049 A 
ATOM     46  H   UNL A   1      39.952  29.890  31.576  1.00  0.00     0.167 HD
ATOM     47  C   UNL A   1      41.900  27.073  28.859  1.00  0.00     0.037 A 
ATOM     48  C   UNL A   1      39.624  31.218  34.010  1.00  0.00     0.037 A 
ATOM     49  C   UNL A   1      42.748  27.114  30.021  1.00  0.00     0.049 A 
ATOM     50  C   UNL A   1      40.883  30.406  34.146  1.00  0.00     0.074 A 
ATOM     51  C   UNL A   1      43.958  26.476  30.234  1.00  0.00     0.029 A 
ATOM     52  N   UNL A   1      42.471  27.837  31.174  1.00  0.00    -0.354 N 
ATOM     53  N   UNL A   1      41.453  29.611  33.273  1.00  0.00    -0.248 NA
ATOM     54  C   UNL A   1      41.590  30.491  35.431  1.00  0.00     0.031 C 
ATOM     55  C   UNL A   1      44.395  26.783  31.526  1.00  0.00     0.029 A 
ATOM     56  C   UNL A   1      43.477  27.643  32.107  1.00  0.00     0.049 A 
ATOM     57  H   UNL A   1      41.677  28.403  31.307  1.00  0.00     0.167 HD
ATOM     58  C   UNL A   1      42.589  29.113  33.896  1.00  0.00     0.074 A 
ATOM     59  C   UNL A   1      42.638  29.707  35.216  1.00  0.00     0.031 C 
ATOM     60  C   UNL A   1      43.507  28.239  33.418  1.00  0.00     0.037 A 
BRANCH  47  61
ATOM     61  C   UNL A   1      42.315  26.200  27.713  1.00  0.00     0.064 A 
ATOM     62  C   UNL A   1      41.776  24.919  27.532  1.00  0.00     0.173 A 
ATOM     63  C   UNL A   1      43.239  26.667  26.766  1.00  0.00     0.173 A 
ATOM     64  F   UNL A   1      40.900  24.423  28.418  1.00  0.00    -0.203 F 
ATOM     65  C   UNL A   1      42.161  24.128  26.452  1.00  0.00     0.198 A 
ATOM     66  C   UNL A   1      43.605  25.882  25.676  1.00  0.00     0.198 A 
ATOM     67  F   UNL A   1      43.780  27.888  26.894  1.00  0.00    -0.203 F 
ATOM     68  F   UNL A   1      41.662  22.891  26.317  1.00  0.00    -0.200 F 
ATOM     69  C   UNL A   1      43.071  24.612  25.523  1.00  0.00     0.200 A 
ATOM     70  F   UNL A   1      44.477  26.354  24.775  1.00  0.00    -0.200 F 
ATOM     71  F   UNL A   1      43.437  23.851  24.483  1.00  0.00    -0.200 F 
ENDBRANCH  47  61
BRANCH  48  72
ATOM     72  C   UNL A   1      39.142  32.063  35.130  1.00  0.00     0.064 A 
ATOM     73  C   UNL A   1      39.401  33.440  35.158  1.00  0.00     0.173 A 
ATOM     74  C   UNL A   1      38.415  31.512  36.195  1.00  0.00     0.173 A 
ATOM     75  F   UNL A   1      40.118  34.005  34.175  1.00  0.00    -0.203 F 
ATOM     76  C   UNL A   1      38.959  34.233  36.213  1.00  0.00     0.198 A 
ATOM     77  C   UNL A   1      37.952  32.311  37.239  1.00  0.00     0.198 A 
ATOM     78  F   UNL A   1      38.145  30.199  36.216  1.00  0.00    -0.203 F 
ATOM     79  F   UNL A   1      39.253  35.540  36.235  1.00  0.00    -0.200 F 
ATOM     80  C   UNL A   1      38.229  33.669  37.250  1.00  0.00     0.200 A 
ATOM     81  F   UNL A   1      37.240  31.763  38.234  1.00  0.00    -0.200 F 
ATOM     82  F   UNL A   1      37.801  34.433  38.263  1.00  0.00    -0.200 F 
ENDBRANCH  48  72
BRANCH  60  83
ATOM     83  C   UNL A   1      44.650  27.886  34.321  1.00  0.00     0.064 A 
ATOM     84  C   UNL A   1      44.592  26.772  35.171  1.00  0.00     0.173 A 
ATOM     85  C   UNL A   1      45.827  28.648  34.312  1.00  0.00     0.173 A 
ATOM     86  F   UNL A   1      43.481  26.023  35.227  1.00  0.00    -0.203 F 
ATOM     87  C   UNL A   1      45.666  26.446  35.994  1.00  0.00     0.198 A 
ATOM     88  C   UNL A   1      46.908  28.306  35.120  1.00  0.00     0.198 A 
ATOM     89  F   UNL A   1      45.932  29.721  33.513  1.00  0.00    -0.203 F 
ATOM     90  F   UNL A   1      45.575  25.400  36.828  1.00  0.00    -0.200 F 
ATOM     91  C   UNL A   1      46.824  27.209  35.964  1.00  0.00     0.200 A 
ATOM     92  F   UNL A   1      48.029  29.038  35.084  1.00  0.00    -0.200 F 
ATOM     93  F   UNL A   1      47.858  26.891  36.755  1.00  0.00    -0.200 F 
ENDBRANCH  60  83
ENDBRANCH  34  35
ENDBRANCH  27  29
ENDBRANCH  26  27
ENDBRANCH  25  26
ENDBRANCH   1  25
TORSDOF 15
ENDMDL
MODEL 3
REMARK VINA RESULT:     -12.4      4.463      9.795
REMARK SMILES C[C@@H](c1cccc(O)c1)[N@H+]1[C@@H]2CC[C@H]1C[C@H](CC(=O)OCCOC(=O)c1ccc(-c3c4nc(c(-c5c(F)c(F)c(F)c(F)c5F)c5ccc([nH]5)c(-c5c(F)c(F)c(F)c(F)c5F)c5nc(c(-c6c(F)c(F)c(F)c(F)c6F)c6ccc3[nH]6)C=C5)C=C4)cc1)C2
REMARK SMILES IDX 21 1 20 2 18 3 19 4 17 5 16 6 10 7 11 8 14 9 12 11 89 12
REMARK SMILES IDX 13 13 15 14 2 15 1 16 3 17 4 18 9 19 5 20 7 21 6 22 8 23
REMARK SMILES IDX 22 25 23 26 24 27 25 28 26 29 27 30 88 31 28 32 87 33 29 34
REMARK SMILES IDX 30 35 31 36 81 37 32 38 86 39 80 40 82 41 33 42 85 43 79 44
REMARK SMILES IDX 78 45 34 47 66 48 46 49 65 50 47 51 50 52 64 53 83 54 48 55
REMARK SMILES IDX 49 56 63 58 84 59 51 60 35 61 36 62 44 63 37 64 38 65 42 66
REMARK SMILES IDX 45 67 39 68 40 69 43 70 41 71 67 72 68 73 76 74 69 75 70 76
REMARK SMILES IDX 74 77 77 78 71 79 72 80 75 81 73 82 52 83 53 84 61 85 54 86
REMARK SMILES IDX 55 87 59 88 62 89 56 90 57 91 60 92 58 93
REMARK H PARENT 10 10 8 24 82 46 50 57
REMARK Flexibility Score: inf
ROOT
ATOM      1  C   UNL A   1      35.343  21.261  24.776  1.00  0.00     0.274 C 
ENDROOT
BRANCH   1   2
ATOM      2  O   UNL A   1      35.225  22.690  24.889  1.00  0.00    -0.462 OA
BRANCH   2   3
ATOM      3  C   UNL A   1      34.917  23.350  23.746  1.00  0.00     0.306 C 
ATOM      4  O   UNL A   1      35.577  23.324  22.715  1.00  0.00    -0.252 OA
BRANCH   3   5
ATOM      5  C   UNL A   1      33.664  24.177  23.883  1.00  0.00     0.126 C 
BRANCH   5   6
ATOM      6  C   UNL A   1      33.811  25.485  24.695  1.00  0.00     0.012 C 
ATOM      7  N   UNL A   1      31.761  27.620  24.826  1.00  0.00    -0.324 N 
ATOM      8  C   UNL A   1      32.080  26.890  26.059  1.00  0.00     0.185 C 
ATOM      9  C   UNL A   1      33.103  27.954  24.312  1.00  0.00     0.185 C 
ATOM     10  H   UNL A   1      31.180  28.437  25.010  1.00  0.00     0.349 HD
ATOM     11  C   UNL A   1      33.076  27.844  26.724  1.00  0.00     0.071 C 
ATOM     12  C   UNL A   1      32.719  25.521  25.790  1.00  0.00     0.069 C 
ATOM     13  C   UNL A   1      33.812  28.491  25.561  1.00  0.00     0.071 C 
ATOM     14  C   UNL A   1      33.836  26.719  23.762  1.00  0.00     0.069 C 
BRANCH   7  15
ATOM     15  C   UNL A   1      30.820  26.998  23.867  1.00  0.00     0.212 C 
ATOM     16  C   UNL A   1      30.034  25.807  24.467  1.00  0.00     0.081 C 
BRANCH  15  17
ATOM     17  C   UNL A   1      29.850  28.032  23.267  1.00  0.00     0.013 A 
ATOM     18  C   UNL A   1      30.340  29.099  22.492  1.00  0.00     0.010 A 
ATOM     19  C   UNL A   1      28.456  27.937  23.425  1.00  0.00     0.056 A 
ATOM     20  C   UNL A   1      29.476  30.034  21.911  1.00  0.00     0.004 A 
ATOM     21  C   UNL A   1      27.600  28.841  22.804  1.00  0.00     0.116 A 
ATOM     22  C   UNL A   1      28.098  29.899  22.055  1.00  0.00     0.046 A 
BRANCH  21  23
ATOM     23  O   UNL A   1      26.257  28.638  22.942  1.00  0.00    -0.508 OA
ATOM     24  H   UNL A   1      25.654  29.308  22.691  1.00  0.00     0.293 HD
ENDBRANCH  21  23
ENDBRANCH  15  17
ENDBRANCH   7  15
ENDBRANCH   5   6
ENDBRANCH   3   5
ENDBRANCH   2   3
ENDBRANCH   1   2
BRANCH   1  25
ATOM     25  C   UNL A   1      36.802  20.833  24.932  1.00  0.00     0.275 C 
BRANCH  25  26
ATOM     26  O   UNL A   1      37.497  21.712  25.837  1.00  0.00    -0.458 OA
BRANCH  26  27
ATOM     27  C   UNL A   1      38.793  21.412  26.079  1.00  0.00     0.338 C 
ATOM     28  O   UNL A   1      39.364  20.351  25.902  1.00  0.00    -0.246 OA
BRANCH  27  29
ATOM     29  C   UNL A   1      39.481  22.626  26.541  1.00  0.00     0.060 A 
ATOM     30  C   UNL A   1      39.085  23.865  26.031  1.00  0.00     0.016 A 
ATOM     31  C   UNL A   1      40.557  22.531  27.423  1.00  0.00     0.016 A 
ATOM     32  C   UNL A   1      39.763  25.023  26.409  1.00  0.00     0.010 A 
ATOM     33  C   UNL A   1      41.230  23.693  27.808  1.00  0.00     0.010 A 
ATOM     34  C   UNL A   1      40.841  24.946  27.300  1.00  0.00    -0.014 A 
BRANCH  34  35
ATOM     35  C   UNL A   1      41.583  26.169  27.687  1.00  0.00     0.031 A 
ATOM     36  C   UNL A   1      40.905  27.234  28.496  1.00  0.00     0.074 A 
ATOM     37  C   UNL A   1      42.862  26.328  27.299  1.00  0.00     0.049 A 
ATOM     38  N   UNL A   1      41.337  28.424  28.832  1.00  0.00    -0.248 NA
ATOM     39  C   UNL A   1      39.557  26.920  28.994  1.00  0.00     0.031 C 
ATOM     40  C   UNL A   1      43.641  25.349  26.542  1.00  0.00     0.029 A 
ATOM     41  N   UNL A   1      43.725  27.381  27.478  1.00  0.00    -0.354 N 
ATOM     42  C   UNL A   1      40.310  29.007  29.560  1.00  0.00     0.074 A 
ATOM     43  C   UNL A   1      39.227  28.046  29.609  1.00  0.00     0.031 C 
ATOM     44  C   UNL A   1      44.867  25.849  26.314  1.00  0.00     0.029 A 
ATOM     45  C   UNL A   1      44.942  27.200  26.869  1.00  0.00     0.049 A 
ATOM     46  H   UNL A   1      43.492  28.188  27.992  1.00  0.00     0.167 HD
ATOM     47  C   UNL A   1      40.277  30.233  30.135  1.00  0.00     0.037 A 
ATOM     48  C   UNL A   1      45.986  28.040  26.744  1.00  0.00     0.037 A 
ATOM     49  C   UNL A   1      41.359  31.180  30.097  1.00  0.00     0.049 A 
ATOM     50  C   UNL A   1      45.901  29.418  27.342  1.00  0.00     0.074 A 
ATOM     51  C   UNL A   1      41.428  32.439  30.669  1.00  0.00     0.029 A 
ATOM     52  N   UNL A   1      42.567  30.972  29.446  1.00  0.00    -0.354 N 
ATOM     53  N   UNL A   1      44.924  29.965  28.023  1.00  0.00    -0.248 NA
ATOM     54  C   UNL A   1      47.060  30.299  27.141  1.00  0.00     0.031 C 
ATOM     55  C   UNL A   1      42.662  33.007  30.334  1.00  0.00     0.029 A 
ATOM     56  C   UNL A   1      43.378  32.087  29.585  1.00  0.00     0.049 A 
ATOM     57  H   UNL A   1      42.811  30.153  28.958  1.00  0.00     0.167 HD
ATOM     58  C   UNL A   1      45.354  31.246  28.344  1.00  0.00     0.074 A 
ATOM     59  C   UNL A   1      46.686  31.390  27.796  1.00  0.00     0.031 C 
ATOM     60  C   UNL A   1      44.700  32.215  29.029  1.00  0.00     0.037 A 
BRANCH  47  61
ATOM     61  C   UNL A   1      39.014  30.631  30.837  1.00  0.00     0.064 A 
ATOM     62  C   UNL A   1      38.874  30.507  32.226  1.00  0.00     0.173 A 
ATOM     63  C   UNL A   1      37.943  31.177  30.112  1.00  0.00     0.173 A 
ATOM     64  F   UNL A   1      39.864  29.979  32.960  1.00  0.00    -0.203 F 
ATOM     65  C   UNL A   1      37.698  30.898  32.863  1.00  0.00     0.198 A 
ATOM     66  C   UNL A   1      36.778  31.586  30.755  1.00  0.00     0.198 A 
ATOM     67  F   UNL A   1      38.030  31.319  28.781  1.00  0.00    -0.203 F 
ATOM     68  F   UNL A   1      37.571  30.737  34.188  1.00  0.00    -0.200 F 
ATOM     69  C   UNL A   1      36.655  31.441  32.128  1.00  0.00     0.200 A 
ATOM     70  F   UNL A   1      35.774  32.119  30.046  1.00  0.00    -0.200 F 
ATOM     71  F   UNL A   1      35.526  31.820  32.744  1.00  0.00    -0.200 F 
ENDBRANCH  47  61
BRANCH  48  72
ATOM     72  C   UNL A   1      47.194  27.610  25.998  1.00  0.00     0.064 A 
ATOM     73  C   UNL A   1      48.318  27.113  26.672  1.00  0.00     0.173 A 
ATOM     74  C   UNL A   1      47.250  27.687  24.599  1.00  0.00     0.173 A 
ATOM     75  F   UNL A   1      48.320  27.048  28.011  1.00  0.00    -0.203 F 
ATOM     76  C   UNL A   1      49.457  26.719  25.974  1.00  0.00     0.198 A 
ATOM     77  C   UNL A   1      48.381  27.271  23.901  1.00  0.00     0.198 A 
ATOM     78  F   UNL A   1      46.202  28.160  23.910  1.00  0.00    -0.203 F 
ATOM     79  F   UNL A   1      50.533  26.283  26.644  1.00  0.00    -0.200 F 
ATOM     80  C   UNL A   1      49.485  26.792  24.589  1.00  0.00     0.200 A 
ATOM     81  F   UNL A   1      48.402  27.335  22.562  1.00  0.00    -0.200 F 
ATOM     82  F   UNL A   1      50.580  26.409  23.919  1.00  0.00    -0.200 F 
ENDBRANCH  48  72
BRANCH  60  83
ATOM     83  C   UNL A   1      45.424  33.511  29.236  1.00  0.00     0.064 A 
ATOM     84  C   UNL A   1      45.289  34.576  28.334  1.00  0.00     0.173 A 
ATOM     85  C   UNL A   1      46.234  33.702  30.365  1.00  0.00     0.173 A 
ATOM     86  F   UNL A   1      44.539  34.435  27.231  1.00  0.00    -0.203 F 
ATOM     87  C   UNL A   1      45.955  35.780  28.545  1.00  0.00     0.198 A 
ATOM     88  C   UNL A   1      46.880  34.915  30.586  1.00  0.00     0.198 A 
ATOM     89  F   UNL A   1      46.392  32.714  31.259  1.00  0.00    -0.203 F 
ATOM     90  F   UNL A   1      45.844  36.772  27.651  1.00  0.00    -0.200 F 
ATOM     91  C   UNL A   1      46.745  35.951  29.673  1.00  0.00     0.200 A 
ATOM     92  F   UNL A   1      47.637  35.082  31.680  1.00  0.00    -0.200 F 
ATOM     93  F   UNL A   1      47.382  37.112  29.877  1.00  0.00    -0.200 F 
ENDBRANCH  60  83
ENDBRANCH  34  35
ENDBRANCH  27  29
ENDBRANCH  26  27
ENDBRANCH  25  26
ENDBRANCH   1  25
TORSDOF 15
ENDMDL
