MODEL 1
REMARK VINA RESULT:     -12.4      0.000      0.000
REMARK SMILES CCCc1cc2c(cc1Cl)C=C(C(=O)OCCOC(=O)c1ccc(-c3c4nc(c(-c5c(F)c(F)c(F)c(F)c5F)c5ccc([nH]5)c(-c5c(F)c(F)c(F)c(F)c5F)c5nc(c(-c6c(F)c(F)c(F)c(F)c6F)c6ccc3[nH]6)C=C5)C=C4)cc1)[C@@H](C(F)(F)F)O2
REMARK SMILES IDX 16 1 15 2 13 3 14 4 12 5 4 6 5 7 9 8 6 9 8 10 10 11 7 12
REMARK SMILES IDX 89 13 11 14 84 15 3 16 2 17 1 18 85 19 86 20 87 21 88 22
REMARK SMILES IDX 17 23 18 24 19 25 20 26 21 27 22 28 83 29 23 30 82 31 24 32
REMARK SMILES IDX 25 33 26 34 76 35 27 36 81 37 75 38 77 39 28 40 80 41 74 42
REMARK SMILES IDX 73 43 29 45 61 46 41 47 60 48 42 49 45 50 59 51 78 52 43 53
REMARK SMILES IDX 44 54 58 56 79 57 46 58 30 59 31 60 39 61 32 62 33 63 37 64
REMARK SMILES IDX 40 65 34 66 35 67 38 68 36 69 62 70 63 71 71 72 64 73 65 74
REMARK SMILES IDX 69 75 72 76 66 77 67 78 70 79 68 80 47 81 48 82 56 83 49 84
REMARK SMILES IDX 50 85 54 86 57 87 51 88 52 89 55 90 53 91
REMARK H PARENT 77 44 45 55
REMARK Flexibility Score: inf
ROOT
ATOM      1  C   UNL A   1      35.966  20.319  25.087  1.00  0.00     0.275 C 
ENDROOT
BRANCH   1   2
ATOM      2  O   UNL A   1      35.631  21.337  26.057  1.00  0.00    -0.459 OA
BRANCH   2   3
ATOM      3  C   UNL A   1      34.357  21.781  25.980  1.00  0.00     0.338 C 
ATOM      4  O   UNL A   1      33.382  21.289  26.524  1.00  0.00    -0.246 OA
BRANCH   3   5
ATOM      5  C   UNL A   1      34.260  23.015  25.183  1.00  0.00     0.087 C 
ATOM      6  C   UNL A   1      32.709  27.649  23.943  1.00  0.00    -0.026 A 
ATOM      7  C   UNL A   1      33.184  26.524  23.206  1.00  0.00     0.052 A 
ATOM      8  C   UNL A   1      32.693  27.540  25.343  1.00  0.00     0.045 A 
ATOM      9  C   UNL A   1      33.622  25.356  23.833  1.00  0.00     0.128 A 
ATOM     10  C   UNL A   1      33.208  26.401  25.965  1.00  0.00     0.032 A 
ATOM     11  Cl  UNL A   1      32.022  28.686  26.443  1.00  0.00    -0.084 Cl
ATOM     12  C   UNL A   1      33.672  25.322  25.215  1.00  0.00     0.019 A 
ATOM     13  O   UNL A   1      34.000  24.293  23.055  1.00  0.00    -0.475 OA
ATOM     14  C   UNL A   1      34.130  24.137  25.894  1.00  0.00     0.027 C 
ATOM     15  C   UNL A   1      34.074  22.973  23.695  1.00  0.00     0.316 C 
BRANCH   6  16
ATOM     16  C   UNL A   1      32.275  28.829  23.088  1.00  0.00     0.037 C 
BRANCH  16  17
ATOM     17  C   UNL A   1      30.852  28.980  22.544  1.00  0.00     0.001 C 
ATOM     18  C   UNL A   1      29.904  29.702  23.495  1.00  0.00     0.004 C 
ENDBRANCH  16  17
ENDBRANCH   6  16
BRANCH  15  19
ATOM     19  C   UNL A   1      32.852  22.129  23.298  1.00  0.00     0.430 C 
ATOM     20  F   UNL A   1      32.527  22.313  21.996  1.00  0.00    -0.167 F 
ATOM     21  F   UNL A   1      33.099  20.806  23.452  1.00  0.00    -0.167 F 
ATOM     22  F   UNL A   1      31.760  22.427  24.037  1.00  0.00    -0.167 F 
ENDBRANCH  15  19
ENDBRANCH   3   5
ENDBRANCH   2   3
ENDBRANCH   1   2
BRANCH   1  23
ATOM     23  C   UNL A   1      37.479  20.126  24.968  1.00  0.00     0.275 C 
BRANCH  23  24
ATOM     24  O   UNL A   1      38.187  21.329  25.327  1.00  0.00    -0.458 OA
BRANCH  24  25
ATOM     25  C   UNL A   1      39.279  21.148  26.100  1.00  0.00     0.338 C 
ATOM     26  O   UNL A   1      39.897  20.110  26.281  1.00  0.00    -0.246 OA
BRANCH  25  27
ATOM     27  C   UNL A   1      39.696  22.417  26.719  1.00  0.00     0.060 A 
ATOM     28  C   UNL A   1      40.787  22.448  27.583  1.00  0.00     0.016 A 
ATOM     29  C   UNL A   1      39.127  23.607  26.279  1.00  0.00     0.016 A 
ATOM     30  C   UNL A   1      41.305  23.683  27.993  1.00  0.00     0.010 A 
ATOM     31  C   UNL A   1      39.754  24.823  26.549  1.00  0.00     0.010 A 
ATOM     32  C   UNL A   1      40.834  24.889  27.437  1.00  0.00    -0.014 A 
BRANCH  32  33
ATOM     33  C   UNL A   1      41.450  26.204  27.795  1.00  0.00     0.031 A 
ATOM     34  C   UNL A   1      42.836  26.569  27.315  1.00  0.00     0.074 A 
ATOM     35  C   UNL A   1      40.782  27.073  28.583  1.00  0.00     0.049 A 
ATOM     36  N   UNL A   1      43.531  27.659  27.538  1.00  0.00    -0.248 NA
ATOM     37  C   UNL A   1      43.561  25.565  26.519  1.00  0.00     0.031 C 
ATOM     38  C   UNL A   1      39.481  26.826  29.208  1.00  0.00     0.029 A 
ATOM     39  N   UNL A   1      41.096  28.353  28.978  1.00  0.00    -0.354 N 
ATOM     40  C   UNL A   1      44.774  27.447  26.952  1.00  0.00     0.074 A 
ATOM     41  C   UNL A   1      44.767  26.103  26.423  1.00  0.00     0.031 C 
ATOM     42  C   UNL A   1      39.071  27.942  29.833  1.00  0.00     0.029 A 
ATOM     43  C   UNL A   1      40.094  28.972  29.690  1.00  0.00     0.049 A 
ATOM     44  H   UNL A   1      41.956  28.785  28.772  1.00  0.00     0.167 HD
ATOM     45  C   UNL A   1      45.816  28.304  26.819  1.00  0.00     0.037 A 
ATOM     46  C   UNL A   1      39.998  30.234  30.153  1.00  0.00     0.037 A 
ATOM     47  C   UNL A   1      45.801  29.670  27.266  1.00  0.00     0.049 A 
ATOM     48  C   UNL A   1      41.125  31.199  29.912  1.00  0.00     0.074 A 
ATOM     49  C   UNL A   1      46.776  30.639  27.108  1.00  0.00     0.029 A 
ATOM     50  N   UNL A   1      44.747  30.267  27.937  1.00  0.00    -0.354 N 
ATOM     51  N   UNL A   1      42.266  31.000  29.301  1.00  0.00    -0.248 NA
ATOM     52  C   UNL A   1      40.948  32.568  30.421  1.00  0.00     0.031 C 
ATOM     53  C   UNL A   1      46.318  31.821  27.700  1.00  0.00     0.029 A 
ATOM     54  C   UNL A   1      45.045  31.595  28.195  1.00  0.00     0.049 A 
ATOM     55  H   UNL A   1      43.910  29.816  28.193  1.00  0.00     0.167 HD
ATOM     56  C   UNL A   1      42.933  32.216  29.334  1.00  0.00     0.074 A 
ATOM     57  C   UNL A   1      42.063  33.155  30.009  1.00  0.00     0.031 C 
ATOM     58  C   UNL A   1      44.163  32.523  28.853  1.00  0.00     0.037 A 
BRANCH  45  59
ATOM     59  C   UNL A   1      47.047  27.802  26.120  1.00  0.00     0.064 A 
ATOM     60  C   UNL A   1      48.149  27.317  26.839  1.00  0.00     0.173 A 
ATOM     61  C   UNL A   1      47.108  27.762  24.718  1.00  0.00     0.173 A 
ATOM     62  F   UNL A   1      48.144  27.343  28.181  1.00  0.00    -0.203 F 
ATOM     63  C   UNL A   1      49.280  26.838  26.183  1.00  0.00     0.198 A 
ATOM     64  C   UNL A   1      48.228  27.252  24.066  1.00  0.00     0.198 A 
ATOM     65  F   UNL A   1      46.078  28.203  23.982  1.00  0.00    -0.203 F 
ATOM     66  F   UNL A   1      50.339  26.425  26.893  1.00  0.00    -0.200 F 
ATOM     67  C   UNL A   1      49.316  26.799  24.798  1.00  0.00     0.200 A 
ATOM     68  F   UNL A   1      48.256  27.200  22.726  1.00  0.00    -0.200 F 
ATOM     69  F   UNL A   1      50.400  26.326  24.168  1.00  0.00    -0.200 F 
ENDBRANCH  45  59
BRANCH  46  70
ATOM     70  C   UNL A   1      38.745  30.679  30.817  1.00  0.00     0.064 A 
ATOM     71  C   UNL A   1      38.642  30.675  32.215  1.00  0.00     0.173 A 
ATOM     72  C   UNL A   1      37.643  31.138  30.082  1.00  0.00     0.173 A 
ATOM     73  F   UNL A   1      39.663  30.227  32.960  1.00  0.00    -0.203 F 
ATOM     74  C   UNL A   1      37.482  31.108  32.854  1.00  0.00     0.198 A 
ATOM     75  C   UNL A   1      36.492  31.592  30.722  1.00  0.00     0.198 A 
ATOM     76  F   UNL A   1      37.695  31.166  28.743  1.00  0.00    -0.203 F 
ATOM     77  F   UNL A   1      37.400  31.066  34.192  1.00  0.00    -0.200 F 
ATOM     78  C   UNL A   1      36.410  31.573  32.108  1.00  0.00     0.200 A 
ATOM     79  F   UNL A   1      35.462  32.053  30.000  1.00  0.00    -0.200 F 
ATOM     80  F   UNL A   1      35.299  31.999  32.722  1.00  0.00    -0.200 F 
ENDBRANCH  46  70
BRANCH  58  81
ATOM     81  C   UNL A   1      44.638  33.934  29.011  1.00  0.00     0.064 A 
ATOM     82  C   UNL A   1      45.411  34.326  30.113  1.00  0.00     0.173 A 
ATOM     83  C   UNL A   1      44.379  34.886  28.014  1.00  0.00     0.173 A 
ATOM     84  F   UNL A   1      45.675  33.454  31.097  1.00  0.00    -0.203 F 
ATOM     85  C   UNL A   1      45.897  35.626  30.218  1.00  0.00     0.198 A 
ATOM     86  C   UNL A   1      44.886  36.178  28.110  1.00  0.00     0.198 A 
ATOM     87  F   UNL A   1      43.651  34.556  26.937  1.00  0.00    -0.203 F 
ATOM     88  F   UNL A   1      46.609  35.988  31.294  1.00  0.00    -0.200 F 
ATOM     89  C   UNL A   1      45.642  36.548  29.213  1.00  0.00     0.200 A 
ATOM     90  F   UNL A   1      44.649  37.065  27.134  1.00  0.00    -0.200 F 
ATOM     91  F   UNL A   1      46.121  37.796  29.310  1.00  0.00    -0.200 F 
ENDBRANCH  58  81
ENDBRANCH  32  33
ENDBRANCH  25  27
ENDBRANCH  24  25
ENDBRANCH  23  24
ENDBRANCH   1  23
TORSDOF 14
ENDMDL
MODEL 2
REMARK VINA RESULT:     -12.4      1.310      2.319
REMARK SMILES CCCc1cc2c(cc1Cl)C=C(C(=O)OCCOC(=O)c1ccc(-c3c4nc(c(-c5c(F)c(F)c(F)c(F)c5F)c5ccc([nH]5)c(-c5c(F)c(F)c(F)c(F)c5F)c5nc(c(-c6c(F)c(F)c(F)c(F)c6F)c6ccc3[nH]6)C=C5)C=C4)cc1)[C@@H](C(F)(F)F)O2
REMARK SMILES IDX 16 1 15 2 13 3 14 4 12 5 4 6 5 7 9 8 6 9 8 10 10 11 7 12
REMARK SMILES IDX 89 13 11 14 84 15 3 16 2 17 1 18 85 19 86 20 87 21 88 22
REMARK SMILES IDX 17 23 18 24 19 25 20 26 21 27 22 28 83 29 23 30 82 31 24 32
REMARK SMILES IDX 25 33 26 34 76 35 27 36 81 37 75 38 77 39 28 40 80 41 74 42
REMARK SMILES IDX 73 43 29 45 61 46 41 47 60 48 42 49 45 50 59 51 78 52 43 53
REMARK SMILES IDX 44 54 58 56 79 57 46 58 30 59 31 60 39 61 32 62 33 63 37 64
REMARK SMILES IDX 40 65 34 66 35 67 38 68 36 69 62 70 63 71 71 72 64 73 65 74
REMARK SMILES IDX 69 75 72 76 66 77 67 78 70 79 68 80 47 81 48 82 56 83 49 84
REMARK SMILES IDX 50 85 54 86 57 87 51 88 52 89 55 90 53 91
REMARK H PARENT 77 44 45 55
REMARK Flexibility Score: inf
ROOT
ATOM      1  C   UNL A   1      36.023  20.126  24.994  1.00  0.00     0.275 C 
ENDROOT
BRANCH   1   2
ATOM      2  O   UNL A   1      35.301  21.324  24.630  1.00  0.00    -0.459 OA
BRANCH   2   3
ATOM      3  C   UNL A   1      33.962  21.166  24.551  1.00  0.00     0.338 C 
ATOM      4  O   UNL A   1      33.368  20.143  24.250  1.00  0.00    -0.246 OA
BRANCH   3   5
ATOM      5  C   UNL A   1      33.246  22.391  24.941  1.00  0.00     0.087 C 
ATOM      6  C   UNL A   1      32.474  27.332  25.575  1.00  0.00    -0.026 A 
ATOM      7  C   UNL A   1      31.995  26.156  26.223  1.00  0.00     0.052 A 
ATOM      8  C   UNL A   1      33.311  27.158  24.462  1.00  0.00     0.045 A 
ATOM      9  C   UNL A   1      32.332  24.874  25.782  1.00  0.00     0.128 A 
ATOM     10  C   UNL A   1      33.578  25.876  23.977  1.00  0.00     0.032 A 
ATOM     11  Cl  UNL A   1      34.142  28.407  23.610  1.00  0.00    -0.084 Cl
ATOM     12  C   UNL A   1      33.088  24.746  24.630  1.00  0.00     0.019 A 
ATOM     13  O   UNL A   1      31.889  23.793  26.498  1.00  0.00    -0.475 OA
ATOM     14  C   UNL A   1      33.443  23.439  24.140  1.00  0.00     0.027 C 
ATOM     15  C   UNL A   1      32.557  22.506  26.270  1.00  0.00     0.316 C 
BRANCH   6  16
ATOM     16  C   UNL A   1      32.002  28.636  26.199  1.00  0.00     0.037 C 
BRANCH  16  17
ATOM     17  C   UNL A   1      32.730  29.310  27.365  1.00  0.00     0.001 C 
ATOM     18  C   UNL A   1      34.239  29.098  27.351  1.00  0.00     0.004 C 
ENDBRANCH  16  17
ENDBRANCH   6  16
BRANCH  15  19
ATOM     19  C   UNL A   1      33.512  22.198  27.434  1.00  0.00     0.430 C 
ATOM     20  F   UNL A   1      34.666  22.898  27.324  1.00  0.00    -0.167 F 
ATOM     21  F   UNL A   1      32.961  22.543  28.624  1.00  0.00    -0.167 F 
ATOM     22  F   UNL A   1      33.834  20.887  27.502  1.00  0.00    -0.167 F 
ENDBRANCH  15  19
ENDBRANCH   3   5
ENDBRANCH   2   3
ENDBRANCH   1   2
BRANCH   1  23
ATOM     23  C   UNL A   1      37.535  20.309  24.848  1.00  0.00     0.275 C 
BRANCH  23  24
ATOM     24  O   UNL A   1      38.000  21.433  25.622  1.00  0.00    -0.458 OA
BRANCH  24  25
ATOM     25  C   UNL A   1      39.242  21.307  26.137  1.00  0.00     0.338 C 
ATOM     26  O   UNL A   1      39.965  20.322  26.100  1.00  0.00    -0.246 OA
BRANCH  25  27
ATOM     27  C   UNL A   1      39.678  22.566  26.762  1.00  0.00     0.060 A 
ATOM     28  C   UNL A   1      40.769  22.575  27.627  1.00  0.00     0.016 A 
ATOM     29  C   UNL A   1      39.129  23.767  26.326  1.00  0.00     0.016 A 
ATOM     30  C   UNL A   1      41.306  23.800  28.043  1.00  0.00     0.010 A 
ATOM     31  C   UNL A   1      39.775  24.971  26.602  1.00  0.00     0.010 A 
ATOM     32  C   UNL A   1      40.854  25.016  27.493  1.00  0.00    -0.014 A 
BRANCH  32  33
ATOM     33  C   UNL A   1      41.491  26.319  27.856  1.00  0.00     0.031 A 
ATOM     34  C   UNL A   1      42.883  26.666  27.378  1.00  0.00     0.074 A 
ATOM     35  C   UNL A   1      40.837  27.195  28.649  1.00  0.00     0.049 A 
ATOM     36  N   UNL A   1      43.594  27.744  27.606  1.00  0.00    -0.248 NA
ATOM     37  C   UNL A   1      43.591  25.655  26.576  1.00  0.00     0.031 C 
ATOM     38  C   UNL A   1      39.533  26.965  29.274  1.00  0.00     0.029 A 
ATOM     39  N   UNL A   1      41.171  28.467  29.051  1.00  0.00    -0.354 N 
ATOM     40  C   UNL A   1      44.834  27.516  27.018  1.00  0.00     0.074 A 
ATOM     41  C   UNL A   1      44.805  26.174  26.482  1.00  0.00     0.031 C 
ATOM     42  C   UNL A   1      39.140  28.083  29.905  1.00  0.00     0.029 A 
ATOM     43  C   UNL A   1      40.179  29.098  29.767  1.00  0.00     0.049 A 
ATOM     44  H   UNL A   1      42.037  28.887  28.847  1.00  0.00     0.167 HD
ATOM     45  C   UNL A   1      45.888  28.357  26.890  1.00  0.00     0.037 A 
ATOM     46  C   UNL A   1      40.102  30.359  30.237  1.00  0.00     0.037 A 
ATOM     47  C   UNL A   1      45.895  29.721  27.343  1.00  0.00     0.049 A 
ATOM     48  C   UNL A   1      41.244  31.308  30.000  1.00  0.00     0.074 A 
ATOM     49  C   UNL A   1      46.885  30.675  27.190  1.00  0.00     0.029 A 
ATOM     50  N   UNL A   1      44.850  30.331  28.018  1.00  0.00    -0.354 N 
ATOM     51  N   UNL A   1      42.381  31.094  29.387  1.00  0.00    -0.248 NA
ATOM     52  C   UNL A   1      41.088  32.677  30.516  1.00  0.00     0.031 C 
ATOM     53  C   UNL A   1      46.445  31.861  27.788  1.00  0.00     0.029 A 
ATOM     54  C   UNL A   1      45.169  31.652  28.283  1.00  0.00     0.049 A 
ATOM     55  H   UNL A   1      44.006  29.891  28.272  1.00  0.00     0.167 HD
ATOM     56  C   UNL A   1      43.068  32.300  29.426  1.00  0.00     0.074 A 
ATOM     57  C   UNL A   1      42.212  33.249  30.107  1.00  0.00     0.031 C 
ATOM     58  C   UNL A   1      44.301  32.590  28.946  1.00  0.00     0.037 A 
BRANCH  45  59
ATOM     59  C   UNL A   1      47.111  27.840  26.187  1.00  0.00     0.064 A 
ATOM     60  C   UNL A   1      48.209  27.341  26.902  1.00  0.00     0.173 A 
ATOM     61  C   UNL A   1      47.168  27.799  24.785  1.00  0.00     0.173 A 
ATOM     62  F   UNL A   1      48.208  27.366  28.244  1.00  0.00    -0.203 F 
ATOM     63  C   UNL A   1      49.332  26.848  26.244  1.00  0.00     0.198 A 
ATOM     64  C   UNL A   1      48.280  27.276  24.129  1.00  0.00     0.198 A 
ATOM     65  F   UNL A   1      46.141  28.253  24.051  1.00  0.00    -0.203 F 
ATOM     66  F   UNL A   1      50.387  26.422  26.951  1.00  0.00    -0.200 F 
ATOM     67  C   UNL A   1      49.363  26.809  24.859  1.00  0.00     0.200 A 
ATOM     68  F   UNL A   1      48.304  27.223  22.790  1.00  0.00    -0.200 F 
ATOM     69  F   UNL A   1      50.440  26.322  24.226  1.00  0.00    -0.200 F 
ENDBRANCH  45  59
BRANCH  46  70
ATOM     70  C   UNL A   1      38.857  30.819  30.903  1.00  0.00     0.064 A 
ATOM     71  C   UNL A   1      37.772  31.279  30.142  1.00  0.00     0.173 A 
ATOM     72  C   UNL A   1      38.710  30.787  32.297  1.00  0.00     0.173 A 
ATOM     73  F   UNL A   1      37.872  31.346  28.807  1.00  0.00    -0.203 F 
ATOM     74  C   UNL A   1      36.589  31.695  30.751  1.00  0.00     0.198 A 
ATOM     75  C   UNL A   1      37.519  31.182  32.903  1.00  0.00     0.198 A 
ATOM     76  F   UNL A   1      39.717  30.351  33.068  1.00  0.00    -0.203 F 
ATOM     77  F   UNL A   1      35.579  32.157  30.001  1.00  0.00    -0.200 F 
ATOM     78  C   UNL A   1      36.461  31.640  32.130  1.00  0.00     0.200 A 
ATOM     79  F   UNL A   1      37.392  31.115  34.235  1.00  0.00    -0.200 F 
ATOM     80  F   UNL A   1      35.320  32.029  32.714  1.00  0.00    -0.200 F 
ENDBRANCH  46  70
BRANCH  58  81
ATOM     81  C   UNL A   1      44.799  33.993  29.112  1.00  0.00     0.064 A 
ATOM     82  C   UNL A   1      44.545  34.977  28.147  1.00  0.00     0.173 A 
ATOM     83  C   UNL A   1      45.474  34.372  30.281  1.00  0.00     0.173 A 
ATOM     84  F   UNL A   1      43.913  34.659  27.008  1.00  0.00    -0.203 F 
ATOM     85  C   UNL A   1      44.961  36.291  28.341  1.00  0.00     0.198 A 
ATOM     86  C   UNL A   1      45.868  35.692  30.483  1.00  0.00     0.198 A 
ATOM     87  F   UNL A   1      45.733  33.468  31.237  1.00  0.00    -0.203 F 
ATOM     88  F   UNL A   1      44.733  37.211  27.393  1.00  0.00    -0.200 F 
ATOM     89  C   UNL A   1      45.614  36.650  29.512  1.00  0.00     0.200 A 
ATOM     90  F   UNL A   1      46.488  36.040  31.619  1.00  0.00    -0.200 F 
ATOM     91  F   UNL A   1      46.002  37.918  29.702  1.00  0.00    -0.200 F 
ENDBRANCH  58  81
ENDBRANCH  32  33
ENDBRANCH  25  27
ENDBRANCH  24  25
ENDBRANCH  23  24
ENDBRANCH   1  23
TORSDOF 14
ENDMDL
MODEL 3
REMARK VINA RESULT:     -12.3      4.517      9.851
REMARK SMILES CCCc1cc2c(cc1Cl)C=C(C(=O)OCCOC(=O)c1ccc(-c3c4nc(c(-c5c(F)c(F)c(F)c(F)c5F)c5ccc([nH]5)c(-c5c(F)c(F)c(F)c(F)c5F)c5nc(c(-c6c(F)c(F)c(F)c(F)c6F)c6ccc3[nH]6)C=C5)C=C4)cc1)[C@@H](C(F)(F)F)O2
REMARK SMILES IDX 16 1 15 2 13 3 14 4 12 5 4 6 5 7 9 8 6 9 8 10 10 11 7 12
REMARK SMILES IDX 89 13 11 14 84 15 3 16 2 17 1 18 85 19 86 20 87 21 88 22
REMARK SMILES IDX 17 23 18 24 19 25 20 26 21 27 22 28 83 29 23 30 82 31 24 32
REMARK SMILES IDX 25 33 26 34 76 35 27 36 81 37 75 38 77 39 28 40 80 41 74 42
REMARK SMILES IDX 73 43 29 45 61 46 41 47 60 48 42 49 45 50 59 51 78 52 43 53
REMARK SMILES IDX 44 54 58 56 79 57 46 58 30 59 31 60 39 61 32 62 33 63 37 64
REMARK SMILES IDX 40 65 34 66 35 67 38 68 36 69 62 70 63 71 71 72 64 73 65 74
REMARK SMILES IDX 69 75 72 76 66 77 67 78 70 79 68 80 47 81 48 82 56 83 49 84
REMARK SMILES IDX 50 85 54 86 57 87 51 88 52 89 55 90 53 91
REMARK H PARENT 77 44 45 55
REMARK Flexibility Score: inf
ROOT
ATOM      1  C   UNL A   1      31.015  30.311  24.972  1.00  0.00     0.275 C 
ENDROOT
BRANCH   1   2
ATOM      2  O   UNL A   1      31.205  28.883  25.079  1.00  0.00    -0.459 OA
BRANCH   2   3
ATOM      3  C   UNL A   1      30.776  28.183  24.006  1.00  0.00     0.338 C 
ATOM      4  O   UNL A   1      29.821  28.454  23.296  1.00  0.00    -0.246 OA
BRANCH   3   5
ATOM      5  C   UNL A   1      31.650  27.032  23.724  1.00  0.00     0.087 C 
ATOM      6  C   UNL A   1      34.907  23.309  24.693  1.00  0.00    -0.026 A 
ATOM      7  C   UNL A   1      34.606  24.098  23.544  1.00  0.00     0.052 A 
ATOM      8  C   UNL A   1      34.125  23.517  25.840  1.00  0.00     0.045 A 
ATOM      9  C   UNL A   1      33.576  25.041  23.540  1.00  0.00     0.128 A 
ATOM     10  C   UNL A   1      33.045  24.403  25.803  1.00  0.00     0.032 A 
ATOM     11  Cl  UNL A   1      34.388  22.812  27.392  1.00  0.00    -0.084 Cl
ATOM     12  C   UNL A   1      32.774  25.153  24.661  1.00  0.00     0.019 A 
ATOM     13  O   UNL A   1      33.392  25.809  22.420  1.00  0.00    -0.475 OA
ATOM     14  C   UNL A   1      31.695  26.108  24.685  1.00  0.00     0.027 C 
ATOM     15  C   UNL A   1      32.596  27.036  22.559  1.00  0.00     0.316 C 
BRANCH   6  16
ATOM     16  C   UNL A   1      36.062  22.337  24.509  1.00  0.00     0.037 C 
BRANCH  16  17
ATOM     17  C   UNL A   1      37.385  22.466  25.268  1.00  0.00     0.001 C 
ATOM     18  C   UNL A   1      37.676  23.880  25.758  1.00  0.00     0.004 C 
ENDBRANCH  16  17
ENDBRANCH   6  16
BRANCH  15  19
ATOM     19  C   UNL A   1      33.523  28.262  22.582  1.00  0.00     0.430 C 
ATOM     20  F   UNL A   1      32.831  29.407  22.375  1.00  0.00    -0.167 F 
ATOM     21  F   UNL A   1      34.135  28.390  23.785  1.00  0.00    -0.167 F 
ATOM     22  F   UNL A   1      34.490  28.192  21.641  1.00  0.00    -0.167 F 
ENDBRANCH  15  19
ENDBRANCH   3   5
ENDBRANCH   2   3
ENDBRANCH   1   2
BRANCH   1  23
ATOM     23  C   UNL A   1      31.363  31.029  26.279  1.00  0.00     0.275 C 
BRANCH  23  24
ATOM     24  O   UNL A   1      32.714  30.736  26.689  1.00  0.00    -0.458 OA
BRANCH  24  25
ATOM     25  C   UNL A   1      33.372  31.755  27.283  1.00  0.00     0.338 C 
ATOM     26  O   UNL A   1      32.961  32.887  27.483  1.00  0.00    -0.246 OA
BRANCH  25  27
ATOM     27  C   UNL A   1      34.711  31.326  27.719  1.00  0.00     0.060 A 
ATOM     28  C   UNL A   1      35.673  32.276  28.054  1.00  0.00     0.016 A 
ATOM     29  C   UNL A   1      34.940  29.982  27.990  1.00  0.00     0.016 A 
ATOM     30  C   UNL A   1      36.861  31.862  28.670  1.00  0.00     0.010 A 
ATOM     31  C   UNL A   1      36.040  29.602  28.757  1.00  0.00     0.010 A 
ATOM     32  C   UNL A   1      37.039  30.527  29.083  1.00  0.00    -0.014 A 
BRANCH  32  33
ATOM     33  C   UNL A   1      38.262  30.100  29.831  1.00  0.00     0.031 A 
ATOM     34  C   UNL A   1      38.486  30.527  31.264  1.00  0.00     0.074 A 
ATOM     35  C   UNL A   1      39.202  29.348  29.219  1.00  0.00     0.049 A 
ATOM     36  N   UNL A   1      39.493  30.260  32.061  1.00  0.00    -0.248 NA
ATOM     37  C   UNL A   1      37.474  31.406  31.872  1.00  0.00     0.031 C 
ATOM     38  C   UNL A   1      39.181  28.941  27.812  1.00  0.00     0.029 A 
ATOM     39  N   UNL A   1      40.352  28.774  29.707  1.00  0.00    -0.354 N 
ATOM     40  C   UNL A   1      39.252  30.971  33.232  1.00  0.00     0.074 A 
ATOM     41  C   UNL A   1      38.043  31.733  33.021  1.00  0.00     0.031 C 
ATOM     42  C   UNL A   1      40.215  28.117  27.574  1.00  0.00     0.029 A 
ATOM     43  C   UNL A   1      40.996  27.968  28.797  1.00  0.00     0.049 A 
ATOM     44  H   UNL A   1      40.684  28.925  30.622  1.00  0.00     0.167 HD
ATOM     45  C   UNL A   1      39.943  30.959  34.397  1.00  0.00     0.037 A 
ATOM     46  C   UNL A   1      42.079  27.177  28.937  1.00  0.00     0.037 A 
ATOM     47  C   UNL A   1      41.097  30.138  34.646  1.00  0.00     0.049 A 
ATOM     48  C   UNL A   1      42.775  27.102  30.267  1.00  0.00     0.074 A 
ATOM     49  C   UNL A   1      41.818  29.997  35.819  1.00  0.00     0.029 A 
ATOM     50  N   UNL A   1      41.683  29.302  33.711  1.00  0.00    -0.354 N 
ATOM     51  N   UNL A   1      42.496  27.732  31.381  1.00  0.00    -0.248 NA
ATOM     52  C   UNL A   1      43.935  26.203  30.361  1.00  0.00     0.031 C 
ATOM     53  C   UNL A   1      42.853  29.086  35.588  1.00  0.00     0.029 A 
ATOM     54  C   UNL A   1      42.755  28.635  34.282  1.00  0.00     0.049 A 
ATOM     55  H   UNL A   1      41.383  29.195  32.779  1.00  0.00     0.167 HD
ATOM     56  C   UNL A   1      43.429  27.294  32.310  1.00  0.00     0.074 A 
ATOM     57  C   UNL A   1      44.272  26.329  31.636  1.00  0.00     0.031 C 
ATOM     58  C   UNL A   1      43.575  27.665  33.605  1.00  0.00     0.037 A 
BRANCH  45  59
ATOM     59  C   UNL A   1      39.439  31.826  35.515  1.00  0.00     0.064 A 
ATOM     60  C   UNL A   1      38.532  31.339  36.467  1.00  0.00     0.173 A 
ATOM     61  C   UNL A   1      39.904  33.142  35.666  1.00  0.00     0.173 A 
ATOM     62  F   UNL A   1      38.051  30.090  36.363  1.00  0.00    -0.203 F 
ATOM     63  C   UNL A   1      38.083  32.143  37.511  1.00  0.00     0.198 A 
ATOM     64  C   UNL A   1      39.477  33.934  36.729  1.00  0.00     0.198 A 
ATOM     65  F   UNL A   1      40.781  33.656  34.790  1.00  0.00    -0.203 F 
ATOM     66  F   UNL A   1      37.179  31.670  38.379  1.00  0.00    -0.200 F 
ATOM     67  C   UNL A   1      38.562  33.437  37.645  1.00  0.00     0.200 A 
ATOM     68  F   UNL A   1      39.952  35.180  36.868  1.00  0.00    -0.200 F 
ATOM     69  F   UNL A   1      38.138  34.207  38.657  1.00  0.00    -0.200 F 
ENDBRANCH  45  59
BRANCH  46  70
ATOM     70  C   UNL A   1      42.515  26.323  27.801  1.00  0.00     0.064 A 
ATOM     71  C   UNL A   1      41.884  25.096  27.552  1.00  0.00     0.173 A 
ATOM     72  C   UNL A   1      43.541  26.718  26.932  1.00  0.00     0.173 A 
ATOM     73  F   UNL A   1      40.909  24.667  28.367  1.00  0.00    -0.203 F 
ATOM     74  C   UNL A   1      42.267  24.293  26.480  1.00  0.00     0.198 A 
ATOM     75  C   UNL A   1      43.909  25.925  25.847  1.00  0.00     0.198 A 
ATOM     76  F   UNL A   1      44.172  27.885  27.126  1.00  0.00    -0.203 F 
ATOM     77  F   UNL A   1      41.666  23.111  26.282  1.00  0.00    -0.200 F 
ATOM     78  C   UNL A   1      43.274  24.711  25.624  1.00  0.00     0.200 A 
ATOM     79  F   UNL A   1      44.873  26.337  25.013  1.00  0.00    -0.200 F 
ATOM     80  F   UNL A   1      43.635  23.944  24.587  1.00  0.00    -0.200 F 
ENDBRANCH  46  70
BRANCH  58  81
ATOM     81  C   UNL A   1      44.668  27.014  34.395  1.00  0.00     0.064 A 
ATOM     82  C   UNL A   1      44.463  25.801  35.066  1.00  0.00     0.173 A 
ATOM     83  C   UNL A   1      45.955  27.574  34.420  1.00  0.00     0.173 A 
ATOM     84  F   UNL A   1      43.247  25.234  35.079  1.00  0.00    -0.203 F 
ATOM     85  C   UNL A   1      45.504  25.176  35.746  1.00  0.00     0.198 A 
ATOM     86  C   UNL A   1      46.999  26.935  35.082  1.00  0.00     0.198 A 
ATOM     87  F   UNL A   1      46.202  28.730  33.786  1.00  0.00    -0.203 F 
ATOM     88  F   UNL A   1      45.280  24.032  36.406  1.00  0.00    -0.200 F 
ATOM     89  C   UNL A   1      46.773  25.738  35.747  1.00  0.00     0.200 A 
ATOM     90  F   UNL A   1      48.227  27.472  35.072  1.00  0.00    -0.200 F 
ATOM     91  F   UNL A   1      47.777  25.129  36.392  1.00  0.00    -0.200 F 
ENDBRANCH  58  81
ENDBRANCH  32  33
ENDBRANCH  25  27
ENDBRANCH  24  25
ENDBRANCH  23  24
ENDBRANCH   1  23
TORSDOF 14
ENDMDL
