MODEL 1
REMARK VINA RESULT:     -12.7      0.000      0.000
REMARK SMILES C[C@H]1CC[C@@](NC(=O)N[C@H]2CCOC2)(C(=O)OCCOC(=O)c2ccc(-c3c4nc(c(-c5c(F)c(F)c(F)c(F)c5F)c5ccc([nH]5)c(-c5c(F)c(F)c(F)c(F)c5F)c5nc(c(-c6c(F)c(F)c(F)c(F)c6F)c6ccc3[nH]6)C=C5)C=C4)cc2)CC1
REMARK SMILES IDX 18 1 17 2 15 3 16 4 5 5 1 6 2 7 87 8 3 9 86 10 4 11 6 12
REMARK SMILES IDX 7 13 8 15 9 16 10 18 11 19 14 20 12 21 13 22 19 23 20 24
REMARK SMILES IDX 21 25 22 26 23 27 24 28 85 29 25 30 84 31 26 32 27 33 28 34
REMARK SMILES IDX 78 35 29 36 83 37 77 38 79 39 30 40 82 41 76 42 75 43 31 45
REMARK SMILES IDX 63 46 43 47 62 48 44 49 47 50 61 51 80 52 45 53 46 54 60 56
REMARK SMILES IDX 81 57 48 58 32 59 33 60 41 61 34 62 35 63 39 64 42 65 36 66
REMARK SMILES IDX 37 67 40 68 38 69 64 70 65 71 73 72 66 73 67 74 71 75 74 76
REMARK SMILES IDX 68 77 69 78 72 79 70 80 49 81 50 82 58 83 51 84 52 85 56 86
REMARK SMILES IDX 59 87 53 88 54 89 57 90 55 91
REMARK H PARENT 6 14 9 17 79 44 47 55
REMARK Flexibility Score: inf
ROOT
ATOM      1  C   UNL A   1      31.869  28.281  27.494  1.00  0.00     0.274 C 
ENDROOT
BRANCH   1   2
ATOM      2  O   UNL A   1      31.114  27.113  27.089  1.00  0.00    -0.460 OA
BRANCH   2   3
ATOM      3  C   UNL A   1      31.667  26.133  26.336  1.00  0.00     0.332 C 
ATOM      4  O   UNL A   1      32.836  25.805  26.393  1.00  0.00    -0.249 OA
BRANCH   3   5
ATOM      5  C   UNL A   1      30.639  25.352  25.501  1.00  0.00     0.139 C 
ATOM      6  C   UNL A   1      32.320  28.112  22.741  1.00  0.00     0.007 C 
ATOM      7  C   UNL A   1      31.432  26.881  23.002  1.00  0.00    -0.014 C 
ATOM      8  C   UNL A   1      30.217  27.303  23.850  1.00  0.00     0.006 C 
ATOM      9  C   UNL A   1      32.290  25.739  23.572  1.00  0.00     0.006 C 
ATOM     10  C   UNL A   1      29.610  26.250  24.786  1.00  0.00     0.041 C 
ATOM     11  C   UNL A   1      31.491  24.704  24.371  1.00  0.00     0.041 C 
BRANCH   5  12
ATOM     12  N   UNL A   1      29.951  24.273  26.252  1.00  0.00    -0.322 N 
ATOM     13  C   UNL A   1      30.282  23.245  27.031  1.00  0.00     0.316 C 
ATOM     14  H   UNL A   1      28.975  24.334  26.143  1.00  0.00     0.166 HD
ATOM     15  O   UNL A   1      29.395  22.830  27.786  1.00  0.00    -0.249 OA
ATOM     16  N   UNL A   1      31.441  22.597  27.094  1.00  0.00    -0.333 N 
ATOM     17  H   UNL A   1      31.460  22.004  27.880  1.00  0.00     0.165 HD
BRANCH  16  18
ATOM     18  C   UNL A   1      32.689  22.497  26.355  1.00  0.00     0.112 C 
ATOM     19  C   UNL A   1      33.914  22.504  27.246  1.00  0.00     0.056 C 
ATOM     20  C   UNL A   1      32.885  21.139  25.661  1.00  0.00     0.185 C 
ATOM     21  C   UNL A   1      34.967  21.928  26.318  1.00  0.00     0.162 C 
ATOM     22  O   UNL A   1      34.302  20.941  25.518  1.00  0.00    -0.379 OA
ENDBRANCH  16  18
ENDBRANCH   5  12
ENDBRANCH   3   5
ENDBRANCH   2   3
ENDBRANCH   1   2
BRANCH   1  23
ATOM     23  C   UNL A   1      31.615  29.664  26.866  1.00  0.00     0.275 C 
BRANCH  23  24
ATOM     24  O   UNL A   1      32.796  30.256  26.273  1.00  0.00    -0.458 OA
BRANCH  24  25
ATOM     25  C   UNL A   1      33.357  31.223  27.062  1.00  0.00     0.338 C 
ATOM     26  O   UNL A   1      32.778  32.222  27.468  1.00  0.00    -0.246 OA
BRANCH  25  27
ATOM     27  C   UNL A   1      34.761  30.923  27.482  1.00  0.00     0.060 A 
ATOM     28  C   UNL A   1      35.238  29.621  27.616  1.00  0.00     0.016 A 
ATOM     29  C   UNL A   1      35.565  31.970  27.946  1.00  0.00     0.016 A 
ATOM     30  C   UNL A   1      36.424  29.361  28.322  1.00  0.00     0.010 A 
ATOM     31  C   UNL A   1      36.806  31.711  28.557  1.00  0.00     0.010 A 
ATOM     32  C   UNL A   1      37.234  30.397  28.812  1.00  0.00    -0.014 A 
BRANCH  32  33
ATOM     33  C   UNL A   1      38.458  30.124  29.646  1.00  0.00     0.031 A 
ATOM     34  C   UNL A   1      39.589  29.271  29.101  1.00  0.00     0.074 A 
ATOM     35  C   UNL A   1      38.611  30.644  30.884  1.00  0.00     0.049 A 
ATOM     36  N   UNL A   1      40.592  28.707  29.732  1.00  0.00    -0.248 NA
ATOM     37  C   UNL A   1      39.581  29.011  27.653  1.00  0.00     0.031 C 
ATOM     38  C   UNL A   1      37.674  31.546  31.552  1.00  0.00     0.029 A 
ATOM     39  N   UNL A   1      39.625  30.489  31.806  1.00  0.00    -0.354 N 
ATOM     40  C   UNL A   1      41.278  27.960  28.779  1.00  0.00     0.074 A 
ATOM     41  C   UNL A   1      40.586  28.155  27.522  1.00  0.00     0.031 C 
ATOM     42  C   UNL A   1      38.177  31.910  32.740  1.00  0.00     0.029 A 
ATOM     43  C   UNL A   1      39.409  31.169  32.983  1.00  0.00     0.049 A 
ATOM     44  H   UNL A   1      40.427  29.945  31.639  1.00  0.00     0.167 HD
ATOM     45  C   UNL A   1      42.377  27.178  28.936  1.00  0.00     0.037 A 
ATOM     46  C   UNL A   1      40.080  31.159  34.153  1.00  0.00     0.037 A 
ATOM     47  C   UNL A   1      43.124  27.049  30.163  1.00  0.00     0.049 A 
ATOM     48  C   UNL A   1      41.274  30.261  34.318  1.00  0.00     0.074 A 
ATOM     49  C   UNL A   1      44.254  26.287  30.413  1.00  0.00     0.029 A 
ATOM     50  N   UNL A   1      42.834  27.721  31.340  1.00  0.00    -0.354 N 
ATOM     51  N   UNL A   1      41.842  29.468  33.444  1.00  0.00    -0.248 NA
ATOM     52  C   UNL A   1      41.901  30.234  35.648  1.00  0.00     0.031 C 
ATOM     53  C   UNL A   1      44.624  26.469  31.751  1.00  0.00     0.029 A 
ATOM     54  C   UNL A   1      43.755  27.384  32.321  1.00  0.00     0.049 A 
ATOM     55  H   UNL A   1      42.084  28.348  31.462  1.00  0.00     0.167 HD
ATOM     56  C   UNL A   1      42.891  28.852  34.115  1.00  0.00     0.074 A 
ATOM     57  C   UNL A   1      42.903  29.388  35.458  1.00  0.00     0.031 C 
ATOM     58  C   UNL A   1      43.758  27.915  33.659  1.00  0.00     0.037 A 
BRANCH  45  59
ATOM     59  C   UNL A   1      42.822  26.351  27.760  1.00  0.00     0.064 A 
ATOM     60  C   UNL A   1      42.292  25.081  27.489  1.00  0.00     0.173 A 
ATOM     61  C   UNL A   1      43.769  26.869  26.861  1.00  0.00     0.173 A 
ATOM     62  F   UNL A   1      41.391  24.536  28.317  1.00  0.00    -0.203 F 
ATOM     63  C   UNL A   1      42.715  24.351  26.380  1.00  0.00     0.198 A 
ATOM     64  C   UNL A   1      44.167  26.150  25.737  1.00  0.00     0.198 A 
ATOM     65  F   UNL A   1      44.300  28.085  27.064  1.00  0.00    -0.203 F 
ATOM     66  F   UNL A   1      42.231  23.120  26.165  1.00  0.00    -0.200 F 
ATOM     67  C   UNL A   1      43.646  24.887  25.501  1.00  0.00     0.200 A 
ATOM     68  F   UNL A   1      45.053  26.678  24.882  1.00  0.00    -0.200 F 
ATOM     69  F   UNL A   1      44.045  24.185  24.432  1.00  0.00    -0.200 F 
ENDBRANCH  45  59
BRANCH  46  70
ATOM     70  C   UNL A   1      39.588  31.976  35.297  1.00  0.00     0.064 A 
ATOM     71  C   UNL A   1      40.022  33.295  35.486  1.00  0.00     0.173 A 
ATOM     72  C   UNL A   1      38.680  31.452  36.230  1.00  0.00     0.173 A 
ATOM     73  F   UNL A   1      40.918  33.832  34.643  1.00  0.00    -0.203 F 
ATOM     74  C   UNL A   1      39.572  34.055  36.565  1.00  0.00     0.198 A 
ATOM     75  C   UNL A   1      38.200  32.224  37.285  1.00  0.00     0.198 A 
ATOM     76  F   UNL A   1      38.238  30.192  36.103  1.00  0.00    -0.203 F 
ATOM     77  F   UNL A   1      40.039  35.298  36.746  1.00  0.00    -0.200 F 
ATOM     78  C   UNL A   1      38.653  33.523  37.456  1.00  0.00     0.200 A 
ATOM     79  F   UNL A   1      37.299  31.710  38.133  1.00  0.00    -0.200 F 
ATOM     80  F   UNL A   1      38.209  34.259  38.484  1.00  0.00    -0.200 F 
ENDBRANCH  46  70
BRANCH  58  81
ATOM     81  C   UNL A   1      44.804  27.430  34.621  1.00  0.00     0.064 A 
ATOM     82  C   UNL A   1      46.041  28.081  34.752  1.00  0.00     0.173 A 
ATOM     83  C   UNL A   1      44.573  26.298  35.416  1.00  0.00     0.173 A 
ATOM     84  F   UNL A   1      46.319  29.158  34.001  1.00  0.00    -0.203 F 
ATOM     85  C   UNL A   1      47.020  27.594  35.614  1.00  0.00     0.198 A 
ATOM     86  C   UNL A   1      45.542  25.831  36.299  1.00  0.00     0.198 A 
ATOM     87  F   UNL A   1      43.406  25.641  35.333  1.00  0.00    -0.203 F 
ATOM     88  F   UNL A   1      48.216  28.195  35.675  1.00  0.00    -0.200 F 
ATOM     89  C   UNL A   1      46.769  26.472  36.389  1.00  0.00     0.200 A 
ATOM     90  F   UNL A   1      45.295  24.751  37.054  1.00  0.00    -0.200 F 
ATOM     91  F   UNL A   1      47.715  25.999  37.213  1.00  0.00    -0.200 F 
ENDBRANCH  58  81
ENDBRANCH  32  33
ENDBRANCH  25  27
ENDBRANCH  24  25
ENDBRANCH  23  24
ENDBRANCH   1  23
TORSDOF 13
ENDMDL
MODEL 2
REMARK VINA RESULT:     -12.7      0.090      1.613
REMARK SMILES C[C@H]1CC[C@@](NC(=O)N[C@H]2CCOC2)(C(=O)OCCOC(=O)c2ccc(-c3c4nc(c(-c5c(F)c(F)c(F)c(F)c5F)c5ccc([nH]5)c(-c5c(F)c(F)c(F)c(F)c5F)c5nc(c(-c6c(F)c(F)c(F)c(F)c6F)c6ccc3[nH]6)C=C5)C=C4)cc2)CC1
REMARK SMILES IDX 18 1 17 2 15 3 16 4 5 5 1 6 2 7 87 8 3 9 86 10 4 11 6 12
REMARK SMILES IDX 7 13 8 15 9 16 10 18 11 19 14 20 12 21 13 22 19 23 20 24
REMARK SMILES IDX 21 25 22 26 23 27 24 28 85 29 25 30 84 31 26 32 27 33 28 34
REMARK SMILES IDX 78 35 29 36 83 37 77 38 79 39 30 40 82 41 76 42 75 43 31 45
REMARK SMILES IDX 63 46 43 47 62 48 44 49 47 50 61 51 80 52 45 53 46 54 60 56
REMARK SMILES IDX 81 57 48 58 32 59 33 60 41 61 34 62 35 63 39 64 42 65 36 66
REMARK SMILES IDX 37 67 40 68 38 69 64 70 65 71 73 72 66 73 67 74 71 75 74 76
REMARK SMILES IDX 68 77 69 78 72 79 70 80 49 81 50 82 58 83 51 84 52 85 56 86
REMARK SMILES IDX 59 87 53 88 54 89 57 90 55 91
REMARK H PARENT 6 14 9 17 79 44 47 55
REMARK Flexibility Score: inf
ROOT
ATOM      1  C   UNL A   1      31.853  28.319  27.479  1.00  0.00     0.274 C 
ENDROOT
BRANCH   1   2
ATOM      2  O   UNL A   1      31.168  27.087  27.150  1.00  0.00    -0.460 OA
BRANCH   2   3
ATOM      3  C   UNL A   1      31.726  26.156  26.340  1.00  0.00     0.332 C 
ATOM      4  O   UNL A   1      32.903  25.855  26.354  1.00  0.00    -0.249 OA
BRANCH   3   5
ATOM      5  C   UNL A   1      30.697  25.389  25.493  1.00  0.00     0.139 C 
ATOM      6  C   UNL A   1      32.436  28.132  22.755  1.00  0.00     0.007 C 
ATOM      7  C   UNL A   1      31.531  26.912  23.005  1.00  0.00    -0.014 C 
ATOM      8  C   UNL A   1      30.313  27.347  23.842  1.00  0.00     0.006 C 
ATOM      9  C   UNL A   1      32.370  25.759  23.581  1.00  0.00     0.006 C 
ATOM     10  C   UNL A   1      29.685  26.300  24.771  1.00  0.00     0.041 C 
ATOM     11  C   UNL A   1      31.551  24.733  24.371  1.00  0.00     0.041 C 
BRANCH   5  12
ATOM     12  N   UNL A   1      29.989  24.316  26.236  1.00  0.00    -0.322 N 
ATOM     13  C   UNL A   1      30.300  23.282  27.015  1.00  0.00     0.316 C 
ATOM     14  H   UNL A   1      29.014  24.391  26.120  1.00  0.00     0.166 HD
ATOM     15  O   UNL A   1      29.402  22.877  27.761  1.00  0.00    -0.249 OA
ATOM     16  N   UNL A   1      31.450  22.619  27.085  1.00  0.00    -0.333 N 
ATOM     17  H   UNL A   1      31.456  22.023  27.869  1.00  0.00     0.165 HD
BRANCH  16  18
ATOM     18  C   UNL A   1      32.702  22.504  26.355  1.00  0.00     0.112 C 
ATOM     19  C   UNL A   1      33.919  22.473  27.257  1.00  0.00     0.056 C 
ATOM     20  C   UNL A   1      32.877  21.153  25.643  1.00  0.00     0.185 C 
ATOM     21  C   UNL A   1      34.968  21.890  26.329  1.00  0.00     0.162 C 
ATOM     22  O   UNL A   1      34.291  20.929  25.509  1.00  0.00    -0.379 OA
ENDBRANCH  16  18
ENDBRANCH   5  12
ENDBRANCH   3   5
ENDBRANCH   2   3
ENDBRANCH   1   2
BRANCH   1  23
ATOM     23  C   UNL A   1      31.580  29.625  26.709  1.00  0.00     0.275 C 
BRANCH  23  24
ATOM     24  O   UNL A   1      32.777  30.242  26.175  1.00  0.00    -0.458 OA
BRANCH  24  25
ATOM     25  C   UNL A   1      33.309  31.180  27.016  1.00  0.00     0.338 C 
ATOM     26  O   UNL A   1      32.705  32.146  27.465  1.00  0.00    -0.246 OA
BRANCH  25  27
ATOM     27  C   UNL A   1      34.715  30.889  27.435  1.00  0.00     0.060 A 
ATOM     28  C   UNL A   1      35.201  29.590  27.569  1.00  0.00     0.016 A 
ATOM     29  C   UNL A   1      35.512  31.941  27.900  1.00  0.00     0.016 A 
ATOM     30  C   UNL A   1      36.388  29.337  28.274  1.00  0.00     0.010 A 
ATOM     31  C   UNL A   1      36.755  31.690  28.512  1.00  0.00     0.010 A 
ATOM     32  C   UNL A   1      37.191  30.378  28.765  1.00  0.00    -0.014 A 
BRANCH  32  33
ATOM     33  C   UNL A   1      38.418  30.113  29.599  1.00  0.00     0.031 A 
ATOM     34  C   UNL A   1      39.546  29.254  29.059  1.00  0.00     0.074 A 
ATOM     35  C   UNL A   1      38.574  30.644  30.832  1.00  0.00     0.049 A 
ATOM     36  N   UNL A   1      40.550  28.695  29.693  1.00  0.00    -0.248 NA
ATOM     37  C   UNL A   1      39.535  28.980  27.614  1.00  0.00     0.031 C 
ATOM     38  C   UNL A   1      37.639  31.553  31.493  1.00  0.00     0.029 A 
ATOM     39  N   UNL A   1      39.590  30.498  31.753  1.00  0.00    -0.354 N 
ATOM     40  C   UNL A   1      41.234  27.938  28.746  1.00  0.00     0.074 A 
ATOM     41  C   UNL A   1      40.539  28.122  27.489  1.00  0.00     0.031 C 
ATOM     42  C   UNL A   1      38.145  31.928  32.676  1.00  0.00     0.029 A 
ATOM     43  C   UNL A   1      39.377  31.189  32.923  1.00  0.00     0.049 A 
ATOM     44  H   UNL A   1      40.391  29.951  31.588  1.00  0.00     0.167 HD
ATOM     45  C   UNL A   1      42.333  27.158  28.907  1.00  0.00     0.037 A 
ATOM     46  C   UNL A   1      40.051  31.189  34.092  1.00  0.00     0.037 A 
ATOM     47  C   UNL A   1      43.083  27.040  30.134  1.00  0.00     0.049 A 
ATOM     48  C   UNL A   1      41.245  30.292  34.263  1.00  0.00     0.074 A 
ATOM     49  C   UNL A   1      44.213  26.280  30.388  1.00  0.00     0.029 A 
ATOM     50  N   UNL A   1      42.796  27.723  31.306  1.00  0.00    -0.354 N 
ATOM     51  N   UNL A   1      41.810  29.491  33.395  1.00  0.00    -0.248 NA
ATOM     52  C   UNL A   1      41.874  30.277  35.592  1.00  0.00     0.031 C 
ATOM     53  C   UNL A   1      44.587  26.474  31.723  1.00  0.00     0.029 A 
ATOM     54  C   UNL A   1      43.719  27.394  32.287  1.00  0.00     0.049 A 
ATOM     55  H   UNL A   1      42.047  28.351  31.423  1.00  0.00     0.167 HD
ATOM     56  C   UNL A   1      42.860  28.880  34.069  1.00  0.00     0.074 A 
ATOM     57  C   UNL A   1      42.875  29.429  35.407  1.00  0.00     0.031 C 
ATOM     58  C   UNL A   1      43.725  27.938  33.620  1.00  0.00     0.037 A 
BRANCH  45  59
ATOM     59  C   UNL A   1      42.775  26.319  27.738  1.00  0.00     0.064 A 
ATOM     60  C   UNL A   1      42.230  25.055  27.470  1.00  0.00     0.173 A 
ATOM     61  C   UNL A   1      43.734  26.820  26.843  1.00  0.00     0.173 A 
ATOM     62  F   UNL A   1      41.317  24.525  28.296  1.00  0.00    -0.203 F 
ATOM     63  C   UNL A   1      42.651  24.313  26.367  1.00  0.00     0.198 A 
ATOM     64  C   UNL A   1      44.130  26.090  25.724  1.00  0.00     0.198 A 
ATOM     65  F   UNL A   1      44.279  28.031  27.043  1.00  0.00    -0.203 F 
ATOM     66  F   UNL A   1      42.152  23.088  26.156  1.00  0.00    -0.200 F 
ATOM     67  C   UNL A   1      43.594  24.833  25.492  1.00  0.00     0.200 A 
ATOM     68  F   UNL A   1      45.028  26.603  24.873  1.00  0.00    -0.200 F 
ATOM     69  F   UNL A   1      43.990  24.121  24.429  1.00  0.00    -0.200 F 
ENDBRANCH  45  59
BRANCH  46  70
ATOM     70  C   UNL A   1      39.562  32.017  35.229  1.00  0.00     0.064 A 
ATOM     71  C   UNL A   1      38.678  31.492  36.181  1.00  0.00     0.173 A 
ATOM     72  C   UNL A   1      39.961  33.354  35.382  1.00  0.00     0.173 A 
ATOM     73  F   UNL A   1      38.236  30.232  36.061  1.00  0.00    -0.203 F 
ATOM     74  C   UNL A   1      38.209  32.273  37.238  1.00  0.00     0.198 A 
ATOM     75  C   UNL A   1      39.524  34.121  36.459  1.00  0.00     0.198 A 
ATOM     76  F   UNL A   1      40.800  33.910  34.494  1.00  0.00    -0.203 F 
ATOM     77  F   UNL A   1      37.330  31.759  38.108  1.00  0.00    -0.200 F 
ATOM     78  C   UNL A   1      38.643  33.582  37.382  1.00  0.00     0.200 A 
ATOM     79  F   UNL A   1      39.961  35.380  36.602  1.00  0.00    -0.200 F 
ATOM     80  F   UNL A   1      38.204  34.327  38.406  1.00  0.00    -0.200 F 
ENDBRANCH  46  70
BRANCH  58  81
ATOM     81  C   UNL A   1      44.774  27.463  34.584  1.00  0.00     0.064 A 
ATOM     82  C   UNL A   1      44.567  26.342  35.403  1.00  0.00     0.173 A 
ATOM     83  C   UNL A   1      45.999  28.138  34.696  1.00  0.00     0.173 A 
ATOM     84  F   UNL A   1      43.406  25.672  35.347  1.00  0.00    -0.203 F 
ATOM     85  C   UNL A   1      45.530  25.940  36.325  1.00  0.00     0.198 A 
ATOM     86  C   UNL A   1      46.972  27.716  35.597  1.00  0.00     0.198 A 
ATOM     87  F   UNL A   1      46.250  29.213  33.933  1.00  0.00    -0.203 F 
ATOM     88  F   UNL A   1      45.283  24.906  37.141  1.00  0.00    -0.200 F 
ATOM     89  C   UNL A   1      46.732  26.624  36.419  1.00  0.00     0.200 A 
ATOM     90  F   UNL A   1      48.137  28.373  35.682  1.00  0.00    -0.200 F 
ATOM     91  F   UNL A   1      47.655  26.241  37.313  1.00  0.00    -0.200 F 
ENDBRANCH  58  81
ENDBRANCH  32  33
ENDBRANCH  25  27
ENDBRANCH  24  25
ENDBRANCH  23  24
ENDBRANCH   1  23
TORSDOF 13
ENDMDL
MODEL 3
REMARK VINA RESULT:     -12.5      4.251      9.655
REMARK SMILES C[C@H]1CC[C@@](NC(=O)N[C@H]2CCOC2)(C(=O)OCCOC(=O)c2ccc(-c3c4nc(c(-c5c(F)c(F)c(F)c(F)c5F)c5ccc([nH]5)c(-c5c(F)c(F)c(F)c(F)c5F)c5nc(c(-c6c(F)c(F)c(F)c(F)c6F)c6ccc3[nH]6)C=C5)C=C4)cc2)CC1
REMARK SMILES IDX 18 1 17 2 15 3 16 4 5 5 1 6 2 7 87 8 3 9 86 10 4 11 6 12
REMARK SMILES IDX 7 13 8 15 9 16 10 18 11 19 14 20 12 21 13 22 19 23 20 24
REMARK SMILES IDX 21 25 22 26 23 27 24 28 85 29 25 30 84 31 26 32 27 33 28 34
REMARK SMILES IDX 78 35 29 36 83 37 77 38 79 39 30 40 82 41 76 42 75 43 31 45
REMARK SMILES IDX 63 46 43 47 62 48 44 49 47 50 61 51 80 52 45 53 46 54 60 56
REMARK SMILES IDX 81 57 48 58 32 59 33 60 41 61 34 62 35 63 39 64 42 65 36 66
REMARK SMILES IDX 37 67 40 68 38 69 64 70 65 71 73 72 66 73 67 74 71 75 74 76
REMARK SMILES IDX 68 77 69 78 72 79 70 80 49 81 50 82 58 83 51 84 52 85 56 86
REMARK SMILES IDX 59 87 53 88 54 89 57 90 55 91
REMARK H PARENT 6 14 9 17 79 44 47 55
REMARK Flexibility Score: inf
ROOT
ATOM      1  C   UNL A   1      36.642  22.839  23.460  1.00  0.00     0.274 C 
ENDROOT
BRANCH   1   2
ATOM      2  O   UNL A   1      35.477  23.326  22.752  1.00  0.00    -0.460 OA
BRANCH   2   3
ATOM      3  C   UNL A   1      34.480  23.985  23.390  1.00  0.00     0.332 C 
ATOM      4  O   UNL A   1      34.658  24.842  24.233  1.00  0.00    -0.249 OA
BRANCH   3   5
ATOM      5  C   UNL A   1      33.083  23.661  22.836  1.00  0.00     0.139 C 
ATOM      6  C   UNL A   1      33.202  21.630  26.566  1.00  0.00     0.007 C 
ATOM      7  C   UNL A   1      32.389  22.109  25.349  1.00  0.00    -0.014 C 
ATOM      8  C   UNL A   1      32.904  21.398  24.083  1.00  0.00     0.006 C 
ATOM      9  C   UNL A   1      32.383  23.646  25.307  1.00  0.00     0.006 C 
ATOM     10  C   UNL A   1      32.783  22.152  22.752  1.00  0.00     0.041 C 
ATOM     11  C   UNL A   1      32.113  24.226  23.914  1.00  0.00     0.041 C 
BRANCH   5  12
ATOM     12  N   UNL A   1      32.784  24.321  21.540  1.00  0.00    -0.322 N 
ATOM     13  C   UNL A   1      32.887  25.534  21.001  1.00  0.00     0.316 C 
ATOM     14  H   UNL A   1      32.400  23.680  20.898  1.00  0.00     0.166 HD
ATOM     15  O   UNL A   1      32.903  25.578  19.766  1.00  0.00    -0.249 OA
ATOM     16  N   UNL A   1      32.963  26.708  21.620  1.00  0.00    -0.333 N 
ATOM     17  H   UNL A   1      33.214  27.416  20.983  1.00  0.00     0.165 HD
BRANCH  16  18
ATOM     18  C   UNL A   1      32.789  27.265  22.951  1.00  0.00     0.112 C 
ATOM     19  C   UNL A   1      33.656  28.480  23.210  1.00  0.00     0.056 C 
ATOM     20  C   UNL A   1      31.402  27.887  23.180  1.00  0.00     0.185 C 
ATOM     21  C   UNL A   1      32.956  29.103  24.403  1.00  0.00     0.162 C 
ATOM     22  O   UNL A   1      31.553  28.884  24.206  1.00  0.00    -0.379 OA
ENDBRANCH  16  18
ENDBRANCH   5  12
ENDBRANCH   3   5
ENDBRANCH   2   3
ENDBRANCH   1   2
BRANCH   1  23
ATOM     23  C   UNL A   1      36.611  21.520  24.256  1.00  0.00     0.275 C 
BRANCH  23  24
ATOM     24  O   UNL A   1      36.989  21.674  25.645  1.00  0.00    -0.458 OA
BRANCH  24  25
ATOM     25  C   UNL A   1      38.342  21.619  25.835  1.00  0.00     0.338 C 
ATOM     26  O   UNL A   1      39.078  20.743  25.401  1.00  0.00    -0.246 OA
BRANCH  25  27
ATOM     27  C   UNL A   1      38.899  22.797  26.570  1.00  0.00     0.060 A 
ATOM     28  C   UNL A   1      38.365  24.077  26.443  1.00  0.00     0.016 A 
ATOM     29  C   UNL A   1      40.113  22.655  27.251  1.00  0.00     0.016 A 
ATOM     30  C   UNL A   1      39.092  25.203  26.862  1.00  0.00     0.010 A 
ATOM     31  C   UNL A   1      40.788  23.777  27.767  1.00  0.00     0.010 A 
ATOM     32  C   UNL A   1      40.321  25.081  27.530  1.00  0.00    -0.014 A 
BRANCH  32  33
ATOM     33  C   UNL A   1      41.146  26.285  27.903  1.00  0.00     0.031 A 
ATOM     34  C   UNL A   1      40.555  27.394  28.754  1.00  0.00     0.074 A 
ATOM     35  C   UNL A   1      42.438  26.411  27.525  1.00  0.00     0.049 A 
ATOM     36  N   UNL A   1      40.995  28.612  28.966  1.00  0.00    -0.248 NA
ATOM     37  C   UNL A   1      39.294  27.092  29.449  1.00  0.00     0.031 C 
ATOM     38  C   UNL A   1      43.207  25.421  26.771  1.00  0.00     0.029 A 
ATOM     39  N   UNL A   1      43.341  27.433  27.732  1.00  0.00    -0.354 N 
ATOM     40  C   UNL A   1      40.027  29.244  29.741  1.00  0.00     0.074 A 
ATOM     41  C   UNL A   1      38.982  28.269  29.975  1.00  0.00     0.031 C 
ATOM     42  C   UNL A   1      44.468  25.852  26.631  1.00  0.00     0.029 A 
ATOM     43  C   UNL A   1      44.574  27.203  27.166  1.00  0.00     0.049 A 
ATOM     44  H   UNL A   1      43.124  28.249  28.237  1.00  0.00     0.167 HD
ATOM     45  C   UNL A   1      40.005  30.518  30.209  1.00  0.00     0.037 A 
ATOM     46  C   UNL A   1      45.652  28.001  27.029  1.00  0.00     0.037 A 
ATOM     47  C   UNL A   1      41.081  31.466  30.056  1.00  0.00     0.049 A 
ATOM     48  C   UNL A   1      45.597  29.420  27.522  1.00  0.00     0.074 A 
ATOM     49  C   UNL A   1      41.151  32.776  30.502  1.00  0.00     0.029 A 
ATOM     50  N   UNL A   1      42.289  31.199  29.430  1.00  0.00    -0.354 N 
ATOM     51  N   UNL A   1      44.630  30.042  28.148  1.00  0.00    -0.248 NA
ATOM     52  C   UNL A   1      46.776  30.257  27.258  1.00  0.00     0.031 C 
ATOM     53  C   UNL A   1      42.384  33.313  30.114  1.00  0.00     0.029 A 
ATOM     54  C   UNL A   1      43.104  32.321  29.470  1.00  0.00     0.049 A 
ATOM     55  H   UNL A   1      42.533  30.339  29.019  1.00  0.00     0.167 HD
ATOM     56  C   UNL A   1      45.083  31.338  28.355  1.00  0.00     0.074 A 
ATOM     57  C   UNL A   1      46.425  31.405  27.819  1.00  0.00     0.031 C 
ATOM     58  C   UNL A   1      44.436  32.383  28.928  1.00  0.00     0.037 A 
BRANCH  45  59
ATOM     59  C   UNL A   1      38.753  30.991  30.896  1.00  0.00     0.064 A 
ATOM     60  C   UNL A   1      37.646  31.483  30.188  1.00  0.00     0.173 A 
ATOM     61  C   UNL A   1      38.647  30.903  32.294  1.00  0.00     0.173 A 
ATOM     62  F   UNL A   1      37.694  31.595  28.853  1.00  0.00    -0.203 F 
ATOM     63  C   UNL A   1      36.495  31.896  30.857  1.00  0.00     0.198 A 
ATOM     64  C   UNL A   1      37.484  31.288  32.956  1.00  0.00     0.198 A 
ATOM     65  F   UNL A   1      39.671  30.428  33.021  1.00  0.00    -0.203 F 
ATOM     66  F   UNL A   1      35.467  32.407  30.165  1.00  0.00    -0.200 F 
ATOM     67  C   UNL A   1      36.411  31.791  32.238  1.00  0.00     0.200 A 
ATOM     68  F   UNL A   1      37.402  31.169  34.288  1.00  0.00    -0.200 F 
ATOM     69  F   UNL A   1      35.300  32.182  32.877  1.00  0.00    -0.200 F 
ENDBRANCH  45  59
BRANCH  46  70
ATOM     70  C   UNL A   1      46.862  27.496  26.320  1.00  0.00     0.064 A 
ATOM     71  C   UNL A   1      47.912  26.888  27.022  1.00  0.00     0.173 A 
ATOM     72  C   UNL A   1      46.997  27.620  24.929  1.00  0.00     0.173 A 
ATOM     73  F   UNL A   1      47.850  26.778  28.357  1.00  0.00    -0.203 F 
ATOM     74  C   UNL A   1      49.050  26.429  26.360  1.00  0.00     0.198 A 
ATOM     75  C   UNL A   1      48.116  27.126  24.264  1.00  0.00     0.198 A 
ATOM     76  F   UNL A   1      46.025  28.202  24.209  1.00  0.00    -0.203 F 
ATOM     77  F   UNL A   1      50.059  25.893  27.060  1.00  0.00    -0.200 F 
ATOM     78  C   UNL A   1      49.145  26.537  24.981  1.00  0.00     0.200 A 
ATOM     79  F   UNL A   1      48.194  27.218  22.930  1.00  0.00    -0.200 F 
ATOM     80  F   UNL A   1      50.232  26.082  24.344  1.00  0.00    -0.200 F 
ENDBRANCH  46  70
BRANCH  58  81
ATOM     81  C   UNL A   1      45.188  33.680  29.020  1.00  0.00     0.064 A 
ATOM     82  C   UNL A   1      46.001  33.983  30.123  1.00  0.00     0.173 A 
ATOM     83  C   UNL A   1      45.090  34.637  27.998  1.00  0.00     0.173 A 
ATOM     84  F   UNL A   1      46.115  33.110  31.136  1.00  0.00    -0.203 F 
ATOM     85  C   UNL A   1      46.656  35.208  30.217  1.00  0.00     0.198 A 
ATOM     86  C   UNL A   1      45.769  35.848  28.081  1.00  0.00     0.198 A 
ATOM     87  F   UNL A   1      44.329  34.396  26.918  1.00  0.00    -0.203 F 
ATOM     88  F   UNL A   1      47.375  35.499  31.310  1.00  0.00    -0.200 F 
ATOM     89  C   UNL A   1      46.542  36.138  29.196  1.00  0.00     0.200 A 
ATOM     90  F   UNL A   1      45.666  36.743  27.088  1.00  0.00    -0.200 F 
ATOM     91  F   UNL A   1      47.166  37.321  29.291  1.00  0.00    -0.200 F 
ENDBRANCH  58  81
ENDBRANCH  32  33
ENDBRANCH  25  27
ENDBRANCH  24  25
ENDBRANCH  23  24
ENDBRANCH   1  23
TORSDOF 13
ENDMDL
