MODEL 1
REMARK VINA RESULT:     -11.7      0.000      0.000
REMARK SMILES COCC[C@H]([NH3+])C(=O)N1CC(n2cc(C(=O)OCCOC(=O)c3ccc(-c4c5nc(c(-c6c(F)c(F)c(F)c(F)c6F)c6ccc([nH]6)c(-c6c(F)c(F)c(F)c(F)c6F)c6nc(c(-c7c(F)c(F)c(F)c(F)c7F)c7ccc4[nH]7)C=C6)C=C5)cc3)nn2)C1
REMARK SMILES IDX 17 1 15 2 16 3 14 4 12 5 13 6 87 7 86 8 11 9 7 10 8 11 9 12
REMARK SMILES IDX 10 13 88 14 5 15 4 16 3 17 2 18 1 19 6 20 18 24 19 25 20 26
REMARK SMILES IDX 21 27 22 28 23 29 24 30 85 31 25 32 84 33 26 34 27 35 28 36
REMARK SMILES IDX 78 37 29 38 83 39 77 40 79 41 30 42 82 43 76 44 75 45 31 47
REMARK SMILES IDX 63 48 43 49 62 50 44 51 47 52 61 53 80 54 45 55 46 56 60 58
REMARK SMILES IDX 81 59 48 60 32 61 33 62 41 63 34 64 35 65 39 66 42 67 36 68
REMARK SMILES IDX 37 69 40 70 38 71 64 72 65 73 73 74 66 75 67 76 71 77 74 78
REMARK SMILES IDX 68 79 69 80 72 81 70 82 49 83 50 84 58 85 51 86 52 87 56 88
REMARK SMILES IDX 59 89 53 90 54 91 57 92 55 93
REMARK H PARENT 6 21 6 22 6 23 79 46 47 57
REMARK Flexibility Score: inf
ROOT
ATOM      1  O   UNL A   1      33.944  30.158  26.302  1.00  0.00    -0.457 OA
ENDROOT
BRANCH   1   2
ATOM      2  C   UNL A   1      32.618  30.159  25.947  1.00  0.00     0.360 C 
ATOM      3  O   UNL A   1      31.765  30.845  26.504  1.00  0.00    -0.244 OA
BRANCH   2   4
ATOM      4  C   UNL A   1      32.341  29.314  24.796  1.00  0.00     0.190 A 
ATOM      5  N   UNL A   1      32.431  27.885  23.169  1.00  0.00    -0.245 N 
ATOM      6  C   UNL A   1      33.227  28.552  24.059  1.00  0.00     0.147 A 
ATOM      7  N   UNL A   1      31.156  28.292  23.260  1.00  0.00    -0.066 NA
ATOM      8  N   UNL A   1      31.088  29.178  24.246  1.00  0.00    -0.123 NA
BRANCH   5   9
ATOM      9  C   UNL A   1      32.866  26.705  22.478  1.00  0.00     0.148 C 
ATOM     10  C   UNL A   1      32.672  23.506  22.286  1.00  0.00     0.280 C 
ATOM     11  O   UNL A   1      33.618  23.426  21.497  1.00  0.00    -0.268 OA
ATOM     12  N   UNL A   1      32.197  24.722  22.723  1.00  0.00    -0.333 N 
ATOM     13  C   UNL A   1      31.804  25.834  21.824  1.00  0.00     0.149 C 
ATOM     14  C   UNL A   1      33.081  25.602  23.502  1.00  0.00     0.149 C 
BRANCH  10  15
ATOM     15  C   UNL A   1      32.007  22.237  22.887  1.00  0.00     0.273 C 
BRANCH  15  16
ATOM     16  C   UNL A   1      32.612  21.637  24.165  1.00  0.00     0.104 C 
BRANCH  16  17
ATOM     17  C   UNL A   1      32.519  20.127  24.410  1.00  0.00     0.166 C 
BRANCH  17  18
ATOM     18  O   UNL A   1      33.772  19.469  24.503  1.00  0.00    -0.384 OA
ATOM     19  C   UNL A   1      34.847  20.297  24.922  1.00  0.00     0.194 C 
ENDBRANCH  17  18
ENDBRANCH  16  17
ENDBRANCH  15  16
BRANCH  15  20
ATOM     20  N   UNL A   1      31.737  21.232  21.836  1.00  0.00    -0.347 N 
ATOM     21  H   UNL A   1      31.828  20.295  22.228  1.00  0.00     0.345 HD
ATOM     22  H   UNL A   1      32.405  21.349  21.075  1.00  0.00     0.345 HD
ATOM     23  H   UNL A   1      30.790  21.359  21.479  1.00  0.00     0.345 HD
ENDBRANCH  15  20
ENDBRANCH  10  15
ENDBRANCH   5   9
ENDBRANCH   2   4
ENDBRANCH   1   2
BRANCH   1  24
ATOM     24  C   UNL A   1      34.239  30.629  27.628  1.00  0.00     0.275 C 
BRANCH  24  25
ATOM     25  C   UNL A   1      35.423  29.880  28.225  1.00  0.00     0.275 C 
BRANCH  25  26
ATOM     26  O   UNL A   1      36.599  30.059  27.439  1.00  0.00    -0.458 OA
BRANCH  26  27
ATOM     27  C   UNL A   1      37.734  30.223  28.153  1.00  0.00     0.338 C 
ATOM     28  O   UNL A   1      38.014  31.146  28.900  1.00  0.00    -0.246 OA
BRANCH  27  29
ATOM     29  C   UNL A   1      38.717  29.229  27.729  1.00  0.00     0.060 A 
ATOM     30  C   UNL A   1      38.734  28.004  28.406  1.00  0.00     0.016 A 
ATOM     31  C   UNL A   1      39.783  29.661  26.931  1.00  0.00     0.016 A 
ATOM     32  C   UNL A   1      39.903  27.275  28.418  1.00  0.00     0.010 A 
ATOM     33  C   UNL A   1      40.954  28.953  26.970  1.00  0.00     0.010 A 
ATOM     34  C   UNL A   1      41.016  27.806  27.766  1.00  0.00    -0.014 A 
BRANCH  34  35
ATOM     35  C   UNL A   1      42.281  27.108  27.841  1.00  0.00     0.031 A 
ATOM     36  C   UNL A   1      42.999  27.316  29.123  1.00  0.00     0.074 A 
ATOM     37  C   UNL A   1      42.588  26.187  26.907  1.00  0.00     0.049 A 
ATOM     38  N   UNL A   1      44.228  27.672  29.298  1.00  0.00    -0.248 NA
ATOM     39  C   UNL A   1      42.218  27.239  30.375  1.00  0.00     0.031 C 
ATOM     40  C   UNL A   1      41.761  25.746  25.778  1.00  0.00     0.029 A 
ATOM     41  N   UNL A   1      43.636  25.325  26.863  1.00  0.00    -0.354 N 
ATOM     42  C   UNL A   1      44.423  27.686  30.676  1.00  0.00     0.074 A 
ATOM     43  C   UNL A   1      43.126  27.585  31.284  1.00  0.00     0.031 C 
ATOM     44  C   UNL A   1      42.215  24.554  25.334  1.00  0.00     0.029 A 
ATOM     45  C   UNL A   1      43.405  24.198  26.086  1.00  0.00     0.049 A 
ATOM     46  H   UNL A   1      44.483  25.485  27.340  1.00  0.00     0.167 HD
ATOM     47  C   UNL A   1      45.660  27.514  31.211  1.00  0.00     0.037 A 
ATOM     48  C   UNL A   1      44.069  23.019  26.193  1.00  0.00     0.037 A 
ATOM     49  C   UNL A   1      46.691  27.823  30.256  1.00  0.00     0.049 A 
ATOM     50  C   UNL A   1      45.342  23.300  26.920  1.00  0.00     0.074 A 
ATOM     51  C   UNL A   1      46.993  28.947  29.509  1.00  0.00     0.029 A 
ATOM     52  N   UNL A   1      47.359  26.785  29.652  1.00  0.00    -0.354 N 
ATOM     53  N   UNL A   1      46.315  24.019  26.428  1.00  0.00    -0.248 NA
ATOM     54  C   UNL A   1      45.321  23.196  28.375  1.00  0.00     0.031 C 
ATOM     55  C   UNL A   1      47.384  28.445  28.233  1.00  0.00     0.029 A 
ATOM     56  C   UNL A   1      47.370  27.051  28.306  1.00  0.00     0.049 A 
ATOM     57  H   UNL A   1      47.754  26.001  30.098  1.00  0.00     0.167 HD
ATOM     58  C   UNL A   1      46.755  24.794  27.491  1.00  0.00     0.074 A 
ATOM     59  C   UNL A   1      46.152  24.196  28.680  1.00  0.00     0.031 C 
ATOM     60  C   UNL A   1      47.314  26.025  27.294  1.00  0.00     0.037 A 
BRANCH  47  61
ATOM     61  C   UNL A   1      45.915  26.711  32.460  1.00  0.00     0.064 A 
ATOM     62  C   UNL A   1      46.793  27.224  33.433  1.00  0.00     0.173 A 
ATOM     63  C   UNL A   1      45.580  25.345  32.599  1.00  0.00     0.173 A 
ATOM     64  F   UNL A   1      47.195  28.502  33.384  1.00  0.00    -0.203 F 
ATOM     65  C   UNL A   1      47.357  26.409  34.418  1.00  0.00     0.198 A 
ATOM     66  C   UNL A   1      46.098  24.550  33.617  1.00  0.00     0.198 A 
ATOM     67  F   UNL A   1      44.839  24.693  31.695  1.00  0.00    -0.203 F 
ATOM     68  F   UNL A   1      48.290  26.908  35.238  1.00  0.00    -0.200 F 
ATOM     69  C   UNL A   1      47.013  25.072  34.505  1.00  0.00     0.200 A 
ATOM     70  F   UNL A   1      45.767  23.252  33.672  1.00  0.00    -0.200 F 
ATOM     71  F   UNL A   1      47.600  24.275  35.407  1.00  0.00    -0.200 F 
ENDBRANCH  47  61
BRANCH  48  72
ATOM     72  C   UNL A   1      43.494  21.652  26.062  1.00  0.00     0.064 A 
ATOM     73  C   UNL A   1      44.134  20.668  25.290  1.00  0.00     0.173 A 
ATOM     74  C   UNL A   1      42.434  21.202  26.878  1.00  0.00     0.173 A 
ATOM     75  F   UNL A   1      45.186  20.991  24.525  1.00  0.00    -0.203 F 
ATOM     76  C   UNL A   1      43.745  19.323  25.341  1.00  0.00     0.198 A 
ATOM     77  C   UNL A   1      42.035  19.864  26.914  1.00  0.00     0.198 A 
ATOM     78  F   UNL A   1      41.812  22.026  27.732  1.00  0.00    -0.203 F 
ATOM     79  F   UNL A   1      44.419  18.404  24.636  1.00  0.00    -0.200 F 
ATOM     80  C   UNL A   1      42.699  18.922  26.157  1.00  0.00     0.200 A 
ATOM     81  F   UNL A   1      41.043  19.491  27.735  1.00  0.00    -0.200 F 
ATOM     82  F   UNL A   1      42.358  17.629  26.244  1.00  0.00    -0.200 F 
ENDBRANCH  48  72
BRANCH  60  83
ATOM     83  C   UNL A   1      47.655  26.447  25.892  1.00  0.00     0.064 A 
ATOM     84  C   UNL A   1      46.802  27.203  25.069  1.00  0.00     0.173 A 
ATOM     85  C   UNL A   1      48.963  26.232  25.434  1.00  0.00     0.173 A 
ATOM     86  F   UNL A   1      45.578  27.553  25.480  1.00  0.00    -0.203 F 
ATOM     87  C   UNL A   1      47.226  27.679  23.830  1.00  0.00     0.198 A 
ATOM     88  C   UNL A   1      49.396  26.744  24.215  1.00  0.00     0.198 A 
ATOM     89  F   UNL A   1      49.844  25.571  26.203  1.00  0.00    -0.203 F 
ATOM     90  F   UNL A   1      46.387  28.390  23.062  1.00  0.00    -0.200 F 
ATOM     91  C   UNL A   1      48.525  27.457  23.408  1.00  0.00     0.200 A 
ATOM     92  F   UNL A   1      50.671  26.575  23.837  1.00  0.00    -0.200 F 
ATOM     93  F   UNL A   1      48.946  27.957  22.238  1.00  0.00    -0.200 F 
ENDBRANCH  60  83
ENDBRANCH  34  35
ENDBRANCH  27  29
ENDBRANCH  26  27
ENDBRANCH  25  26
ENDBRANCH  24  25
ENDBRANCH   1  24
TORSDOF 17
ENDMDL
MODEL 2
REMARK VINA RESULT:     -11.6      5.047      7.695
REMARK SMILES COCC[C@H]([NH3+])C(=O)N1CC(n2cc(C(=O)OCCOC(=O)c3ccc(-c4c5nc(c(-c6c(F)c(F)c(F)c(F)c6F)c6ccc([nH]6)c(-c6c(F)c(F)c(F)c(F)c6F)c6nc(c(-c7c(F)c(F)c(F)c(F)c7F)c7ccc4[nH]7)C=C6)C=C5)cc3)nn2)C1
REMARK SMILES IDX 17 1 15 2 16 3 14 4 12 5 13 6 87 7 86 8 11 9 7 10 8 11 9 12
REMARK SMILES IDX 10 13 88 14 5 15 4 16 3 17 2 18 1 19 6 20 18 24 19 25 20 26
REMARK SMILES IDX 21 27 22 28 23 29 24 30 85 31 25 32 84 33 26 34 27 35 28 36
REMARK SMILES IDX 78 37 29 38 83 39 77 40 79 41 30 42 82 43 76 44 75 45 31 47
REMARK SMILES IDX 63 48 43 49 62 50 44 51 47 52 61 53 80 54 45 55 46 56 60 58
REMARK SMILES IDX 81 59 48 60 32 61 33 62 41 63 34 64 35 65 39 66 42 67 36 68
REMARK SMILES IDX 37 69 40 70 38 71 64 72 65 73 73 74 66 75 67 76 71 77 74 78
REMARK SMILES IDX 68 79 69 80 72 81 70 82 49 83 50 84 58 85 51 86 52 87 56 88
REMARK SMILES IDX 59 89 53 90 54 91 57 92 55 93
REMARK H PARENT 6 21 6 22 6 23 79 46 47 57
REMARK Flexibility Score: inf
ROOT
ATOM      1  O   UNL A   1      34.066  35.158  28.729  1.00  0.00    -0.457 OA
ENDROOT
BRANCH   1   2
ATOM      2  C   UNL A   1      33.156  35.883  29.456  1.00  0.00     0.360 C 
ATOM      3  O   UNL A   1      32.174  36.434  28.964  1.00  0.00    -0.244 OA
BRANCH   2   4
ATOM      4  C   UNL A   1      33.438  35.872  30.884  1.00  0.00     0.190 A 
ATOM      5  N   UNL A   1      34.070  35.375  32.896  1.00  0.00    -0.245 N 
ATOM      6  C   UNL A   1      33.865  34.816  31.664  1.00  0.00     0.147 A 
ATOM      7  N   UNL A   1      33.682  36.659  32.916  1.00  0.00    -0.066 NA
ATOM      8  N   UNL A   1      33.280  36.974  31.691  1.00  0.00    -0.123 NA
BRANCH   5   9
ATOM      9  C   UNL A   1      34.877  34.748  33.904  1.00  0.00     0.148 C 
ATOM     10  C   UNL A   1      37.120  32.536  34.524  1.00  0.00     0.280 C 
ATOM     11  O   UNL A   1      36.959  32.615  35.745  1.00  0.00    -0.268 OA
ATOM     12  N   UNL A   1      36.434  33.351  33.652  1.00  0.00    -0.333 N 
ATOM     13  C   UNL A   1      36.388  34.829  33.754  1.00  0.00     0.149 C 
ATOM     14  C   UNL A   1      34.968  33.263  33.588  1.00  0.00     0.149 C 
BRANCH  10  15
ATOM     15  C   UNL A   1      38.054  31.465  33.895  1.00  0.00     0.273 C 
BRANCH  15  16
ATOM     16  C   UNL A   1      38.862  31.851  32.648  1.00  0.00     0.104 C 
BRANCH  16  17
ATOM     17  C   UNL A   1      40.100  32.743  32.794  1.00  0.00     0.166 C 
BRANCH  17  18
ATOM     18  O   UNL A   1      40.181  33.795  31.847  1.00  0.00    -0.384 OA
ATOM     19  C   UNL A   1      41.475  34.362  31.700  1.00  0.00     0.194 C 
ENDBRANCH  17  18
ENDBRANCH  16  17
ENDBRANCH  15  16
BRANCH  15  20
ATOM     20  N   UNL A   1      37.357  30.166  33.766  1.00  0.00    -0.347 N 
ATOM     21  H   UNL A   1      37.730  29.510  34.453  1.00  0.00     0.345 HD
ATOM     22  H   UNL A   1      37.502  29.795  32.827  1.00  0.00     0.345 HD
ATOM     23  H   UNL A   1      36.359  30.298  33.930  1.00  0.00     0.345 HD
ENDBRANCH  15  20
ENDBRANCH  10  15
ENDBRANCH   5   9
ENDBRANCH   2   4
ENDBRANCH   1   2
BRANCH   1  24
ATOM     24  C   UNL A   1      33.527  34.076  27.950  1.00  0.00     0.275 C 
BRANCH  24  25
ATOM     25  C   UNL A   1      34.064  32.734  28.432  1.00  0.00     0.275 C 
BRANCH  25  26
ATOM     26  O   UNL A   1      35.154  32.293  27.625  1.00  0.00    -0.458 OA
BRANCH  26  27
ATOM     27  C   UNL A   1      35.275  30.951  27.527  1.00  0.00     0.338 C 
ATOM     28  O   UNL A   1      34.497  30.172  27.002  1.00  0.00    -0.246 OA
BRANCH  27  29
ATOM     29  C   UNL A   1      36.392  30.507  28.357  1.00  0.00     0.060 A 
ATOM     30  C   UNL A   1      37.269  31.484  28.842  1.00  0.00     0.016 A 
ATOM     31  C   UNL A   1      36.718  29.146  28.342  1.00  0.00     0.016 A 
ATOM     32  C   UNL A   1      38.557  31.111  29.161  1.00  0.00     0.010 A 
ATOM     33  C   UNL A   1      38.006  28.781  28.628  1.00  0.00     0.010 A 
ATOM     34  C   UNL A   1      38.923  29.779  28.969  1.00  0.00    -0.014 A 
BRANCH  34  35
ATOM     35  C   UNL A   1      40.293  29.380  29.208  1.00  0.00     0.031 A 
ATOM     36  C   UNL A   1      40.605  29.159  30.642  1.00  0.00     0.074 A 
ATOM     37  C   UNL A   1      41.073  29.024  28.169  1.00  0.00     0.049 A 
ATOM     38  N   UNL A   1      41.589  29.642  31.325  1.00  0.00    -0.248 NA
ATOM     39  C   UNL A   1      39.630  28.405  31.455  1.00  0.00     0.031 C 
ATOM     40  C   UNL A   1      40.698  28.952  26.752  1.00  0.00     0.029 A 
ATOM     41  N   UNL A   1      42.320  28.489  28.175  1.00  0.00    -0.354 N 
ATOM     42  C   UNL A   1      41.459  29.106  32.603  1.00  0.00     0.074 A 
ATOM     43  C   UNL A   1      40.158  28.503  32.673  1.00  0.00     0.031 C 
ATOM     44  C   UNL A   1      41.590  28.178  26.096  1.00  0.00     0.029 A 
ATOM     45  C   UNL A   1      42.633  27.779  27.023  1.00  0.00     0.049 A 
ATOM     46  H   UNL A   1      42.946  28.594  28.928  1.00  0.00     0.167 HD
ATOM     47  C   UNL A   1      42.536  28.971  33.420  1.00  0.00     0.037 A 
ATOM     48  C   UNL A   1      43.592  26.823  26.925  1.00  0.00     0.037 A 
ATOM     49  C   UNL A   1      43.603  29.853  33.030  1.00  0.00     0.049 A 
ATOM     50  C   UNL A   1      44.518  27.013  28.080  1.00  0.00     0.074 A 
ATOM     51  C   UNL A   1      43.695  31.224  32.867  1.00  0.00     0.029 A 
ATOM     52  N   UNL A   1      44.679  29.326  32.358  1.00  0.00    -0.354 N 
ATOM     53  N   UNL A   1      45.300  28.050  28.221  1.00  0.00    -0.248 NA
ATOM     54  C   UNL A   1      44.207  26.298  29.314  1.00  0.00     0.031 C 
ATOM     55  C   UNL A   1      44.497  31.400  31.702  1.00  0.00     0.029 A 
ATOM     56  C   UNL A   1      44.906  30.136  31.275  1.00  0.00     0.049 A 
ATOM     57  H   UNL A   1      45.190  28.522  32.607  1.00  0.00     0.167 HD
ATOM     58  C   UNL A   1      45.227  28.369  29.569  1.00  0.00     0.074 A 
ATOM     59  C   UNL A   1      44.593  27.215  30.204  1.00  0.00     0.031 C 
ATOM     60  C   UNL A   1      45.400  29.650  30.011  1.00  0.00     0.037 A 
BRANCH  47  61
ATOM     61  C   UNL A   1      42.746  27.780  34.320  1.00  0.00     0.064 A 
ATOM     62  C   UNL A   1      43.222  26.579  33.761  1.00  0.00     0.173 A 
ATOM     63  C   UNL A   1      42.217  27.679  35.626  1.00  0.00     0.173 A 
ATOM     64  F   UNL A   1      43.724  26.557  32.518  1.00  0.00    -0.203 F 
ATOM     65  C   UNL A   1      43.100  25.359  34.429  1.00  0.00     0.198 A 
ATOM     66  C   UNL A   1      42.151  26.469  36.312  1.00  0.00     0.198 A 
ATOM     67  F   UNL A   1      41.637  28.713  36.247  1.00  0.00    -0.203 F 
ATOM     68  F   UNL A   1      43.442  24.225  33.806  1.00  0.00    -0.200 F 
ATOM     69  C   UNL A   1      42.559  25.305  35.701  1.00  0.00     0.200 A 
ATOM     70  F   UNL A   1      41.606  26.436  37.537  1.00  0.00    -0.200 F 
ATOM     71  F   UNL A   1      42.382  24.128  36.317  1.00  0.00    -0.200 F 
ENDBRANCH  47  61
BRANCH  48  72
ATOM     72  C   UNL A   1      43.519  25.559  26.143  1.00  0.00     0.064 A 
ATOM     73  C   UNL A   1      44.556  25.183  25.273  1.00  0.00     0.173 A 
ATOM     74  C   UNL A   1      42.547  24.569  26.405  1.00  0.00     0.173 A 
ATOM     75  F   UNL A   1      45.554  26.038  25.008  1.00  0.00    -0.203 F 
ATOM     76  C   UNL A   1      44.621  23.901  24.713  1.00  0.00     0.198 A 
ATOM     77  C   UNL A   1      42.602  23.297  25.831  1.00  0.00     0.198 A 
ATOM     78  F   UNL A   1      41.565  24.773  27.293  1.00  0.00    -0.203 F 
ATOM     79  F   UNL A   1      45.659  23.561  23.936  1.00  0.00    -0.200 F 
ATOM     80  C   UNL A   1      43.646  22.958  24.997  1.00  0.00     0.200 A 
ATOM     81  F   UNL A   1      41.668  22.389  26.144  1.00  0.00    -0.200 F 
ATOM     82  F   UNL A   1      43.733  21.716  24.501  1.00  0.00    -0.200 F 
ENDBRANCH  48  72
BRANCH  60  83
ATOM     83  C   UNL A   1      45.895  30.686  29.040  1.00  0.00     0.064 A 
ATOM     84  C   UNL A   1      47.253  30.906  28.751  1.00  0.00     0.173 A 
ATOM     85  C   UNL A   1      44.953  31.353  28.244  1.00  0.00     0.173 A 
ATOM     86  F   UNL A   1      48.213  30.223  29.383  1.00  0.00    -0.203 F 
ATOM     87  C   UNL A   1      47.645  31.787  27.744  1.00  0.00     0.198 A 
ATOM     88  C   UNL A   1      45.347  32.199  27.212  1.00  0.00     0.198 A 
ATOM     89  F   UNL A   1      43.641  31.135  28.431  1.00  0.00    -0.203 F 
ATOM     90  F   UNL A   1      48.948  31.984  27.495  1.00  0.00    -0.200 F 
ATOM     91  C   UNL A   1      46.692  32.425  26.969  1.00  0.00     0.200 A 
ATOM     92  F   UNL A   1      44.421  32.770  26.430  1.00  0.00    -0.200 F 
ATOM     93  F   UNL A   1      47.070  33.234  25.970  1.00  0.00    -0.200 F 
ENDBRANCH  60  83
ENDBRANCH  34  35
ENDBRANCH  27  29
ENDBRANCH  26  27
ENDBRANCH  25  26
ENDBRANCH  24  25
ENDBRANCH   1  24
TORSDOF 17
ENDMDL
MODEL 3
REMARK VINA RESULT:     -11.5      4.409      9.348
REMARK SMILES COCC[C@H]([NH3+])C(=O)N1CC(n2cc(C(=O)OCCOC(=O)c3ccc(-c4c5nc(c(-c6c(F)c(F)c(F)c(F)c6F)c6ccc([nH]6)c(-c6c(F)c(F)c(F)c(F)c6F)c6nc(c(-c7c(F)c(F)c(F)c(F)c7F)c7ccc4[nH]7)C=C6)C=C5)cc3)nn2)C1
REMARK SMILES IDX 17 1 15 2 16 3 14 4 12 5 13 6 87 7 86 8 11 9 7 10 8 11 9 12
REMARK SMILES IDX 10 13 88 14 5 15 4 16 3 17 2 18 1 19 6 20 18 24 19 25 20 26
REMARK SMILES IDX 21 27 22 28 23 29 24 30 85 31 25 32 84 33 26 34 27 35 28 36
REMARK SMILES IDX 78 37 29 38 83 39 77 40 79 41 30 42 82 43 76 44 75 45 31 47
REMARK SMILES IDX 63 48 43 49 62 50 44 51 47 52 61 53 80 54 45 55 46 56 60 58
REMARK SMILES IDX 81 59 48 60 32 61 33 62 41 63 34 64 35 65 39 66 42 67 36 68
REMARK SMILES IDX 37 69 40 70 38 71 64 72 65 73 73 74 66 75 67 76 71 77 74 78
REMARK SMILES IDX 68 79 69 80 72 81 70 82 49 83 50 84 58 85 51 86 52 87 56 88
REMARK SMILES IDX 59 89 53 90 54 91 57 92 55 93
REMARK H PARENT 6 21 6 22 6 23 79 46 47 57
REMARK Flexibility Score: inf
ROOT
ATOM      1  O   UNL A   1      36.043  23.073  24.908  1.00  0.00    -0.457 OA
ENDROOT
BRANCH   1   2
ATOM      2  C   UNL A   1      35.822  23.401  23.594  1.00  0.00     0.360 C 
ATOM      3  O   UNL A   1      36.540  23.029  22.669  1.00  0.00    -0.244 OA
BRANCH   2   4
ATOM      4  C   UNL A   1      34.608  24.180  23.404  1.00  0.00     0.190 A 
ATOM      5  N   UNL A   1      33.002  25.630  23.525  1.00  0.00    -0.245 N 
ATOM      6  C   UNL A   1      34.084  25.163  24.220  1.00  0.00     0.147 A 
ATOM      7  N   UNL A   1      32.792  24.908  22.414  1.00  0.00    -0.066 NA
ATOM      8  N   UNL A   1      33.763  24.007  22.333  1.00  0.00    -0.123 NA
BRANCH   5   9
ATOM      9  C   UNL A   1      32.396  26.900  23.803  1.00  0.00     0.148 C 
ATOM     10  C   UNL A   1      29.799  28.752  23.428  1.00  0.00     0.280 C 
ATOM     11  O   UNL A   1      30.372  29.762  23.846  1.00  0.00    -0.268 OA
ATOM     12  N   UNL A   1      30.422  27.524  23.407  1.00  0.00    -0.333 N 
ATOM     13  C   UNL A   1      31.088  26.907  24.579  1.00  0.00     0.149 C 
ATOM     14  C   UNL A   1      31.619  27.340  22.572  1.00  0.00     0.149 C 
BRANCH  10  15
ATOM     15  C   UNL A   1      28.364  28.819  22.837  1.00  0.00     0.273 C 
BRANCH  15  16
ATOM     16  C   UNL A   1      27.664  30.185  22.786  1.00  0.00     0.104 C 
BRANCH  16  17
ATOM     17  C   UNL A   1      28.084  31.213  21.730  1.00  0.00     0.166 C 
BRANCH  17  18
ATOM     18  O   UNL A   1      27.882  32.563  22.113  1.00  0.00    -0.384 OA
ATOM     19  C   UNL A   1      28.857  33.078  23.009  1.00  0.00     0.194 C 
ENDBRANCH  17  18
ENDBRANCH  16  17
ENDBRANCH  15  16
BRANCH  15  20
ATOM     20  N   UNL A   1      27.513  27.741  23.389  1.00  0.00    -0.347 N 
ATOM     21  H   UNL A   1      27.455  26.975  22.718  1.00  0.00     0.345 HD
ATOM     22  H   UNL A   1      26.578  28.106  23.570  1.00  0.00     0.345 HD
ATOM     23  H   UNL A   1      27.920  27.399  24.260  1.00  0.00     0.345 HD
ENDBRANCH  15  20
ENDBRANCH  10  15
ENDBRANCH   5   9
ENDBRANCH   2   4
ENDBRANCH   1   2
BRANCH   1  24
ATOM     24  C   UNL A   1      36.172  21.668  25.190  1.00  0.00     0.275 C 
BRANCH  24  25
ATOM     25  C   UNL A   1      37.610  21.311  25.544  1.00  0.00     0.275 C 
BRANCH  25  26
ATOM     26  O   UNL A   1      38.298  22.427  26.105  1.00  0.00    -0.458 OA
BRANCH  26  27
ATOM     27  C   UNL A   1      39.525  22.145  26.595  1.00  0.00     0.338 C 
ATOM     28  O   UNL A   1      39.932  21.070  27.003  1.00  0.00    -0.246 OA
BRANCH  27  29
ATOM     29  C   UNL A   1      40.263  23.390  26.790  1.00  0.00     0.060 A 
ATOM     30  C   UNL A   1      41.391  23.353  27.618  1.00  0.00     0.016 A 
ATOM     31  C   UNL A   1      39.634  24.587  26.432  1.00  0.00     0.016 A 
ATOM     32  C   UNL A   1      41.794  24.519  28.233  1.00  0.00     0.010 A 
ATOM     33  C   UNL A   1      40.014  25.739  27.068  1.00  0.00     0.010 A 
ATOM     34  C   UNL A   1      41.045  25.674  28.008  1.00  0.00    -0.014 A 
BRANCH  34  35
ATOM     35  C   UNL A   1      41.390  26.889  28.713  1.00  0.00     0.031 A 
ATOM     36  C   UNL A   1      42.614  27.549  28.193  1.00  0.00     0.074 A 
ATOM     37  C   UNL A   1      40.508  27.432  29.573  1.00  0.00     0.049 A 
ATOM     38  N   UNL A   1      43.642  27.956  28.860  1.00  0.00    -0.248 NA
ATOM     39  C   UNL A   1      42.771  27.662  26.729  1.00  0.00     0.031 C 
ATOM     40  C   UNL A   1      39.157  26.954  29.892  1.00  0.00     0.029 A 
ATOM     41  N   UNL A   1      40.562  28.624  30.222  1.00  0.00    -0.354 N 
ATOM     42  C   UNL A   1      44.491  28.538  27.923  1.00  0.00     0.074 A 
ATOM     43  C   UNL A   1      43.994  28.177  26.626  1.00  0.00     0.031 C 
ATOM     44  C   UNL A   1      38.451  27.959  30.452  1.00  0.00     0.029 A 
ATOM     45  C   UNL A   1      39.321  29.111  30.608  1.00  0.00     0.049 A 
ATOM     46  H   UNL A   1      41.406  29.098  30.402  1.00  0.00     0.167 HD
ATOM     47  C   UNL A   1      45.389  29.491  28.286  1.00  0.00     0.037 A 
ATOM     48  C   UNL A   1      39.036  30.411  30.878  1.00  0.00     0.037 A 
ATOM     49  C   UNL A   1      45.676  29.430  29.695  1.00  0.00     0.049 A 
ATOM     50  C   UNL A   1      40.335  31.096  31.143  1.00  0.00     0.074 A 
ATOM     51  C   UNL A   1      46.153  28.434  30.527  1.00  0.00     0.029 A 
ATOM     52  N   UNL A   1      45.106  30.365  30.523  1.00  0.00    -0.354 N 
ATOM     53  N   UNL A   1      41.087  30.850  32.183  1.00  0.00    -0.248 NA
ATOM     54  C   UNL A   1      41.027  31.688  30.003  1.00  0.00     0.031 C 
ATOM     55  C   UNL A   1      45.398  28.569  31.729  1.00  0.00     0.029 A 
ATOM     56  C   UNL A   1      44.567  29.680  31.583  1.00  0.00     0.049 A 
ATOM     57  H   UNL A   1      45.087  31.340  30.384  1.00  0.00     0.167 HD
ATOM     58  C   UNL A   1      42.384  30.846  31.688  1.00  0.00     0.074 A 
ATOM     59  C   UNL A   1      42.290  31.435  30.355  1.00  0.00     0.031 C 
ATOM     60  C   UNL A   1      43.367  30.093  32.267  1.00  0.00     0.037 A 
BRANCH  47  61
ATOM     61  C   UNL A   1      45.700  30.698  27.440  1.00  0.00     0.064 A 
ATOM     62  C   UNL A   1      47.045  31.062  27.239  1.00  0.00     0.173 A 
ATOM     63  C   UNL A   1      44.743  31.672  27.077  1.00  0.00     0.173 A 
ATOM     64  F   UNL A   1      48.036  30.222  27.570  1.00  0.00    -0.203 F 
ATOM     65  C   UNL A   1      47.402  32.336  26.790  1.00  0.00     0.198 A 
ATOM     66  C   UNL A   1      45.102  32.919  26.574  1.00  0.00     0.198 A 
ATOM     67  F   UNL A   1      43.434  31.510  27.302  1.00  0.00    -0.203 F 
ATOM     68  F   UNL A   1      48.694  32.683  26.744  1.00  0.00    -0.200 F 
ATOM     69  C   UNL A   1      46.431  33.264  26.463  1.00  0.00     0.200 A 
ATOM     70  F   UNL A   1      44.145  33.812  26.282  1.00  0.00    -0.200 F 
ATOM     71  F   UNL A   1      46.772  34.506  26.095  1.00  0.00    -0.200 F 
ENDBRANCH  47  61
BRANCH  48  72
ATOM     72  C   UNL A   1      37.787  31.143  30.534  1.00  0.00     0.064 A 
ATOM     73  C   UNL A   1      37.384  31.300  29.198  1.00  0.00     0.173 A 
ATOM     74  C   UNL A   1      36.833  31.502  31.511  1.00  0.00     0.173 A 
ATOM     75  F   UNL A   1      38.202  30.935  28.201  1.00  0.00    -0.203 F 
ATOM     76  C   UNL A   1      36.108  31.772  28.863  1.00  0.00     0.198 A 
ATOM     77  C   UNL A   1      35.569  31.990  31.176  1.00  0.00     0.198 A 
ATOM     78  F   UNL A   1      37.063  31.305  32.816  1.00  0.00    -0.203 F 
ATOM     79  F   UNL A   1      35.739  31.850  27.576  1.00  0.00    -0.200 F 
ATOM     80  C   UNL A   1      35.200  32.113  29.853  1.00  0.00     0.200 A 
ATOM     81  F   UNL A   1      34.693  32.282  32.148  1.00  0.00    -0.200 F 
ATOM     82  F   UNL A   1      33.963  32.518  29.535  1.00  0.00    -0.200 F 
ENDBRANCH  48  72
BRANCH  60  83
ATOM     83  C   UNL A   1      43.086  29.433  33.588  1.00  0.00     0.064 A 
ATOM     84  C   UNL A   1      42.415  28.206  33.726  1.00  0.00     0.173 A 
ATOM     85  C   UNL A   1      43.678  29.974  34.738  1.00  0.00     0.173 A 
ATOM     86  F   UNL A   1      41.923  27.564  32.661  1.00  0.00    -0.203 F 
ATOM     87  C   UNL A   1      42.303  27.577  34.965  1.00  0.00     0.198 A 
ATOM     88  C   UNL A   1      43.602  29.323  35.966  1.00  0.00     0.198 A 
ATOM     89  F   UNL A   1      44.387  31.111  34.658  1.00  0.00    -0.203 F 
ATOM     90  F   UNL A   1      41.649  26.411  35.069  1.00  0.00    -0.200 F 
ATOM     91  C   UNL A   1      42.904  28.131  36.082  1.00  0.00     0.200 A 
ATOM     92  F   UNL A   1      44.232  29.835  37.031  1.00  0.00    -0.200 F 
ATOM     93  F   UNL A   1      42.838  27.502  37.263  1.00  0.00    -0.200 F 
ENDBRANCH  60  83
ENDBRANCH  34  35
ENDBRANCH  27  29
ENDBRANCH  26  27
ENDBRANCH  25  26
ENDBRANCH  24  25
ENDBRANCH   1  24
TORSDOF 17
ENDMDL
