MODEL 1
REMARK VINA RESULT:     -10.6      0.000      0.000
REMARK SMILES [NH3+][C@@H](Cc1ccc(F)cc1C(F)(F)F)C(=O)OCCOC(=O)c1ccc(-c2c3nc(c(-c4c(F)c(F)c(F)c(F)c4F)c4ccc([nH]4)c(-c4c(F)c(F)c(F)c(F)c4F)c4nc(c(-c5c(F)c(F)c(F)c(F)c5F)c5ccc2[nH]5)C=C4)C=C3)cc1
REMARK SMILES IDX 18 1 17 2 15 3 16 4 2 5 1 6 3 10 4 11 5 12 10 13 6 14 9 15
REMARK SMILES IDX 7 16 8 17 11 18 12 19 13 20 14 21 19 22 20 23 21 24 22 25
REMARK SMILES IDX 23 26 24 27 85 28 25 29 84 30 26 31 27 32 28 33 78 34 29 35
REMARK SMILES IDX 83 36 77 37 79 38 30 39 82 40 76 41 75 42 31 44 63 45 43 46
REMARK SMILES IDX 62 47 44 48 47 49 61 50 80 51 45 52 46 53 60 55 81 56 48 57
REMARK SMILES IDX 32 58 33 59 41 60 34 61 35 62 39 63 42 64 36 65 37 66 40 67
REMARK SMILES IDX 38 68 64 69 65 70 73 71 66 72 67 73 71 74 74 75 68 76 69 77
REMARK SMILES IDX 72 78 70 79 49 80 50 81 58 82 51 83 52 84 56 85 59 86 53 87
REMARK SMILES IDX 54 88 57 89 55 90
REMARK H PARENT 1 7 1 8 1 9 79 43 47 54
REMARK Flexibility Score: inf
ROOT
ATOM      1  C   UNL A   1      44.402  20.299  25.408  1.00  0.00     0.274 C 
ENDROOT
BRANCH   1   2
ATOM      2  O   UNL A   1      42.975  20.338  25.202  1.00  0.00    -0.458 OA
BRANCH   2   3
ATOM      3  C   UNL A   1      42.237  19.365  25.802  1.00  0.00     0.365 C 
ATOM      4  O   UNL A   1      42.487  18.166  25.753  1.00  0.00    -0.245 OA
BRANCH   3   5
ATOM      5  C   UNL A   1      41.068  19.945  26.607  1.00  0.00     0.296 C 
BRANCH   5   6
ATOM      6  N   UNL A   1      41.178  19.651  28.051  1.00  0.00    -0.346 N 
ATOM      7  H   UNL A   1      40.314  19.214  28.375  1.00  0.00     0.345 HD
ATOM      8  H   UNL A   1      41.333  20.519  28.564  1.00  0.00     0.345 HD
ATOM      9  H   UNL A   1      41.960  19.017  28.209  1.00  0.00     0.345 HD
ENDBRANCH   5   6
BRANCH   5  10
ATOM     10  C   UNL A   1      40.682  21.404  26.306  1.00  0.00     0.113 C 
BRANCH  10  11
ATOM     11  C   UNL A   1      39.288  21.879  25.931  1.00  0.00    -0.029 A 
ATOM     12  C   UNL A   1      38.467  20.889  25.329  1.00  0.00     0.007 A 
ATOM     13  C   UNL A   1      38.693  23.126  26.250  1.00  0.00     0.062 A 
ATOM     14  C   UNL A   1      37.118  21.108  25.050  1.00  0.00     0.039 A 
ATOM     15  C   UNL A   1      37.329  23.332  25.927  1.00  0.00     0.052 A 
ATOM     16  C   UNL A   1      36.560  22.332  25.351  1.00  0.00     0.123 A 
ATOM     17  F   UNL A   1      35.264  22.554  25.106  1.00  0.00    -0.207 F 
BRANCH  13  18
ATOM     18  C   UNL A   1      39.335  24.307  26.947  1.00  0.00     0.416 C 
ATOM     19  F   UNL A   1      40.000  23.935  28.078  1.00  0.00    -0.166 F 
ATOM     20  F   UNL A   1      40.274  24.908  26.158  1.00  0.00    -0.166 F 
ATOM     21  F   UNL A   1      38.496  25.303  27.306  1.00  0.00    -0.166 F 
ENDBRANCH  13  18
ENDBRANCH  10  11
ENDBRANCH   5  10
ENDBRANCH   3   5
ENDBRANCH   2   3
ENDBRANCH   1   2
BRANCH   1  22
ATOM     22  C   UNL A   1      45.002  21.701  25.294  1.00  0.00     0.275 C 
BRANCH  22  23
ATOM     23  O   UNL A   1      44.138  22.673  25.905  1.00  0.00    -0.458 OA
BRANCH  23  24
ATOM     24  C   UNL A   1      44.242  23.926  25.402  1.00  0.00     0.338 C 
ATOM     25  O   UNL A   1      44.616  24.255  24.290  1.00  0.00    -0.246 OA
BRANCH  24  26
ATOM     26  C   UNL A   1      43.698  24.866  26.394  1.00  0.00     0.060 A 
ATOM     27  C   UNL A   1      43.833  26.234  26.152  1.00  0.00     0.016 A 
ATOM     28  C   UNL A   1      43.097  24.410  27.565  1.00  0.00     0.016 A 
ATOM     29  C   UNL A   1      43.397  27.163  27.083  1.00  0.00     0.010 A 
ATOM     30  C   UNL A   1      42.637  25.342  28.496  1.00  0.00     0.010 A 
ATOM     31  C   UNL A   1      42.795  26.721  28.260  1.00  0.00    -0.014 A 
BRANCH  31  32
ATOM     32  C   UNL A   1      42.359  27.703  29.270  1.00  0.00     0.031 A 
ATOM     33  C   UNL A   1      43.142  27.844  30.534  1.00  0.00     0.074 A 
ATOM     34  C   UNL A   1      41.262  28.444  29.044  1.00  0.00     0.049 A 
ATOM     35  N   UNL A   1      42.835  28.489  31.628  1.00  0.00    -0.248 NA
ATOM     36  C   UNL A   1      44.443  27.159  30.578  1.00  0.00     0.031 C 
ATOM     37  C   UNL A   1      40.481  28.434  27.808  1.00  0.00     0.029 A 
ATOM     38  N   UNL A   1      40.604  29.331  29.856  1.00  0.00    -0.354 N 
ATOM     39  C   UNL A   1      43.884  28.255  32.504  1.00  0.00     0.074 A 
ATOM     40  C   UNL A   1      44.838  27.413  31.817  1.00  0.00     0.031 C 
ATOM     41  C   UNL A   1      39.431  29.259  27.950  1.00  0.00     0.029 A 
ATOM     42  C   UNL A   1      39.438  29.801  29.307  1.00  0.00     0.049 A 
ATOM     43  H   UNL A   1      40.935  29.603  30.742  1.00  0.00     0.167 HD
ATOM     44  C   UNL A   1      44.018  28.702  33.774  1.00  0.00     0.037 A 
ATOM     45  C   UNL A   1      38.458  30.540  29.859  1.00  0.00     0.037 A 
ATOM     46  C   UNL A   1      43.064  29.561  34.422  1.00  0.00     0.049 A 
ATOM     47  C   UNL A   1      38.593  30.971  31.292  1.00  0.00     0.074 A 
ATOM     48  C   UNL A   1      43.119  30.107  35.691  1.00  0.00     0.029 A 
ATOM     49  N   UNL A   1      41.876  29.995  33.848  1.00  0.00    -0.354 N 
ATOM     50  N   UNL A   1      39.573  30.735  32.132  1.00  0.00    -0.248 NA
ATOM     51  C   UNL A   1      37.489  31.752  31.862  1.00  0.00     0.031 C 
ATOM     52  C   UNL A   1      41.940  30.829  35.903  1.00  0.00     0.029 A 
ATOM     53  C   UNL A   1      41.174  30.775  34.749  1.00  0.00     0.049 A 
ATOM     54  H   UNL A   1      41.579  29.779  32.934  1.00  0.00     0.167 HD
ATOM     55  C   UNL A   1      39.213  31.345  33.324  1.00  0.00     0.074 A 
ATOM     56  C   UNL A   1      37.924  31.969  33.097  1.00  0.00     0.031 C 
ATOM     57  C   UNL A   1      39.890  31.383  34.498  1.00  0.00     0.037 A 
BRANCH  44  58
ATOM     58  C   UNL A   1      45.206  28.231  34.555  1.00  0.00     0.064 A 
ATOM     59  C   UNL A   1      46.406  28.959  34.512  1.00  0.00     0.173 A 
ATOM     60  C   UNL A   1      45.179  27.057  35.320  1.00  0.00     0.173 A 
ATOM     61  F   UNL A   1      46.486  30.090  33.796  1.00  0.00    -0.203 F 
ATOM     62  C   UNL A   1      47.534  28.524  35.203  1.00  0.00     0.198 A 
ATOM     63  C   UNL A   1      46.301  26.639  36.030  1.00  0.00     0.198 A 
ATOM     64  F   UNL A   1      44.051  26.334  35.406  1.00  0.00    -0.203 F 
ATOM     65  F   UNL A   1      48.674  29.227  35.131  1.00  0.00    -0.200 F 
ATOM     66  C   UNL A   1      47.479  27.369  35.966  1.00  0.00     0.200 A 
ATOM     67  F   UNL A   1      46.240  25.536  36.789  1.00  0.00    -0.200 F 
ATOM     68  F   UNL A   1      48.560  26.962  36.645  1.00  0.00    -0.200 F 
ENDBRANCH  44  58
BRANCH  45  69
ATOM     69  C   UNL A   1      37.262  30.871  29.046  1.00  0.00     0.064 A 
ATOM     70  C   UNL A   1      37.009  32.189  28.632  1.00  0.00     0.173 A 
ATOM     71  C   UNL A   1      36.306  29.896  28.743  1.00  0.00     0.173 A 
ATOM     72  F   UNL A   1      37.895  33.159  28.902  1.00  0.00    -0.203 F 
ATOM     73  C   UNL A   1      35.825  32.522  27.978  1.00  0.00     0.198 A 
ATOM     74  C   UNL A   1      35.132  30.226  28.068  1.00  0.00     0.198 A 
ATOM     75  F   UNL A   1      36.514  28.620  29.102  1.00  0.00    -0.203 F 
ATOM     76  F   UNL A   1      35.586  33.795  27.636  1.00  0.00    -0.200 F 
ATOM     77  C   UNL A   1      34.887  31.541  27.698  1.00  0.00     0.200 A 
ATOM     78  F   UNL A   1      34.234  29.273  27.783  1.00  0.00    -0.200 F 
ATOM     79  F   UNL A   1      33.746  31.862  27.074  1.00  0.00    -0.200 F 
ENDBRANCH  45  69
BRANCH  57  80
ATOM     80  C   UNL A   1      39.266  32.133  35.635  1.00  0.00     0.064 A 
ATOM     81  C   UNL A   1      39.590  33.480  35.857  1.00  0.00     0.173 A 
ATOM     82  C   UNL A   1      38.448  31.487  36.571  1.00  0.00     0.173 A 
ATOM     83  F   UNL A   1      40.377  34.137  34.991  1.00  0.00    -0.203 F 
ATOM     84  C   UNL A   1      39.139  34.146  36.992  1.00  0.00     0.198 A 
ATOM     85  C   UNL A   1      37.979  32.162  37.694  1.00  0.00     0.198 A 
ATOM     86  F   UNL A   1      38.104  30.202  36.393  1.00  0.00    -0.203 F 
ATOM     87  F   UNL A   1      39.497  35.419  37.208  1.00  0.00    -0.200 F 
ATOM     88  C   UNL A   1      38.335  33.485  37.910  1.00  0.00     0.200 A 
ATOM     89  F   UNL A   1      37.189  31.530  38.573  1.00  0.00    -0.200 F 
ATOM     90  F   UNL A   1      37.908  34.125  39.007  1.00  0.00    -0.200 F 
ENDBRANCH  57  80
ENDBRANCH  31  32
ENDBRANCH  24  26
ENDBRANCH  23  24
ENDBRANCH  22  23
ENDBRANCH   1  22
TORSDOF 15
ENDMDL
MODEL 2
REMARK VINA RESULT:     -10.6      4.145     10.949
REMARK SMILES [NH3+][C@@H](Cc1ccc(F)cc1C(F)(F)F)C(=O)OCCOC(=O)c1ccc(-c2c3nc(c(-c4c(F)c(F)c(F)c(F)c4F)c4ccc([nH]4)c(-c4c(F)c(F)c(F)c(F)c4F)c4nc(c(-c5c(F)c(F)c(F)c(F)c5F)c5ccc2[nH]5)C=C4)C=C3)cc1
REMARK SMILES IDX 18 1 17 2 15 3 16 4 2 5 1 6 3 10 4 11 5 12 10 13 6 14 9 15
REMARK SMILES IDX 7 16 8 17 11 18 12 19 13 20 14 21 19 22 20 23 21 24 22 25
REMARK SMILES IDX 23 26 24 27 85 28 25 29 84 30 26 31 27 32 28 33 78 34 29 35
REMARK SMILES IDX 83 36 77 37 79 38 30 39 82 40 76 41 75 42 31 44 63 45 43 46
REMARK SMILES IDX 62 47 44 48 47 49 61 50 80 51 45 52 46 53 60 55 81 56 48 57
REMARK SMILES IDX 32 58 33 59 41 60 34 61 35 62 39 63 42 64 36 65 37 66 40 67
REMARK SMILES IDX 38 68 64 69 65 70 73 71 66 72 67 73 71 74 74 75 68 76 69 77
REMARK SMILES IDX 72 78 70 79 49 80 50 81 58 82 51 83 52 84 56 85 59 86 53 87
REMARK SMILES IDX 54 88 57 89 55 90
REMARK H PARENT 1 7 1 8 1 9 79 43 47 54
REMARK Flexibility Score: inf
ROOT
ATOM      1  C   UNL A   1      33.304  34.763  28.639  1.00  0.00     0.274 C 
ENDROOT
BRANCH   1   2
ATOM      2  O   UNL A   1      32.819  34.808  29.997  1.00  0.00    -0.458 OA
BRANCH   2   3
ATOM      3  C   UNL A   1      33.048  35.952  30.697  1.00  0.00     0.365 C 
ATOM      4  O   UNL A   1      32.896  37.085  30.256  1.00  0.00    -0.245 OA
BRANCH   3   5
ATOM      5  C   UNL A   1      33.472  35.665  32.143  1.00  0.00     0.296 C 
BRANCH   5   6
ATOM      6  N   UNL A   1      32.468  34.866  32.876  1.00  0.00    -0.346 N 
ATOM      7  H   UNL A   1      31.904  34.337  32.211  1.00  0.00     0.345 HD
ATOM      8  H   UNL A   1      31.864  35.489  33.413  1.00  0.00     0.345 HD
ATOM      9  H   UNL A   1      32.942  34.223  33.509  1.00  0.00     0.345 HD
ENDBRANCH   5   6
BRANCH   5  10
ATOM     10  C   UNL A   1      34.915  35.178  32.353  1.00  0.00     0.113 C 
BRANCH  10  11
ATOM     11  C   UNL A   1      35.327  33.729  32.562  1.00  0.00    -0.029 A 
ATOM     12  C   UNL A   1      35.088  32.879  31.450  1.00  0.00     0.007 A 
ATOM     13  C   UNL A   1      36.041  33.192  33.662  1.00  0.00     0.062 A 
ATOM     14  C   UNL A   1      35.529  31.557  31.413  1.00  0.00     0.039 A 
ATOM     15  C   UNL A   1      36.451  31.837  33.611  1.00  0.00     0.052 A 
ATOM     16  C   UNL A   1      36.207  31.045  32.499  1.00  0.00     0.123 A 
ATOM     17  F   UNL A   1      36.654  29.784  32.475  1.00  0.00    -0.207 F 
BRANCH  13  18
ATOM     18  C   UNL A   1      36.473  33.908  34.925  1.00  0.00     0.416 C 
ATOM     19  F   UNL A   1      37.420  34.857  34.678  1.00  0.00    -0.166 F 
ATOM     20  F   UNL A   1      35.433  34.579  35.503  1.00  0.00    -0.166 F 
ATOM     21  F   UNL A   1      36.965  33.121  35.906  1.00  0.00    -0.166 F 
ENDBRANCH  13  18
ENDBRANCH  10  11
ENDBRANCH   5  10
ENDBRANCH   3   5
ENDBRANCH   2   3
ENDBRANCH   1   2
BRANCH   1  22
ATOM     22  C   UNL A   1      33.196  33.346  28.074  1.00  0.00     0.275 C 
BRANCH  22  23
ATOM     23  O   UNL A   1      34.486  32.870  27.654  1.00  0.00    -0.458 OA
BRANCH  23  24
ATOM     24  C   UNL A   1      34.582  31.526  27.519  1.00  0.00     0.338 C 
ATOM     25  O   UNL A   1      33.801  30.775  26.963  1.00  0.00    -0.246 OA
BRANCH  24  26
ATOM     26  C   UNL A   1      35.883  31.102  28.059  1.00  0.00     0.060 A 
ATOM     27  C   UNL A   1      36.030  29.774  28.462  1.00  0.00     0.016 A 
ATOM     28  C   UNL A   1      36.933  32.006  28.201  1.00  0.00     0.016 A 
ATOM     29  C   UNL A   1      37.212  29.336  29.037  1.00  0.00     0.010 A 
ATOM     30  C   UNL A   1      38.134  31.565  28.760  1.00  0.00     0.010 A 
ATOM     31  C   UNL A   1      38.271  30.230  29.187  1.00  0.00    -0.014 A 
BRANCH  31  32
ATOM     32  C   UNL A   1      39.521  29.781  29.828  1.00  0.00     0.031 A 
ATOM     33  C   UNL A   1      40.291  28.658  29.214  1.00  0.00     0.074 A 
ATOM     34  C   UNL A   1      39.940  30.376  30.957  1.00  0.00     0.049 A 
ATOM     35  N   UNL A   1      41.292  27.978  29.705  1.00  0.00    -0.248 NA
ATOM     36  C   UNL A   1      39.872  28.237  27.868  1.00  0.00     0.031 C 
ATOM     37  C   UNL A   1      39.300  31.532  31.585  1.00  0.00     0.029 A 
ATOM     38  N   UNL A   1      40.990  30.078  31.785  1.00  0.00    -0.354 N 
ATOM     39  C   UNL A   1      41.597  27.022  28.747  1.00  0.00     0.074 A 
ATOM     40  C   UNL A   1      40.680  27.210  27.645  1.00  0.00     0.031 C 
ATOM     41  C   UNL A   1      39.957  31.831  32.716  1.00  0.00     0.029 A 
ATOM     42  C   UNL A   1      41.020  30.849  32.918  1.00  0.00     0.049 A 
ATOM     43  H   UNL A   1      41.655  29.380  31.586  1.00  0.00     0.167 HD
ATOM     44  C   UNL A   1      42.555  26.069  28.803  1.00  0.00     0.037 A 
ATOM     45  C   UNL A   1      41.784  30.739  34.020  1.00  0.00     0.037 A 
ATOM     46  C   UNL A   1      43.471  25.922  29.904  1.00  0.00     0.049 A 
ATOM     47  C   UNL A   1      42.797  29.632  34.093  1.00  0.00     0.074 A 
ATOM     48  C   UNL A   1      44.507  25.018  30.047  1.00  0.00     0.029 A 
ATOM     49  N   UNL A   1      43.454  26.703  31.052  1.00  0.00    -0.354 N 
ATOM     50  N   UNL A   1      43.076  28.713  33.199  1.00  0.00    -0.248 NA
ATOM     51  C   UNL A   1      43.590  29.532  35.324  1.00  0.00     0.031 C 
ATOM     52  C   UNL A   1      45.084  25.219  31.305  1.00  0.00     0.029 A 
ATOM     53  C   UNL A   1      44.441  26.280  31.924  1.00  0.00     0.049 A 
ATOM     54  H   UNL A   1      42.833  27.448  31.219  1.00  0.00     0.167 HD
ATOM     55  C   UNL A   1      44.080  27.932  33.752  1.00  0.00     0.074 A 
ATOM     56  C   UNL A   1      44.369  28.490  35.058  1.00  0.00     0.031 C 
ATOM     57  C   UNL A   1      44.705  26.853  33.222  1.00  0.00     0.037 A 
BRANCH  44  58
ATOM     58  C   UNL A   1      42.627  25.087  27.675  1.00  0.00     0.064 A 
ATOM     59  C   UNL A   1      41.849  23.919  27.713  1.00  0.00     0.173 A 
ATOM     60  C   UNL A   1      43.474  25.274  26.575  1.00  0.00     0.173 A 
ATOM     61  F   UNL A   1      41.021  23.691  28.743  1.00  0.00    -0.203 F 
ATOM     62  C   UNL A   1      41.922  22.975  26.692  1.00  0.00     0.198 A 
ATOM     63  C   UNL A   1      43.526  24.341  25.543  1.00  0.00     0.198 A 
ATOM     64  F   UNL A   1      44.227  26.382  26.484  1.00  0.00    -0.203 F 
ATOM     65  F   UNL A   1      41.183  21.858  26.761  1.00  0.00    -0.200 F 
ATOM     66  C   UNL A   1      42.755  23.189  25.606  1.00  0.00     0.200 A 
ATOM     67  F   UNL A   1      44.312  24.561  24.480  1.00  0.00    -0.200 F 
ATOM     68  F   UNL A   1      42.810  22.288  24.615  1.00  0.00    -0.200 F 
ENDBRANCH  44  58
BRANCH  45  69
ATOM     69  C   UNL A   1      41.573  31.690  35.140  1.00  0.00     0.064 A 
ATOM     70  C   UNL A   1      40.488  31.545  36.019  1.00  0.00     0.173 A 
ATOM     71  C   UNL A   1      42.398  32.809  35.298  1.00  0.00     0.173 A 
ATOM     72  F   UNL A   1      39.668  30.490  35.905  1.00  0.00    -0.203 F 
ATOM     73  C   UNL A   1      40.218  32.504  36.992  1.00  0.00     0.198 A 
ATOM     74  C   UNL A   1      42.139  33.758  36.286  1.00  0.00     0.198 A 
ATOM     75  F   UNL A   1      43.457  32.979  34.492  1.00  0.00    -0.203 F 
ATOM     76  F   UNL A   1      39.148  32.367  37.787  1.00  0.00    -0.200 F 
ATOM     77  C   UNL A   1      41.042  33.611  37.123  1.00  0.00     0.200 A 
ATOM     78  F   UNL A   1      42.947  34.818  36.423  1.00  0.00    -0.200 F 
ATOM     79  F   UNL A   1      40.778  34.538  38.054  1.00  0.00    -0.200 F 
ENDBRANCH  45  69
BRANCH  57  80
ATOM     80  C   UNL A   1      45.776  26.199  34.041  1.00  0.00     0.064 A 
ATOM     81  C   UNL A   1      47.115  26.595  33.901  1.00  0.00     0.173 A 
ATOM     82  C   UNL A   1      45.493  25.105  34.868  1.00  0.00     0.173 A 
ATOM     83  F   UNL A   1      47.434  27.632  33.112  1.00  0.00    -0.203 F 
ATOM     84  C   UNL A   1      48.137  25.898  34.539  1.00  0.00     0.198 A 
ATOM     85  C   UNL A   1      46.515  24.424  35.524  1.00  0.00     0.198 A 
ATOM     86  F   UNL A   1      44.226  24.698  35.041  1.00  0.00    -0.203 F 
ATOM     87  F   UNL A   1      49.412  26.264  34.356  1.00  0.00    -0.200 F 
ATOM     88  C   UNL A   1      47.835  24.813  35.349  1.00  0.00     0.200 A 
ATOM     89  F   UNL A   1      46.224  23.386  36.320  1.00  0.00    -0.200 F 
ATOM     90  F   UNL A   1      48.820  24.137  35.957  1.00  0.00    -0.200 F 
ENDBRANCH  57  80
ENDBRANCH  31  32
ENDBRANCH  24  26
ENDBRANCH  23  24
ENDBRANCH  22  23
ENDBRANCH   1  22
TORSDOF 15
ENDMDL
MODEL 3
REMARK VINA RESULT:     -10.4      3.915      8.785
REMARK SMILES [NH3+][C@@H](Cc1ccc(F)cc1C(F)(F)F)C(=O)OCCOC(=O)c1ccc(-c2c3nc(c(-c4c(F)c(F)c(F)c(F)c4F)c4ccc([nH]4)c(-c4c(F)c(F)c(F)c(F)c4F)c4nc(c(-c5c(F)c(F)c(F)c(F)c5F)c5ccc2[nH]5)C=C4)C=C3)cc1
REMARK SMILES IDX 18 1 17 2 15 3 16 4 2 5 1 6 3 10 4 11 5 12 10 13 6 14 9 15
REMARK SMILES IDX 7 16 8 17 11 18 12 19 13 20 14 21 19 22 20 23 21 24 22 25
REMARK SMILES IDX 23 26 24 27 85 28 25 29 84 30 26 31 27 32 28 33 78 34 29 35
REMARK SMILES IDX 83 36 77 37 79 38 30 39 82 40 76 41 75 42 31 44 63 45 43 46
REMARK SMILES IDX 62 47 44 48 47 49 61 50 80 51 45 52 46 53 60 55 81 56 48 57
REMARK SMILES IDX 32 58 33 59 41 60 34 61 35 62 39 63 42 64 36 65 37 66 40 67
REMARK SMILES IDX 38 68 64 69 65 70 73 71 66 72 67 73 71 74 74 75 68 76 69 77
REMARK SMILES IDX 72 78 70 79 49 80 50 81 58 82 51 83 52 84 56 85 59 86 53 87
REMARK SMILES IDX 54 88 57 89 55 90
REMARK H PARENT 1 7 1 8 1 9 79 43 47 54
REMARK Flexibility Score: inf
ROOT
ATOM      1  C   UNL A   1      32.032  27.855  25.583  1.00  0.00     0.274 C 
ENDROOT
BRANCH   1   2
ATOM      2  O   UNL A   1      31.287  26.868  26.325  1.00  0.00    -0.458 OA
BRANCH   2   3
ATOM      3  C   UNL A   1      30.507  26.015  25.609  1.00  0.00     0.365 C 
ATOM      4  O   UNL A   1      29.771  26.345  24.686  1.00  0.00    -0.245 OA
BRANCH   3   5
ATOM      5  C   UNL A   1      30.692  24.558  26.053  1.00  0.00     0.296 C 
BRANCH   5   6
ATOM      6  N   UNL A   1      29.553  24.064  26.853  1.00  0.00    -0.346 N 
ATOM      7  H   UNL A   1      29.052  24.857  27.256  1.00  0.00     0.345 HD
ATOM      8  H   UNL A   1      29.898  23.463  27.601  1.00  0.00     0.345 HD
ATOM      9  H   UNL A   1      28.922  23.533  26.253  1.00  0.00     0.345 HD
ENDBRANCH   5   6
BRANCH   5  10
ATOM     10  C   UNL A   1      31.161  23.566  24.975  1.00  0.00     0.113 C 
BRANCH  10  11
ATOM     11  C   UNL A   1      32.378  22.661  25.091  1.00  0.00    -0.029 A 
ATOM     12  C   UNL A   1      32.091  21.272  25.013  1.00  0.00     0.007 A 
ATOM     13  C   UNL A   1      33.739  23.054  25.114  1.00  0.00     0.062 A 
ATOM     14  C   UNL A   1      33.095  20.306  24.959  1.00  0.00     0.039 A 
ATOM     15  C   UNL A   1      34.738  22.050  25.090  1.00  0.00     0.052 A 
ATOM     16  C   UNL A   1      34.414  20.705  25.001  1.00  0.00     0.123 A 
ATOM     17  F   UNL A   1      35.391  19.793  24.933  1.00  0.00    -0.207 F 
BRANCH  13  18
ATOM     18  C   UNL A   1      34.296  24.463  25.131  1.00  0.00     0.416 C 
ATOM     19  F   UNL A   1      33.928  25.146  26.252  1.00  0.00    -0.166 F 
ATOM     20  F   UNL A   1      35.662  24.463  25.140  1.00  0.00    -0.166 F 
ATOM     21  F   UNL A   1      33.957  25.239  24.079  1.00  0.00    -0.166 F 
ENDBRANCH  13  18
ENDBRANCH  10  11
ENDBRANCH   5  10
ENDBRANCH   3   5
ENDBRANCH   2   3
ENDBRANCH   1   2
BRANCH   1  22
ATOM     22  C   UNL A   1      31.891  29.235  26.226  1.00  0.00     0.275 C 
BRANCH  22  23
ATOM     23  O   UNL A   1      33.077  30.019  26.007  1.00  0.00    -0.458 OA
BRANCH  23  24
ATOM     24  C   UNL A   1      33.254  31.042  26.876  1.00  0.00     0.338 C 
ATOM     25  O   UNL A   1      32.470  31.934  27.147  1.00  0.00    -0.246 OA
BRANCH  24  26
ATOM     26  C   UNL A   1      34.538  30.843  27.565  1.00  0.00     0.060 A 
ATOM     27  C   UNL A   1      34.861  29.557  28.003  1.00  0.00     0.016 A 
ATOM     28  C   UNL A   1      35.397  31.912  27.811  1.00  0.00     0.016 A 
ATOM     29  C   UNL A   1      36.027  29.325  28.715  1.00  0.00     0.010 A 
ATOM     30  C   UNL A   1      36.583  31.679  28.508  1.00  0.00     0.010 A 
ATOM     31  C   UNL A   1      36.895  30.386  28.969  1.00  0.00    -0.014 A 
BRANCH  31  32
ATOM     32  C   UNL A   1      38.122  30.153  29.754  1.00  0.00     0.031 A 
ATOM     33  C   UNL A   1      39.181  29.258  29.199  1.00  0.00     0.074 A 
ATOM     34  C   UNL A   1      38.262  30.736  30.956  1.00  0.00     0.049 A 
ATOM     35  N   UNL A   1      40.234  28.761  29.791  1.00  0.00    -0.248 NA
ATOM     36  C   UNL A   1      39.032  28.861  27.791  1.00  0.00     0.031 C 
ATOM     37  C   UNL A   1      37.320  31.688  31.543  1.00  0.00     0.029 A 
ATOM     38  N   UNL A   1      39.240  30.596  31.905  1.00  0.00    -0.354 N 
ATOM     39  C   UNL A   1      40.851  27.960  28.841  1.00  0.00     0.074 A 
ATOM     40  C   UNL A   1      40.059  28.039  27.634  1.00  0.00     0.031 C 
ATOM     41  C   UNL A   1      37.753  32.030  32.766  1.00  0.00     0.029 A 
ATOM     42  C   UNL A   1      38.966  31.272  33.067  1.00  0.00     0.049 A 
ATOM     43  H   UNL A   1      40.057  30.065  31.767  1.00  0.00     0.167 HD
ATOM     44  C   UNL A   1      41.974  27.219  28.984  1.00  0.00     0.037 A 
ATOM     45  C   UNL A   1      39.593  31.238  34.256  1.00  0.00     0.037 A 
ATOM     46  C   UNL A   1      42.756  27.181  30.191  1.00  0.00     0.049 A 
ATOM     47  C   UNL A   1      40.799  30.357  34.416  1.00  0.00     0.074 A 
ATOM     48  C   UNL A   1      43.933  26.498  30.433  1.00  0.00     0.029 A 
ATOM     49  N   UNL A   1      42.432  27.855  31.361  1.00  0.00    -0.354 N 
ATOM     50  N   UNL A   1      41.374  29.582  33.527  1.00  0.00    -0.248 NA
ATOM     51  C   UNL A   1      41.435  30.329  35.738  1.00  0.00     0.031 C 
ATOM     52  C   UNL A   1      44.293  26.718  31.766  1.00  0.00     0.029 A 
ATOM     53  C   UNL A   1      43.369  27.578  32.340  1.00  0.00     0.049 A 
ATOM     54  H   UNL A   1      41.651  28.444  31.476  1.00  0.00     0.167 HD
ATOM     55  C   UNL A   1      42.444  28.983  34.175  1.00  0.00     0.074 A 
ATOM     56  C   UNL A   1      42.443  29.490  35.533  1.00  0.00     0.031 C 
ATOM     57  C   UNL A   1      43.344  28.095  33.686  1.00  0.00     0.037 A 
BRANCH  44  58
ATOM     58  C   UNL A   1      42.390  26.358  27.832  1.00  0.00     0.064 A 
ATOM     59  C   UNL A   1      41.944  25.030  27.753  1.00  0.00     0.173 A 
ATOM     60  C   UNL A   1      43.246  26.823  26.823  1.00  0.00     0.173 A 
ATOM     61  F   UNL A   1      41.124  24.535  28.692  1.00  0.00    -0.203 F 
ATOM     62  C   UNL A   1      42.344  24.199  26.710  1.00  0.00     0.198 A 
ATOM     63  C   UNL A   1      43.623  25.998  25.767  1.00  0.00     0.198 A 
ATOM     64  F   UNL A   1      43.687  28.091  26.844  1.00  0.00    -0.203 F 
ATOM     65  F   UNL A   1      41.919  22.928  26.668  1.00  0.00    -0.200 F 
ATOM     66  C   UNL A   1      43.177  24.685  25.715  1.00  0.00     0.200 A 
ATOM     67  F   UNL A   1      44.407  26.476  24.791  1.00  0.00    -0.200 F 
ATOM     68  F   UNL A   1      43.546  23.890  24.701  1.00  0.00    -0.200 F 
ENDBRANCH  44  58
BRANCH  45  69
ATOM     69  C   UNL A   1      39.048  32.041  35.379  1.00  0.00     0.064 A 
ATOM     70  C   UNL A   1      39.382  33.396  35.530  1.00  0.00     0.173 A 
ATOM     71  C   UNL A   1      38.257  31.448  36.370  1.00  0.00     0.173 A 
ATOM     72  F   UNL A   1      40.141  34.007  34.608  1.00  0.00    -0.203 F 
ATOM     73  C   UNL A   1      38.974  34.117  36.650  1.00  0.00     0.198 A 
ATOM     74  C   UNL A   1      37.830  32.176  37.479  1.00  0.00     0.198 A 
ATOM     75  F   UNL A   1      37.898  30.161  36.258  1.00  0.00    -0.203 F 
ATOM     76  F   UNL A   1      39.347  35.396  36.794  1.00  0.00    -0.200 F 
ATOM     77  C   UNL A   1      38.200  33.506  37.624  1.00  0.00     0.200 A 
ATOM     78  F   UNL A   1      37.068  31.589  38.412  1.00  0.00    -0.200 F 
ATOM     79  F   UNL A   1      37.813  34.197  38.705  1.00  0.00    -0.200 F 
ENDBRANCH  45  69
BRANCH  57  80
ATOM     80  C   UNL A   1      44.418  27.613  34.614  1.00  0.00     0.064 A 
ATOM     81  C   UNL A   1      44.214  26.469  35.399  1.00  0.00     0.173 A 
ATOM     82  C   UNL A   1      45.592  28.352  34.813  1.00  0.00     0.173 A 
ATOM     83  F   UNL A   1      43.101  25.736  35.248  1.00  0.00    -0.203 F 
ATOM     84  C   UNL A   1      45.136  26.096  36.372  1.00  0.00     0.198 A 
ATOM     85  C   UNL A   1      46.524  27.964  35.771  1.00  0.00     0.198 A 
ATOM     86  F   UNL A   1      45.833  29.448  34.076  1.00  0.00    -0.203 F 
ATOM     87  F   UNL A   1      44.901  25.025  37.142  1.00  0.00    -0.200 F 
ATOM     88  C   UNL A   1      46.290  26.845  36.557  1.00  0.00     0.200 A 
ATOM     89  F   UNL A   1      47.645  28.677  35.940  1.00  0.00    -0.200 F 
ATOM     90  F   UNL A   1      47.174  26.491  37.500  1.00  0.00    -0.200 F 
ENDBRANCH  57  80
ENDBRANCH  31  32
ENDBRANCH  24  26
ENDBRANCH  23  24
ENDBRANCH  22  23
ENDBRANCH   1  22
TORSDOF 15
ENDMDL
