MODEL 1
REMARK VINA RESULT:     -12.9      0.000      0.000
REMARK SMILES CCN(CC)c1ccc([C@@H]2[NH2+][C@@H](C(=O)OCCOC(=O)c3ccc(-c4c5nc(c(-c6c(F)c(F)c(F)c(F)c6F)c6ccc([nH]6)c(-c6c(F)c(F)c(F)c(F)c6F)c6nc(c(-c7c(F)c(F)c(F)c(F)c7F)c7ccc4[nH]7)C=C6)C=C5)cc3)Cc3c2[nH]c2ccccc32)cc1
REMARK SMILES IDX 16 1 15 2 13 3 14 4 12 5 10 6 11 7 86 8 85 11 87 12 84 13
REMARK SMILES IDX 93 14 88 15 92 17 89 18 91 19 90 20 9 21 6 22 7 23 95 24
REMARK SMILES IDX 8 25 94 26 3 27 2 28 1 29 4 30 5 31 17 32 18 33 19 34 20 35
REMARK SMILES IDX 21 36 22 37 83 38 23 39 82 40 24 41 25 42 26 43 76 44 27 45
REMARK SMILES IDX 81 46 75 47 77 48 28 49 80 50 74 51 73 52 29 54 61 55 41 56
REMARK SMILES IDX 60 57 42 58 45 59 59 60 78 61 43 62 44 63 58 65 79 66 46 67
REMARK SMILES IDX 30 68 31 69 39 70 32 71 33 72 37 73 40 74 34 75 35 76 38 77
REMARK SMILES IDX 36 78 62 79 63 80 71 81 64 82 65 83 69 84 72 85 66 86 67 87
REMARK SMILES IDX 70 88 68 89 47 90 48 91 56 92 49 93 50 94 54 95 57 96 51 97
REMARK SMILES IDX 52 98 55 99 53 100
REMARK H PARENT 11 9 11 10 87 16 77 53 45 64
REMARK Flexibility Score: inf
ROOT
ATOM      1  C   UNL A   1      35.612  21.584  24.702  1.00  0.00     0.274 C 
ENDROOT
BRANCH   1   2
ATOM      2  O   UNL A   1      35.720  23.011  24.499  1.00  0.00    -0.458 OA
BRANCH   2   3
ATOM      3  C   UNL A   1      34.761  23.507  23.675  1.00  0.00     0.365 C 
ATOM      4  O   UNL A   1      34.776  23.362  22.452  1.00  0.00    -0.245 OA
BRANCH   3   5
ATOM      5  C   UNL A   1      33.712  24.400  24.340  1.00  0.00     0.298 C 
ATOM      6  C   UNL A   1      33.586  26.586  23.035  1.00  0.00     0.262 C 
ATOM      7  N   UNL A   1      33.091  25.201  23.281  1.00  0.00    -0.323 N 
ATOM      8  C   UNL A   1      33.922  27.205  24.356  1.00  0.00     0.083 A 
ATOM      9  H   UNL A   1      33.207  24.684  22.409  1.00  0.00     0.347 HD
ATOM     10  H   UNL A   1      32.135  25.339  23.608  1.00  0.00     0.347 HD
ATOM     11  C   UNL A   1      33.805  26.579  25.581  1.00  0.00    -0.006 A 
ATOM     12  N   UNL A   1      34.163  28.527  24.645  1.00  0.00    -0.353 N 
ATOM     13  C   UNL A   1      33.968  25.098  25.692  1.00  0.00     0.115 C 
ATOM     14  C   UNL A   1      33.070  27.552  26.323  1.00  0.00     0.003 A 
ATOM     15  C   UNL A   1      33.446  28.798  25.803  1.00  0.00     0.046 A 
ATOM     16  H   UNL A   1      34.728  29.154  24.137  1.00  0.00     0.166 HD
ATOM     17  C   UNL A   1      32.039  27.522  27.285  1.00  0.00     0.010 A 
ATOM     18  C   UNL A   1      32.990  30.016  26.316  1.00  0.00     0.026 A 
ATOM     19  C   UNL A   1      31.448  28.730  27.687  1.00  0.00     0.001 A 
ATOM     20  C   UNL A   1      31.951  29.956  27.248  1.00  0.00     0.002 A 
BRANCH   6  21
ATOM     21  C   UNL A   1      32.337  27.195  22.326  1.00  0.00     0.016 A 
ATOM     22  C   UNL A   1      29.921  28.653  22.645  1.00  0.00     0.037 A 
ATOM     23  C   UNL A   1      31.076  29.270  22.170  1.00  0.00     0.026 A 
ATOM     24  C   UNL A   1      29.940  27.256  22.731  1.00  0.00     0.026 A 
ATOM     25  C   UNL A   1      32.267  28.557  22.004  1.00  0.00     0.012 A 
ATOM     26  C   UNL A   1      31.118  26.523  22.534  1.00  0.00     0.012 A 
BRANCH  22  27
ATOM     27  N   UNL A   1      28.830  29.380  23.102  1.00  0.00    -0.372 N 
BRANCH  27  28
ATOM     28  C   UNL A   1      29.047  30.781  23.501  1.00  0.00     0.113 C 
ATOM     29  C   UNL A   1      27.756  31.578  23.614  1.00  0.00     0.027 C 
ENDBRANCH  27  28
BRANCH  27  30
ATOM     30  C   UNL A   1      27.470  28.967  22.753  1.00  0.00     0.113 C 
ATOM     31  C   UNL A   1      26.794  28.107  23.815  1.00  0.00     0.027 C 
ENDBRANCH  27  30
ENDBRANCH  22  27
ENDBRANCH   6  21
ENDBRANCH   3   5
ENDBRANCH   2   3
ENDBRANCH   1   2
BRANCH   1  32
ATOM     32  C   UNL A   1      36.897  20.888  25.184  1.00  0.00     0.275 C 
BRANCH  32  33
ATOM     33  O   UNL A   1      38.066  21.726  25.130  1.00  0.00    -0.458 OA
BRANCH  33  34
ATOM     34  C   UNL A   1      39.024  21.408  26.022  1.00  0.00     0.338 C 
ATOM     35  O   UNL A   1      39.541  20.299  26.188  1.00  0.00    -0.246 OA
BRANCH  34  36
ATOM     36  C   UNL A   1      39.554  22.606  26.682  1.00  0.00     0.060 A 
ATOM     37  C   UNL A   1      38.968  23.828  26.340  1.00  0.00     0.016 A 
ATOM     38  C   UNL A   1      40.667  22.567  27.524  1.00  0.00     0.016 A 
ATOM     39  C   UNL A   1      39.482  25.019  26.829  1.00  0.00     0.010 A 
ATOM     40  C   UNL A   1      41.206  23.772  27.997  1.00  0.00     0.010 A 
ATOM     41  C   UNL A   1      40.626  25.001  27.635  1.00  0.00    -0.014 A 
BRANCH  41  42
ATOM     42  C   UNL A   1      41.261  26.297  27.962  1.00  0.00     0.031 A 
ATOM     43  C   UNL A   1      42.655  26.572  27.476  1.00  0.00     0.074 A 
ATOM     44  C   UNL A   1      40.556  27.255  28.586  1.00  0.00     0.049 A 
ATOM     45  N   UNL A   1      43.390  27.645  27.622  1.00  0.00    -0.248 NA
ATOM     46  C   UNL A   1      43.305  25.495  26.712  1.00  0.00     0.031 C 
ATOM     47  C   UNL A   1      39.171  27.122  29.036  1.00  0.00     0.029 A 
ATOM     48  N   UNL A   1      40.902  28.536  28.933  1.00  0.00    -0.354 N 
ATOM     49  C   UNL A   1      44.590  27.368  26.983  1.00  0.00     0.074 A 
ATOM     50  C   UNL A   1      44.494  26.023  26.458  1.00  0.00     0.031 C 
ATOM     51  C   UNL A   1      38.783  28.279  29.597  1.00  0.00     0.029 A 
ATOM     52  C   UNL A   1      39.901  29.219  29.575  1.00  0.00     0.049 A 
ATOM     53  H   UNL A   1      41.785  28.927  28.740  1.00  0.00     0.167 HD
ATOM     54  C   UNL A   1      45.675  28.168  26.846  1.00  0.00     0.037 A 
ATOM     55  C   UNL A   1      39.898  30.460  30.099  1.00  0.00     0.037 A 
ATOM     56  C   UNL A   1      45.760  29.510  27.361  1.00  0.00     0.049 A 
ATOM     57  C   UNL A   1      41.134  31.310  29.978  1.00  0.00     0.074 A 
ATOM     58  C   UNL A   1      46.815  30.402  27.281  1.00  0.00     0.029 A 
ATOM     59  N   UNL A   1      44.743  30.153  28.051  1.00  0.00    -0.354 N 
ATOM     60  N   UNL A   1      42.272  31.036  29.389  1.00  0.00    -0.248 NA
ATOM     61  C   UNL A   1      41.083  32.643  30.597  1.00  0.00     0.031 C 
ATOM     62  C   UNL A   1      46.449  31.572  27.957  1.00  0.00     0.029 A 
ATOM     63  C   UNL A   1      45.152  31.425  28.420  1.00  0.00     0.049 A 
ATOM     64  H   UNL A   1      43.860  29.764  28.250  1.00  0.00     0.167 HD
ATOM     65  C   UNL A   1      43.068  32.161  29.552  1.00  0.00     0.074 A 
ATOM     66  C   UNL A   1      42.273  33.132  30.278  1.00  0.00     0.031 C 
ATOM     67  C   UNL A   1      44.344  32.373  29.144  1.00  0.00     0.037 A 
BRANCH  54  68
ATOM     68  C   UNL A   1      46.870  27.594  26.147  1.00  0.00     0.064 A 
ATOM     69  C   UNL A   1      47.011  27.652  24.752  1.00  0.00     0.173 A 
ATOM     70  C   UNL A   1      47.898  26.990  26.887  1.00  0.00     0.173 A 
ATOM     71  F   UNL A   1      46.046  28.203  24.000  1.00  0.00    -0.203 F 
ATOM     72  C   UNL A   1      48.127  27.108  24.123  1.00  0.00     0.198 A 
ATOM     73  C   UNL A   1      49.024  26.468  26.257  1.00  0.00     0.198 A 
ATOM     74  F   UNL A   1      47.811  26.910  28.223  1.00  0.00    -0.203 F 
ATOM     75  F   UNL A   1      48.221  27.135  22.787  1.00  0.00    -0.200 F 
ATOM     76  C   UNL A   1      49.134  26.521  24.875  1.00  0.00     0.200 A 
ATOM     77  F   UNL A   1      50.000  25.910  26.986  1.00  0.00    -0.200 F 
ATOM     78  F   UNL A   1      50.209  26.000  24.268  1.00  0.00    -0.200 F 
ENDBRANCH  54  68
BRANCH  55  79
ATOM     79  C   UNL A   1      38.689  30.962  30.801  1.00  0.00     0.064 A 
ATOM     80  C   UNL A   1      38.565  30.866  32.194  1.00  0.00     0.173 A 
ATOM     81  C   UNL A   1      37.629  31.545  30.089  1.00  0.00     0.173 A 
ATOM     82  F   UNL A   1      39.540  30.293  32.915  1.00  0.00    -0.203 F 
ATOM     83  C   UNL A   1      37.422  31.325  32.846  1.00  0.00     0.198 A 
ATOM     84  C   UNL A   1      36.499  32.026  30.746  1.00  0.00     0.198 A 
ATOM     85  F   UNL A   1      37.697  31.655  28.755  1.00  0.00    -0.203 F 
ATOM     86  F   UNL A   1      37.311  31.185  34.175  1.00  0.00    -0.200 F 
ATOM     87  C   UNL A   1      36.395  31.911  32.123  1.00  0.00     0.200 A 
ATOM     88  F   UNL A   1      35.513  32.600  30.044  1.00  0.00    -0.200 F 
ATOM     89  F   UNL A   1      35.298  32.356  32.753  1.00  0.00    -0.200 F 
ENDBRANCH  55  79
BRANCH  67  90
ATOM     90  C   UNL A   1      44.946  33.709  29.457  1.00  0.00     0.064 A 
ATOM     91  C   UNL A   1      44.814  34.796  28.580  1.00  0.00     0.173 A 
ATOM     92  C   UNL A   1      45.643  33.912  30.657  1.00  0.00     0.173 A 
ATOM     93  F   UNL A   1      44.170  34.647  27.412  1.00  0.00    -0.203 F 
ATOM     94  C   UNL A   1      45.382  36.031  28.882  1.00  0.00     0.198 A 
ATOM     95  C   UNL A   1      46.186  35.155  30.968  1.00  0.00     0.198 A 
ATOM     96  F   UNL A   1      45.791  32.906  31.531  1.00  0.00    -0.203 F 
ATOM     97  F   UNL A   1      45.285  37.042  28.008  1.00  0.00    -0.200 F 
ATOM     98  C   UNL A   1      46.062  36.211  30.077  1.00  0.00     0.200 A 
ATOM     99  F   UNL A   1      46.835  35.330  32.128  1.00  0.00    -0.200 F 
ATOM    100  F   UNL A   1      46.608  37.400  30.367  1.00  0.00    -0.200 F 
ENDBRANCH  67  90
ENDBRANCH  41  42
ENDBRANCH  34  36
ENDBRANCH  33  34
ENDBRANCH  32  33
ENDBRANCH   1  32
TORSDOF 15
ENDMDL
MODEL 2
REMARK VINA RESULT:     -12.6      0.883      7.070
REMARK SMILES CCN(CC)c1ccc([C@@H]2[NH2+][C@@H](C(=O)OCCOC(=O)c3ccc(-c4c5nc(c(-c6c(F)c(F)c(F)c(F)c6F)c6ccc([nH]6)c(-c6c(F)c(F)c(F)c(F)c6F)c6nc(c(-c7c(F)c(F)c(F)c(F)c7F)c7ccc4[nH]7)C=C6)C=C5)cc3)Cc3c2[nH]c2ccccc32)cc1
REMARK SMILES IDX 16 1 15 2 13 3 14 4 12 5 10 6 11 7 86 8 85 11 87 12 84 13
REMARK SMILES IDX 93 14 88 15 92 17 89 18 91 19 90 20 9 21 6 22 7 23 95 24
REMARK SMILES IDX 8 25 94 26 3 27 2 28 1 29 4 30 5 31 17 32 18 33 19 34 20 35
REMARK SMILES IDX 21 36 22 37 83 38 23 39 82 40 24 41 25 42 26 43 76 44 27 45
REMARK SMILES IDX 81 46 75 47 77 48 28 49 80 50 74 51 73 52 29 54 61 55 41 56
REMARK SMILES IDX 60 57 42 58 45 59 59 60 78 61 43 62 44 63 58 65 79 66 46 67
REMARK SMILES IDX 30 68 31 69 39 70 32 71 33 72 37 73 40 74 34 75 35 76 38 77
REMARK SMILES IDX 36 78 62 79 63 80 71 81 64 82 65 83 69 84 72 85 66 86 67 87
REMARK SMILES IDX 70 88 68 89 47 90 48 91 56 92 49 93 50 94 54 95 57 96 51 97
REMARK SMILES IDX 52 98 55 99 53 100
REMARK H PARENT 11 9 11 10 87 16 77 53 45 64
REMARK Flexibility Score: inf
ROOT
ATOM      1  C   UNL A   1      35.276  20.723  25.047  1.00  0.00     0.274 C 
ENDROOT
BRANCH   1   2
ATOM      2  O   UNL A   1      34.632  22.005  24.864  1.00  0.00    -0.458 OA
BRANCH   2   3
ATOM      3  C   UNL A   1      33.290  21.962  25.064  1.00  0.00     0.365 C 
ATOM      4  O   UNL A   1      32.592  20.988  24.776  1.00  0.00    -0.245 OA
BRANCH   3   5
ATOM      5  C   UNL A   1      32.648  23.266  25.541  1.00  0.00     0.298 C 
ATOM      6  C   UNL A   1      32.610  24.896  23.582  1.00  0.00     0.262 C 
ATOM      7  N   UNL A   1      31.939  23.843  24.395  1.00  0.00    -0.323 N 
ATOM      8  C   UNL A   1      33.396  25.773  24.506  1.00  0.00     0.083 A 
ATOM      9  H   UNL A   1      31.718  23.074  23.762  1.00  0.00     0.347 HD
ATOM     10  H   UNL A   1      31.148  24.330  24.818  1.00  0.00     0.347 HD
ATOM     11  C   UNL A   1      33.487  25.607  25.875  1.00  0.00    -0.006 A 
ATOM     12  N   UNL A   1      33.957  27.002  24.251  1.00  0.00    -0.353 N 
ATOM     13  C   UNL A   1      33.382  24.246  26.480  1.00  0.00     0.115 C 
ATOM     14  C   UNL A   1      33.177  26.922  26.336  1.00  0.00     0.003 A 
ATOM     15  C   UNL A   1      33.638  27.797  25.343  1.00  0.00     0.046 A 
ATOM     16  H   UNL A   1      34.479  27.264  23.458  1.00  0.00     0.166 HD
ATOM     17  C   UNL A   1      32.451  27.469  27.414  1.00  0.00     0.010 A 
ATOM     18  C   UNL A   1      33.579  29.190  25.457  1.00  0.00     0.026 A 
ATOM     19  C   UNL A   1      32.233  28.856  27.453  1.00  0.00     0.001 A 
ATOM     20  C   UNL A   1      32.831  29.703  26.519  1.00  0.00     0.002 A 
BRANCH   6  21
ATOM     21  C   UNL A   1      31.362  25.576  22.940  1.00  0.00     0.016 A 
ATOM     22  C   UNL A   1      29.706  27.883  22.872  1.00  0.00     0.037 A 
ATOM     23  C   UNL A   1      30.675  27.664  21.895  1.00  0.00     0.026 A 
ATOM     24  C   UNL A   1      29.431  26.819  23.739  1.00  0.00     0.026 A 
ATOM     25  C   UNL A   1      31.488  26.527  21.917  1.00  0.00     0.012 A 
ATOM     26  C   UNL A   1      30.215  25.658  23.751  1.00  0.00     0.012 A 
BRANCH  22  27
ATOM     27  N   UNL A   1      29.103  29.121  23.049  1.00  0.00    -0.372 N 
BRANCH  27  28
ATOM     28  C   UNL A   1      29.945  30.248  23.485  1.00  0.00     0.113 C 
ATOM     29  C   UNL A   1      29.156  31.359  24.160  1.00  0.00     0.027 C 
ENDBRANCH  27  28
BRANCH  27  30
ATOM     30  C   UNL A   1      27.836  29.426  22.382  1.00  0.00     0.113 C 
ATOM     31  C   UNL A   1      27.971  30.402  21.218  1.00  0.00     0.027 C 
ENDBRANCH  27  30
ENDBRANCH  22  27
ENDBRANCH   6  21
ENDBRANCH   3   5
ENDBRANCH   2   3
ENDBRANCH   1   2
BRANCH   1  32
ATOM     32  C   UNL A   1      36.813  20.740  24.964  1.00  0.00     0.275 C 
BRANCH  32  33
ATOM     33  O   UNL A   1      37.427  21.764  25.768  1.00  0.00    -0.458 OA
BRANCH  33  34
ATOM     34  C   UNL A   1      38.724  21.546  26.054  1.00  0.00     0.338 C 
ATOM     35  O   UNL A   1      39.395  20.556  25.743  1.00  0.00    -0.246 OA
BRANCH  34  36
ATOM     36  C   UNL A   1      39.348  22.740  26.635  1.00  0.00     0.060 A 
ATOM     37  C   UNL A   1      38.893  23.979  26.173  1.00  0.00     0.016 A 
ATOM     38  C   UNL A   1      40.426  22.668  27.518  1.00  0.00     0.016 A 
ATOM     39  C   UNL A   1      39.504  25.153  26.584  1.00  0.00     0.010 A 
ATOM     40  C   UNL A   1      41.065  23.853  27.912  1.00  0.00     0.010 A 
ATOM     41  C   UNL A   1      40.617  25.096  27.430  1.00  0.00    -0.014 A 
BRANCH  41  42
ATOM     42  C   UNL A   1      41.364  26.349  27.675  1.00  0.00     0.031 A 
ATOM     43  C   UNL A   1      40.725  27.433  28.497  1.00  0.00     0.074 A 
ATOM     44  C   UNL A   1      42.639  26.467  27.266  1.00  0.00     0.049 A 
ATOM     45  N   UNL A   1      41.206  28.595  28.857  1.00  0.00    -0.248 NA
ATOM     46  C   UNL A   1      39.364  27.165  28.986  1.00  0.00     0.031 C 
ATOM     47  C   UNL A   1      43.382  25.448  26.526  1.00  0.00     0.029 A 
ATOM     48  N   UNL A   1      43.539  27.489  27.430  1.00  0.00    -0.354 N 
ATOM     49  C   UNL A   1      40.203  29.202  29.601  1.00  0.00     0.074 A 
ATOM     50  C   UNL A   1      39.082  28.286  29.632  1.00  0.00     0.031 C 
ATOM     51  C   UNL A   1      44.629  25.895  26.304  1.00  0.00     0.029 A 
ATOM     52  C   UNL A   1      44.759  27.242  26.855  1.00  0.00     0.049 A 
ATOM     53  H   UNL A   1      43.328  28.321  27.914  1.00  0.00     0.167 HD
ATOM     54  C   UNL A   1      40.220  30.413  30.207  1.00  0.00     0.037 A 
ATOM     55  C   UNL A   1      45.851  28.025  26.772  1.00  0.00     0.037 A 
ATOM     56  C   UNL A   1      41.343  31.313  30.182  1.00  0.00     0.049 A 
ATOM     57  C   UNL A   1      45.826  29.388  27.409  1.00  0.00     0.074 A 
ATOM     58  C   UNL A   1      41.461  32.566  30.759  1.00  0.00     0.029 A 
ATOM     59  N   UNL A   1      42.548  31.050  29.547  1.00  0.00    -0.354 N 
ATOM     60  N   UNL A   1      44.869  29.963  28.095  1.00  0.00    -0.248 NA
ATOM     61  C   UNL A   1      47.035  30.211  27.258  1.00  0.00     0.031 C 
ATOM     62  C   UNL A   1      42.724  33.077  30.438  1.00  0.00     0.029 A 
ATOM     63  C   UNL A   1      43.409  32.126  29.700  1.00  0.00     0.049 A 
ATOM     64  H   UNL A   1      42.761  30.223  29.058  1.00  0.00     0.167 HD
ATOM     65  C   UNL A   1      45.360  31.206  28.469  1.00  0.00     0.074 A 
ATOM     66  C   UNL A   1      46.711  31.293  27.952  1.00  0.00     0.031 C 
ATOM     67  C   UNL A   1      44.749  32.190  29.174  1.00  0.00     0.037 A 
BRANCH  54  68
ATOM     68  C   UNL A   1      38.970  30.849  30.910  1.00  0.00     0.064 A 
ATOM     69  C   UNL A   1      37.915  31.471  30.227  1.00  0.00     0.173 A 
ATOM     70  C   UNL A   1      38.821  30.624  32.287  1.00  0.00     0.173 A 
ATOM     71  F   UNL A   1      38.018  31.724  28.913  1.00  0.00    -0.203 F 
ATOM     72  C   UNL A   1      36.765  31.872  30.901  1.00  0.00     0.198 A 
ATOM     73  C   UNL A   1      37.660  31.005  32.954  1.00  0.00     0.198 A 
ATOM     74  F   UNL A   1      39.800  30.033  32.986  1.00  0.00    -0.203 F 
ATOM     75  F   UNL A   1      35.786  32.504  30.238  1.00  0.00    -0.200 F 
ATOM     76  C   UNL A   1      36.636  31.635  32.262  1.00  0.00     0.200 A 
ATOM     77  F   UNL A   1      37.533  30.767  34.266  1.00  0.00    -0.200 F 
ATOM     78  F   UNL A   1      35.526  32.019  32.908  1.00  0.00    -0.200 F 
ENDBRANCH  54  68
BRANCH  55  79
ATOM     79  C   UNL A   1      47.051  27.544  26.040  1.00  0.00     0.064 A 
ATOM     80  C   UNL A   1      48.134  26.967  26.718  1.00  0.00     0.173 A 
ATOM     81  C   UNL A   1      47.139  27.655  24.644  1.00  0.00     0.173 A 
ATOM     82  F   UNL A   1      48.107  26.863  28.055  1.00  0.00    -0.203 F 
ATOM     83  C   UNL A   1      49.263  26.532  26.028  1.00  0.00     0.198 A 
ATOM     84  C   UNL A   1      48.257  27.195  23.953  1.00  0.00     0.198 A 
ATOM     85  F   UNL A   1      46.132  28.204  23.950  1.00  0.00    -0.203 F 
ATOM     86  F   UNL A   1      50.302  26.021  26.704  1.00  0.00    -0.200 F 
ATOM     87  C   UNL A   1      49.321  26.639  24.647  1.00  0.00     0.200 A 
ATOM     88  F   UNL A   1      48.305  27.292  22.618  1.00  0.00    -0.200 F 
ATOM     89  F   UNL A   1      50.407  26.215  23.984  1.00  0.00    -0.200 F 
ENDBRANCH  55  79
BRANCH  67  90
ATOM     90  C   UNL A   1      45.544  33.433  29.439  1.00  0.00     0.064 A 
ATOM     91  C   UNL A   1      45.510  34.526  28.560  1.00  0.00     0.173 A 
ATOM     92  C   UNL A   1      46.330  33.542  30.596  1.00  0.00     0.173 A 
ATOM     93  F   UNL A   1      44.784  34.463  27.433  1.00  0.00    -0.203 F 
ATOM     94  C   UNL A   1      46.256  35.673  28.817  1.00  0.00     0.198 A 
ATOM     95  C   UNL A   1      47.053  34.701  30.862  1.00  0.00     0.198 A 
ATOM     96  F   UNL A   1      46.391  32.527  31.470  1.00  0.00    -0.203 F 
ATOM     97  F   UNL A   1      46.246  36.686  27.940  1.00  0.00    -0.200 F 
ATOM     98  C   UNL A   1      47.022  35.762  29.969  1.00  0.00     0.200 A 
ATOM     99  F   UNL A   1      47.786  34.789  31.981  1.00  0.00    -0.200 F 
ATOM    100  F   UNL A   1      47.740  36.866  30.215  1.00  0.00    -0.200 F 
ENDBRANCH  67  90
ENDBRANCH  41  42
ENDBRANCH  34  36
ENDBRANCH  33  34
ENDBRANCH  32  33
ENDBRANCH   1  32
TORSDOF 15
ENDMDL
MODEL 3
REMARK VINA RESULT:     -12.6      4.294      9.696
REMARK SMILES CCN(CC)c1ccc([C@@H]2[NH2+][C@@H](C(=O)OCCOC(=O)c3ccc(-c4c5nc(c(-c6c(F)c(F)c(F)c(F)c6F)c6ccc([nH]6)c(-c6c(F)c(F)c(F)c(F)c6F)c6nc(c(-c7c(F)c(F)c(F)c(F)c7F)c7ccc4[nH]7)C=C6)C=C5)cc3)Cc3c2[nH]c2ccccc32)cc1
REMARK SMILES IDX 16 1 15 2 13 3 14 4 12 5 10 6 11 7 86 8 85 11 87 12 84 13
REMARK SMILES IDX 93 14 88 15 92 17 89 18 91 19 90 20 9 21 6 22 7 23 95 24
REMARK SMILES IDX 8 25 94 26 3 27 2 28 1 29 4 30 5 31 17 32 18 33 19 34 20 35
REMARK SMILES IDX 21 36 22 37 83 38 23 39 82 40 24 41 25 42 26 43 76 44 27 45
REMARK SMILES IDX 81 46 75 47 77 48 28 49 80 50 74 51 73 52 29 54 61 55 41 56
REMARK SMILES IDX 60 57 42 58 45 59 59 60 78 61 43 62 44 63 58 65 79 66 46 67
REMARK SMILES IDX 30 68 31 69 39 70 32 71 33 72 37 73 40 74 34 75 35 76 38 77
REMARK SMILES IDX 36 78 62 79 63 80 71 81 64 82 65 83 69 84 72 85 66 86 67 87
REMARK SMILES IDX 70 88 68 89 47 90 48 91 56 92 49 93 50 94 54 95 57 96 51 97
REMARK SMILES IDX 52 98 55 99 53 100
REMARK H PARENT 11 9 11 10 87 16 77 53 45 64
REMARK Flexibility Score: inf
ROOT
ATOM      1  C   UNL A   1      32.422  29.030  25.041  1.00  0.00     0.274 C 
ENDROOT
BRANCH   1   2
ATOM      2  O   UNL A   1      31.457  28.013  24.692  1.00  0.00    -0.458 OA
BRANCH   2   3
ATOM      3  C   UNL A   1      31.596  27.556  23.421  1.00  0.00     0.365 C 
ATOM      4  O   UNL A   1      30.926  27.971  22.474  1.00  0.00    -0.245 OA
BRANCH   3   5
ATOM      5  C   UNL A   1      32.547  26.371  23.242  1.00  0.00     0.298 C 
ATOM      6  C   UNL A   1      31.862  24.547  24.885  1.00  0.00     0.262 C 
ATOM      7  N   UNL A   1      31.780  25.154  23.527  1.00  0.00    -0.323 N 
ATOM      8  C   UNL A   1      33.268  24.690  25.379  1.00  0.00     0.083 A 
ATOM      9  H   UNL A   1      30.798  25.374  23.357  1.00  0.00     0.347 HD
ATOM     10  H   UNL A   1      32.204  24.452  22.920  1.00  0.00     0.347 HD
ATOM     11  C   UNL A   1      34.296  25.299  24.687  1.00  0.00    -0.006 A 
ATOM     12  N   UNL A   1      33.868  24.064  26.446  1.00  0.00    -0.353 N 
ATOM     13  C   UNL A   1      34.009  26.411  23.732  1.00  0.00     0.115 C 
ATOM     14  C   UNL A   1      35.317  24.306  24.772  1.00  0.00     0.003 A 
ATOM     15  C   UNL A   1      35.108  23.641  25.987  1.00  0.00     0.046 A 
ATOM     16  H   UNL A   1      33.497  23.943  27.350  1.00  0.00     0.166 HD
ATOM     17  C   UNL A   1      36.314  23.806  23.908  1.00  0.00     0.010 A 
ATOM     18  C   UNL A   1      35.951  22.633  26.468  1.00  0.00     0.026 A 
ATOM     19  C   UNL A   1      37.058  22.683  24.305  1.00  0.00     0.001 A 
ATOM     20  C   UNL A   1      36.912  22.141  25.583  1.00  0.00     0.002 A 
BRANCH   6  21
ATOM     21  C   UNL A   1      31.431  23.086  24.552  1.00  0.00     0.016 A 
ATOM     22  C   UNL A   1      32.296  20.426  24.058  1.00  0.00     0.037 A 
ATOM     23  C   UNL A   1      31.778  20.796  25.298  1.00  0.00     0.026 A 
ATOM     24  C   UNL A   1      32.153  21.346  23.014  1.00  0.00     0.026 A 
ATOM     25  C   UNL A   1      31.344  22.101  25.546  1.00  0.00     0.012 A 
ATOM     26  C   UNL A   1      31.687  22.648  23.239  1.00  0.00     0.012 A 
BRANCH  22  27
ATOM     27  N   UNL A   1      33.004  19.245  23.876  1.00  0.00    -0.372 N 
BRANCH  27  28
ATOM     28  C   UNL A   1      33.949  18.833  24.927  1.00  0.00     0.113 C 
ATOM     29  C   UNL A   1      35.374  19.296  24.665  1.00  0.00     0.027 C 
ENDBRANCH  27  28
BRANCH  27  30
ATOM     30  C   UNL A   1      32.502  18.219  22.961  1.00  0.00     0.113 C 
ATOM     31  C   UNL A   1      33.352  16.953  22.927  1.00  0.00     0.027 C 
ENDBRANCH  27  30
ENDBRANCH  22  27
ENDBRANCH   6  21
ENDBRANCH   3   5
ENDBRANCH   2   3
ENDBRANCH   1   2
BRANCH   1  32
ATOM     32  C   UNL A   1      31.877  30.195  25.885  1.00  0.00     0.275 C 
BRANCH  32  33
ATOM     33  O   UNL A   1      32.518  30.332  27.167  1.00  0.00    -0.458 OA
BRANCH  33  34
ATOM     34  C   UNL A   1      33.254  31.451  27.306  1.00  0.00     0.338 C 
ATOM     35  O   UNL A   1      32.847  32.617  27.251  1.00  0.00    -0.246 OA
BRANCH  34  36
ATOM     36  C   UNL A   1      34.620  31.139  27.739  1.00  0.00     0.060 A 
ATOM     37  C   UNL A   1      34.908  29.796  28.002  1.00  0.00     0.016 A 
ATOM     38  C   UNL A   1      35.569  32.128  27.998  1.00  0.00     0.016 A 
ATOM     39  C   UNL A   1      36.138  29.427  28.523  1.00  0.00     0.010 A 
ATOM     40  C   UNL A   1      36.804  31.761  28.552  1.00  0.00     0.010 A 
ATOM     41  C   UNL A   1      37.083  30.412  28.834  1.00  0.00    -0.014 A 
BRANCH  41  42
ATOM     42  C   UNL A   1      38.293  29.998  29.578  1.00  0.00     0.031 A 
ATOM     43  C   UNL A   1      38.488  30.484  30.986  1.00  0.00     0.074 A 
ATOM     44  C   UNL A   1      39.144  29.108  29.041  1.00  0.00     0.049 A 
ATOM     45  N   UNL A   1      39.456  30.225  31.827  1.00  0.00    -0.248 NA
ATOM     46  C   UNL A   1      37.446  31.375  31.520  1.00  0.00     0.031 C 
ATOM     47  C   UNL A   1      39.011  28.514  27.711  1.00  0.00     0.029 A 
ATOM     48  N   UNL A   1      40.279  28.534  29.555  1.00  0.00    -0.354 N 
ATOM     49  C   UNL A   1      39.148  30.930  32.983  1.00  0.00     0.074 A 
ATOM     50  C   UNL A   1      37.910  31.638  32.733  1.00  0.00     0.031 C 
ATOM     51  C   UNL A   1      40.025  27.655  27.515  1.00  0.00     0.029 A 
ATOM     52  C   UNL A   1      40.894  27.665  28.690  1.00  0.00     0.049 A 
ATOM     53  H   UNL A   1      40.621  28.730  30.458  1.00  0.00     0.167 HD
ATOM     54  C   UNL A   1      39.836  30.978  34.148  1.00  0.00     0.037 A 
ATOM     55  C   UNL A   1      42.038  26.969  28.830  1.00  0.00     0.037 A 
ATOM     56  C   UNL A   1      41.060  30.262  34.395  1.00  0.00     0.049 A 
ATOM     57  C   UNL A   1      42.811  27.081  30.116  1.00  0.00     0.074 A 
ATOM     58  C   UNL A   1      41.839  30.247  35.539  1.00  0.00     0.029 A 
ATOM     59  N   UNL A   1      41.681  29.428  33.476  1.00  0.00    -0.354 N 
ATOM     60  N   UNL A   1      42.524  27.763  31.198  1.00  0.00    -0.248 NA
ATOM     61  C   UNL A   1      44.069  26.324  30.200  1.00  0.00     0.031 C 
ATOM     62  C   UNL A   1      42.952  29.434  35.298  1.00  0.00     0.029 A 
ATOM     63  C   UNL A   1      42.844  28.907  34.021  1.00  0.00     0.049 A 
ATOM     64  H   UNL A   1      41.346  29.234  32.572  1.00  0.00     0.167 HD
ATOM     65  C   UNL A   1      43.553  27.511  32.094  1.00  0.00     0.074 A 
ATOM     66  C   UNL A   1      44.462  26.593  31.437  1.00  0.00     0.031 C 
ATOM     67  C   UNL A   1      43.735  27.997  33.347  1.00  0.00     0.037 A 
BRANCH  54  68
ATOM     68  C   UNL A   1      39.300  31.869  35.228  1.00  0.00     0.064 A 
ATOM     69  C   UNL A   1      38.493  31.375  36.263  1.00  0.00     0.173 A 
ATOM     70  C   UNL A   1      39.614  33.237  35.234  1.00  0.00     0.173 A 
ATOM     71  F   UNL A   1      38.149  30.078  36.290  1.00  0.00    -0.203 F 
ATOM     72  C   UNL A   1      38.001  32.221  37.253  1.00  0.00     0.198 A 
ATOM     73  C   UNL A   1      39.140  34.077  36.239  1.00  0.00     0.198 A 
ATOM     74  F   UNL A   1      40.382  33.759  34.268  1.00  0.00    -0.203 F 
ATOM     75  F   UNL A   1      37.195  31.738  38.208  1.00  0.00    -0.200 F 
ATOM     76  C   UNL A   1      38.329  33.570  37.243  1.00  0.00     0.200 A 
ATOM     77  F   UNL A   1      39.465  35.376  36.233  1.00  0.00    -0.200 F 
ATOM     78  F   UNL A   1      37.857  34.383  38.198  1.00  0.00    -0.200 F 
ENDBRANCH  54  68
BRANCH  55  79
ATOM     79  C   UNL A   1      42.528  26.122  27.713  1.00  0.00     0.064 A 
ATOM     80  C   UNL A   1      43.477  26.601  26.799  1.00  0.00     0.173 A 
ATOM     81  C   UNL A   1      42.053  24.814  27.535  1.00  0.00     0.173 A 
ATOM     82  F   UNL A   1      43.942  27.854  26.913  1.00  0.00    -0.203 F 
ATOM     83  C   UNL A   1      43.922  25.808  25.744  1.00  0.00     0.198 A 
ATOM     84  C   UNL A   1      42.518  24.013  26.495  1.00  0.00     0.198 A 
ATOM     85  F   UNL A   1      41.141  24.311  28.379  1.00  0.00    -0.203 F 
ATOM     86  F   UNL A   1      44.801  26.304  24.861  1.00  0.00    -0.200 F 
ATOM     87  C   UNL A   1      43.449  24.513  25.597  1.00  0.00     0.200 A 
ATOM     88  F   UNL A   1      42.065  22.760  26.362  1.00  0.00    -0.200 F 
ATOM     89  F   UNL A   1      43.882  23.749  24.584  1.00  0.00    -0.200 F 
ENDBRANCH  55  79
BRANCH  67  90
ATOM     90  C   UNL A   1      44.950  27.530  34.089  1.00  0.00     0.064 A 
ATOM     91  C   UNL A   1      44.924  26.373  34.883  1.00  0.00     0.173 A 
ATOM     92  C   UNL A   1      46.160  28.232  33.988  1.00  0.00     0.173 A 
ATOM     93  F   UNL A   1      43.786  25.677  35.024  1.00  0.00    -0.203 F 
ATOM     94  C   UNL A   1      46.060  25.953  35.570  1.00  0.00     0.198 A 
ATOM     95  C   UNL A   1      47.300  27.793  34.655  1.00  0.00     0.198 A 
ATOM     96  F   UNL A   1      46.237  29.340  33.237  1.00  0.00    -0.203 F 
ATOM     97  F   UNL A   1      46.000  24.872  36.361  1.00  0.00    -0.200 F 
ATOM     98  C   UNL A   1      47.247  26.659  35.451  1.00  0.00     0.200 A 
ATOM     99  F   UNL A   1      48.450  28.472  34.531  1.00  0.00    -0.200 F 
ATOM    100  F   UNL A   1      48.340  26.253  36.113  1.00  0.00    -0.200 F 
ENDBRANCH  67  90
ENDBRANCH  41  42
ENDBRANCH  34  36
ENDBRANCH  33  34
ENDBRANCH  32  33
ENDBRANCH   1  32
TORSDOF 15
ENDMDL
