MODEL 1
REMARK VINA RESULT:     -11.7      0.000      0.000
REMARK SMILES C[C@H](CC(=O)OCCOC(=O)c1ccc(-c2c3nc(c(-c4c(F)c(F)c(F)c(F)c4F)c4ccc([nH]4)c(-c4c(F)c(F)c(F)c(F)c4F)c4nc(c(-c5c(F)c(F)c(F)c(F)c5F)c5ccc2[nH]5)C=C4)C=C3)cc1)NC(=O)Cn1nc2ccccn2c1=O
REMARK SMILES IDX 7 1 6 2 4 3 5 4 3 5 2 6 1 7 75 8 76 9 77 11 78 12 79 13
REMARK SMILES IDX 80 14 87 15 81 16 86 17 88 18 82 19 85 20 83 21 84 22 8 23
REMARK SMILES IDX 9 24 10 25 11 26 12 27 13 28 74 29 14 30 73 31 15 32 16 33
REMARK SMILES IDX 17 34 67 35 18 36 72 37 66 38 68 39 19 40 71 41 65 42 64 43
REMARK SMILES IDX 20 45 52 46 32 47 51 48 33 49 36 50 50 51 69 52 34 53 35 54
REMARK SMILES IDX 49 56 70 57 37 58 21 59 22 60 30 61 23 62 24 63 28 64 31 65
REMARK SMILES IDX 25 66 26 67 29 68 27 69 53 70 54 71 62 72 55 73 56 74 60 75
REMARK SMILES IDX 63 76 57 77 58 78 61 79 59 80 38 81 39 82 47 83 40 84 41 85
REMARK SMILES IDX 45 86 48 87 42 88 43 89 46 90 44 91
REMARK H PARENT 75 10 68 44 36 55
REMARK Flexibility Score: inf
ROOT
ATOM      1  C   UNL A   1      31.840  29.513  25.319  1.00  0.00     0.274 C 
ENDROOT
BRANCH   1   2
ATOM      2  O   UNL A   1      32.929  29.592  24.373  1.00  0.00    -0.462 OA
BRANCH   2   3
ATOM      3  C   UNL A   1      33.600  28.438  24.169  1.00  0.00     0.307 C 
ATOM      4  O   UNL A   1      34.169  28.147  23.118  1.00  0.00    -0.252 OA
BRANCH   3   5
ATOM      5  C   UNL A   1      33.646  27.495  25.344  1.00  0.00     0.147 C 
BRANCH   5   6
ATOM      6  C   UNL A   1      33.275  26.009  25.261  1.00  0.00     0.090 C 
ATOM      7  C   UNL A   1      34.381  24.988  25.473  1.00  0.00     0.031 C 
BRANCH   6   8
ATOM      8  N   UNL A   1      32.104  25.731  26.083  1.00  0.00    -0.351 N 
ATOM      9  C   UNL A   1      30.805  25.572  25.665  1.00  0.00     0.242 C 
ATOM     10  H   UNL A   1      32.262  25.647  27.051  1.00  0.00     0.163 HD
ATOM     11  O   UNL A   1      29.922  25.602  26.526  1.00  0.00    -0.273 OA
BRANCH   9  12
ATOM     12  C   UNL A   1      30.474  25.345  24.180  1.00  0.00     0.249 C 
BRANCH  12  13
ATOM     13  N   UNL A   1      29.895  26.508  23.542  1.00  0.00    -0.203 N 
ATOM     14  N   UNL A   1      30.635  27.413  22.802  1.00  0.00    -0.149 NA
ATOM     15  C   UNL A   1      28.569  26.956  23.682  1.00  0.00     0.350 A 
ATOM     16  C   UNL A   1      29.804  28.383  22.582  1.00  0.00     0.161 A 
ATOM     17  N   UNL A   1      28.552  28.185  23.064  1.00  0.00    -0.250 N 
ATOM     18  O   UNL A   1      27.651  26.391  24.256  1.00  0.00    -0.246 OA
ATOM     19  C   UNL A   1      30.097  29.676  21.930  1.00  0.00     0.050 A 
ATOM     20  C   UNL A   1      27.543  29.105  22.988  1.00  0.00     0.098 A 
ATOM     21  C   UNL A   1      29.120  30.598  21.916  1.00  0.00     0.005 A 
ATOM     22  C   UNL A   1      27.798  30.304  22.443  1.00  0.00     0.019 A 
ENDBRANCH  12  13
ENDBRANCH   9  12
ENDBRANCH   6   8
ENDBRANCH   5   6
ENDBRANCH   3   5
ENDBRANCH   2   3
ENDBRANCH   1   2
BRANCH   1  23
ATOM     23  C   UNL A   1      31.638  30.839  26.055  1.00  0.00     0.275 C 
BRANCH  23  24
ATOM     24  O   UNL A   1      32.400  30.877  27.279  1.00  0.00    -0.458 OA
BRANCH  24  25
ATOM     25  C   UNL A   1      33.246  31.924  27.394  1.00  0.00     0.338 C 
ATOM     26  O   UNL A   1      32.998  33.103  27.206  1.00  0.00    -0.246 OA
BRANCH  25  27
ATOM     27  C   UNL A   1      34.585  31.480  27.806  1.00  0.00     0.060 A 
ATOM     28  C   UNL A   1      34.802  30.145  28.148  1.00  0.00     0.016 A 
ATOM     29  C   UNL A   1      35.570  32.437  28.053  1.00  0.00     0.016 A 
ATOM     30  C   UNL A   1      35.965  29.779  28.826  1.00  0.00     0.010 A 
ATOM     31  C   UNL A   1      36.768  32.055  28.663  1.00  0.00     0.010 A 
ATOM     32  C   UNL A   1      36.958  30.731  29.097  1.00  0.00    -0.014 A 
BRANCH  32  33
ATOM     33  C   UNL A   1      38.173  30.357  29.868  1.00  0.00     0.031 A 
ATOM     34  C   UNL A   1      39.188  29.411  29.278  1.00  0.00     0.074 A 
ATOM     35  C   UNL A   1      38.369  30.859  31.102  1.00  0.00     0.049 A 
ATOM     36  N   UNL A   1      40.239  28.866  29.837  1.00  0.00    -0.248 NA
ATOM     37  C   UNL A   1      38.987  29.019  27.874  1.00  0.00     0.031 C 
ATOM     38  C   UNL A   1      37.478  31.798  31.783  1.00  0.00     0.029 A 
ATOM     39  N   UNL A   1      39.377  30.639  32.009  1.00  0.00    -0.354 N 
ATOM     40  C   UNL A   1      40.800  28.038  28.872  1.00  0.00     0.074 A 
ATOM     41  C   UNL A   1      39.966  28.144  27.692  1.00  0.00     0.031 C 
ATOM     42  C   UNL A   1      37.980  32.080  32.995  1.00  0.00     0.029 A 
ATOM     43  C   UNL A   1      39.195  31.298  33.199  1.00  0.00     0.049 A 
ATOM     44  H   UNL A   1      40.154  30.065  31.823  1.00  0.00     0.167 HD
ATOM     45  C   UNL A   1      41.907  27.262  28.962  1.00  0.00     0.037 A 
ATOM     46  C   UNL A   1      39.907  31.251  34.341  1.00  0.00     0.037 A 
ATOM     47  C   UNL A   1      42.757  27.186  30.122  1.00  0.00     0.049 A 
ATOM     48  C   UNL A   1      41.129  30.378  34.414  1.00  0.00     0.074 A 
ATOM     49  C   UNL A   1      43.912  26.444  30.300  1.00  0.00     0.029 A 
ATOM     50  N   UNL A   1      42.546  27.883  31.302  1.00  0.00    -0.354 N 
ATOM     51  N   UNL A   1      41.642  29.594  33.499  1.00  0.00    -0.248 NA
ATOM     52  C   UNL A   1      41.871  30.387  35.682  1.00  0.00     0.031 C 
ATOM     53  C   UNL A   1      44.383  26.666  31.599  1.00  0.00     0.029 A 
ATOM     54  C   UNL A   1      43.547  27.584  32.214  1.00  0.00     0.049 A 
ATOM     55  H   UNL A   1      41.798  28.500  31.468  1.00  0.00     0.167 HD
ATOM     56  C   UNL A   1      42.779  29.037  34.069  1.00  0.00     0.074 A 
ATOM     57  C   UNL A   1      42.889  29.587  35.404  1.00  0.00     0.031 C 
ATOM     58  C   UNL A   1      43.651  28.148  33.535  1.00  0.00     0.037 A 
BRANCH  45  59
ATOM     59  C   UNL A   1      42.260  26.409  27.777  1.00  0.00     0.064 A 
ATOM     60  C   UNL A   1      43.216  26.811  26.833  1.00  0.00     0.173 A 
ATOM     61  C   UNL A   1      41.673  25.143  27.619  1.00  0.00     0.173 A 
ATOM     62  F   UNL A   1      43.798  28.016  26.931  1.00  0.00    -0.203 F 
ATOM     63  C   UNL A   1      43.555  25.986  25.763  1.00  0.00     0.198 A 
ATOM     64  C   UNL A   1      42.035  24.311  26.563  1.00  0.00     0.198 A 
ATOM     65  F   UNL A   1      40.759  24.708  28.498  1.00  0.00    -0.203 F 
ATOM     66  F   UNL A   1      44.445  26.406  24.851  1.00  0.00    -0.200 F 
ATOM     67  C   UNL A   1      42.973  24.734  25.634  1.00  0.00     0.200 A 
ATOM     68  F   UNL A   1      41.480  23.095  26.449  1.00  0.00    -0.200 F 
ATOM     69  F   UNL A   1      43.310  23.938  24.610  1.00  0.00    -0.200 F 
ENDBRANCH  45  59
BRANCH  46  70
ATOM     70  C   UNL A   1      39.473  32.050  35.516  1.00  0.00     0.064 A 
ATOM     71  C   UNL A   1      39.957  33.349  35.725  1.00  0.00     0.173 A 
ATOM     72  C   UNL A   1      38.569  31.530  36.454  1.00  0.00     0.173 A 
ATOM     73  F   UNL A   1      40.838  33.880  34.865  1.00  0.00    -0.203 F 
ATOM     74  C   UNL A   1      39.569  34.090  36.839  1.00  0.00     0.198 A 
ATOM     75  C   UNL A   1      38.159  32.284  37.551  1.00  0.00     0.198 A 
ATOM     76  F   UNL A   1      38.074  30.294  36.297  1.00  0.00    -0.203 F 
ATOM     77  F   UNL A   1      40.083  35.310  37.039  1.00  0.00    -0.200 F 
ATOM     78  C   UNL A   1      38.667  33.559  37.748  1.00  0.00     0.200 A 
ATOM     79  F   UNL A   1      37.274  31.773  38.419  1.00  0.00    -0.200 F 
ATOM     80  F   UNL A   1      38.289  34.274  38.816  1.00  0.00    -0.200 F 
ENDBRANCH  46  70
BRANCH  58  81
ATOM     81  C   UNL A   1      44.829  27.756  34.379  1.00  0.00     0.064 A 
ATOM     82  C   UNL A   1      46.029  28.482  34.353  1.00  0.00     0.173 A 
ATOM     83  C   UNL A   1      44.751  26.643  35.229  1.00  0.00     0.173 A 
ATOM     84  F   UNL A   1      46.159  29.544  33.545  1.00  0.00    -0.203 F 
ATOM     85  C   UNL A   1      47.121  28.085  35.122  1.00  0.00     0.198 A 
ATOM     86  C   UNL A   1      45.835  26.267  36.017  1.00  0.00     0.198 A 
ATOM     87  F   UNL A   1      43.623  25.919  35.295  1.00  0.00    -0.203 F 
ATOM     88  F   UNL A   1      48.277  28.757  35.037  1.00  0.00    -0.200 F 
ATOM     89  C   UNL A   1      47.022  26.981  35.954  1.00  0.00     0.200 A 
ATOM     90  F   UNL A   1      45.734  25.206  36.830  1.00  0.00    -0.200 F 
ATOM     91  F   UNL A   1      48.075  26.598  36.690  1.00  0.00    -0.200 F 
ENDBRANCH  58  81
ENDBRANCH  32  33
ENDBRANCH  25  27
ENDBRANCH  24  25
ENDBRANCH  23  24
ENDBRANCH   1  23
TORSDOF 15
ENDMDL
MODEL 2
REMARK VINA RESULT:     -11.5      1.410      3.204
REMARK SMILES C[C@H](CC(=O)OCCOC(=O)c1ccc(-c2c3nc(c(-c4c(F)c(F)c(F)c(F)c4F)c4ccc([nH]4)c(-c4c(F)c(F)c(F)c(F)c4F)c4nc(c(-c5c(F)c(F)c(F)c(F)c5F)c5ccc2[nH]5)C=C4)C=C3)cc1)NC(=O)Cn1nc2ccccn2c1=O
REMARK SMILES IDX 7 1 6 2 4 3 5 4 3 5 2 6 1 7 75 8 76 9 77 11 78 12 79 13
REMARK SMILES IDX 80 14 87 15 81 16 86 17 88 18 82 19 85 20 83 21 84 22 8 23
REMARK SMILES IDX 9 24 10 25 11 26 12 27 13 28 74 29 14 30 73 31 15 32 16 33
REMARK SMILES IDX 17 34 67 35 18 36 72 37 66 38 68 39 19 40 71 41 65 42 64 43
REMARK SMILES IDX 20 45 52 46 32 47 51 48 33 49 36 50 50 51 69 52 34 53 35 54
REMARK SMILES IDX 49 56 70 57 37 58 21 59 22 60 30 61 23 62 24 63 28 64 31 65
REMARK SMILES IDX 25 66 26 67 29 68 27 69 53 70 54 71 62 72 55 73 56 74 60 75
REMARK SMILES IDX 63 76 57 77 58 78 61 79 59 80 38 81 39 82 47 83 40 84 41 85
REMARK SMILES IDX 45 86 48 87 42 88 43 89 46 90 44 91
REMARK H PARENT 75 10 68 44 36 55
REMARK Flexibility Score: inf
ROOT
ATOM      1  C   UNL A   1      31.772  29.573  24.632  1.00  0.00     0.274 C 
ENDROOT
BRANCH   1   2
ATOM      2  O   UNL A   1      30.580  29.081  23.982  1.00  0.00    -0.462 OA
BRANCH   2   3
ATOM      3  C   UNL A   1      30.556  27.751  23.749  1.00  0.00     0.307 C 
ATOM      4  O   UNL A   1      30.649  27.244  22.633  1.00  0.00    -0.252 OA
BRANCH   3   5
ATOM      5  C   UNL A   1      30.432  26.878  24.972  1.00  0.00     0.147 C 
BRANCH   5   6
ATOM      6  C   UNL A   1      31.481  25.842  25.392  1.00  0.00     0.090 C 
ATOM      7  C   UNL A   1      32.911  26.319  25.594  1.00  0.00     0.031 C 
BRANCH   6   8
ATOM      8  N   UNL A   1      30.997  25.058  26.522  1.00  0.00    -0.351 N 
ATOM      9  C   UNL A   1      30.643  23.731  26.531  1.00  0.00     0.242 C 
ATOM     10  H   UNL A   1      30.915  25.536  27.379  1.00  0.00     0.163 HD
ATOM     11  O   UNL A   1      30.016  23.316  27.509  1.00  0.00    -0.273 OA
BRANCH   9  12
ATOM     12  C   UNL A   1      31.035  22.799  25.372  1.00  0.00     0.249 C 
BRANCH  12  13
ATOM     13  N   UNL A   1      32.464  22.737  25.151  1.00  0.00    -0.203 N 
ATOM     14  N   UNL A   1      33.394  22.876  26.165  1.00  0.00    -0.149 NA
ATOM     15  C   UNL A   1      33.106  22.667  23.901  1.00  0.00     0.350 A 
ATOM     16  C   UNL A   1      34.525  22.959  25.537  1.00  0.00     0.161 A 
ATOM     17  N   UNL A   1      34.442  22.835  24.190  1.00  0.00    -0.250 N 
ATOM     18  O   UNL A   1      32.586  22.524  22.806  1.00  0.00    -0.246 OA
ATOM     19  C   UNL A   1      35.852  23.233  26.125  1.00  0.00     0.050 A 
ATOM     20  C   UNL A   1      35.505  22.948  23.338  1.00  0.00     0.098 A 
ATOM     21  C   UNL A   1      36.881  23.405  25.278  1.00  0.00     0.005 A 
ATOM     22  C   UNL A   1      36.713  23.242  23.844  1.00  0.00     0.019 A 
ENDBRANCH  12  13
ENDBRANCH   9  12
ENDBRANCH   6   8
ENDBRANCH   5   6
ENDBRANCH   3   5
ENDBRANCH   2   3
ENDBRANCH   1   2
BRANCH   1  23
ATOM     23  C   UNL A   1      31.433  30.508  25.795  1.00  0.00     0.275 C 
BRANCH  23  24
ATOM     24  O   UNL A   1      32.347  30.323  26.896  1.00  0.00    -0.458 OA
BRANCH  24  25
ATOM     25  C   UNL A   1      33.050  31.421  27.246  1.00  0.00     0.338 C 
ATOM     26  O   UNL A   1      32.667  32.580  27.249  1.00  0.00    -0.246 OA
BRANCH  25  27
ATOM     27  C   UNL A   1      34.414  31.066  27.664  1.00  0.00     0.060 A 
ATOM     28  C   UNL A   1      34.739  29.734  27.922  1.00  0.00     0.016 A 
ATOM     29  C   UNL A   1      35.306  32.084  28.002  1.00  0.00     0.016 A 
ATOM     30  C   UNL A   1      35.914  29.422  28.605  1.00  0.00     0.010 A 
ATOM     31  C   UNL A   1      36.520  31.764  28.617  1.00  0.00     0.010 A 
ATOM     32  C   UNL A   1      36.815  30.434  28.967  1.00  0.00    -0.014 A 
BRANCH  32  33
ATOM     33  C   UNL A   1      38.041  30.112  29.744  1.00  0.00     0.031 A 
ATOM     34  C   UNL A   1      39.082  29.185  29.173  1.00  0.00     0.074 A 
ATOM     35  C   UNL A   1      38.222  30.647  30.967  1.00  0.00     0.049 A 
ATOM     36  N   UNL A   1      40.149  28.682  29.742  1.00  0.00    -0.248 NA
ATOM     37  C   UNL A   1      38.892  28.757  27.778  1.00  0.00     0.031 C 
ATOM     38  C   UNL A   1      37.304  31.573  31.629  1.00  0.00     0.029 A 
ATOM     39  N   UNL A   1      39.237  30.476  31.876  1.00  0.00    -0.354 N 
ATOM     40  C   UNL A   1      40.733  27.851  28.794  1.00  0.00     0.074 A 
ATOM     41  C   UNL A   1      39.896  27.907  27.613  1.00  0.00     0.031 C 
ATOM     42  C   UNL A   1      37.799  31.895  32.834  1.00  0.00     0.029 A 
ATOM     43  C   UNL A   1      39.037  31.154  33.053  1.00  0.00     0.049 A 
ATOM     44  H   UNL A   1      40.030  29.920  31.702  1.00  0.00     0.167 HD
ATOM     45  C   UNL A   1      41.863  27.110  28.899  1.00  0.00     0.037 A 
ATOM     46  C   UNL A   1      39.751  31.153  34.195  1.00  0.00     0.037 A 
ATOM     47  C   UNL A   1      42.715  27.083  30.060  1.00  0.00     0.049 A 
ATOM     48  C   UNL A   1      40.997  30.317  34.285  1.00  0.00     0.074 A 
ATOM     49  C   UNL A   1      43.892  26.380  30.252  1.00  0.00     0.029 A 
ATOM     50  N   UNL A   1      42.485  27.799  31.225  1.00  0.00    -0.354 N 
ATOM     51  N   UNL A   1      41.533  29.529  33.386  1.00  0.00    -0.248 NA
ATOM     52  C   UNL A   1      41.739  30.376  35.552  1.00  0.00     0.031 C 
ATOM     53  C   UNL A   1      44.357  26.643  31.546  1.00  0.00     0.029 A 
ATOM     54  C   UNL A   1      43.495  27.549  32.142  1.00  0.00     0.049 A 
ATOM     55  H   UNL A   1      41.719  28.398  31.379  1.00  0.00     0.167 HD
ATOM     56  C   UNL A   1      42.686  29.019  33.966  1.00  0.00     0.074 A 
ATOM     57  C   UNL A   1      42.781  29.600  35.289  1.00  0.00     0.031 C 
ATOM     58  C   UNL A   1      43.583  28.144  33.450  1.00  0.00     0.037 A 
BRANCH  45  59
ATOM     59  C   UNL A   1      42.240  26.242  27.733  1.00  0.00     0.064 A 
ATOM     60  C   UNL A   1      43.214  26.633  26.802  1.00  0.00     0.173 A 
ATOM     61  C   UNL A   1      41.657  24.974  27.579  1.00  0.00     0.173 A 
ATOM     62  F   UNL A   1      43.792  27.840  26.897  1.00  0.00    -0.203 F 
ATOM     63  C   UNL A   1      43.575  25.795  25.750  1.00  0.00     0.198 A 
ATOM     64  C   UNL A   1      42.041  24.128  26.541  1.00  0.00     0.198 A 
ATOM     65  F   UNL A   1      40.727  24.548  28.446  1.00  0.00    -0.203 F 
ATOM     66  F   UNL A   1      44.482  26.204  24.850  1.00  0.00    -0.200 F 
ATOM     67  C   UNL A   1      42.996  24.541  25.625  1.00  0.00     0.200 A 
ATOM     68  F   UNL A   1      41.489  22.911  26.431  1.00  0.00    -0.200 F 
ATOM     69  F   UNL A   1      43.355  23.732  24.619  1.00  0.00    -0.200 F 
ENDBRANCH  45  59
BRANCH  46  70
ATOM     70  C   UNL A   1      39.294  31.964  35.352  1.00  0.00     0.064 A 
ATOM     71  C   UNL A   1      39.639  33.317  35.467  1.00  0.00     0.173 A 
ATOM     72  C   UNL A   1      38.507  31.401  36.369  1.00  0.00     0.173 A 
ATOM     73  F   UNL A   1      40.407  33.893  34.530  1.00  0.00    -0.203 F 
ATOM     74  C   UNL A   1      39.232  34.072  36.565  1.00  0.00     0.198 A 
ATOM     75  C   UNL A   1      38.075  32.165  37.450  1.00  0.00     0.198 A 
ATOM     76  F   UNL A   1      38.146  30.111  36.303  1.00  0.00    -0.203 F 
ATOM     77  F   UNL A   1      39.614  35.351  36.673  1.00  0.00    -0.200 F 
ATOM     78  C   UNL A   1      38.446  33.497  37.552  1.00  0.00     0.200 A 
ATOM     79  F   UNL A   1      37.302  31.610  38.393  1.00  0.00    -0.200 F 
ATOM     80  F   UNL A   1      38.049  34.226  38.604  1.00  0.00    -0.200 F 
ENDBRANCH  46  70
BRANCH  58  81
ATOM     81  C   UNL A   1      44.772  27.805  34.301  1.00  0.00     0.064 A 
ATOM     82  C   UNL A   1      44.765  26.709  35.177  1.00  0.00     0.173 A 
ATOM     83  C   UNL A   1      45.935  28.587  34.236  1.00  0.00     0.173 A 
ATOM     84  F   UNL A   1      43.671  25.942  35.289  1.00  0.00    -0.203 F 
ATOM     85  C   UNL A   1      45.867  26.430  35.982  1.00  0.00     0.198 A 
ATOM     86  C   UNL A   1      47.045  28.287  35.020  1.00  0.00     0.198 A 
ATOM     87  F   UNL A   1      45.995  29.642  33.409  1.00  0.00    -0.203 F 
ATOM     88  F   UNL A   1      45.816  25.414  36.854  1.00  0.00    -0.200 F 
ATOM     89  C   UNL A   1      47.006  27.216  35.900  1.00  0.00     0.200 A 
ATOM     90  F   UNL A   1      48.150  29.041  34.932  1.00  0.00    -0.200 F 
ATOM     91  F   UNL A   1      48.064  26.948  36.678  1.00  0.00    -0.200 F 
ENDBRANCH  58  81
ENDBRANCH  32  33
ENDBRANCH  25  27
ENDBRANCH  24  25
ENDBRANCH  23  24
ENDBRANCH   1  23
TORSDOF 15
ENDMDL
MODEL 3
REMARK VINA RESULT:     -11.4      4.546      9.526
REMARK SMILES C[C@H](CC(=O)OCCOC(=O)c1ccc(-c2c3nc(c(-c4c(F)c(F)c(F)c(F)c4F)c4ccc([nH]4)c(-c4c(F)c(F)c(F)c(F)c4F)c4nc(c(-c5c(F)c(F)c(F)c(F)c5F)c5ccc2[nH]5)C=C4)C=C3)cc1)NC(=O)Cn1nc2ccccn2c1=O
REMARK SMILES IDX 7 1 6 2 4 3 5 4 3 5 2 6 1 7 75 8 76 9 77 11 78 12 79 13
REMARK SMILES IDX 80 14 87 15 81 16 86 17 88 18 82 19 85 20 83 21 84 22 8 23
REMARK SMILES IDX 9 24 10 25 11 26 12 27 13 28 74 29 14 30 73 31 15 32 16 33
REMARK SMILES IDX 17 34 67 35 18 36 72 37 66 38 68 39 19 40 71 41 65 42 64 43
REMARK SMILES IDX 20 45 52 46 32 47 51 48 33 49 36 50 50 51 69 52 34 53 35 54
REMARK SMILES IDX 49 56 70 57 37 58 21 59 22 60 30 61 23 62 24 63 28 64 31 65
REMARK SMILES IDX 25 66 26 67 29 68 27 69 53 70 54 71 62 72 55 73 56 74 60 75
REMARK SMILES IDX 63 76 57 77 58 78 61 79 59 80 38 81 39 82 47 83 40 84 41 85
REMARK SMILES IDX 45 86 48 87 42 88 43 89 46 90 44 91
REMARK H PARENT 75 10 68 44 36 55
REMARK Flexibility Score: inf
ROOT
ATOM      1  C   UNL A   1      35.844  20.944  25.163  1.00  0.00     0.274 C 
ENDROOT
BRANCH   1   2
ATOM      2  O   UNL A   1      35.612  21.561  26.448  1.00  0.00    -0.462 OA
BRANCH   2   3
ATOM      3  C   UNL A   1      34.371  22.058  26.634  1.00  0.00     0.307 C 
ATOM      4  O   UNL A   1      33.891  22.324  27.734  1.00  0.00    -0.252 OA
BRANCH   3   5
ATOM      5  C   UNL A   1      33.575  22.308  25.378  1.00  0.00     0.147 C 
BRANCH   5   6
ATOM      6  C   UNL A   1      32.235  21.630  25.067  1.00  0.00     0.090 C 
ATOM      7  C   UNL A   1      32.255  20.160  24.679  1.00  0.00     0.031 C 
BRANCH   6   8
ATOM      8  N   UNL A   1      31.268  21.910  26.121  1.00  0.00    -0.351 N 
ATOM      9  C   UNL A   1      30.595  23.085  26.352  1.00  0.00     0.242 C 
ATOM     10  H   UNL A   1      31.073  21.169  26.739  1.00  0.00     0.163 HD
ATOM     11  O   UNL A   1      30.020  23.208  27.436  1.00  0.00    -0.273 OA
BRANCH   9  12
ATOM     12  C   UNL A   1      30.547  24.192  25.284  1.00  0.00     0.249 C 
BRANCH  12  13
ATOM     13  N   UNL A   1      31.258  25.390  25.676  1.00  0.00    -0.203 N 
ATOM     14  N   UNL A   1      30.935  26.129  26.800  1.00  0.00    -0.149 NA
ATOM     15  C   UNL A   1      32.259  26.040  24.931  1.00  0.00     0.350 A 
ATOM     16  C   UNL A   1      31.658  27.199  26.683  1.00  0.00     0.161 A 
ATOM     17  N   UNL A   1      32.479  27.220  25.604  1.00  0.00    -0.250 N 
ATOM     18  O   UNL A   1      32.785  25.654  23.900  1.00  0.00    -0.246 OA
ATOM     19  C   UNL A   1      31.628  28.393  27.551  1.00  0.00     0.050 A 
ATOM     20  C   UNL A   1      33.280  28.275  25.266  1.00  0.00     0.098 A 
ATOM     21  C   UNL A   1      32.369  29.449  27.178  1.00  0.00     0.005 A 
ATOM     22  C   UNL A   1      33.236  29.389  26.013  1.00  0.00     0.019 A 
ENDBRANCH  12  13
ENDBRANCH   9  12
ENDBRANCH   6   8
ENDBRANCH   5   6
ENDBRANCH   3   5
ENDBRANCH   2   3
ENDBRANCH   1   2
BRANCH   1  23
ATOM     23  C   UNL A   1      37.299  20.495  25.009  1.00  0.00     0.275 C 
BRANCH  23  24
ATOM     24  O   UNL A   1      38.209  21.594  25.219  1.00  0.00    -0.458 OA
BRANCH  24  25
ATOM     25  C   UNL A   1      39.182  21.366  26.128  1.00  0.00     0.338 C 
ATOM     26  O   UNL A   1      39.666  20.291  26.444  1.00  0.00    -0.246 OA
BRANCH  25  27
ATOM     27  C   UNL A   1      39.644  22.622  26.736  1.00  0.00     0.060 A 
ATOM     28  C   UNL A   1      39.168  23.843  26.259  1.00  0.00     0.016 A 
ATOM     29  C   UNL A   1      40.708  22.587  27.637  1.00  0.00     0.016 A 
ATOM     30  C   UNL A   1      39.816  25.028  26.607  1.00  0.00     0.010 A 
ATOM     31  C   UNL A   1      41.308  23.781  28.046  1.00  0.00     0.010 A 
ATOM     32  C   UNL A   1      40.898  25.010  27.499  1.00  0.00    -0.014 A 
BRANCH  32  33
ATOM     33  C   UNL A   1      41.627  26.263  27.828  1.00  0.00     0.031 A 
ATOM     34  C   UNL A   1      40.950  27.351  28.622  1.00  0.00     0.074 A 
ATOM     35  C   UNL A   1      42.896  26.433  27.412  1.00  0.00     0.049 A 
ATOM     36  N   UNL A   1      41.368  28.561  28.898  1.00  0.00    -0.248 NA
ATOM     37  C   UNL A   1      39.620  27.039  29.169  1.00  0.00     0.031 C 
ATOM     38  C   UNL A   1      43.675  25.454  26.654  1.00  0.00     0.029 A 
ATOM     39  N   UNL A   1      43.751  27.498  27.557  1.00  0.00    -0.354 N 
ATOM     40  C   UNL A   1      40.342  29.167  29.613  1.00  0.00     0.074 A 
ATOM     41  C   UNL A   1      39.274  28.194  29.721  1.00  0.00     0.031 C 
ATOM     42  C   UNL A   1      44.894  25.959  26.407  1.00  0.00     0.029 A 
ATOM     43  C   UNL A   1      44.962  27.317  26.937  1.00  0.00     0.049 A 
ATOM     44  H   UNL A   1      43.517  28.313  28.058  1.00  0.00     0.167 HD
ATOM     45  C   UNL A   1      40.296  30.418  30.132  1.00  0.00     0.037 A 
ATOM     46  C   UNL A   1      45.999  28.161  26.782  1.00  0.00     0.037 A 
ATOM     47  C   UNL A   1      41.372  31.371  30.058  1.00  0.00     0.049 A 
ATOM     48  C   UNL A   1      45.918  29.545  27.364  1.00  0.00     0.074 A 
ATOM     49  C   UNL A   1      41.427  32.656  30.572  1.00  0.00     0.029 A 
ATOM     50  N   UNL A   1      42.590  31.141  29.435  1.00  0.00    -0.354 N 
ATOM     51  N   UNL A   1      44.940  30.108  28.028  1.00  0.00    -0.248 NA
ATOM     52  C   UNL A   1      47.091  30.409  27.174  1.00  0.00     0.031 C 
ATOM     53  C   UNL A   1      42.663  33.215  30.231  1.00  0.00     0.029 A 
ATOM     54  C   UNL A   1      43.399  32.262  29.546  1.00  0.00     0.049 A 
ATOM     55  H   UNL A   1      42.843  30.305  28.981  1.00  0.00     0.167 HD
ATOM     56  C   UNL A   1      45.387  31.380  28.359  1.00  0.00     0.074 A 
ATOM     57  C   UNL A   1      46.732  31.499  27.835  1.00  0.00     0.031 C 
ATOM     58  C   UNL A   1      44.739  32.362  29.032  1.00  0.00     0.037 A 
BRANCH  45  59
ATOM     59  C   UNL A   1      39.027  30.845  30.813  1.00  0.00     0.064 A 
ATOM     60  C   UNL A   1      37.938  31.362  30.096  1.00  0.00     0.173 A 
ATOM     61  C   UNL A   1      38.881  30.681  32.200  1.00  0.00     0.173 A 
ATOM     62  F   UNL A   1      38.031  31.550  28.771  1.00  0.00    -0.203 F 
ATOM     63  C   UNL A   1      36.757  31.715  30.744  1.00  0.00     0.198 A 
ATOM     64  C   UNL A   1      37.689  31.010  32.840  1.00  0.00     0.198 A 
ATOM     65  F   UNL A   1      39.888  30.184  32.932  1.00  0.00    -0.203 F 
ATOM     66  F   UNL A   1      35.742  32.242  30.044  1.00  0.00    -0.200 F 
ATOM     67  C   UNL A   1      36.630  31.532  32.112  1.00  0.00     0.200 A 
ATOM     68  F   UNL A   1      37.564  30.819  34.162  1.00  0.00    -0.200 F 
ATOM     69  F   UNL A   1      35.488  31.861  32.732  1.00  0.00    -0.200 F 
ENDBRANCH  45  59
BRANCH  46  70
ATOM     70  C   UNL A   1      47.202  27.722  26.028  1.00  0.00     0.064 A 
ATOM     71  C   UNL A   1      47.221  27.739  24.627  1.00  0.00     0.173 A 
ATOM     72  C   UNL A   1      48.353  27.274  26.693  1.00  0.00     0.173 A 
ATOM     73  F   UNL A   1      46.137  28.140  23.948  1.00  0.00    -0.203 F 
ATOM     74  C   UNL A   1      48.340  27.305  23.919  1.00  0.00     0.198 A 
ATOM     75  C   UNL A   1      49.481  26.869  25.984  1.00  0.00     0.198 A 
ATOM     76  F   UNL A   1      48.385  27.243  28.033  1.00  0.00    -0.203 F 
ATOM     77  F   UNL A   1      48.315  27.288  22.579  1.00  0.00    -0.200 F 
ATOM     78  C   UNL A   1      49.470  26.875  24.597  1.00  0.00     0.200 A 
ATOM     79  F   UNL A   1      50.577  26.470  26.644  1.00  0.00    -0.200 F 
ATOM     80  F   UNL A   1      50.547  26.464  23.915  1.00  0.00    -0.200 F 
ENDBRANCH  46  70
BRANCH  58  81
ATOM     81  C   UNL A   1      45.500  33.631  29.284  1.00  0.00     0.064 A 
ATOM     82  C   UNL A   1      45.457  34.708  28.387  1.00  0.00     0.173 A 
ATOM     83  C   UNL A   1      46.279  33.771  30.443  1.00  0.00     0.173 A 
ATOM     84  F   UNL A   1      44.741  34.617  27.256  1.00  0.00    -0.203 F 
ATOM     85  C   UNL A   1      46.194  35.866  28.623  1.00  0.00     0.198 A 
ATOM     86  C   UNL A   1      46.991  34.941  30.690  1.00  0.00     0.198 A 
ATOM     87  F   UNL A   1      46.348  32.772  31.336  1.00  0.00    -0.203 F 
ATOM     88  F   UNL A   1      46.186  36.859  27.724  1.00  0.00    -0.200 F 
ATOM     89  C   UNL A   1      46.957  35.982  29.776  1.00  0.00     0.200 A 
ATOM     90  F   UNL A   1      47.719  35.056  31.809  1.00  0.00    -0.200 F 
ATOM     91  F   UNL A   1      47.670  37.095  30.000  1.00  0.00    -0.200 F 
ENDBRANCH  58  81
ENDBRANCH  32  33
ENDBRANCH  25  27
ENDBRANCH  24  25
ENDBRANCH  23  24
ENDBRANCH   1  23
TORSDOF 15
ENDMDL
