MODEL 1
REMARK VINA RESULT:     -12.7      0.000      0.000
REMARK SMILES O=C(COc1ccc(/C=C2\SC(=O)N(Cc3cc4c(cc3Cl)OCO4)C2=O)cc1)OCCOC(=O)c1ccc(-c2c3nc(c(-c4c(F)c(F)c(F)c(F)c4F)c4ccc([nH]4)c(-c4c(F)c(F)c(F)c(F)c4F)c4nc(c(-c5c(F)c(F)c(F)c(F)c5F)c5ccc2[nH]5)C=C4)C=C3)cc1
REMARK SMILES IDX 30 1 2 2 1 3 3 4 4 5 5 6 6 7 29 8 7 9 28 10 8 11 9 12 10 13
REMARK SMILES IDX 11 14 26 15 12 16 14 17 27 18 13 19 15 20 16 21 17 22 21 23
REMARK SMILES IDX 18 24 20 25 22 26 19 27 25 28 23 29 24 30 31 31 32 32 33 33
REMARK SMILES IDX 34 34 35 35 36 36 37 37 98 38 38 39 97 40 39 41 40 42 41 43
REMARK SMILES IDX 91 44 42 45 96 46 90 47 92 48 43 49 95 50 89 51 88 52 44 54
REMARK SMILES IDX 76 55 56 56 75 57 57 58 60 59 74 60 93 61 58 62 59 63 73 65
REMARK SMILES IDX 94 66 61 67 45 68 46 69 54 70 47 71 48 72 52 73 55 74 49 75
REMARK SMILES IDX 50 76 53 77 51 78 77 79 78 80 86 81 79 82 80 83 84 84 87 85
REMARK SMILES IDX 81 86 82 87 85 88 83 89 62 90 63 91 71 92 64 93 65 94 69 95
REMARK SMILES IDX 72 96 66 97 67 98 70 99 68 100
REMARK H PARENT 92 53 60 64
REMARK Flexibility Score: inf
ROOT
ATOM      1  O   UNL A   1      43.316  20.965  26.225  1.00  0.00    -0.460 OA
ENDROOT
BRANCH   1   2
ATOM      2  C   UNL A   1      42.255  20.149  26.031  1.00  0.00     0.344 C 
ATOM      3  O   UNL A   1      42.356  19.164  25.298  1.00  0.00    -0.248 OA
BRANCH   2   4
ATOM      4  C   UNL A   1      40.960  20.438  26.794  1.00  0.00     0.351 C 
BRANCH   4   5
ATOM      5  O   UNL A   1      40.754  21.763  27.268  1.00  0.00    -0.482 OA
BRANCH   5   6
ATOM      6  C   UNL A   1      39.621  22.314  26.738  1.00  0.00     0.120 A 
ATOM      7  C   UNL A   1      38.822  21.511  25.921  1.00  0.00     0.047 A 
ATOM      8  C   UNL A   1      39.281  23.642  26.973  1.00  0.00     0.047 A 
ATOM      9  C   UNL A   1      37.649  22.030  25.366  1.00  0.00     0.012 A 
ATOM     10  C   UNL A   1      38.105  24.143  26.463  1.00  0.00     0.012 A 
ATOM     11  C   UNL A   1      37.299  23.349  25.642  1.00  0.00    -0.024 A 
BRANCH  11  12
ATOM     12  C   UNL A   1      36.127  24.032  25.128  1.00  0.00     0.029 C 
ATOM     13  C   UNL A   1      34.906  23.753  25.598  1.00  0.00     0.083 C 
ATOM     14  S   UNL A   1      34.402  23.028  27.070  1.00  0.00    -0.022 SA
ATOM     15  C   UNL A   1      33.734  23.980  24.742  1.00  0.00     0.268 C 
ATOM     16  C   UNL A   1      32.711  23.416  26.743  1.00  0.00     0.293 C 
ATOM     17  N   UNL A   1      32.612  24.021  25.517  1.00  0.00    -0.264 N 
ATOM     18  O   UNL A   1      33.787  23.982  23.521  1.00  0.00    -0.268 OA
ATOM     19  O   UNL A   1      31.811  23.150  27.512  1.00  0.00    -0.261 OA
BRANCH  17  20
ATOM     20  C   UNL A   1      31.384  24.587  25.008  1.00  0.00     0.167 C 
BRANCH  20  21
ATOM     21  C   UNL A   1      31.475  26.106  25.018  1.00  0.00    -0.005 A 
ATOM     22  C   UNL A   1      31.509  26.763  26.264  1.00  0.00     0.057 A 
ATOM     23  C   UNL A   1      31.586  26.889  23.835  1.00  0.00     0.050 A 
ATOM     24  C   UNL A   1      31.638  28.137  26.275  1.00  0.00     0.166 A 
ATOM     25  C   UNL A   1      31.819  28.265  23.887  1.00  0.00     0.071 A 
ATOM     26  Cl  UNL A   1      31.345  26.262  22.249  1.00  0.00    -0.084 Cl
ATOM     27  C   UNL A   1      31.815  28.860  25.121  1.00  0.00     0.167 A 
ATOM     28  O   UNL A   1      31.585  28.939  27.373  1.00  0.00    -0.454 OA
ATOM     29  O   UNL A   1      31.919  30.195  25.350  1.00  0.00    -0.454 OA
ATOM     30  C   UNL A   1      31.554  30.239  26.744  1.00  0.00     0.468 C 
ENDBRANCH  20  21
ENDBRANCH  17  20
ENDBRANCH  11  12
ENDBRANCH   5   6
ENDBRANCH   4   5
ENDBRANCH   2   4
ENDBRANCH   1   2
BRANCH   1  31
ATOM     31  C   UNL A   1      44.304  21.208  25.205  1.00  0.00     0.274 C 
BRANCH  31  32
ATOM     32  C   UNL A   1      43.835  22.324  24.267  1.00  0.00     0.275 C 
BRANCH  32  33
ATOM     33  O   UNL A   1      43.451  23.481  25.039  1.00  0.00    -0.458 OA
BRANCH  33  34
ATOM     34  C   UNL A   1      44.407  24.424  25.250  1.00  0.00     0.338 C 
ATOM     35  O   UNL A   1      45.400  24.625  24.578  1.00  0.00    -0.246 OA
BRANCH  34  36
ATOM     36  C   UNL A   1      43.920  25.334  26.316  1.00  0.00     0.060 A 
ATOM     37  C   UNL A   1      42.944  24.868  27.209  1.00  0.00     0.016 A 
ATOM     38  C   UNL A   1      44.480  26.602  26.494  1.00  0.00     0.016 A 
ATOM     39  C   UNL A   1      42.539  25.662  28.287  1.00  0.00     0.010 A 
ATOM     40  C   UNL A   1      44.060  27.402  27.559  1.00  0.00     0.010 A 
ATOM     41  C   UNL A   1      43.083  26.942  28.460  1.00  0.00    -0.014 A 
BRANCH  41  42
ATOM     42  C   UNL A   1      42.567  27.865  29.500  1.00  0.00     0.031 A 
ATOM     43  C   UNL A   1      43.220  27.867  30.853  1.00  0.00     0.074 A 
ATOM     44  C   UNL A   1      41.489  28.639  29.274  1.00  0.00     0.049 A 
ATOM     45  N   UNL A   1      42.855  28.478  31.950  1.00  0.00    -0.248 NA
ATOM     46  C   UNL A   1      44.445  27.062  30.987  1.00  0.00     0.031 C 
ATOM     47  C   UNL A   1      40.778  28.751  28.002  1.00  0.00     0.029 A 
ATOM     48  N   UNL A   1      40.786  29.457  30.127  1.00  0.00    -0.354 N 
ATOM     49  C   UNL A   1      43.797  28.128  32.906  1.00  0.00     0.074 A 
ATOM     50  C   UNL A   1      44.744  27.240  32.267  1.00  0.00     0.031 C 
ATOM     51  C   UNL A   1      39.716  29.561  28.168  1.00  0.00     0.029 A 
ATOM     52  C   UNL A   1      39.655  29.996  29.563  1.00  0.00     0.049 A 
ATOM     53  H   UNL A   1      41.066  29.639  31.052  1.00  0.00     0.167 HD
ATOM     54  C   UNL A   1      43.867  28.513  34.201  1.00  0.00     0.037 A 
ATOM     55  C   UNL A   1      38.664  30.723  30.121  1.00  0.00     0.037 A 
ATOM     56  C   UNL A   1      42.934  29.401  34.841  1.00  0.00     0.049 A 
ATOM     57  C   UNL A   1      38.726  31.068  31.590  1.00  0.00     0.074 A 
ATOM     58  C   UNL A   1      42.969  29.899  36.132  1.00  0.00     0.029 A 
ATOM     59  N   UNL A   1      41.793  29.909  34.245  1.00  0.00    -0.354 N 
ATOM     60  N   UNL A   1      39.655  30.789  32.470  1.00  0.00    -0.248 NA
ATOM     61  C   UNL A   1      37.592  31.826  32.144  1.00  0.00     0.031 C 
ATOM     62  C   UNL A   1      41.815  30.662  36.336  1.00  0.00     0.029 A 
ATOM     63  C   UNL A   1      41.089  30.677  35.157  1.00  0.00     0.049 A 
ATOM     64  H   UNL A   1      41.522  29.748  33.311  1.00  0.00     0.167 HD
ATOM     65  C   UNL A   1      39.232  31.352  33.668  1.00  0.00     0.074 A 
ATOM     66  C   UNL A   1      37.969  32.005  33.402  1.00  0.00     0.031 C 
ATOM     67  C   UNL A   1      39.835  31.328  34.882  1.00  0.00     0.037 A 
BRANCH  54  68
ATOM     68  C   UNL A   1      44.981  27.960  35.035  1.00  0.00     0.064 A 
ATOM     69  C   UNL A   1      46.198  28.640  35.179  1.00  0.00     0.173 A 
ATOM     70  C   UNL A   1      44.796  26.774  35.760  1.00  0.00     0.173 A 
ATOM     71  F   UNL A   1      46.424  29.772  34.494  1.00  0.00    -0.203 F 
ATOM     72  C   UNL A   1      47.194  28.148  36.016  1.00  0.00     0.198 A 
ATOM     73  C   UNL A   1      45.785  26.297  36.614  1.00  0.00     0.198 A 
ATOM     74  F   UNL A   1      43.645  26.091  35.656  1.00  0.00    -0.203 F 
ATOM     75  F   UNL A   1      48.360  28.800  36.124  1.00  0.00    -0.200 F 
ATOM     76  C   UNL A   1      46.984  26.983  36.740  1.00  0.00     0.200 A 
ATOM     77  F   UNL A   1      45.575  25.177  37.319  1.00  0.00    -0.200 F 
ATOM     78  F   UNL A   1      47.937  26.521  37.559  1.00  0.00    -0.200 F 
ENDBRANCH  54  68
BRANCH  55  79
ATOM     79  C   UNL A   1      37.487  31.138  29.312  1.00  0.00     0.064 A 
ATOM     80  C   UNL A   1      37.300  32.476  28.938  1.00  0.00     0.173 A 
ATOM     81  C   UNL A   1      36.488  30.217  28.961  1.00  0.00     0.173 A 
ATOM     82  F   UNL A   1      38.210  33.400  29.281  1.00  0.00    -0.203 F 
ATOM     83  C   UNL A   1      36.147  32.882  28.270  1.00  0.00     0.198 A 
ATOM     84  C   UNL A   1      35.349  30.620  28.268  1.00  0.00     0.198 A 
ATOM     85  F   UNL A   1      36.613  28.926  29.303  1.00  0.00    -0.203 F 
ATOM     86  F   UNL A   1      35.962  34.178  27.983  1.00  0.00    -0.200 F 
ATOM     87  C   UNL A   1      35.173  31.954  27.933  1.00  0.00     0.200 A 
ATOM     88  F   UNL A   1      34.415  29.718  27.939  1.00  0.00    -0.200 F 
ATOM     89  F   UNL A   1      34.058  32.346  27.301  1.00  0.00    -0.200 F 
ENDBRANCH  55  79
BRANCH  67  90
ATOM     90  C   UNL A   1      39.154  32.038  36.015  1.00  0.00     0.064 A 
ATOM     91  C   UNL A   1      38.268  31.369  36.871  1.00  0.00     0.173 A 
ATOM     92  C   UNL A   1      39.439  33.385  36.286  1.00  0.00     0.173 A 
ATOM     93  F   UNL A   1      37.951  30.086  36.645  1.00  0.00    -0.203 F 
ATOM     94  C   UNL A   1      37.682  32.026  37.950  1.00  0.00     0.198 A 
ATOM     95  C   UNL A   1      38.873  34.031  37.383  1.00  0.00     0.198 A 
ATOM     96  F   UNL A   1      40.286  34.069  35.502  1.00  0.00    -0.203 F 
ATOM     97  F   UNL A   1      36.811  31.377  38.735  1.00  0.00    -0.200 F 
ATOM     98  C   UNL A   1      37.991  33.354  38.210  1.00  0.00     0.200 A 
ATOM     99  F   UNL A   1      39.185  35.309  37.640  1.00  0.00    -0.200 F 
ATOM    100  F   UNL A   1      37.437  33.979  39.258  1.00  0.00    -0.200 F 
ENDBRANCH  67  90
ENDBRANCH  41  42
ENDBRANCH  34  36
ENDBRANCH  33  34
ENDBRANCH  32  33
ENDBRANCH  31  32
ENDBRANCH   1  31
TORSDOF 16
ENDMDL
MODEL 2
REMARK VINA RESULT:     -12.5      5.040     11.036
REMARK SMILES O=C(COc1ccc(/C=C2\SC(=O)N(Cc3cc4c(cc3Cl)OCO4)C2=O)cc1)OCCOC(=O)c1ccc(-c2c3nc(c(-c4c(F)c(F)c(F)c(F)c4F)c4ccc([nH]4)c(-c4c(F)c(F)c(F)c(F)c4F)c4nc(c(-c5c(F)c(F)c(F)c(F)c5F)c5ccc2[nH]5)C=C4)C=C3)cc1
REMARK SMILES IDX 30 1 2 2 1 3 3 4 4 5 5 6 6 7 29 8 7 9 28 10 8 11 9 12 10 13
REMARK SMILES IDX 11 14 26 15 12 16 14 17 27 18 13 19 15 20 16 21 17 22 21 23
REMARK SMILES IDX 18 24 20 25 22 26 19 27 25 28 23 29 24 30 31 31 32 32 33 33
REMARK SMILES IDX 34 34 35 35 36 36 37 37 98 38 38 39 97 40 39 41 40 42 41 43
REMARK SMILES IDX 91 44 42 45 96 46 90 47 92 48 43 49 95 50 89 51 88 52 44 54
REMARK SMILES IDX 76 55 56 56 75 57 57 58 60 59 74 60 93 61 58 62 59 63 73 65
REMARK SMILES IDX 94 66 61 67 45 68 46 69 54 70 47 71 48 72 52 73 55 74 49 75
REMARK SMILES IDX 50 76 53 77 51 78 77 79 78 80 86 81 79 82 80 83 84 84 87 85
REMARK SMILES IDX 81 86 82 87 85 88 83 89 62 90 63 91 71 92 64 93 65 94 69 95
REMARK SMILES IDX 72 96 66 97 67 98 70 99 68 100
REMARK H PARENT 92 53 60 64
REMARK Flexibility Score: inf
ROOT
ATOM      1  O   UNL A   1      35.341  34.207  31.063  1.00  0.00    -0.460 OA
ENDROOT
BRANCH   1   2
ATOM      2  C   UNL A   1      34.409  33.822  30.162  1.00  0.00     0.344 C 
ATOM      3  O   UNL A   1      33.366  34.465  30.035  1.00  0.00    -0.248 OA
BRANCH   2   4
ATOM      4  C   UNL A   1      34.712  32.621  29.262  1.00  0.00     0.351 C 
BRANCH   4   5
ATOM      5  O   UNL A   1      34.059  32.559  28.000  1.00  0.00    -0.482 OA
BRANCH   5   6
ATOM      6  C   UNL A   1      33.808  31.268  27.628  1.00  0.00     0.120 A 
ATOM      7  C   UNL A   1      32.509  30.942  27.230  1.00  0.00     0.047 A 
ATOM      8  C   UNL A   1      34.801  30.295  27.671  1.00  0.00     0.047 A 
ATOM      9  C   UNL A   1      32.210  29.635  26.833  1.00  0.00     0.012 A 
ATOM     10  C   UNL A   1      34.519  29.019  27.239  1.00  0.00     0.012 A 
ATOM     11  C   UNL A   1      33.223  28.680  26.841  1.00  0.00    -0.024 A 
BRANCH  11  12
ATOM     12  C   UNL A   1      33.064  27.285  26.473  1.00  0.00     0.029 C 
ATOM     13  C   UNL A   1      33.044  26.910  25.190  1.00  0.00     0.083 C 
ATOM     14  S   UNL A   1      33.626  27.690  23.777  1.00  0.00    -0.022 SA
ATOM     15  C   UNL A   1      32.339  25.678  24.809  1.00  0.00     0.268 C 
ATOM     16  C   UNL A   1      33.339  26.248  22.798  1.00  0.00     0.293 C 
ATOM     17  N   UNL A   1      32.768  25.276  23.578  1.00  0.00    -0.264 N 
ATOM     18  O   UNL A   1      31.420  25.205  25.461  1.00  0.00    -0.268 OA
ATOM     19  O   UNL A   1      33.607  26.186  21.617  1.00  0.00    -0.261 OA
BRANCH  17  20
ATOM     20  C   UNL A   1      32.530  23.928  23.119  1.00  0.00     0.167 C 
BRANCH  20  21
ATOM     21  C   UNL A   1      33.499  22.973  23.801  1.00  0.00    -0.005 A 
ATOM     22  C   UNL A   1      34.854  23.011  23.416  1.00  0.00     0.057 A 
ATOM     23  C   UNL A   1      33.116  22.088  24.847  1.00  0.00     0.050 A 
ATOM     24  C   UNL A   1      35.743  22.180  24.066  1.00  0.00     0.166 A 
ATOM     25  C   UNL A   1      34.060  21.337  25.552  1.00  0.00     0.071 A 
ATOM     26  Cl  UNL A   1      31.479  21.771  25.279  1.00  0.00    -0.084 Cl
ATOM     27  C   UNL A   1      35.359  21.387  25.120  1.00  0.00     0.167 A 
ATOM     28  O   UNL A   1      37.057  22.010  23.757  1.00  0.00    -0.454 OA
ATOM     29  O   UNL A   1      36.382  20.646  25.618  1.00  0.00    -0.454 OA
ATOM     30  C   UNL A   1      37.383  20.890  24.609  1.00  0.00     0.468 C 
ENDBRANCH  20  21
ENDBRANCH  17  20
ENDBRANCH  11  12
ENDBRANCH   5   6
ENDBRANCH   4   5
ENDBRANCH   2   4
ENDBRANCH   1   2
BRANCH   1  31
ATOM     31  C   UNL A   1      35.015  34.516  32.432  1.00  0.00     0.274 C 
BRANCH  31  32
ATOM     32  C   UNL A   1      34.721  33.230  33.210  1.00  0.00     0.275 C 
BRANCH  32  33
ATOM     33  O   UNL A   1      35.660  32.203  32.830  1.00  0.00    -0.458 OA
BRANCH  33  34
ATOM     34  C   UNL A   1      36.834  32.162  33.514  1.00  0.00     0.338 C 
ATOM     35  O   UNL A   1      36.985  32.232  34.718  1.00  0.00    -0.246 OA
BRANCH  34  36
ATOM     36  C   UNL A   1      37.903  31.777  32.558  1.00  0.00     0.060 A 
ATOM     37  C   UNL A   1      39.010  31.060  33.035  1.00  0.00     0.016 A 
ATOM     38  C   UNL A   1      37.776  32.038  31.191  1.00  0.00     0.016 A 
ATOM     39  C   UNL A   1      39.982  30.592  32.144  1.00  0.00     0.010 A 
ATOM     40  C   UNL A   1      38.758  31.587  30.305  1.00  0.00     0.010 A 
ATOM     41  C   UNL A   1      39.871  30.867  30.775  1.00  0.00    -0.014 A 
BRANCH  41  42
ATOM     42  C   UNL A   1      40.957  30.517  29.828  1.00  0.00     0.031 A 
ATOM     43  C   UNL A   1      41.000  29.128  29.258  1.00  0.00     0.074 A 
ATOM     44  C   UNL A   1      41.933  31.395  29.531  1.00  0.00     0.049 A 
ATOM     45  N   UNL A   1      41.926  28.557  28.530  1.00  0.00    -0.248 NA
ATOM     46  C   UNL A   1      39.848  28.263  29.559  1.00  0.00     0.031 C 
ATOM     47  C   UNL A   1      41.999  32.779  29.993  1.00  0.00     0.029 A 
ATOM     48  N   UNL A   1      43.080  31.233  28.789  1.00  0.00    -0.354 N 
ATOM     49  C   UNL A   1      41.473  27.267  28.293  1.00  0.00     0.074 A 
ATOM     50  C   UNL A   1      40.198  27.131  28.964  1.00  0.00     0.031 C 
ATOM     51  C   UNL A   1      43.145  33.331  29.555  1.00  0.00     0.029 A 
ATOM     52  C   UNL A   1      43.908  32.330  28.811  1.00  0.00     0.049 A 
ATOM     53  H   UNL A   1      43.287  30.412  28.289  1.00  0.00     0.167 HD
ATOM     54  C   UNL A   1      42.068  26.284  27.578  1.00  0.00     0.037 A 
ATOM     55  C   UNL A   1      45.156  32.489  28.322  1.00  0.00     0.037 A 
ATOM     56  C   UNL A   1      43.330  26.414  26.903  1.00  0.00     0.049 A 
ATOM     57  C   UNL A   1      45.829  31.346  27.601  1.00  0.00     0.074 A 
ATOM     58  C   UNL A   1      43.974  25.490  26.098  1.00  0.00     0.029 A 
ATOM     59  N   UNL A   1      44.147  27.530  26.966  1.00  0.00    -0.354 N 
ATOM     60  N   UNL A   1      45.367  30.152  27.323  1.00  0.00    -0.248 NA
ATOM     61  C   UNL A   1      47.206  31.574  27.131  1.00  0.00     0.031 C 
ATOM     62  C   UNL A   1      45.210  26.025  25.723  1.00  0.00     0.029 A 
ATOM     63  C   UNL A   1      45.313  27.299  26.254  1.00  0.00     0.049 A 
ATOM     64  H   UNL A   1      43.933  28.363  27.446  1.00  0.00     0.167 HD
ATOM     65  C   UNL A   1      46.380  29.499  26.631  1.00  0.00     0.074 A 
ATOM     66  C   UNL A   1      47.478  30.433  26.515  1.00  0.00     0.031 C 
ATOM     67  C   UNL A   1      46.399  28.237  26.139  1.00  0.00     0.037 A 
BRANCH  54  68
ATOM     68  C   UNL A   1      41.374  24.959  27.502  1.00  0.00     0.064 A 
ATOM     69  C   UNL A   1      40.222  24.777  26.725  1.00  0.00     0.173 A 
ATOM     70  C   UNL A   1      41.917  23.842  28.153  1.00  0.00     0.173 A 
ATOM     71  F   UNL A   1      39.661  25.820  26.095  1.00  0.00    -0.203 F 
ATOM     72  C   UNL A   1      39.634  23.522  26.607  1.00  0.00     0.198 A 
ATOM     73  C   UNL A   1      41.339  22.584  28.015  1.00  0.00     0.198 A 
ATOM     74  F   UNL A   1      43.021  23.969  28.906  1.00  0.00    -0.203 F 
ATOM     75  F   UNL A   1      38.520  23.371  25.878  1.00  0.00    -0.200 F 
ATOM     76  C   UNL A   1      40.198  22.425  27.244  1.00  0.00     0.200 A 
ATOM     77  F   UNL A   1      41.892  21.525  28.623  1.00  0.00    -0.200 F 
ATOM     78  F   UNL A   1      39.640  21.214  27.115  1.00  0.00    -0.200 F 
ENDBRANCH  54  68
BRANCH  55  79
ATOM     79  C   UNL A   1      45.891  33.765  28.538  1.00  0.00     0.064 A 
ATOM     80  C   UNL A   1      46.620  33.992  29.714  1.00  0.00     0.173 A 
ATOM     81  C   UNL A   1      45.817  34.810  27.605  1.00  0.00     0.173 A 
ATOM     82  F   UNL A   1      46.690  33.036  30.652  1.00  0.00    -0.203 F 
ATOM     83  C   UNL A   1      47.221  35.224  29.961  1.00  0.00     0.198 A 
ATOM     84  C   UNL A   1      46.444  36.031  27.840  1.00  0.00     0.198 A 
ATOM     85  F   UNL A   1      45.125  34.649  26.467  1.00  0.00    -0.203 F 
ATOM     86  F   UNL A   1      47.855  35.437  31.123  1.00  0.00    -0.200 F 
ATOM     87  C   UNL A   1      47.135  36.242  29.024  1.00  0.00     0.200 A 
ATOM     88  F   UNL A   1      46.363  37.010  26.929  1.00  0.00    -0.200 F 
ATOM     89  F   UNL A   1      47.703  37.431  29.267  1.00  0.00    -0.200 F 
ENDBRANCH  55  79
BRANCH  67  90
ATOM     90  C   UNL A   1      47.634  27.788  25.413  1.00  0.00     0.064 A 
ATOM     91  C   UNL A   1      48.756  27.311  26.105  1.00  0.00     0.173 A 
ATOM     92  C   UNL A   1      47.671  27.775  24.011  1.00  0.00     0.173 A 
ATOM     93  F   UNL A   1      48.776  27.320  27.446  1.00  0.00    -0.203 F 
ATOM     94  C   UNL A   1      49.877  26.850  25.419  1.00  0.00     0.198 A 
ATOM     95  C   UNL A   1      48.783  27.286  23.328  1.00  0.00     0.198 A 
ATOM     96  F   UNL A   1      46.620  28.213  23.302  1.00  0.00    -0.203 F 
ATOM     97  F   UNL A   1      50.953  26.432  26.100  1.00  0.00    -0.200 F 
ATOM     98  C   UNL A   1      49.886  26.829  24.031  1.00  0.00     0.200 A 
ATOM     99  F   UNL A   1      48.782  27.253  21.988  1.00  0.00    -0.200 F 
ATOM    100  F   UNL A   1      50.960  26.371  23.374  1.00  0.00    -0.200 F 
ENDBRANCH  67  90
ENDBRANCH  41  42
ENDBRANCH  34  36
ENDBRANCH  33  34
ENDBRANCH  32  33
ENDBRANCH  31  32
ENDBRANCH   1  31
TORSDOF 16
ENDMDL
MODEL 3
REMARK VINA RESULT:     -12.4      5.063     10.907
REMARK SMILES O=C(COc1ccc(/C=C2\SC(=O)N(Cc3cc4c(cc3Cl)OCO4)C2=O)cc1)OCCOC(=O)c1ccc(-c2c3nc(c(-c4c(F)c(F)c(F)c(F)c4F)c4ccc([nH]4)c(-c4c(F)c(F)c(F)c(F)c4F)c4nc(c(-c5c(F)c(F)c(F)c(F)c5F)c5ccc2[nH]5)C=C4)C=C3)cc1
REMARK SMILES IDX 30 1 2 2 1 3 3 4 4 5 5 6 6 7 29 8 7 9 28 10 8 11 9 12 10 13
REMARK SMILES IDX 11 14 26 15 12 16 14 17 27 18 13 19 15 20 16 21 17 22 21 23
REMARK SMILES IDX 18 24 20 25 22 26 19 27 25 28 23 29 24 30 31 31 32 32 33 33
REMARK SMILES IDX 34 34 35 35 36 36 37 37 98 38 38 39 97 40 39 41 40 42 41 43
REMARK SMILES IDX 91 44 42 45 96 46 90 47 92 48 43 49 95 50 89 51 88 52 44 54
REMARK SMILES IDX 76 55 56 56 75 57 57 58 60 59 74 60 93 61 58 62 59 63 73 65
REMARK SMILES IDX 94 66 61 67 45 68 46 69 54 70 47 71 48 72 52 73 55 74 49 75
REMARK SMILES IDX 50 76 53 77 51 78 77 79 78 80 86 81 79 82 80 83 84 84 87 85
REMARK SMILES IDX 81 86 82 87 85 88 83 89 62 90 63 91 71 92 64 93 65 94 69 95
REMARK SMILES IDX 72 96 66 97 67 98 70 99 68 100
REMARK H PARENT 92 53 60 64
REMARK Flexibility Score: inf
ROOT
ATOM      1  O   UNL A   1      34.512  34.907  30.524  1.00  0.00    -0.460 OA
ENDROOT
BRANCH   1   2
ATOM      2  C   UNL A   1      33.632  34.359  29.655  1.00  0.00     0.344 C 
ATOM      3  O   UNL A   1      32.553  34.910  29.435  1.00  0.00    -0.248 OA
BRANCH   2   4
ATOM      4  C   UNL A   1      34.038  33.088  28.905  1.00  0.00     0.351 C 
BRANCH   4   5
ATOM      5  O   UNL A   1      33.458  32.862  27.625  1.00  0.00    -0.482 OA
BRANCH   5   6
ATOM      6  C   UNL A   1      33.386  31.528  27.336  1.00  0.00     0.120 A 
ATOM      7  C   UNL A   1      34.544  30.761  27.490  1.00  0.00     0.047 A 
ATOM      8  C   UNL A   1      32.211  30.949  26.872  1.00  0.00     0.047 A 
ATOM      9  C   UNL A   1      34.514  29.391  27.214  1.00  0.00     0.012 A 
ATOM     10  C   UNL A   1      32.167  29.592  26.641  1.00  0.00     0.012 A 
ATOM     11  C   UNL A   1      33.320  28.816  26.789  1.00  0.00    -0.024 A 
BRANCH  11  12
ATOM     12  C   UNL A   1      33.137  27.417  26.451  1.00  0.00     0.029 C 
ATOM     13  C   UNL A   1      33.116  27.014  25.176  1.00  0.00     0.083 C 
ATOM     14  S   UNL A   1      33.720  27.753  23.749  1.00  0.00    -0.022 SA
ATOM     15  C   UNL A   1      32.391  25.788  24.817  1.00  0.00     0.268 C 
ATOM     16  C   UNL A   1      33.412  26.296  22.800  1.00  0.00     0.293 C 
ATOM     17  N   UNL A   1      32.819  25.352  23.598  1.00  0.00    -0.264 N 
ATOM     18  O   UNL A   1      31.460  25.345  25.474  1.00  0.00    -0.268 OA
ATOM     19  O   UNL A   1      33.684  26.204  21.622  1.00  0.00    -0.261 OA
BRANCH  17  20
ATOM     20  C   UNL A   1      32.559  23.998  23.166  1.00  0.00     0.167 C 
BRANCH  20  21
ATOM     21  C   UNL A   1      33.531  23.045  23.846  1.00  0.00    -0.005 A 
ATOM     22  C   UNL A   1      34.879  23.065  23.437  1.00  0.00     0.057 A 
ATOM     23  C   UNL A   1      33.159  22.180  24.913  1.00  0.00     0.050 A 
ATOM     24  C   UNL A   1      35.772  22.235  24.084  1.00  0.00     0.166 A 
ATOM     25  C   UNL A   1      34.107  21.431  25.613  1.00  0.00     0.071 A 
ATOM     26  Cl  UNL A   1      31.526  21.886  25.378  1.00  0.00    -0.084 Cl
ATOM     27  C   UNL A   1      35.399  21.463  25.158  1.00  0.00     0.167 A 
ATOM     28  O   UNL A   1      37.078  22.048  23.756  1.00  0.00    -0.454 OA
ATOM     29  O   UNL A   1      36.424  20.719  25.649  1.00  0.00    -0.454 OA
ATOM     30  C   UNL A   1      37.409  20.939  24.619  1.00  0.00     0.468 C 
ENDBRANCH  20  21
ENDBRANCH  17  20
ENDBRANCH  11  12
ENDBRANCH   5   6
ENDBRANCH   4   5
ENDBRANCH   2   4
ENDBRANCH   1   2
BRANCH   1  31
ATOM     31  C   UNL A   1      34.191  35.141  31.908  1.00  0.00     0.274 C 
BRANCH  31  32
ATOM     32  C   UNL A   1      35.398  34.821  32.795  1.00  0.00     0.275 C 
BRANCH  32  33
ATOM     33  O   UNL A   1      36.333  33.997  32.068  1.00  0.00    -0.458 OA
BRANCH  33  34
ATOM     34  C   UNL A   1      36.355  32.673  32.378  1.00  0.00     0.338 C 
ATOM     35  O   UNL A   1      35.473  32.030  32.912  1.00  0.00    -0.246 OA
BRANCH  34  36
ATOM     36  C   UNL A   1      37.556  32.078  31.740  1.00  0.00     0.060 A 
ATOM     37  C   UNL A   1      38.478  31.391  32.544  1.00  0.00     0.016 A 
ATOM     38  C   UNL A   1      37.730  32.115  30.354  1.00  0.00     0.016 A 
ATOM     39  C   UNL A   1      39.564  30.729  31.961  1.00  0.00     0.010 A 
ATOM     40  C   UNL A   1      38.827  31.471  29.775  1.00  0.00     0.010 A 
ATOM     41  C   UNL A   1      39.755  30.779  30.574  1.00  0.00    -0.014 A 
BRANCH  41  42
ATOM     42  C   UNL A   1      40.974  30.219  29.943  1.00  0.00     0.031 A 
ATOM     43  C   UNL A   1      42.128  31.137  29.659  1.00  0.00     0.074 A 
ATOM     44  C   UNL A   1      41.033  28.930  29.561  1.00  0.00     0.049 A 
ATOM     45  N   UNL A   1      43.230  30.905  28.993  1.00  0.00    -0.248 NA
ATOM     46  C   UNL A   1      42.020  32.505  30.191  1.00  0.00     0.031 C 
ATOM     47  C   UNL A   1      39.996  27.927  29.798  1.00  0.00     0.029 A 
ATOM     48  N   UNL A   1      42.002  28.252  28.859  1.00  0.00    -0.354 N 
ATOM     49  C   UNL A   1      43.941  32.096  29.018  1.00  0.00     0.074 A 
ATOM     50  C   UNL A   1      43.144  33.054  29.752  1.00  0.00     0.031 C 
ATOM     51  C   UNL A   1      40.368  26.771  29.218  1.00  0.00     0.029 A 
ATOM     52  C   UNL A   1      41.651  26.962  28.543  1.00  0.00     0.049 A 
ATOM     53  H   UNL A   1      42.865  28.653  28.608  1.00  0.00     0.167 HD
ATOM     54  C   UNL A   1      45.152  32.365  28.477  1.00  0.00     0.037 A 
ATOM     55  C   UNL A   1      42.276  26.055  27.763  1.00  0.00     0.037 A 
ATOM     56  C   UNL A   1      45.953  31.416  27.753  1.00  0.00     0.049 A 
ATOM     57  C   UNL A   1      43.587  26.412  27.103  1.00  0.00     0.074 A 
ATOM     58  C   UNL A   1      47.224  31.585  27.230  1.00  0.00     0.029 A 
ATOM     59  N   UNL A   1      45.556  30.128  27.435  1.00  0.00    -0.354 N 
ATOM     60  N   UNL A   1      44.285  27.518  27.187  1.00  0.00    -0.248 NA
ATOM     61  C   UNL A   1      44.193  25.392  26.231  1.00  0.00     0.031 C 
ATOM     62  C   UNL A   1      47.571  30.418  26.543  1.00  0.00     0.029 A 
ATOM     63  C   UNL A   1      46.537  29.507  26.681  1.00  0.00     0.049 A 
ATOM     64  H   UNL A   1      44.703  29.715  27.705  1.00  0.00     0.167 HD
ATOM     65  C   UNL A   1      45.415  27.320  26.403  1.00  0.00     0.074 A 
ATOM     66  C   UNL A   1      45.321  25.981  25.862  1.00  0.00     0.031 C 
ATOM     67  C   UNL A   1      46.438  28.172  26.151  1.00  0.00     0.037 A 
BRANCH  54  68
ATOM     68  C   UNL A   1      45.688  33.756  28.623  1.00  0.00     0.064 A 
ATOM     69  C   UNL A   1      45.388  34.759  27.693  1.00  0.00     0.173 A 
ATOM     70  C   UNL A   1      46.445  34.103  29.752  1.00  0.00     0.173 A 
ATOM     71  F   UNL A   1      44.678  34.470  26.592  1.00  0.00    -0.203 F 
ATOM     72  C   UNL A   1      45.834  36.064  27.884  1.00  0.00     0.198 A 
ATOM     73  C   UNL A   1      46.870  35.412  29.951  1.00  0.00     0.198 A 
ATOM     74  F   UNL A   1      46.753  33.175  30.671  1.00  0.00    -0.203 F 
ATOM     75  F   UNL A   1      45.557  37.006  26.972  1.00  0.00    -0.200 F 
ATOM     76  C   UNL A   1      46.566  36.391  29.017  1.00  0.00     0.200 A 
ATOM     77  F   UNL A   1      47.567  35.728  31.051  1.00  0.00    -0.200 F 
ATOM     78  F   UNL A   1      46.978  37.651  29.208  1.00  0.00    -0.200 F 
ENDBRANCH  54  68
BRANCH  55  79
ATOM     79  C   UNL A   1      41.655  24.728  27.505  1.00  0.00     0.064 A 
ATOM     80  C   UNL A   1      40.495  24.609  26.727  1.00  0.00     0.173 A 
ATOM     81  C   UNL A   1      42.167  23.562  28.095  1.00  0.00     0.173 A 
ATOM     82  F   UNL A   1      39.948  25.700  26.172  1.00  0.00    -0.203 F 
ATOM     83  C   UNL A   1      39.855  23.381  26.573  1.00  0.00     0.198 A 
ATOM     84  C   UNL A   1      41.542  22.330  27.915  1.00  0.00     0.198 A 
ATOM     85  F   UNL A   1      43.270  23.622  28.857  1.00  0.00    -0.203 F 
ATOM     86  F   UNL A   1      38.711  23.307  25.879  1.00  0.00    -0.200 F 
ATOM     87  C   UNL A   1      40.380  22.243  27.164  1.00  0.00     0.200 A 
ATOM     88  F   UNL A   1      42.057  21.232  28.483  1.00  0.00    -0.200 F 
ATOM     89  F   UNL A   1      39.758  21.064  27.025  1.00  0.00    -0.200 F 
ENDBRANCH  55  79
BRANCH  67  90
ATOM     90  C   UNL A   1      47.550  27.688  25.268  1.00  0.00     0.064 A 
ATOM     91  C   UNL A   1      47.490  27.823  23.874  1.00  0.00     0.173 A 
ATOM     92  C   UNL A   1      48.717  27.140  25.825  1.00  0.00     0.173 A 
ATOM     93  F   UNL A   1      46.390  28.325  23.292  1.00  0.00    -0.203 F 
ATOM     94  C   UNL A   1      48.550  27.416  23.068  1.00  0.00     0.198 A 
ATOM     95  C   UNL A   1      49.787  26.761  25.018  1.00  0.00     0.198 A 
ATOM     96  F   UNL A   1      48.828  26.997  27.154  1.00  0.00    -0.203 F 
ATOM     97  F   UNL A   1      48.457  27.522  21.736  1.00  0.00    -0.200 F 
ATOM     98  C   UNL A   1      49.701  26.894  23.642  1.00  0.00     0.200 A 
ATOM     99  F   UNL A   1      50.903  26.271  25.576  1.00  0.00    -0.200 F 
ATOM    100  F   UNL A   1      50.726  26.517  22.865  1.00  0.00    -0.200 F 
ENDBRANCH  67  90
ENDBRANCH  41  42
ENDBRANCH  34  36
ENDBRANCH  33  34
ENDBRANCH  32  33
ENDBRANCH  31  32
ENDBRANCH   1  31
TORSDOF 16
ENDMDL
