MODEL 1
REMARK VINA RESULT:     -12.9      0.000      0.000
REMARK SMILES COc1ccc(OC)c(N2C(=O)c3ccc(C(=O)OCCOC(=O)c4ccc(-c5c6nc(c(-c7c(F)c(F)c(F)c(F)c7F)c7ccc([nH]7)c(-c7c(F)c(F)c(F)c(F)c7F)c7nc(c(-c8c(F)c(F)c(F)c(F)c8F)c8ccc5[nH]8)C=C7)C=C6)cc4)cc3C2=O)c1
REMARK SMILES IDX 20 1 19 2 17 3 18 4 16 5 10 6 11 7 90 8 12 9 13 10 89 11
REMARK SMILES IDX 91 12 14 13 88 14 15 15 9 16 3 17 4 18 92 19 5 20 6 21 2 22
REMARK SMILES IDX 1 23 7 24 8 25 21 26 22 27 23 28 24 29 25 30 26 31 87 32
REMARK SMILES IDX 27 33 86 34 28 35 29 36 30 37 80 38 31 39 85 40 79 41 81 42
REMARK SMILES IDX 32 43 84 44 78 45 77 46 33 48 65 49 45 50 64 51 46 52 49 53
REMARK SMILES IDX 63 54 82 55 47 56 48 57 62 59 83 60 50 61 34 62 35 63 43 64
REMARK SMILES IDX 36 65 37 66 41 67 44 68 38 69 39 70 42 71 40 72 66 73 67 74
REMARK SMILES IDX 75 75 68 76 69 77 73 78 76 79 70 80 71 81 74 82 72 83 51 84
REMARK SMILES IDX 52 85 60 86 53 87 54 88 58 89 61 90 55 91 56 92 59 93 57 94
REMARK H PARENT 81 47 49 58
REMARK Flexibility Score: inf
ROOT
ATOM      1  C   UNL A   1      35.227  20.632  25.429  1.00  0.00     0.275 C 
ENDROOT
BRANCH   1   2
ATOM      2  O   UNL A   1      34.286  19.927  24.593  1.00  0.00    -0.458 OA
BRANCH   2   3
ATOM      3  C   UNL A   1      32.992  20.214  24.836  1.00  0.00     0.338 C 
ATOM      4  O   UNL A   1      32.153  19.510  25.374  1.00  0.00    -0.246 OA
BRANCH   3   5
ATOM      5  C   UNL A   1      32.676  21.595  24.446  1.00  0.00     0.060 A 
ATOM      6  N   UNL A   1      32.491  26.164  24.843  1.00  0.00    -0.238 N 
ATOM      7  C   UNL A   1      32.919  25.652  23.636  1.00  0.00     0.266 C 
ATOM      8  C   UNL A   1      32.223  25.129  25.716  1.00  0.00     0.266 C 
ATOM      9  O   UNL A   1      33.378  26.174  22.633  1.00  0.00    -0.268 OA
ATOM     10  C   UNL A   1      32.815  24.215  23.713  1.00  0.00     0.053 A 
ATOM     11  C   UNL A   1      32.508  23.882  25.011  1.00  0.00     0.054 A 
ATOM     12  O   UNL A   1      31.689  25.061  26.805  1.00  0.00    -0.268 OA
ATOM     13  C   UNL A   1      32.969  23.283  22.715  1.00  0.00     0.015 A 
ATOM     14  C   UNL A   1      32.463  22.564  25.431  1.00  0.00     0.030 A 
ATOM     15  C   UNL A   1      32.850  21.952  23.091  1.00  0.00     0.016 A 
BRANCH   6  16
ATOM     16  C   UNL A   1      32.319  27.571  25.049  1.00  0.00     0.098 A 
ATOM     17  C   UNL A   1      33.199  29.570  26.204  1.00  0.00     0.121 A 
ATOM     18  C   UNL A   1      32.112  30.306  25.753  1.00  0.00     0.050 A 
ATOM     19  C   UNL A   1      33.313  28.243  25.799  1.00  0.00     0.077 A 
ATOM     20  C   UNL A   1      31.137  29.699  24.947  1.00  0.00     0.052 A 
ATOM     21  C   UNL A   1      31.225  28.334  24.612  1.00  0.00     0.143 A 
BRANCH  17  22
ATOM     22  O   UNL A   1      34.070  30.211  27.044  1.00  0.00    -0.497 OA
ATOM     23  C   UNL A   1      35.056  29.401  27.690  1.00  0.00     0.278 C 
ENDBRANCH  17  22
BRANCH  21  24
ATOM     24  O   UNL A   1      30.093  27.742  24.113  1.00  0.00    -0.495 OA
ATOM     25  C   UNL A   1      29.698  28.263  22.842  1.00  0.00     0.278 C 
ENDBRANCH  21  24
ENDBRANCH   6  16
ENDBRANCH   3   5
ENDBRANCH   2   3
ENDBRANCH   1   2
BRANCH   1  26
ATOM     26  C   UNL A   1      36.661  20.332  25.001  1.00  0.00     0.275 C 
BRANCH  26  27
ATOM     27  O   UNL A   1      37.504  21.481  25.217  1.00  0.00    -0.458 OA
BRANCH  27  28
ATOM     28  C   UNL A   1      38.695  21.216  25.796  1.00  0.00     0.338 C 
ATOM     29  O   UNL A   1      39.328  20.173  25.756  1.00  0.00    -0.246 OA
BRANCH  28  30
ATOM     30  C   UNL A   1      39.228  22.407  26.476  1.00  0.00     0.060 A 
ATOM     31  C   UNL A   1      38.705  23.661  26.165  1.00  0.00     0.016 A 
ATOM     32  C   UNL A   1      40.398  22.301  27.227  1.00  0.00     0.016 A 
ATOM     33  C   UNL A   1      39.438  24.805  26.471  1.00  0.00     0.010 A 
ATOM     34  C   UNL A   1      41.046  23.461  27.666  1.00  0.00     0.010 A 
ATOM     35  C   UNL A   1      40.601  24.729  27.257  1.00  0.00    -0.014 A 
BRANCH  35  36
ATOM     36  C   UNL A   1      41.328  25.970  27.663  1.00  0.00     0.031 A 
ATOM     37  C   UNL A   1      40.649  27.036  28.487  1.00  0.00     0.074 A 
ATOM     38  C   UNL A   1      42.607  26.153  27.272  1.00  0.00     0.049 A 
ATOM     39  N   UNL A   1      41.047  28.256  28.755  1.00  0.00    -0.248 NA
ATOM     40  C   UNL A   1      39.346  26.694  29.079  1.00  0.00     0.031 C 
ATOM     41  C   UNL A   1      43.402  25.200  26.496  1.00  0.00     0.029 A 
ATOM     42  N   UNL A   1      43.467  27.205  27.475  1.00  0.00    -0.354 N 
ATOM     43  C   UNL A   1      40.025  28.843  29.492  1.00  0.00     0.074 A 
ATOM     44  C   UNL A   1      38.985  27.846  29.633  1.00  0.00     0.031 C 
ATOM     45  C   UNL A   1      44.638  25.686  26.325  1.00  0.00     0.029 A 
ATOM     46  C   UNL A   1      44.694  27.032  26.877  1.00  0.00     0.049 A 
ATOM     47  H   UNL A   1      43.229  28.006  27.997  1.00  0.00     0.167 HD
ATOM     48  C   UNL A   1      39.961  30.099  29.997  1.00  0.00     0.037 A 
ATOM     49  C   UNL A   1      45.731  27.877  26.729  1.00  0.00     0.037 A 
ATOM     50  C   UNL A   1      41.024  31.069  29.905  1.00  0.00     0.049 A 
ATOM     51  C   UNL A   1      45.619  29.272  27.272  1.00  0.00     0.074 A 
ATOM     52  C   UNL A   1      41.065  32.356  30.415  1.00  0.00     0.029 A 
ATOM     53  N   UNL A   1      42.239  30.854  29.271  1.00  0.00    -0.354 N 
ATOM     54  N   UNL A   1      44.630  29.827  27.926  1.00  0.00    -0.248 NA
ATOM     55  C   UNL A   1      46.761  30.164  27.035  1.00  0.00     0.031 C 
ATOM     56  C   UNL A   1      42.287  32.934  30.054  1.00  0.00     0.029 A 
ATOM     57  C   UNL A   1      43.027  31.991  29.362  1.00  0.00     0.049 A 
ATOM     58  H   UNL A   1      42.502  30.017  28.825  1.00  0.00     0.167 HD
ATOM     59  C   UNL A   1      45.033  31.128  28.190  1.00  0.00     0.074 A 
ATOM     60  C   UNL A   1      46.368  31.271  27.647  1.00  0.00     0.031 C 
ATOM     61  C   UNL A   1      44.355  32.117  28.818  1.00  0.00     0.037 A 
BRANCH  48  62
ATOM     62  C   UNL A   1      38.690  30.528  30.678  1.00  0.00     0.064 A 
ATOM     63  C   UNL A   1      38.546  30.500  32.071  1.00  0.00     0.173 A 
ATOM     64  C   UNL A   1      37.631  31.054  29.920  1.00  0.00     0.173 A 
ATOM     65  F   UNL A   1      39.524  30.001  32.842  1.00  0.00    -0.203 F 
ATOM     66  C   UNL A   1      37.383  30.970  32.681  1.00  0.00     0.198 A 
ATOM     67  C   UNL A   1      36.482  31.547  30.534  1.00  0.00     0.198 A 
ATOM     68  F   UNL A   1      37.721  31.112  28.583  1.00  0.00    -0.203 F 
ATOM     69  F   UNL A   1      37.255  30.906  34.013  1.00  0.00    -0.200 F 
ATOM     70  C   UNL A   1      36.357  31.501  31.913  1.00  0.00     0.200 A 
ATOM     71  F   UNL A   1      35.500  32.074  29.789  1.00  0.00    -0.200 F 
ATOM     72  F   UNL A   1      35.248  31.967  32.502  1.00  0.00    -0.200 F 
ENDBRANCH  48  62
BRANCH  49  73
ATOM     73  C   UNL A   1      46.938  27.441  25.977  1.00  0.00     0.064 A 
ATOM     74  C   UNL A   1      48.016  26.832  26.631  1.00  0.00     0.173 A 
ATOM     75  C   UNL A   1      47.036  27.626  24.589  1.00  0.00     0.173 A 
ATOM     76  F   UNL A   1      47.981  26.658  27.960  1.00  0.00    -0.203 F 
ATOM     77  C   UNL A   1      49.153  26.437  25.927  1.00  0.00     0.198 A 
ATOM     78  C   UNL A   1      48.155  27.196  23.882  1.00  0.00     0.198 A 
ATOM     79  F   UNL A   1      46.030  28.203  23.915  1.00  0.00    -0.203 F 
ATOM     80  F   UNL A   1      50.190  25.901  26.584  1.00  0.00    -0.200 F 
ATOM     81  C   UNL A   1      49.217  26.611  24.552  1.00  0.00     0.200 A 
ATOM     82  F   UNL A   1      48.203  27.349  22.552  1.00  0.00    -0.200 F 
ATOM     83  F   UNL A   1      50.306  26.221  23.877  1.00  0.00    -0.200 F 
ENDBRANCH  49  73
BRANCH  61  84
ATOM     84  C   UNL A   1      45.061  33.430  28.978  1.00  0.00     0.064 A 
ATOM     85  C   UNL A   1      45.892  33.689  30.077  1.00  0.00     0.173 A 
ATOM     86  C   UNL A   1      44.916  34.436  28.010  1.00  0.00     0.173 A 
ATOM     87  F   UNL A   1      46.046  32.765  31.038  1.00  0.00    -0.203 F 
ATOM     88  C   UNL A   1      46.529  34.918  30.218  1.00  0.00     0.198 A 
ATOM     89  C   UNL A   1      45.578  35.653  28.139  1.00  0.00     0.198 A 
ATOM     90  F   UNL A   1      44.136  34.236  26.937  1.00  0.00    -0.203 F 
ATOM     91  F   UNL A   1      47.275  35.163  31.303  1.00  0.00    -0.200 F 
ATOM     92  C   UNL A   1      46.377  35.896  29.246  1.00  0.00     0.200 A 
ATOM     93  F   UNL A   1      45.438  36.593  27.195  1.00  0.00    -0.200 F 
ATOM     94  F   UNL A   1      46.993  37.079  29.383  1.00  0.00    -0.200 F 
ENDBRANCH  61  84
ENDBRANCH  35  36
ENDBRANCH  28  30
ENDBRANCH  27  28
ENDBRANCH  26  27
ENDBRANCH   1  26
TORSDOF 14
ENDMDL
MODEL 2
REMARK VINA RESULT:     -12.8      0.869      1.967
REMARK SMILES COc1ccc(OC)c(N2C(=O)c3ccc(C(=O)OCCOC(=O)c4ccc(-c5c6nc(c(-c7c(F)c(F)c(F)c(F)c7F)c7ccc([nH]7)c(-c7c(F)c(F)c(F)c(F)c7F)c7nc(c(-c8c(F)c(F)c(F)c(F)c8F)c8ccc5[nH]8)C=C7)C=C6)cc4)cc3C2=O)c1
REMARK SMILES IDX 20 1 19 2 17 3 18 4 16 5 10 6 11 7 90 8 12 9 13 10 89 11
REMARK SMILES IDX 91 12 14 13 88 14 15 15 9 16 3 17 4 18 92 19 5 20 6 21 2 22
REMARK SMILES IDX 1 23 7 24 8 25 21 26 22 27 23 28 24 29 25 30 26 31 87 32
REMARK SMILES IDX 27 33 86 34 28 35 29 36 30 37 80 38 31 39 85 40 79 41 81 42
REMARK SMILES IDX 32 43 84 44 78 45 77 46 33 48 65 49 45 50 64 51 46 52 49 53
REMARK SMILES IDX 63 54 82 55 47 56 48 57 62 59 83 60 50 61 34 62 35 63 43 64
REMARK SMILES IDX 36 65 37 66 41 67 44 68 38 69 39 70 42 71 40 72 66 73 67 74
REMARK SMILES IDX 75 75 68 76 69 77 73 78 76 79 70 80 71 81 74 82 72 83 51 84
REMARK SMILES IDX 52 85 60 86 53 87 54 88 58 89 61 90 55 91 56 92 59 93 57 94
REMARK H PARENT 81 47 49 58
REMARK Flexibility Score: inf
ROOT
ATOM      1  C   UNL A   1      35.032  20.650  25.275  1.00  0.00     0.275 C 
ENDROOT
BRANCH   1   2
ATOM      2  O   UNL A   1      34.194  19.683  24.609  1.00  0.00    -0.458 OA
BRANCH   2   3
ATOM      3  C   UNL A   1      32.875  19.821  24.850  1.00  0.00     0.338 C 
ATOM      4  O   UNL A   1      32.154  19.102  25.523  1.00  0.00    -0.246 OA
BRANCH   3   5
ATOM      5  C   UNL A   1      32.358  21.061  24.257  1.00  0.00     0.060 A 
ATOM      6  N   UNL A   1      31.408  25.544  23.988  1.00  0.00    -0.238 N 
ATOM      7  C   UNL A   1      31.974  24.951  22.878  1.00  0.00     0.266 C 
ATOM      8  C   UNL A   1      31.270  24.608  24.993  1.00  0.00     0.266 C 
ATOM      9  O   UNL A   1      32.392  25.400  21.824  1.00  0.00    -0.268 OA
ATOM     10  C   UNL A   1      32.103  23.541  23.159  1.00  0.00     0.053 A 
ATOM     11  C   UNL A   1      31.790  23.343  24.483  1.00  0.00     0.054 A 
ATOM     12  O   UNL A   1      30.700  24.601  26.066  1.00  0.00    -0.268 OA
ATOM     13  C   UNL A   1      32.458  22.521  22.310  1.00  0.00     0.015 A 
ATOM     14  C   UNL A   1      31.939  22.106  25.086  1.00  0.00     0.030 A 
ATOM     15  C   UNL A   1      32.539  21.253  22.870  1.00  0.00     0.016 A 
BRANCH   6  16
ATOM     16  C   UNL A   1      30.998  26.916  23.985  1.00  0.00     0.098 A 
ATOM     17  C   UNL A   1      29.241  28.501  23.277  1.00  0.00     0.121 A 
ATOM     18  C   UNL A   1      30.031  29.562  23.696  1.00  0.00     0.050 A 
ATOM     19  C   UNL A   1      29.708  27.207  23.481  1.00  0.00     0.077 A 
ATOM     20  C   UNL A   1      31.289  29.318  24.268  1.00  0.00     0.052 A 
ATOM     21  C   UNL A   1      31.783  28.006  24.394  1.00  0.00     0.143 A 
BRANCH  17  22
ATOM     22  O   UNL A   1      28.058  28.821  22.664  1.00  0.00    -0.497 OA
ATOM     23  C   UNL A   1      28.029  30.036  21.912  1.00  0.00     0.278 C 
ENDBRANCH  17  22
BRANCH  21  24
ATOM     24  O   UNL A   1      33.124  27.867  24.647  1.00  0.00    -0.495 OA
ATOM     25  C   UNL A   1      33.947  28.205  23.528  1.00  0.00     0.278 C 
ENDBRANCH  21  24
ENDBRANCH   6  16
ENDBRANCH   3   5
ENDBRANCH   2   3
ENDBRANCH   1   2
BRANCH   1  26
ATOM     26  C   UNL A   1      36.507  20.367  25.002  1.00  0.00     0.275 C 
BRANCH  26  27
ATOM     27  O   UNL A   1      37.309  21.526  25.307  1.00  0.00    -0.458 OA
BRANCH  27  28
ATOM     28  C   UNL A   1      38.532  21.257  25.814  1.00  0.00     0.338 C 
ATOM     29  O   UNL A   1      39.171  20.222  25.711  1.00  0.00    -0.246 OA
BRANCH  28  30
ATOM     30  C   UNL A   1      39.090  22.435  26.495  1.00  0.00     0.060 A 
ATOM     31  C   UNL A   1      38.596  23.700  26.187  1.00  0.00     0.016 A 
ATOM     32  C   UNL A   1      40.258  22.302  27.247  1.00  0.00     0.016 A 
ATOM     33  C   UNL A   1      39.353  24.828  26.495  1.00  0.00     0.010 A 
ATOM     34  C   UNL A   1      40.930  23.447  27.688  1.00  0.00     0.010 A 
ATOM     35  C   UNL A   1      40.514  24.725  27.281  1.00  0.00    -0.014 A 
BRANCH  35  36
ATOM     36  C   UNL A   1      41.268  25.949  27.689  1.00  0.00     0.031 A 
ATOM     37  C   UNL A   1      40.616  27.023  28.525  1.00  0.00     0.074 A 
ATOM     38  C   UNL A   1      42.548  26.110  27.291  1.00  0.00     0.049 A 
ATOM     39  N   UNL A   1      41.039  28.234  28.797  1.00  0.00    -0.248 NA
ATOM     40  C   UNL A   1      39.310  26.704  29.123  1.00  0.00     0.031 C 
ATOM     41  C   UNL A   1      43.319  25.145  26.504  1.00  0.00     0.029 A 
ATOM     42  N   UNL A   1      43.430  27.143  27.494  1.00  0.00    -0.354 N 
ATOM     43  C   UNL A   1      40.033  28.836  29.543  1.00  0.00     0.074 A 
ATOM     44  C   UNL A   1      38.975  27.859  29.686  1.00  0.00     0.031 C 
ATOM     45  C   UNL A   1      44.562  25.608  26.328  1.00  0.00     0.029 A 
ATOM     46  C   UNL A   1      44.649  26.949  26.887  1.00  0.00     0.049 A 
ATOM     47  H   UNL A   1      43.211  27.946  28.023  1.00  0.00     0.167 HD
ATOM     48  C   UNL A   1      39.997  30.090  30.056  1.00  0.00     0.037 A 
ATOM     49  C   UNL A   1      45.701  27.774  26.738  1.00  0.00     0.037 A 
ATOM     50  C   UNL A   1      41.078  31.040  29.963  1.00  0.00     0.049 A 
ATOM     51  C   UNL A   1      45.620  29.168  27.290  1.00  0.00     0.074 A 
ATOM     52  C   UNL A   1      41.148  32.323  30.480  1.00  0.00     0.029 A 
ATOM     53  N   UNL A   1      42.285  30.804  29.320  1.00  0.00    -0.354 N 
ATOM     54  N   UNL A   1      44.647  29.739  27.953  1.00  0.00    -0.248 NA
ATOM     55  C   UNL A   1      46.778  30.039  27.050  1.00  0.00     0.031 C 
ATOM     56  C   UNL A   1      42.379  32.878  30.114  1.00  0.00     0.029 A 
ATOM     57  C   UNL A   1      43.096  31.925  29.412  1.00  0.00     0.049 A 
ATOM     58  H   UNL A   1      42.529  29.965  28.867  1.00  0.00     0.167 HD
ATOM     59  C   UNL A   1      45.077  31.030  28.222  1.00  0.00     0.074 A 
ATOM     60  C   UNL A   1      46.411  31.150  27.671  1.00  0.00     0.031 C 
ATOM     61  C   UNL A   1      44.422  32.028  28.861  1.00  0.00     0.037 A 
BRANCH  48  62
ATOM     62  C   UNL A   1      38.740  30.540  30.748  1.00  0.00     0.064 A 
ATOM     63  C   UNL A   1      38.609  30.518  32.143  1.00  0.00     0.173 A 
ATOM     64  C   UNL A   1      37.681  31.079  29.998  1.00  0.00     0.173 A 
ATOM     65  F   UNL A   1      39.586  30.007  32.906  1.00  0.00    -0.203 F 
ATOM     66  C   UNL A   1      37.458  31.007  32.762  1.00  0.00     0.198 A 
ATOM     67  C   UNL A   1      36.545  31.591  30.622  1.00  0.00     0.198 A 
ATOM     68  F   UNL A   1      37.759  31.132  28.661  1.00  0.00    -0.203 F 
ATOM     69  F   UNL A   1      37.342  30.949  34.096  1.00  0.00    -0.200 F 
ATOM     70  C   UNL A   1      36.433  31.551  32.003  1.00  0.00     0.200 A 
ATOM     71  F   UNL A   1      35.564  32.130  29.885  1.00  0.00    -0.200 F 
ATOM     72  F   UNL A   1      35.337  32.036  32.601  1.00  0.00    -0.200 F 
ENDBRANCH  48  62
BRANCH  49  73
ATOM     73  C   UNL A   1      46.895  27.320  25.975  1.00  0.00     0.064 A 
ATOM     74  C   UNL A   1      47.013  27.569  24.602  1.00  0.00     0.173 A 
ATOM     75  C   UNL A   1      47.941  26.629  26.606  1.00  0.00     0.173 A 
ATOM     76  F   UNL A   1      46.028  28.202  23.949  1.00  0.00    -0.203 F 
ATOM     77  C   UNL A   1      48.126  27.130  23.886  1.00  0.00     0.198 A 
ATOM     78  C   UNL A   1      49.069  26.225  25.898  1.00  0.00     0.198 A 
ATOM     79  F   UNL A   1      47.878  26.366  27.920  1.00  0.00    -0.203 F 
ATOM     80  F   UNL A   1      48.192  27.338  22.565  1.00  0.00    -0.200 F 
ATOM     81  C   UNL A   1      49.157  26.467  24.536  1.00  0.00     0.200 A 
ATOM     82  F   UNL A   1      50.070  25.602  26.535  1.00  0.00    -0.200 F 
ATOM     83  F   UNL A   1      50.230  26.056  23.848  1.00  0.00    -0.200 F 
ENDBRANCH  49  73
BRANCH  61  84
ATOM     84  C   UNL A   1      45.155  33.327  29.023  1.00  0.00     0.064 A 
ATOM     85  C   UNL A   1      45.997  33.563  30.119  1.00  0.00     0.173 A 
ATOM     86  C   UNL A   1      45.025  34.340  28.061  1.00  0.00     0.173 A 
ATOM     87  F   UNL A   1      46.138  32.631  31.074  1.00  0.00    -0.203 F 
ATOM     88  C   UNL A   1      46.659  34.778  30.262  1.00  0.00     0.198 A 
ATOM     89  C   UNL A   1      45.711  35.544  28.193  1.00  0.00     0.198 A 
ATOM     90  F   UNL A   1      44.235  34.162  26.992  1.00  0.00    -0.203 F 
ATOM     91  F   UNL A   1      47.416  35.003  31.345  1.00  0.00    -0.200 F 
ATOM     92  C   UNL A   1      46.521  35.765  29.297  1.00  0.00     0.200 A 
ATOM     93  F   UNL A   1      45.585  36.491  27.254  1.00  0.00    -0.200 F 
ATOM     94  F   UNL A   1      47.161  36.934  29.437  1.00  0.00    -0.200 F 
ENDBRANCH  61  84
ENDBRANCH  35  36
ENDBRANCH  28  30
ENDBRANCH  27  28
ENDBRANCH  26  27
ENDBRANCH   1  26
TORSDOF 14
ENDMDL
MODEL 3
REMARK VINA RESULT:     -12.8      0.265      1.936
REMARK SMILES COc1ccc(OC)c(N2C(=O)c3ccc(C(=O)OCCOC(=O)c4ccc(-c5c6nc(c(-c7c(F)c(F)c(F)c(F)c7F)c7ccc([nH]7)c(-c7c(F)c(F)c(F)c(F)c7F)c7nc(c(-c8c(F)c(F)c(F)c(F)c8F)c8ccc5[nH]8)C=C7)C=C6)cc4)cc3C2=O)c1
REMARK SMILES IDX 20 1 19 2 17 3 18 4 16 5 10 6 11 7 90 8 12 9 13 10 89 11
REMARK SMILES IDX 91 12 14 13 88 14 15 15 9 16 3 17 4 18 92 19 5 20 6 21 2 22
REMARK SMILES IDX 1 23 7 24 8 25 21 26 22 27 23 28 24 29 25 30 26 31 87 32
REMARK SMILES IDX 27 33 86 34 28 35 29 36 30 37 80 38 31 39 85 40 79 41 81 42
REMARK SMILES IDX 32 43 84 44 78 45 77 46 33 48 65 49 45 50 64 51 46 52 49 53
REMARK SMILES IDX 63 54 82 55 47 56 48 57 62 59 83 60 50 61 34 62 35 63 43 64
REMARK SMILES IDX 36 65 37 66 41 67 44 68 38 69 39 70 42 71 40 72 66 73 67 74
REMARK SMILES IDX 75 75 68 76 69 77 73 78 76 79 70 80 71 81 74 82 72 83 51 84
REMARK SMILES IDX 52 85 60 86 53 87 54 88 58 89 61 90 55 91 56 92 59 93 57 94
REMARK H PARENT 81 47 49 58
REMARK Flexibility Score: inf
ROOT
ATOM      1  C   UNL A   1      35.228  20.712  25.442  1.00  0.00     0.275 C 
ENDROOT
BRANCH   1   2
ATOM      2  O   UNL A   1      34.363  19.904  24.617  1.00  0.00    -0.458 OA
BRANCH   2   3
ATOM      3  C   UNL A   1      33.049  20.179  24.743  1.00  0.00     0.338 C 
ATOM      4  O   UNL A   1      32.163  19.446  25.152  1.00  0.00    -0.246 OA
BRANCH   3   5
ATOM      5  C   UNL A   1      32.769  21.580  24.400  1.00  0.00     0.060 A 
ATOM      6  N   UNL A   1      32.646  26.132  24.978  1.00  0.00    -0.238 N 
ATOM      7  C   UNL A   1      33.104  25.662  23.765  1.00  0.00     0.266 C 
ATOM      8  C   UNL A   1      32.334  25.067  25.799  1.00  0.00     0.266 C 
ATOM      9  O   UNL A   1      33.603  26.215  22.800  1.00  0.00    -0.268 OA
ATOM     10  C   UNL A   1      32.974  24.224  23.780  1.00  0.00     0.053 A 
ATOM     11  C   UNL A   1      32.620  23.845  25.053  1.00  0.00     0.054 A 
ATOM     12  O   UNL A   1      31.764  24.964  26.867  1.00  0.00    -0.268 OA
ATOM     13  C   UNL A   1      33.144  23.331  22.750  1.00  0.00     0.015 A 
ATOM     14  C   UNL A   1      32.540  22.512  25.416  1.00  0.00     0.030 A 
ATOM     15  C   UNL A   1      32.991  21.988  23.067  1.00  0.00     0.016 A 
BRANCH   6  16
ATOM     16  C   UNL A   1      32.491  27.532  25.236  1.00  0.00     0.098 A 
ATOM     17  C   UNL A   1      33.296  29.444  26.577  1.00  0.00     0.121 A 
ATOM     18  C   UNL A   1      32.283  30.235  26.053  1.00  0.00     0.050 A 
ATOM     19  C   UNL A   1      33.418  28.136  26.119  1.00  0.00     0.077 A 
ATOM     20  C   UNL A   1      31.383  29.698  25.121  1.00  0.00     0.052 A 
ATOM     21  C   UNL A   1      31.469  28.349  24.727  1.00  0.00     0.143 A 
BRANCH  17  22
ATOM     22  O   UNL A   1      34.090  30.016  27.535  1.00  0.00    -0.497 OA
ATOM     23  C   UNL A   1      35.434  29.535  27.630  1.00  0.00     0.278 C 
ENDBRANCH  17  22
BRANCH  21  24
ATOM     24  O   UNL A   1      30.381  27.818  24.084  1.00  0.00    -0.495 OA
ATOM     25  C   UNL A   1      30.322  28.160  22.698  1.00  0.00     0.278 C 
ENDBRANCH  21  24
ENDBRANCH   6  16
ENDBRANCH   3   5
ENDBRANCH   2   3
ENDBRANCH   1   2
BRANCH   1  26
ATOM     26  C   UNL A   1      36.685  20.558  25.011  1.00  0.00     0.275 C 
BRANCH  26  27
ATOM     27  O   UNL A   1      37.444  21.729  25.371  1.00  0.00    -0.458 OA
BRANCH  27  28
ATOM     28  C   UNL A   1      38.679  21.482  25.858  1.00  0.00     0.338 C 
ATOM     29  O   UNL A   1      39.331  20.455  25.751  1.00  0.00    -0.246 OA
BRANCH  28  30
ATOM     30  C   UNL A   1      39.232  22.672  26.522  1.00  0.00     0.060 A 
ATOM     31  C   UNL A   1      38.746  23.932  26.180  1.00  0.00     0.016 A 
ATOM     32  C   UNL A   1      40.389  22.551  27.292  1.00  0.00     0.016 A 
ATOM     33  C   UNL A   1      39.502  25.063  26.475  1.00  0.00     0.010 A 
ATOM     34  C   UNL A   1      41.060  23.703  27.718  1.00  0.00     0.010 A 
ATOM     35  C   UNL A   1      40.652  24.974  27.278  1.00  0.00    -0.014 A 
BRANCH  35  36
ATOM     36  C   UNL A   1      41.405  26.204  27.670  1.00  0.00     0.031 A 
ATOM     37  C   UNL A   1      40.750  27.289  28.490  1.00  0.00     0.074 A 
ATOM     38  C   UNL A   1      42.685  26.360  27.273  1.00  0.00     0.049 A 
ATOM     39  N   UNL A   1      41.172  28.504  28.746  1.00  0.00    -0.248 NA
ATOM     40  C   UNL A   1      39.444  26.977  29.090  1.00  0.00     0.031 C 
ATOM     41  C   UNL A   1      43.459  25.385  26.500  1.00  0.00     0.029 A 
ATOM     42  N   UNL A   1      43.566  27.397  27.462  1.00  0.00    -0.354 N 
ATOM     43  C   UNL A   1      40.165  29.116  29.482  1.00  0.00     0.074 A 
ATOM     44  C   UNL A   1      39.107  28.139  29.636  1.00  0.00     0.031 C 
ATOM     45  C   UNL A   1      44.702  25.847  26.320  1.00  0.00     0.029 A 
ATOM     46  C   UNL A   1      44.786  27.196  26.860  1.00  0.00     0.049 A 
ATOM     47  H   UNL A   1      43.346  28.207  27.979  1.00  0.00     0.167 HD
ATOM     48  C   UNL A   1      40.127  30.377  29.977  1.00  0.00     0.037 A 
ATOM     49  C   UNL A   1      45.839  28.020  26.701  1.00  0.00     0.037 A 
ATOM     50  C   UNL A   1      41.207  31.326  29.872  1.00  0.00     0.049 A 
ATOM     51  C   UNL A   1      45.756  29.421  27.233  1.00  0.00     0.074 A 
ATOM     52  C   UNL A   1      41.276  32.616  30.372  1.00  0.00     0.029 A 
ATOM     53  N   UNL A   1      42.415  31.082  29.235  1.00  0.00    -0.354 N 
ATOM     54  N   UNL A   1      44.780  30.000  27.887  1.00  0.00    -0.248 NA
ATOM     55  C   UNL A   1      46.913  30.289  26.984  1.00  0.00     0.031 C 
ATOM     56  C   UNL A   1      42.506  33.167  30.000  1.00  0.00     0.029 A 
ATOM     57  C   UNL A   1      43.225  32.205  29.313  1.00  0.00     0.049 A 
ATOM     58  H   UNL A   1      42.661  30.237  28.795  1.00  0.00     0.167 HD
ATOM     59  C   UNL A   1      45.209  31.295  28.139  1.00  0.00     0.074 A 
ATOM     60  C   UNL A   1      46.544  31.408  27.588  1.00  0.00     0.031 C 
ATOM     61  C   UNL A   1      44.552  32.301  28.762  1.00  0.00     0.037 A 
BRANCH  48  62
ATOM     62  C   UNL A   1      38.868  30.835  30.661  1.00  0.00     0.064 A 
ATOM     63  C   UNL A   1      37.779  31.351  29.947  1.00  0.00     0.173 A 
ATOM     64  C   UNL A   1      38.724  30.672  32.049  1.00  0.00     0.173 A 
ATOM     65  F   UNL A   1      37.865  31.534  28.621  1.00  0.00    -0.203 F 
ATOM     66  C   UNL A   1      36.596  31.702  30.599  1.00  0.00     0.198 A 
ATOM     67  C   UNL A   1      37.533  30.999  32.692  1.00  0.00     0.198 A 
ATOM     68  F   UNL A   1      39.733  30.173  32.778  1.00  0.00    -0.203 F 
ATOM     69  F   UNL A   1      35.578  32.222  29.900  1.00  0.00    -0.200 F 
ATOM     70  C   UNL A   1      36.471  31.517  31.967  1.00  0.00     0.200 A 
ATOM     71  F   UNL A   1      37.411  30.803  34.012  1.00  0.00    -0.200 F 
ATOM     72  F   UNL A   1      35.329  31.838  32.588  1.00  0.00    -0.200 F 
ENDBRANCH  48  62
BRANCH  49  73
ATOM     73  C   UNL A   1      47.033  27.556  25.947  1.00  0.00     0.064 A 
ATOM     74  C   UNL A   1      47.102  27.680  24.554  1.00  0.00     0.173 A 
ATOM     75  C   UNL A   1      48.131  26.979  26.607  1.00  0.00     0.173 A 
ATOM     76  F   UNL A   1      46.069  28.200  23.876  1.00  0.00    -0.203 F 
ATOM     77  C   UNL A   1      48.217  27.232  23.847  1.00  0.00     0.198 A 
ATOM     78  C   UNL A   1      49.259  26.568  25.904  1.00  0.00     0.198 A 
ATOM     79  F   UNL A   1      48.116  26.838  27.940  1.00  0.00    -0.203 F 
ATOM     80  F   UNL A   1      48.237  27.318  22.511  1.00  0.00    -0.200 F 
ATOM     81  C   UNL A   1      49.298  26.685  24.523  1.00  0.00     0.200 A 
ATOM     82  F   UNL A   1      50.308  26.058  26.564  1.00  0.00    -0.200 F 
ATOM     83  F   UNL A   1      50.373  26.265  23.843  1.00  0.00    -0.200 F 
ENDBRANCH  49  73
BRANCH  61  84
ATOM     84  C   UNL A   1      45.284  33.603  28.907  1.00  0.00     0.064 A 
ATOM     85  C   UNL A   1      45.168  34.621  27.951  1.00  0.00     0.173 A 
ATOM     86  C   UNL A   1      46.100  33.837  30.025  1.00  0.00     0.173 A 
ATOM     87  F   UNL A   1      44.416  34.436  26.856  1.00  0.00    -0.203 F 
ATOM     88  C   UNL A   1      45.865  35.817  28.093  1.00  0.00     0.198 A 
ATOM     89  C   UNL A   1      46.773  35.046  30.178  1.00  0.00     0.198 A 
ATOM     90  F   UNL A   1      46.241  32.896  30.970  1.00  0.00    -0.203 F 
ATOM     91  F   UNL A   1      45.782  36.756  27.140  1.00  0.00    -0.200 F 
ATOM     92  C   UNL A   1      46.662  36.031  29.208  1.00  0.00     0.200 A 
ATOM     93  F   UNL A   1      47.533  35.255  31.261  1.00  0.00    -0.200 F 
ATOM     94  F   UNL A   1      47.331  37.185  29.344  1.00  0.00    -0.200 F 
ENDBRANCH  61  84
ENDBRANCH  35  36
ENDBRANCH  28  30
ENDBRANCH  27  28
ENDBRANCH  26  27
ENDBRANCH   1  26
TORSDOF 14
ENDMDL
