MODEL 1
REMARK VINA RESULT:     -11.1      0.000      0.000
REMARK SMILES CC(C)C[C@@H](C(=O)OCCOC(=O)c1ccc(-c2c3nc(c(-c4c(F)c(F)c(F)c(F)c4F)c4ccc([nH]4)c(-c4c(F)c(F)c(F)c(F)c4F)c4nc(c(-c5c(F)c(F)c(F)c(F)c5F)c5ccc2[nH]5)C=C4)C=C3)cc1)[C@@H]1CCC[C@@H](C)C1
REMARK SMILES IDX 9 1 8 2 6 3 7 4 5 5 4 6 2 7 1 8 3 9 77 10 78 11 83 12 79 13
REMARK SMILES IDX 81 14 80 15 82 16 10 17 11 18 12 19 13 20 14 21 15 22 76 23
REMARK SMILES IDX 16 24 75 25 17 26 18 27 19 28 69 29 20 30 74 31 68 32 70 33
REMARK SMILES IDX 21 34 73 35 67 36 66 37 22 39 54 40 34 41 53 42 35 43 38 44
REMARK SMILES IDX 52 45 71 46 36 47 37 48 51 50 72 51 39 52 23 53 24 54 32 55
REMARK SMILES IDX 25 56 26 57 30 58 33 59 27 60 28 61 31 62 29 63 55 64 56 65
REMARK SMILES IDX 64 66 57 67 58 68 62 69 65 70 59 71 60 72 63 73 61 74 40 75
REMARK SMILES IDX 41 76 49 77 42 78 43 79 47 80 50 81 44 82 45 83 48 84 46 85
REMARK H PARENT 70 38 38 49
REMARK Flexibility Score: inf
ROOT
ATOM      1  C   UNL A   1      31.772  28.626  26.908  1.00  0.00     0.274 C 
ENDROOT
BRANCH   1   2
ATOM      2  O   UNL A   1      32.685  27.646  26.372  1.00  0.00    -0.462 OA
BRANCH   2   3
ATOM      3  C   UNL A   1      32.162  26.432  26.111  1.00  0.00     0.309 C 
ATOM      4  O   UNL A   1      31.381  25.848  26.859  1.00  0.00    -0.252 OA
BRANCH   3   5
ATOM      5  C   UNL A   1      32.660  25.782  24.821  1.00  0.00     0.102 C 
BRANCH   5   6
ATOM      6  C   UNL A   1      34.209  25.745  24.939  1.00  0.00     0.018 C 
BRANCH   6   7
ATOM      7  C   UNL A   1      34.893  24.362  25.022  1.00  0.00    -0.017 C 
ATOM      8  C   UNL A   1      34.518  23.522  26.238  1.00  0.00     0.007 C 
ATOM      9  C   UNL A   1      34.551  23.575  23.749  1.00  0.00     0.007 C 
ENDBRANCH   6   7
ENDBRANCH   5   6
BRANCH   5  10
ATOM     10  C   UNL A   1      32.082  26.236  23.442  1.00  0.00     0.003 C 
ATOM     11  C   UNL A   1      32.935  27.181  22.582  1.00  0.00     0.004 C 
ATOM     12  C   UNL A   1      30.582  26.618  23.412  1.00  0.00     0.007 C 
ATOM     13  C   UNL A   1      32.648  28.654  22.798  1.00  0.00     0.001 C 
ATOM     14  C   UNL A   1      30.247  28.120  23.426  1.00  0.00    -0.014 C 
ATOM     15  C   UNL A   1      31.179  28.958  22.549  1.00  0.00     0.003 C 
ATOM     16  C   UNL A   1      28.792  28.356  23.008  1.00  0.00     0.007 C 
ENDBRANCH   5  10
ENDBRANCH   3   5
ENDBRANCH   2   3
ENDBRANCH   1   2
BRANCH   1  17
ATOM     17  C   UNL A   1      31.901  29.971  26.189  1.00  0.00     0.275 C 
BRANCH  17  18
ATOM     18  O   UNL A   1      33.255  30.449  26.273  1.00  0.00    -0.458 OA
BRANCH  18  19
ATOM     19  C   UNL A   1      33.489  31.427  27.176  1.00  0.00     0.338 C 
ATOM     20  O   UNL A   1      32.814  32.414  27.403  1.00  0.00    -0.246 OA
BRANCH  19  21
ATOM     21  C   UNL A   1      34.776  31.172  27.839  1.00  0.00     0.060 A 
ATOM     22  C   UNL A   1      35.741  32.177  27.954  1.00  0.00     0.016 A 
ATOM     23  C   UNL A   1      35.034  29.883  28.307  1.00  0.00     0.016 A 
ATOM     24  C   UNL A   1      36.969  31.897  28.550  1.00  0.00     0.010 A 
ATOM     25  C   UNL A   1      36.246  29.614  28.938  1.00  0.00     0.010 A 
ATOM     26  C   UNL A   1      37.220  30.620  29.066  1.00  0.00    -0.014 A 
BRANCH  26  27
ATOM     27  C   UNL A   1      38.474  30.319  29.790  1.00  0.00     0.031 A 
ATOM     28  C   UNL A   1      39.460  29.350  29.213  1.00  0.00     0.074 A 
ATOM     29  C   UNL A   1      38.669  30.859  31.006  1.00  0.00     0.049 A 
ATOM     30  N   UNL A   1      40.499  28.792  29.777  1.00  0.00    -0.248 NA
ATOM     31  C   UNL A   1      39.241  28.947  27.815  1.00  0.00     0.031 C 
ATOM     32  C   UNL A   1      37.779  31.828  31.649  1.00  0.00     0.029 A 
ATOM     33  N   UNL A   1      39.656  30.644  31.932  1.00  0.00    -0.354 N 
ATOM     34  C   UNL A   1      41.042  27.949  28.818  1.00  0.00     0.074 A 
ATOM     35  C   UNL A   1      40.215  28.066  27.634  1.00  0.00     0.031 C 
ATOM     36  C   UNL A   1      38.250  32.110  32.873  1.00  0.00     0.029 A 
ATOM     37  C   UNL A   1      39.438  31.298  33.120  1.00  0.00     0.049 A 
ATOM     38  H   UNL A   1      40.444  30.077  31.764  1.00  0.00     0.167 HD
ATOM     39  C   UNL A   1      42.129  27.151  28.926  1.00  0.00     0.037 A 
ATOM     40  C   UNL A   1      40.094  31.215  34.292  1.00  0.00     0.037 A 
ATOM     41  C   UNL A   1      42.944  27.055  30.110  1.00  0.00     0.049 A 
ATOM     42  C   UNL A   1      41.270  30.287  34.400  1.00  0.00     0.074 A 
ATOM     43  C   UNL A   1      44.087  26.303  30.317  1.00  0.00     0.029 A 
ATOM     44  N   UNL A   1      42.696  27.741  31.293  1.00  0.00    -0.354 N 
ATOM     45  N   UNL A   1      41.781  29.494  33.490  1.00  0.00    -0.248 NA
ATOM     46  C   UNL A   1      41.954  30.234  35.699  1.00  0.00     0.031 C 
ATOM     47  C   UNL A   1      44.506  26.502  31.638  1.00  0.00     0.029 A 
ATOM     48  C   UNL A   1      43.650  27.409  32.240  1.00  0.00     0.049 A 
ATOM     49  H   UNL A   1      41.951  28.368  31.436  1.00  0.00     0.167 HD
ATOM     50  C   UNL A   1      42.852  28.856  34.098  1.00  0.00     0.074 A 
ATOM     51  C   UNL A   1      42.927  29.366  35.453  1.00  0.00     0.031 C 
ATOM     52  C   UNL A   1      43.697  27.930  33.583  1.00  0.00     0.037 A 
BRANCH  39  53
ATOM     53  C   UNL A   1      42.484  26.293  27.748  1.00  0.00     0.064 A 
ATOM     54  C   UNL A   1      43.454  26.685  26.814  1.00  0.00     0.173 A 
ATOM     55  C   UNL A   1      41.872  25.042  27.573  1.00  0.00     0.173 A 
ATOM     56  F   UNL A   1      44.058  27.877  26.930  1.00  0.00    -0.203 F 
ATOM     57  C   UNL A   1      43.784  25.866  25.737  1.00  0.00     0.198 A 
ATOM     58  C   UNL A   1      42.221  24.215  26.508  1.00  0.00     0.198 A 
ATOM     59  F   UNL A   1      40.941  24.617  28.440  1.00  0.00    -0.203 F 
ATOM     60  F   UNL A   1      44.687  26.278  24.836  1.00  0.00    -0.200 F 
ATOM     61  C   UNL A   1      43.173  24.630  25.588  1.00  0.00     0.200 A 
ATOM     62  F   UNL A   1      41.637  23.017  26.371  1.00  0.00    -0.200 F 
ATOM     63  F   UNL A   1      43.497  23.840  24.555  1.00  0.00    -0.200 F 
ENDBRANCH  39  53
BRANCH  40  64
ATOM     64  C   UNL A   1      39.625  32.013  35.453  1.00  0.00     0.064 A 
ATOM     65  C   UNL A   1      40.105  33.310  35.674  1.00  0.00     0.173 A 
ATOM     66  C   UNL A   1      38.666  31.508  36.344  1.00  0.00     0.173 A 
ATOM     67  F   UNL A   1      41.039  33.826  34.861  1.00  0.00    -0.203 F 
ATOM     68  C   UNL A   1      39.643  34.073  36.744  1.00  0.00     0.198 A 
ATOM     69  C   UNL A   1      38.187  32.282  37.399  1.00  0.00     0.198 A 
ATOM     70  F   UNL A   1      38.176  30.272  36.174  1.00  0.00    -0.203 F 
ATOM     71  F   UNL A   1      40.139  35.301  36.950  1.00  0.00    -0.200 F 
ATOM     72  C   UNL A   1      38.679  33.563  37.600  1.00  0.00     0.200 A 
ATOM     73  F   UNL A   1      37.247  31.789  38.216  1.00  0.00    -0.200 F 
ATOM     74  F   UNL A   1      38.227  34.302  38.621  1.00  0.00    -0.200 F 
ENDBRANCH  40  64
BRANCH  52  75
ATOM     75  C   UNL A   1      44.782  27.428  34.486  1.00  0.00     0.064 A 
ATOM     76  C   UNL A   1      44.601  26.285  35.278  1.00  0.00     0.173 A 
ATOM     77  C   UNL A   1      46.025  28.075  34.530  1.00  0.00     0.173 A 
ATOM     78  F   UNL A   1      43.423  25.645  35.281  1.00  0.00    -0.203 F 
ATOM     79  C   UNL A   1      45.624  25.819  36.099  1.00  0.00     0.198 A 
ATOM     80  C   UNL A   1      47.053  27.594  35.334  1.00  0.00     0.198 A 
ATOM     81  F   UNL A   1      46.244  29.170  33.787  1.00  0.00    -0.203 F 
ATOM     82  F   UNL A   1      45.420  24.749  36.879  1.00  0.00    -0.200 F 
ATOM     83  C   UNL A   1      46.850  26.469  36.121  1.00  0.00     0.200 A 
ATOM     84  F   UNL A   1      48.239  28.216  35.349  1.00  0.00    -0.200 F 
ATOM     85  F   UNL A   1      47.835  26.016  36.909  1.00  0.00    -0.200 F 
ENDBRANCH  52  75
ENDBRANCH  26  27
ENDBRANCH  19  21
ENDBRANCH  18  19
ENDBRANCH  17  18
ENDBRANCH   1  17
TORSDOF 14
ENDMDL
MODEL 2
REMARK VINA RESULT:     -11.1      0.872      2.319
REMARK SMILES CC(C)C[C@@H](C(=O)OCCOC(=O)c1ccc(-c2c3nc(c(-c4c(F)c(F)c(F)c(F)c4F)c4ccc([nH]4)c(-c4c(F)c(F)c(F)c(F)c4F)c4nc(c(-c5c(F)c(F)c(F)c(F)c5F)c5ccc2[nH]5)C=C4)C=C3)cc1)[C@@H]1CCC[C@@H](C)C1
REMARK SMILES IDX 9 1 8 2 6 3 7 4 5 5 4 6 2 7 1 8 3 9 77 10 78 11 83 12 79 13
REMARK SMILES IDX 81 14 80 15 82 16 10 17 11 18 12 19 13 20 14 21 15 22 76 23
REMARK SMILES IDX 16 24 75 25 17 26 18 27 19 28 69 29 20 30 74 31 68 32 70 33
REMARK SMILES IDX 21 34 73 35 67 36 66 37 22 39 54 40 34 41 53 42 35 43 38 44
REMARK SMILES IDX 52 45 71 46 36 47 37 48 51 50 72 51 39 52 23 53 24 54 32 55
REMARK SMILES IDX 25 56 26 57 30 58 33 59 27 60 28 61 31 62 29 63 55 64 56 65
REMARK SMILES IDX 64 66 57 67 58 68 62 69 65 70 59 71 60 72 63 73 61 74 40 75
REMARK SMILES IDX 41 76 49 77 42 78 43 79 47 80 50 81 44 82 45 83 48 84 46 85
REMARK H PARENT 70 38 38 49
REMARK Flexibility Score: inf
ROOT
ATOM      1  C   UNL A   1      31.443  28.923  25.417  1.00  0.00     0.274 C 
ENDROOT
BRANCH   1   2
ATOM      2  O   UNL A   1      32.271  27.741  25.385  1.00  0.00    -0.462 OA
BRANCH   2   3
ATOM      3  C   UNL A   1      31.684  26.598  25.788  1.00  0.00     0.309 C 
ATOM      4  O   UNL A   1      30.708  26.556  26.534  1.00  0.00    -0.252 OA
BRANCH   3   5
ATOM      5  C   UNL A   1      32.362  25.319  25.299  1.00  0.00     0.102 C 
BRANCH   5   6
ATOM      6  C   UNL A   1      32.229  24.300  26.464  1.00  0.00     0.018 C 
BRANCH   6   7
ATOM      7  C   UNL A   1      31.389  23.027  26.215  1.00  0.00    -0.017 C 
ATOM      8  C   UNL A   1      30.061  22.967  26.962  1.00  0.00     0.007 C 
ATOM      9  C   UNL A   1      31.118  22.912  24.708  1.00  0.00     0.007 C 
ENDBRANCH   6   7
ENDBRANCH   5   6
BRANCH   5  10
ATOM     10  C   UNL A   1      33.759  25.393  24.601  1.00  0.00     0.003 C 
ATOM     11  C   UNL A   1      33.840  25.005  23.117  1.00  0.00     0.004 C 
ATOM     12  C   UNL A   1      34.966  24.857  25.408  1.00  0.00     0.007 C 
ATOM     13  C   UNL A   1      34.178  23.548  22.867  1.00  0.00     0.001 C 
ATOM     14  C   UNL A   1      35.472  23.449  25.048  1.00  0.00    -0.014 C 
ATOM     15  C   UNL A   1      35.488  23.176  23.543  1.00  0.00     0.003 C 
ATOM     16  C   UNL A   1      36.869  23.210  25.632  1.00  0.00     0.007 C 
ENDBRANCH   5  10
ENDBRANCH   3   5
ENDBRANCH   2   3
ENDBRANCH   1   2
BRANCH   1  17
ATOM     17  C   UNL A   1      31.800  29.830  26.596  1.00  0.00     0.275 C 
BRANCH  17  18
ATOM     18  O   UNL A   1      33.088  30.435  26.384  1.00  0.00    -0.458 OA
BRANCH  18  19
ATOM     19  C   UNL A   1      33.393  31.485  27.178  1.00  0.00     0.338 C 
ATOM     20  O   UNL A   1      32.778  32.526  27.313  1.00  0.00    -0.246 OA
BRANCH  19  21
ATOM     21  C   UNL A   1      34.679  31.227  27.843  1.00  0.00     0.060 A 
ATOM     22  C   UNL A   1      35.635  32.237  27.983  1.00  0.00     0.016 A 
ATOM     23  C   UNL A   1      34.943  29.932  28.289  1.00  0.00     0.016 A 
ATOM     24  C   UNL A   1      36.862  31.955  28.582  1.00  0.00     0.010 A 
ATOM     25  C   UNL A   1      36.154  29.660  28.921  1.00  0.00     0.010 A 
ATOM     26  C   UNL A   1      37.119  30.670  29.074  1.00  0.00    -0.014 A 
BRANCH  26  27
ATOM     27  C   UNL A   1      38.372  30.365  29.800  1.00  0.00     0.031 A 
ATOM     28  C   UNL A   1      39.357  29.396  29.222  1.00  0.00     0.074 A 
ATOM     29  C   UNL A   1      38.565  30.902  31.018  1.00  0.00     0.049 A 
ATOM     30  N   UNL A   1      40.394  28.834  29.787  1.00  0.00    -0.248 NA
ATOM     31  C   UNL A   1      39.140  28.997  27.822  1.00  0.00     0.031 C 
ATOM     32  C   UNL A   1      37.677  31.871  31.662  1.00  0.00     0.029 A 
ATOM     33  N   UNL A   1      39.551  30.682  31.945  1.00  0.00    -0.354 N 
ATOM     34  C   UNL A   1      40.937  27.993  28.826  1.00  0.00     0.074 A 
ATOM     35  C   UNL A   1      40.112  28.114  27.641  1.00  0.00     0.031 C 
ATOM     36  C   UNL A   1      38.146  32.148  32.887  1.00  0.00     0.029 A 
ATOM     37  C   UNL A   1      39.332  31.334  33.134  1.00  0.00     0.049 A 
ATOM     38  H   UNL A   1      40.337  30.115  31.777  1.00  0.00     0.167 HD
ATOM     39  C   UNL A   1      42.023  27.192  28.935  1.00  0.00     0.037 A 
ATOM     40  C   UNL A   1      39.986  31.247  34.307  1.00  0.00     0.037 A 
ATOM     41  C   UNL A   1      42.835  27.092  30.120  1.00  0.00     0.049 A 
ATOM     42  C   UNL A   1      41.159  30.316  34.415  1.00  0.00     0.074 A 
ATOM     43  C   UNL A   1      43.976  26.337  30.327  1.00  0.00     0.029 A 
ATOM     44  N   UNL A   1      42.586  27.775  31.304  1.00  0.00    -0.354 N 
ATOM     45  N   UNL A   1      41.671  29.524  33.504  1.00  0.00    -0.248 NA
ATOM     46  C   UNL A   1      41.841  30.258  35.715  1.00  0.00     0.031 C 
ATOM     47  C   UNL A   1      44.393  26.532  31.649  1.00  0.00     0.029 A 
ATOM     48  C   UNL A   1      43.538  27.439  32.252  1.00  0.00     0.049 A 
ATOM     49  H   UNL A   1      41.842  28.403  31.448  1.00  0.00     0.167 HD
ATOM     50  C   UNL A   1      42.739  28.883  34.112  1.00  0.00     0.074 A 
ATOM     51  C   UNL A   1      42.812  29.390  35.468  1.00  0.00     0.031 C 
ATOM     52  C   UNL A   1      43.583  27.957  33.596  1.00  0.00     0.037 A 
BRANCH  39  53
ATOM     53  C   UNL A   1      42.377  26.336  27.755  1.00  0.00     0.064 A 
ATOM     54  C   UNL A   1      43.359  26.723  26.832  1.00  0.00     0.173 A 
ATOM     55  C   UNL A   1      41.754  25.093  27.569  1.00  0.00     0.173 A 
ATOM     56  F   UNL A   1      43.975  27.907  26.958  1.00  0.00    -0.203 F 
ATOM     57  C   UNL A   1      43.690  25.905  25.752  1.00  0.00     0.198 A 
ATOM     58  C   UNL A   1      42.103  24.268  26.502  1.00  0.00     0.198 A 
ATOM     59  F   UNL A   1      40.811  24.674  28.425  1.00  0.00    -0.203 F 
ATOM     60  F   UNL A   1      44.605  26.312  24.862  1.00  0.00    -0.200 F 
ATOM     61  C   UNL A   1      43.067  24.677  25.593  1.00  0.00     0.200 A 
ATOM     62  F   UNL A   1      41.506  23.077  26.354  1.00  0.00    -0.200 F 
ATOM     63  F   UNL A   1      43.390  23.889  24.557  1.00  0.00    -0.200 F 
ENDBRANCH  39  53
BRANCH  40  64
ATOM     64  C   UNL A   1      39.516  32.043  35.469  1.00  0.00     0.064 A 
ATOM     65  C   UNL A   1      39.945  33.363  35.656  1.00  0.00     0.173 A 
ATOM     66  C   UNL A   1      38.606  31.512  36.395  1.00  0.00     0.173 A 
ATOM     67  F   UNL A   1      40.832  33.905  34.808  1.00  0.00    -0.203 F 
ATOM     68  C   UNL A   1      39.482  34.123  36.728  1.00  0.00     0.198 A 
ATOM     69  C   UNL A   1      38.125  32.281  37.453  1.00  0.00     0.198 A 
ATOM     70  F   UNL A   1      38.166  30.253  36.260  1.00  0.00    -0.203 F 
ATOM     71  F   UNL A   1      39.929  35.375  36.900  1.00  0.00    -0.200 F 
ATOM     72  C   UNL A   1      38.566  33.585  37.620  1.00  0.00     0.200 A 
ATOM     73  F   UNL A   1      37.230  31.762  38.305  1.00  0.00    -0.200 F 
ATOM     74  F   UNL A   1      38.112  34.321  38.642  1.00  0.00    -0.200 F 
ENDBRANCH  40  64
BRANCH  52  75
ATOM     75  C   UNL A   1      44.666  27.450  34.500  1.00  0.00     0.064 A 
ATOM     76  C   UNL A   1      45.897  28.112  34.606  1.00  0.00     0.173 A 
ATOM     77  C   UNL A   1      44.454  26.312  35.292  1.00  0.00     0.173 A 
ATOM     78  F   UNL A   1      46.149  29.193  33.855  1.00  0.00    -0.203 F 
ATOM     79  C   UNL A   1      46.887  27.640  35.463  1.00  0.00     0.198 A 
ATOM     80  C   UNL A   1      45.437  25.857  36.164  1.00  0.00     0.198 A 
ATOM     81  F   UNL A   1      43.290  25.648  35.225  1.00  0.00    -0.203 F 
ATOM     82  F   UNL A   1      48.072  28.263  35.523  1.00  0.00    -0.200 F 
ATOM     83  C   UNL A   1      46.654  26.518  36.246  1.00  0.00     0.200 A 
ATOM     84  F   UNL A   1      45.209  24.779  36.926  1.00  0.00    -0.200 F 
ATOM     85  F   UNL A   1      47.607  26.068  37.073  1.00  0.00    -0.200 F 
ENDBRANCH  52  75
ENDBRANCH  26  27
ENDBRANCH  19  21
ENDBRANCH  18  19
ENDBRANCH  17  18
ENDBRANCH   1  17
TORSDOF 14
ENDMDL
MODEL 3
REMARK VINA RESULT:     -11.1      0.803      1.993
REMARK SMILES CC(C)C[C@@H](C(=O)OCCOC(=O)c1ccc(-c2c3nc(c(-c4c(F)c(F)c(F)c(F)c4F)c4ccc([nH]4)c(-c4c(F)c(F)c(F)c(F)c4F)c4nc(c(-c5c(F)c(F)c(F)c(F)c5F)c5ccc2[nH]5)C=C4)C=C3)cc1)[C@@H]1CCC[C@@H](C)C1
REMARK SMILES IDX 9 1 8 2 6 3 7 4 5 5 4 6 2 7 1 8 3 9 77 10 78 11 83 12 79 13
REMARK SMILES IDX 81 14 80 15 82 16 10 17 11 18 12 19 13 20 14 21 15 22 76 23
REMARK SMILES IDX 16 24 75 25 17 26 18 27 19 28 69 29 20 30 74 31 68 32 70 33
REMARK SMILES IDX 21 34 73 35 67 36 66 37 22 39 54 40 34 41 53 42 35 43 38 44
REMARK SMILES IDX 52 45 71 46 36 47 37 48 51 50 72 51 39 52 23 53 24 54 32 55
REMARK SMILES IDX 25 56 26 57 30 58 33 59 27 60 28 61 31 62 29 63 55 64 56 65
REMARK SMILES IDX 64 66 57 67 58 68 62 69 65 70 59 71 60 72 63 73 61 74 40 75
REMARK SMILES IDX 41 76 49 77 42 78 43 79 47 80 50 81 44 82 45 83 48 84 46 85
REMARK H PARENT 70 38 38 49
REMARK Flexibility Score: inf
ROOT
ATOM      1  C   UNL A   1      31.734  28.614  27.333  1.00  0.00     0.274 C 
ENDROOT
BRANCH   1   2
ATOM      2  O   UNL A   1      32.633  27.549  26.957  1.00  0.00    -0.462 OA
BRANCH   2   3
ATOM      3  C   UNL A   1      32.088  26.539  26.252  1.00  0.00     0.309 C 
ATOM      4  O   UNL A   1      30.926  26.162  26.382  1.00  0.00    -0.252 OA
BRANCH   3   5
ATOM      5  C   UNL A   1      33.049  25.830  25.299  1.00  0.00     0.102 C 
BRANCH   5   6
ATOM      6  C   UNL A   1      32.375  25.890  23.900  1.00  0.00     0.018 C 
BRANCH   6   7
ATOM      7  C   UNL A   1      33.292  26.011  22.662  1.00  0.00    -0.017 C 
ATOM      8  C   UNL A   1      32.668  25.566  21.344  1.00  0.00     0.007 C 
ATOM      9  C   UNL A   1      33.739  27.474  22.532  1.00  0.00     0.007 C 
ENDBRANCH   6   7
ENDBRANCH   5   6
BRANCH   5  10
ATOM     10  C   UNL A   1      33.683  24.459  25.703  1.00  0.00     0.003 C 
ATOM     11  C   UNL A   1      35.202  24.298  25.548  1.00  0.00     0.004 C 
ATOM     12  C   UNL A   1      32.916  23.187  25.268  1.00  0.00     0.007 C 
ATOM     13  C   UNL A   1      35.638  23.714  24.218  1.00  0.00     0.001 C 
ATOM     14  C   UNL A   1      33.448  22.444  24.030  1.00  0.00    -0.014 C 
ATOM     15  C   UNL A   1      34.976  22.367  23.979  1.00  0.00     0.003 C 
ATOM     16  C   UNL A   1      32.856  21.032  23.948  1.00  0.00     0.007 C 
ENDBRANCH   5  10
ENDBRANCH   3   5
ENDBRANCH   2   3
ENDBRANCH   1   2
BRANCH   1  17
ATOM     17  C   UNL A   1      31.811  29.789  26.355  1.00  0.00     0.275 C 
BRANCH  17  18
ATOM     18  O   UNL A   1      33.152  30.307  26.308  1.00  0.00    -0.458 OA
BRANCH  18  19
ATOM     19  C   UNL A   1      33.419  31.350  27.125  1.00  0.00     0.338 C 
ATOM     20  O   UNL A   1      32.770  32.368  27.276  1.00  0.00    -0.246 OA
BRANCH  19  21
ATOM     21  C   UNL A   1      34.708  31.121  27.793  1.00  0.00     0.060 A 
ATOM     22  C   UNL A   1      35.638  32.153  27.943  1.00  0.00     0.016 A 
ATOM     23  C   UNL A   1      35.004  29.829  28.231  1.00  0.00     0.016 A 
ATOM     24  C   UNL A   1      36.869  31.899  28.544  1.00  0.00     0.010 A 
ATOM     25  C   UNL A   1      36.219  29.585  28.866  1.00  0.00     0.010 A 
ATOM     26  C   UNL A   1      37.158  30.618  29.029  1.00  0.00    -0.014 A 
BRANCH  26  27
ATOM     27  C   UNL A   1      38.415  30.339  29.757  1.00  0.00     0.031 A 
ATOM     28  C   UNL A   1      39.416  29.380  29.189  1.00  0.00     0.074 A 
ATOM     29  C   UNL A   1      38.600  30.891  30.970  1.00  0.00     0.049 A 
ATOM     30  N   UNL A   1      40.461  28.841  29.759  1.00  0.00    -0.248 NA
ATOM     31  C   UNL A   1      39.204  28.964  27.794  1.00  0.00     0.031 C 
ATOM     32  C   UNL A   1      37.697  31.853  31.604  1.00  0.00     0.029 A 
ATOM     33  N   UNL A   1      39.589  30.697  31.899  1.00  0.00    -0.354 N 
ATOM     34  C   UNL A   1      41.017  27.998  28.807  1.00  0.00     0.074 A 
ATOM     35  C   UNL A   1      40.190  28.094  27.621  1.00  0.00     0.031 C 
ATOM     36  C   UNL A   1      38.162  32.150  32.826  1.00  0.00     0.029 A 
ATOM     37  C   UNL A   1      39.360  31.358  33.082  1.00  0.00     0.049 A 
ATOM     38  H   UNL A   1      40.385  30.140  31.736  1.00  0.00     0.167 HD
ATOM     39  C   UNL A   1      42.115  27.215  28.923  1.00  0.00     0.037 A 
ATOM     40  C   UNL A   1      40.016  31.292  34.255  1.00  0.00     0.037 A 
ATOM     41  C   UNL A   1      42.929  27.141  30.109  1.00  0.00     0.049 A 
ATOM     42  C   UNL A   1      41.204  30.381  34.372  1.00  0.00     0.074 A 
ATOM     43  C   UNL A   1      44.082  26.405  30.324  1.00  0.00     0.029 A 
ATOM     44  N   UNL A   1      42.670  27.831  31.286  1.00  0.00    -0.354 N 
ATOM     45  N   UNL A   1      41.727  29.589  33.469  1.00  0.00    -0.248 NA
ATOM     46  C   UNL A   1      41.886  30.347  35.672  1.00  0.00     0.031 C 
ATOM     47  C   UNL A   1      44.496  26.621  31.643  1.00  0.00     0.029 A 
ATOM     48  C   UNL A   1      43.627  27.520  32.238  1.00  0.00     0.049 A 
ATOM     49  H   UNL A   1      41.916  28.449  31.424  1.00  0.00     0.167 HD
ATOM     50  C   UNL A   1      42.806  28.970  34.083  1.00  0.00     0.074 A 
ATOM     51  C   UNL A   1      42.871  29.492  35.434  1.00  0.00     0.031 C 
ATOM     52  C   UNL A   1      43.664  28.052  33.576  1.00  0.00     0.037 A 
BRANCH  39  53
ATOM     53  C   UNL A   1      42.483  26.354  27.752  1.00  0.00     0.064 A 
ATOM     54  C   UNL A   1      43.450  26.752  26.818  1.00  0.00     0.173 A 
ATOM     55  C   UNL A   1      41.889  25.093  27.586  1.00  0.00     0.173 A 
ATOM     56  F   UNL A   1      44.038  27.953  26.926  1.00  0.00    -0.203 F 
ATOM     57  C   UNL A   1      43.793  25.929  25.747  1.00  0.00     0.198 A 
ATOM     58  C   UNL A   1      42.251  24.263  26.528  1.00  0.00     0.198 A 
ATOM     59  F   UNL A   1      40.961  24.663  28.453  1.00  0.00    -0.203 F 
ATOM     60  F   UNL A   1      44.692  26.346  24.845  1.00  0.00    -0.200 F 
ATOM     61  C   UNL A   1      43.199  24.684  25.607  1.00  0.00     0.200 A 
ATOM     62  F   UNL A   1      41.682  23.056  26.399  1.00  0.00    -0.200 F 
ATOM     63  F   UNL A   1      43.535  23.891  24.579  1.00  0.00    -0.200 F 
ENDBRANCH  39  53
BRANCH  40  64
ATOM     64  C   UNL A   1      39.534  32.092  35.409  1.00  0.00     0.064 A 
ATOM     65  C   UNL A   1      39.921  33.429  35.568  1.00  0.00     0.173 A 
ATOM     66  C   UNL A   1      38.652  31.549  36.355  1.00  0.00     0.173 A 
ATOM     67  F   UNL A   1      40.780  33.984  34.701  1.00  0.00    -0.203 F 
ATOM     68  C   UNL A   1      39.446  34.192  36.633  1.00  0.00     0.198 A 
ATOM     69  C   UNL A   1      38.158  32.320  37.405  1.00  0.00     0.198 A 
ATOM     70  F   UNL A   1      38.252  30.274  36.246  1.00  0.00    -0.203 F 
ATOM     71  F   UNL A   1      39.854  35.460  36.778  1.00  0.00    -0.200 F 
ATOM     72  C   UNL A   1      38.559  33.640  37.545  1.00  0.00     0.200 A 
ATOM     73  F   UNL A   1      37.291  31.786  38.276  1.00  0.00    -0.200 F 
ATOM     74  F   UNL A   1      38.093  34.379  38.560  1.00  0.00    -0.200 F 
ENDBRANCH  40  64
BRANCH  52  75
ATOM     75  C   UNL A   1      44.755  27.571  34.485  1.00  0.00     0.064 A 
ATOM     76  C   UNL A   1      44.593  26.425  35.275  1.00  0.00     0.173 A 
ATOM     77  C   UNL A   1      45.984  28.245  34.536  1.00  0.00     0.173 A 
ATOM     78  F   UNL A   1      43.429  25.760  35.271  1.00  0.00    -0.203 F 
ATOM     79  C   UNL A   1      45.621  25.980  36.101  1.00  0.00     0.198 A 
ATOM     80  C   UNL A   1      47.017  27.784  35.346  1.00  0.00     0.198 A 
ATOM     81  F   UNL A   1      46.184  29.345  33.795  1.00  0.00    -0.203 F 
ATOM     82  F   UNL A   1      45.435  24.905  36.879  1.00  0.00    -0.200 F 
ATOM     83  C   UNL A   1      46.833  26.655  36.131  1.00  0.00     0.200 A 
ATOM     84  F   UNL A   1      48.189  28.431  35.368  1.00  0.00    -0.200 F 
ATOM     85  F   UNL A   1      47.823  26.221  36.923  1.00  0.00    -0.200 F 
ENDBRANCH  52  75
ENDBRANCH  26  27
ENDBRANCH  19  21
ENDBRANCH  18  19
ENDBRANCH  17  18
ENDBRANCH   1  17
TORSDOF 14
ENDMDL
