MODEL 1
REMARK VINA RESULT:     -12.0      0.000      0.000
REMARK SMILES Cc1ccc(N)c(SCCOc2ccccc2C(=O)OCCOC(=O)c2ccc(-c3c4nc(c(-c5c(F)c(F)c(F)c(F)c5F)c5ccc([nH]5)c(-c5c(F)c(F)c(F)c(F)c5F)c5nc(c(-c6c(F)c(F)c(F)c(F)c6F)c6ccc3[nH]6)C=C5)C=C4)cc2)c1
REMARK SMILES IDX 18 1 19 2 17 3 12 4 13 5 14 6 16 7 15 8 11 9 10 10 9 11 8 12
REMARK SMILES IDX 7 13 1 14 2 15 3 16 89 17 4 18 5 19 6 20 20 23 21 24 22 25
REMARK SMILES IDX 23 26 24 27 25 28 26 29 27 30 88 31 28 32 87 33 29 34 30 35
REMARK SMILES IDX 31 36 81 37 32 38 86 39 80 40 82 41 33 42 85 43 79 44 78 45
REMARK SMILES IDX 34 47 66 48 46 49 65 50 47 51 50 52 64 53 83 54 48 55 49 56
REMARK SMILES IDX 63 58 84 59 51 60 35 61 36 62 44 63 37 64 38 65 42 66 45 67
REMARK SMILES IDX 39 68 40 69 43 70 41 71 67 72 68 73 76 74 69 75 70 76 74 77
REMARK SMILES IDX 77 78 71 79 72 80 75 81 73 82 52 83 53 84 61 85 54 86 55 87
REMARK SMILES IDX 59 88 62 89 56 90 57 91 60 92 58 93
REMARK H PARENT 6 21 6 22 82 46 50 57
REMARK Flexibility Score: inf
ROOT
ATOM      1  C   UNL A   1      34.023  33.027  28.395  1.00  0.00     0.342 C 
ATOM      2  O   UNL A   1      33.108  33.189  27.622  1.00  0.00    -0.246 OA
ENDROOT
BRANCH   1   3
ATOM      3  C   UNL A   1      34.997  31.881  28.308  1.00  0.00     0.102 A 
ATOM      4  C   UNL A   1      34.490  30.692  27.869  1.00  0.00     0.133 A 
ATOM      5  C   UNL A   1      35.246  29.503  27.933  1.00  0.00     0.047 A 
ATOM      6  C   UNL A   1      36.636  29.580  28.030  1.00  0.00     0.004 A 
ATOM      7  C   UNL A   1      36.368  31.936  28.054  1.00  0.00     0.019 A 
ATOM      8  C   UNL A   1      37.204  30.826  27.933  1.00  0.00     0.001 A 
BRANCH   4   9
ATOM      9  O   UNL A   1      33.535  30.834  26.865  1.00  0.00    -0.492 OA
BRANCH   9  10
ATOM     10  C   UNL A   1      33.053  29.500  26.429  1.00  0.00     0.241 C 
BRANCH  10  11
ATOM     11  C   UNL A   1      33.023  29.127  24.884  1.00  0.00     0.116 C 
BRANCH  11  12
ATOM     12  S   UNL A   1      31.880  27.835  23.835  1.00  0.00    -0.120 SA
BRANCH  12  13
ATOM     13  C   UNL A   1      30.228  28.264  23.070  1.00  0.00     0.031 A 
ATOM     14  C   UNL A   1      26.502  28.088  23.813  1.00  0.00     0.044 C 
ATOM     15  C   UNL A   1      27.757  28.453  23.049  1.00  0.00    -0.050 A 
ATOM     16  C   UNL A   1      27.841  29.666  22.390  1.00  0.00     0.005 A 
ATOM     17  C   UNL A   1      28.940  27.689  23.201  1.00  0.00     0.020 A 
ATOM     18  C   UNL A   1      29.077  30.077  21.896  1.00  0.00     0.027 A 
ATOM     19  C   UNL A   1      30.261  29.378  22.200  1.00  0.00     0.045 A 
BRANCH  19  20
ATOM     20  N   UNL A   1      31.472  29.888  21.721  1.00  0.00    -0.398 N 
ATOM     21  H   UNL A   1      32.003  30.504  22.277  1.00  0.00     0.156 HD
ATOM     22  H   UNL A   1      31.794  29.633  20.826  1.00  0.00     0.156 HD
ENDBRANCH  19  20
ENDBRANCH  12  13
ENDBRANCH  11  12
ENDBRANCH  10  11
ENDBRANCH   9  10
ENDBRANCH   4   9
ENDBRANCH   1   3
BRANCH   1  23
ATOM     23  O   UNL A   1      34.116  33.816  29.498  1.00  0.00    -0.458 OA
BRANCH  23  24
ATOM     24  C   UNL A   1      34.155  35.241  29.163  1.00  0.00     0.275 C 
BRANCH  24  25
ATOM     25  C   UNL A   1      32.952  36.088  29.659  1.00  0.00     0.275 C 
BRANCH  25  26
ATOM     26  O   UNL A   1      32.204  35.477  30.746  1.00  0.00    -0.458 OA
BRANCH  26  27
ATOM     27  C   UNL A   1      32.463  35.972  31.990  1.00  0.00     0.338 C 
ATOM     28  O   UNL A   1      31.816  36.858  32.534  1.00  0.00    -0.246 OA
BRANCH  27  29
ATOM     29  C   UNL A   1      33.596  35.278  32.695  1.00  0.00     0.060 A 
ATOM     30  C   UNL A   1      34.846  35.860  32.850  1.00  0.00     0.016 A 
ATOM     31  C   UNL A   1      33.450  33.947  33.112  1.00  0.00     0.016 A 
ATOM     32  C   UNL A   1      35.962  35.086  33.239  1.00  0.00     0.010 A 
ATOM     33  C   UNL A   1      34.549  33.210  33.613  1.00  0.00     0.010 A 
ATOM     34  C   UNL A   1      35.852  33.741  33.625  1.00  0.00    -0.014 A 
BRANCH  34  35
ATOM     35  C   UNL A   1      37.059  32.887  33.970  1.00  0.00     0.031 A 
ATOM     36  C   UNL A   1      37.759  33.039  35.313  1.00  0.00     0.074 A 
ATOM     37  C   UNL A   1      37.561  31.940  33.142  1.00  0.00     0.049 A 
ATOM     38  N   UNL A   1      38.953  32.641  35.692  1.00  0.00    -0.248 NA
ATOM     39  C   UNL A   1      37.011  33.737  36.369  1.00  0.00     0.031 C 
ATOM     40  C   UNL A   1      37.006  31.546  31.849  1.00  0.00     0.029 A 
ATOM     41  N   UNL A   1      38.673  31.125  33.273  1.00  0.00    -0.354 N 
ATOM     42  C   UNL A   1      39.133  33.124  36.987  1.00  0.00     0.074 A 
ATOM     43  C   UNL A   1      37.915  33.826  37.335  1.00  0.00     0.031 C 
ATOM     44  C   UNL A   1      37.736  30.548  31.334  1.00  0.00     0.029 A 
ATOM     45  C   UNL A   1      38.897  30.313  32.185  1.00  0.00     0.049 A 
ATOM     46  H   UNL A   1      39.249  31.126  34.071  1.00  0.00     0.167 HD
ATOM     47  C   UNL A   1      40.208  33.003  37.809  1.00  0.00     0.037 A 
ATOM     48  C   UNL A   1      39.941  29.523  31.850  1.00  0.00     0.037 A 
ATOM     49  C   UNL A   1      41.387  32.221  37.524  1.00  0.00     0.049 A 
ATOM     50  C   UNL A   1      41.153  29.444  32.740  1.00  0.00     0.074 A 
ATOM     51  C   UNL A   1      42.513  32.036  38.312  1.00  0.00     0.029 A 
ATOM     52  N   UNL A   1      41.583  31.471  36.376  1.00  0.00    -0.354 N 
ATOM     53  N   UNL A   1      41.364  30.007  33.902  1.00  0.00    -0.248 NA
ATOM     54  C   UNL A   1      42.286  28.643  32.250  1.00  0.00     0.031 C 
ATOM     55  C   UNL A   1      43.408  31.211  37.622  1.00  0.00     0.029 A 
ATOM     56  C   UNL A   1      42.818  30.837  36.428  1.00  0.00     0.049 A 
ATOM     57  H   UNL A   1      40.941  31.397  35.634  1.00  0.00     0.167 HD
ATOM     58  C   UNL A   1      42.644  29.625  34.284  1.00  0.00     0.074 A 
ATOM     59  C   UNL A   1      43.155  28.761  33.244  1.00  0.00     0.031 C 
ATOM     60  C   UNL A   1      43.334  29.971  35.398  1.00  0.00     0.037 A 
BRANCH  47  61
ATOM     61  C   UNL A   1      40.199  33.789  39.093  1.00  0.00     0.064 A 
ATOM     62  C   UNL A   1      39.652  33.289  40.283  1.00  0.00     0.173 A 
ATOM     63  C   UNL A   1      40.797  35.061  39.134  1.00  0.00     0.173 A 
ATOM     64  F   UNL A   1      39.068  32.082  40.303  1.00  0.00    -0.203 F 
ATOM     65  C   UNL A   1      39.669  34.047  41.454  1.00  0.00     0.198 A 
ATOM     66  C   UNL A   1      40.842  35.801  40.313  1.00  0.00     0.198 A 
ATOM     67  F   UNL A   1      41.356  35.581  38.031  1.00  0.00    -0.203 F 
ATOM     68  F   UNL A   1      39.092  33.571  42.566  1.00  0.00    -0.200 F 
ATOM     69  C   UNL A   1      40.268  35.298  41.470  1.00  0.00     0.200 A 
ATOM     70  F   UNL A   1      41.442  36.999  40.329  1.00  0.00    -0.200 F 
ATOM     71  F   UNL A   1      40.286  36.021  42.598  1.00  0.00    -0.200 F 
ENDBRANCH  47  61
BRANCH  48  72
ATOM     72  C   UNL A   1      39.928  28.799  30.547  1.00  0.00     0.064 A 
ATOM     73  C   UNL A   1      39.365  27.520  30.428  1.00  0.00     0.173 A 
ATOM     74  C   UNL A   1      40.493  29.369  29.394  1.00  0.00     0.173 A 
ATOM     75  F   UNL A   1      38.851  26.913  31.507  1.00  0.00    -0.203 F 
ATOM     76  C   UNL A   1      39.367  26.843  29.209  1.00  0.00     0.198 A 
ATOM     77  C   UNL A   1      40.459  28.708  28.169  1.00  0.00     0.198 A 
ATOM     78  F   UNL A   1      41.061  30.583  29.454  1.00  0.00    -0.203 F 
ATOM     79  F   UNL A   1      38.863  25.604  29.134  1.00  0.00    -0.200 F 
ATOM     80  C   UNL A   1      39.901  27.442  28.079  1.00  0.00     0.200 A 
ATOM     81  F   UNL A   1      40.965  29.299  27.078  1.00  0.00    -0.200 F 
ATOM     82  F   UNL A   1      39.888  26.797  26.905  1.00  0.00    -0.200 F 
ENDBRANCH  48  72
BRANCH  60  83
ATOM     83  C   UNL A   1      44.707  29.389  35.577  1.00  0.00     0.064 A 
ATOM     84  C   UNL A   1      44.909  28.155  36.213  1.00  0.00     0.173 A 
ATOM     85  C   UNL A   1      45.836  30.062  35.081  1.00  0.00     0.173 A 
ATOM     86  F   UNL A   1      43.868  27.478  36.720  1.00  0.00    -0.203 F 
ATOM     87  C   UNL A   1      46.190  27.629  36.368  1.00  0.00     0.198 A 
ATOM     88  C   UNL A   1      47.112  29.520  35.215  1.00  0.00     0.198 A 
ATOM     89  F   UNL A   1      45.700  31.244  34.462  1.00  0.00    -0.203 F 
ATOM     90  F   UNL A   1      46.363  26.471  37.022  1.00  0.00    -0.200 F 
ATOM     91  C   UNL A   1      47.289  28.308  35.865  1.00  0.00     0.200 A 
ATOM     92  F   UNL A   1      48.172  30.173  34.718  1.00  0.00    -0.200 F 
ATOM     93  F   UNL A   1      48.520  27.799  36.013  1.00  0.00    -0.200 F 
ENDBRANCH  60  83
ENDBRANCH  34  35
ENDBRANCH  27  29
ENDBRANCH  26  27
ENDBRANCH  25  26
ENDBRANCH  24  25
ENDBRANCH  23  24
ENDBRANCH   1  23
TORSDOF 17
ENDMDL
MODEL 2
REMARK VINA RESULT:     -11.8      6.396     10.229
REMARK SMILES Cc1ccc(N)c(SCCOc2ccccc2C(=O)OCCOC(=O)c2ccc(-c3c4nc(c(-c5c(F)c(F)c(F)c(F)c5F)c5ccc([nH]5)c(-c5c(F)c(F)c(F)c(F)c5F)c5nc(c(-c6c(F)c(F)c(F)c(F)c6F)c6ccc3[nH]6)C=C5)C=C4)cc2)c1
REMARK SMILES IDX 18 1 19 2 17 3 12 4 13 5 14 6 16 7 15 8 11 9 10 10 9 11 8 12
REMARK SMILES IDX 7 13 1 14 2 15 3 16 89 17 4 18 5 19 6 20 20 23 21 24 22 25
REMARK SMILES IDX 23 26 24 27 25 28 26 29 27 30 88 31 28 32 87 33 29 34 30 35
REMARK SMILES IDX 31 36 81 37 32 38 86 39 80 40 82 41 33 42 85 43 79 44 78 45
REMARK SMILES IDX 34 47 66 48 46 49 65 50 47 51 50 52 64 53 83 54 48 55 49 56
REMARK SMILES IDX 63 58 84 59 51 60 35 61 36 62 44 63 37 64 38 65 42 66 45 67
REMARK SMILES IDX 39 68 40 69 43 70 41 71 67 72 68 73 76 74 69 75 70 76 74 77
REMARK SMILES IDX 77 78 71 79 72 80 75 81 73 82 52 83 53 84 61 85 54 86 55 87
REMARK SMILES IDX 59 88 62 89 56 90 57 91 60 92 58 93
REMARK H PARENT 6 21 6 22 82 46 50 57
REMARK Flexibility Score: inf
ROOT
ATOM      1  C   UNL A   1      34.815  24.128  25.176  1.00  0.00     0.342 C 
ATOM      2  O   UNL A   1      35.952  24.433  24.902  1.00  0.00    -0.246 OA
ENDROOT
BRANCH   1   3
ATOM      3  C   UNL A   1      33.723  25.131  25.443  1.00  0.00     0.102 A 
ATOM      4  C   UNL A   1      33.356  25.917  24.388  1.00  0.00     0.133 A 
ATOM      5  C   UNL A   1      32.495  27.021  24.560  1.00  0.00     0.047 A 
ATOM      6  C   UNL A   1      31.669  27.077  25.683  1.00  0.00     0.004 A 
ATOM      7  C   UNL A   1      32.668  25.032  26.350  1.00  0.00     0.019 A 
ATOM      8  C   UNL A   1      31.656  25.979  26.507  1.00  0.00     0.001 A 
BRANCH   4   9
ATOM      9  O   UNL A   1      33.362  25.245  23.168  1.00  0.00    -0.492 OA
BRANCH   9  10
ATOM     10  C   UNL A   1      31.993  24.777  22.839  1.00  0.00     0.241 C 
BRANCH  10  11
ATOM     11  C   UNL A   1      31.547  23.294  23.199  1.00  0.00     0.116 C 
BRANCH  11  12
ATOM     12  S   UNL A   1      32.030  21.510  22.386  1.00  0.00    -0.120 SA
BRANCH  12  13
ATOM     13  C   UNL A   1      32.298  19.939  23.365  1.00  0.00     0.031 A 
ATOM     14  C   UNL A   1      34.062  16.580  23.120  1.00  0.00     0.044 C 
ATOM     15  C   UNL A   1      33.265  17.693  23.764  1.00  0.00    -0.050 A 
ATOM     16  C   UNL A   1      33.447  17.994  25.102  1.00  0.00     0.005 A 
ATOM     17  C   UNL A   1      32.519  18.597  22.969  1.00  0.00     0.020 A 
ATOM     18  C   UNL A   1      32.882  19.161  25.611  1.00  0.00     0.027 A 
ATOM     19  C   UNL A   1      32.285  20.118  24.767  1.00  0.00     0.045 A 
BRANCH  19  20
ATOM     20  N   UNL A   1      31.796  21.296  25.344  1.00  0.00    -0.398 N 
ATOM     21  H   UNL A   1      32.418  21.930  25.770  1.00  0.00     0.156 HD
ATOM     22  H   UNL A   1      30.831  21.489  25.325  1.00  0.00     0.156 HD
ENDBRANCH  19  20
ENDBRANCH  12  13
ENDBRANCH  11  12
ENDBRANCH  10  11
ENDBRANCH   9  10
ENDBRANCH   4   9
ENDBRANCH   1   3
BRANCH   1  23
ATOM     23  O   UNL A   1      34.509  22.826  25.414  1.00  0.00    -0.458 OA
BRANCH  23  24
ATOM     24  C   UNL A   1      35.290  21.909  24.579  1.00  0.00     0.275 C 
BRANCH  24  25
ATOM     25  C   UNL A   1      36.398  21.103  25.310  1.00  0.00     0.275 C 
BRANCH  25  26
ATOM     26  O   UNL A   1      37.746  21.391  24.846  1.00  0.00    -0.458 OA
BRANCH  26  27
ATOM     27  C   UNL A   1      38.743  21.145  25.744  1.00  0.00     0.338 C 
ATOM     28  O   UNL A   1      39.223  20.041  25.964  1.00  0.00    -0.246 OA
BRANCH  27  29
ATOM     29  C   UNL A   1      39.272  22.383  26.414  1.00  0.00     0.060 A 
ATOM     30  C   UNL A   1      38.778  23.651  26.137  1.00  0.00     0.016 A 
ATOM     31  C   UNL A   1      40.386  22.299  27.261  1.00  0.00     0.016 A 
ATOM     32  C   UNL A   1      39.480  24.807  26.544  1.00  0.00     0.010 A 
ATOM     33  C   UNL A   1      41.017  23.462  27.763  1.00  0.00     0.010 A 
ATOM     34  C   UNL A   1      40.621  24.751  27.361  1.00  0.00    -0.014 A 
BRANCH  34  35
ATOM     35  C   UNL A   1      41.421  25.986  27.736  1.00  0.00     0.031 A 
ATOM     36  C   UNL A   1      40.805  27.077  28.599  1.00  0.00     0.074 A 
ATOM     37  C   UNL A   1      42.708  26.179  27.362  1.00  0.00     0.049 A 
ATOM     38  N   UNL A   1      41.187  28.320  28.788  1.00  0.00    -0.248 NA
ATOM     39  C   UNL A   1      39.592  26.716  29.348  1.00  0.00     0.031 C 
ATOM     40  C   UNL A   1      43.538  25.236  26.617  1.00  0.00     0.029 A 
ATOM     41  N   UNL A   1      43.554  27.257  27.564  1.00  0.00    -0.354 N 
ATOM     42  C   UNL A   1      40.214  28.909  29.593  1.00  0.00     0.074 A 
ATOM     43  C   UNL A   1      39.235  27.880  29.873  1.00  0.00     0.031 C 
ATOM     44  C   UNL A   1      44.770  25.744  26.468  1.00  0.00     0.029 A 
ATOM     45  C   UNL A   1      44.792  27.108  26.983  1.00  0.00     0.049 A 
ATOM     46  H   UNL A   1      43.293  28.056  28.077  1.00  0.00     0.167 HD
ATOM     47  C   UNL A   1      40.133  30.186  30.051  1.00  0.00     0.037 A 
ATOM     48  C   UNL A   1      45.813  27.975  26.802  1.00  0.00     0.037 A 
ATOM     49  C   UNL A   1      41.148  31.198  29.872  1.00  0.00     0.049 A 
ATOM     50  C   UNL A   1      45.689  29.404  27.260  1.00  0.00     0.074 A 
ATOM     51  C   UNL A   1      41.148  32.510  30.319  1.00  0.00     0.029 A 
ATOM     52  N   UNL A   1      42.354  31.005  29.218  1.00  0.00    -0.354 N 
ATOM     53  N   UNL A   1      44.710  29.984  27.907  1.00  0.00    -0.248 NA
ATOM     54  C   UNL A   1      46.804  30.307  26.931  1.00  0.00     0.031 C 
ATOM     55  C   UNL A   1      42.334  33.123  29.898  1.00  0.00     0.029 A 
ATOM     56  C   UNL A   1      43.097  32.178  29.235  1.00  0.00     0.049 A 
ATOM     57  H   UNL A   1      42.643  30.160  28.804  1.00  0.00     0.167 HD
ATOM     58  C   UNL A   1      45.092  31.310  28.068  1.00  0.00     0.074 A 
ATOM     59  C   UNL A   1      46.403  31.447  27.475  1.00  0.00     0.031 C 
ATOM     60  C   UNL A   1      44.405  32.323  28.650  1.00  0.00     0.037 A 
BRANCH  47  61
ATOM     61  C   UNL A   1      38.867  30.600  30.752  1.00  0.00     0.064 A 
ATOM     62  C   UNL A   1      38.731  30.576  32.147  1.00  0.00     0.173 A 
ATOM     63  C   UNL A   1      37.779  31.075  29.999  1.00  0.00     0.173 A 
ATOM     64  F   UNL A   1      39.736  30.132  32.916  1.00  0.00    -0.203 F 
ATOM     65  C   UNL A   1      37.542  30.974  32.759  1.00  0.00     0.198 A 
ATOM     66  C   UNL A   1      36.605  31.503  30.615  1.00  0.00     0.198 A 
ATOM     67  F   UNL A   1      37.860  31.141  28.661  1.00  0.00    -0.203 F 
ATOM     68  F   UNL A   1      37.416  30.891  34.090  1.00  0.00    -0.200 F 
ATOM     69  C   UNL A   1      36.484  31.442  31.994  1.00  0.00     0.200 A 
ATOM     70  F   UNL A   1      35.594  31.976  29.873  1.00  0.00    -0.200 F 
ATOM     71  F   UNL A   1      35.345  31.827  32.585  1.00  0.00    -0.200 F 
ENDBRANCH  47  61
BRANCH  48  72
ATOM     72  C   UNL A   1      47.030  27.536  26.061  1.00  0.00     0.064 A 
ATOM     73  C   UNL A   1      47.109  27.633  24.665  1.00  0.00     0.173 A 
ATOM     74  C   UNL A   1      48.136  26.997  26.738  1.00  0.00     0.173 A 
ATOM     75  F   UNL A   1      46.064  28.101  23.966  1.00  0.00    -0.203 F 
ATOM     76  C   UNL A   1      48.245  27.209  23.976  1.00  0.00     0.198 A 
ATOM     77  C   UNL A   1      49.285  26.610  26.053  1.00  0.00     0.198 A 
ATOM     78  F   UNL A   1      48.108  26.864  28.073  1.00  0.00    -0.203 F 
ATOM     79  F   UNL A   1      48.276  27.272  22.638  1.00  0.00    -0.200 F 
ATOM     80  C   UNL A   1      49.336  26.712  24.671  1.00  0.00     0.200 A 
ATOM     81  F   UNL A   1      50.341  26.143  26.732  1.00  0.00    -0.200 F 
ATOM     82  F   UNL A   1      50.434  26.320  24.011  1.00  0.00    -0.200 F 
ENDBRANCH  48  72
BRANCH  60  83
ATOM     83  C   UNL A   1      45.070  33.669  28.712  1.00  0.00     0.064 A 
ATOM     84  C   UNL A   1      45.940  34.017  29.755  1.00  0.00     0.173 A 
ATOM     85  C   UNL A   1      44.852  34.618  27.698  1.00  0.00     0.173 A 
ATOM     86  F   UNL A   1      46.170  33.155  30.758  1.00  0.00    -0.203 F 
ATOM     87  C   UNL A   1      46.550  35.269  29.796  1.00  0.00     0.198 A 
ATOM     88  C   UNL A   1      45.484  35.859  27.728  1.00  0.00     0.198 A 
ATOM     89  F   UNL A   1      44.032  34.337  26.675  1.00  0.00    -0.203 F 
ATOM     90  F   UNL A   1      47.340  35.596  30.828  1.00  0.00    -0.200 F 
ATOM     91  C   UNL A   1      46.326  36.186  28.780  1.00  0.00     0.200 A 
ATOM     92  F   UNL A   1      45.274  36.740  26.740  1.00  0.00    -0.200 F 
ATOM     93  F   UNL A   1      46.915  37.390  28.819  1.00  0.00    -0.200 F 
ENDBRANCH  60  83
ENDBRANCH  34  35
ENDBRANCH  27  29
ENDBRANCH  26  27
ENDBRANCH  25  26
ENDBRANCH  24  25
ENDBRANCH  23  24
ENDBRANCH   1  23
TORSDOF 17
ENDMDL
MODEL 3
REMARK VINA RESULT:     -11.8      6.057      9.929
REMARK SMILES Cc1ccc(N)c(SCCOc2ccccc2C(=O)OCCOC(=O)c2ccc(-c3c4nc(c(-c5c(F)c(F)c(F)c(F)c5F)c5ccc([nH]5)c(-c5c(F)c(F)c(F)c(F)c5F)c5nc(c(-c6c(F)c(F)c(F)c(F)c6F)c6ccc3[nH]6)C=C5)C=C4)cc2)c1
REMARK SMILES IDX 18 1 19 2 17 3 12 4 13 5 14 6 16 7 15 8 11 9 10 10 9 11 8 12
REMARK SMILES IDX 7 13 1 14 2 15 3 16 89 17 4 18 5 19 6 20 20 23 21 24 22 25
REMARK SMILES IDX 23 26 24 27 25 28 26 29 27 30 88 31 28 32 87 33 29 34 30 35
REMARK SMILES IDX 31 36 81 37 32 38 86 39 80 40 82 41 33 42 85 43 79 44 78 45
REMARK SMILES IDX 34 47 66 48 46 49 65 50 47 51 50 52 64 53 83 54 48 55 49 56
REMARK SMILES IDX 63 58 84 59 51 60 35 61 36 62 44 63 37 64 38 65 42 66 45 67
REMARK SMILES IDX 39 68 40 69 43 70 41 71 67 72 68 73 76 74 69 75 70 76 74 77
REMARK SMILES IDX 77 78 71 79 72 80 75 81 73 82 52 83 53 84 61 85 54 86 55 87
REMARK SMILES IDX 59 88 62 89 56 90 57 91 60 92 58 93
REMARK H PARENT 6 21 6 22 82 46 50 57
REMARK Flexibility Score: inf
ROOT
ATOM      1  C   UNL A   1      34.144  21.174  25.571  1.00  0.00     0.342 C 
ATOM      2  O   UNL A   1      33.605  20.757  26.570  1.00  0.00    -0.246 OA
ENDROOT
BRANCH   1   3
ATOM      3  C   UNL A   1      34.240  22.637  25.223  1.00  0.00     0.102 A 
ATOM      4  C   UNL A   1      33.753  22.998  23.999  1.00  0.00     0.133 A 
ATOM      5  C   UNL A   1      33.965  24.291  23.478  1.00  0.00     0.047 A 
ATOM      6  C   UNL A   1      34.280  25.337  24.347  1.00  0.00     0.004 A 
ATOM      7  C   UNL A   1      34.205  23.729  26.089  1.00  0.00     0.019 A 
ATOM      8  C   UNL A   1      34.244  25.066  25.693  1.00  0.00     0.001 A 
BRANCH   4   9
ATOM      9  O   UNL A   1      32.607  22.298  23.630  1.00  0.00    -0.492 OA
BRANCH   9  10
ATOM     10  C   UNL A   1      31.412  22.908  24.264  1.00  0.00     0.241 C 
BRANCH  10  11
ATOM     11  C   UNL A   1      30.626  24.078  23.527  1.00  0.00     0.116 C 
BRANCH  11  12
ATOM     12  S   UNL A   1      30.023  25.899  24.157  1.00  0.00    -0.120 SA
BRANCH  12  13
ATOM     13  C   UNL A   1      31.173  27.335  24.494  1.00  0.00     0.031 A 
ATOM     14  C   UNL A   1      33.607  28.607  27.124  1.00  0.00     0.044 C 
ATOM     15  C   UNL A   1      32.869  28.581  25.802  1.00  0.00    -0.050 A 
ATOM     16  C   UNL A   1      33.515  28.953  24.638  1.00  0.00     0.005 A 
ATOM     17  C   UNL A   1      31.607  27.946  25.696  1.00  0.00     0.020 A 
ATOM     18  C   UNL A   1      32.896  28.699  23.416  1.00  0.00     0.027 A 
ATOM     19  C   UNL A   1      31.722  27.925  23.332  1.00  0.00     0.045 A 
BRANCH  19  20
ATOM     20  N   UNL A   1      31.194  27.659  22.064  1.00  0.00    -0.398 N 
ATOM     21  H   UNL A   1      30.746  26.800  21.887  1.00  0.00     0.156 HD
ATOM     22  H   UNL A   1      31.271  28.331  21.348  1.00  0.00     0.156 HD
ENDBRANCH  19  20
ENDBRANCH  12  13
ENDBRANCH  11  12
ENDBRANCH  10  11
ENDBRANCH   9  10
ENDBRANCH   4   9
ENDBRANCH   1   3
BRANCH   1  23
ATOM     23  O   UNL A   1      34.559  20.298  24.619  1.00  0.00    -0.458 OA
BRANCH  23  24
ATOM     24  C   UNL A   1      35.813  19.633  24.982  1.00  0.00     0.275 C 
BRANCH  24  25
ATOM     25  C   UNL A   1      37.115  20.403  24.633  1.00  0.00     0.275 C 
BRANCH  25  26
ATOM     26  O   UNL A   1      37.550  21.332  25.664  1.00  0.00    -0.458 OA
BRANCH  26  27
ATOM     27  C   UNL A   1      38.872  21.266  25.995  1.00  0.00     0.338 C 
ATOM     28  O   UNL A   1      39.604  20.317  25.747  1.00  0.00    -0.246 OA
BRANCH  27  29
ATOM     29  C   UNL A   1      39.396  22.517  26.647  1.00  0.00     0.060 A 
ATOM     30  C   UNL A   1      38.894  23.778  26.354  1.00  0.00     0.016 A 
ATOM     31  C   UNL A   1      40.512  22.451  27.493  1.00  0.00     0.016 A 
ATOM     32  C   UNL A   1      39.591  24.943  26.743  1.00  0.00     0.010 A 
ATOM     33  C   UNL A   1      41.137  23.624  27.977  1.00  0.00     0.010 A 
ATOM     34  C   UNL A   1      40.733  24.905  27.558  1.00  0.00    -0.014 A 
BRANCH  34  35
ATOM     35  C   UNL A   1      41.527  26.149  27.914  1.00  0.00     0.031 A 
ATOM     36  C   UNL A   1      40.910  27.244  28.773  1.00  0.00     0.074 A 
ATOM     37  C   UNL A   1      42.810  26.348  27.526  1.00  0.00     0.049 A 
ATOM     38  N   UNL A   1      41.285  28.492  28.946  1.00  0.00    -0.248 NA
ATOM     39  C   UNL A   1      39.708  26.881  29.536  1.00  0.00     0.031 C 
ATOM     40  C   UNL A   1      43.640  25.405  26.783  1.00  0.00     0.029 A 
ATOM     41  N   UNL A   1      43.648  27.435  27.711  1.00  0.00    -0.354 N 
ATOM     42  C   UNL A   1      40.314  29.081  29.754  1.00  0.00     0.074 A 
ATOM     43  C   UNL A   1      39.346  28.047  30.053  1.00  0.00     0.031 C 
ATOM     44  C   UNL A   1      44.866  25.921  26.618  1.00  0.00     0.029 A 
ATOM     45  C   UNL A   1      44.883  27.290  27.120  1.00  0.00     0.049 A 
ATOM     46  H   UNL A   1      43.386  28.237  28.218  1.00  0.00     0.167 HD
ATOM     47  C   UNL A   1      40.228  30.362  30.201  1.00  0.00     0.037 A 
ATOM     48  C   UNL A   1      45.895  28.163  26.921  1.00  0.00     0.037 A 
ATOM     49  C   UNL A   1      41.233  31.379  30.003  1.00  0.00     0.049 A 
ATOM     50  C   UNL A   1      45.764  29.595  27.367  1.00  0.00     0.074 A 
ATOM     51  C   UNL A   1      41.227  32.696  30.437  1.00  0.00     0.029 A 
ATOM     52  N   UNL A   1      42.435  31.189  29.340  1.00  0.00    -0.354 N 
ATOM     53  N   UNL A   1      44.786  30.174  28.017  1.00  0.00    -0.248 NA
ATOM     54  C   UNL A   1      46.869  30.503  27.019  1.00  0.00     0.031 C 
ATOM     55  C   UNL A   1      42.405  33.314  30.000  1.00  0.00     0.029 A 
ATOM     56  C   UNL A   1      43.168  32.368  29.338  1.00  0.00     0.049 A 
ATOM     57  H   UNL A   1      42.726  30.342  28.931  1.00  0.00     0.167 HD
ATOM     58  C   UNL A   1      45.159  31.504  28.162  1.00  0.00     0.074 A 
ATOM     59  C   UNL A   1      46.464  31.646  27.555  1.00  0.00     0.031 C 
ATOM     60  C   UNL A   1      44.470  32.518  28.741  1.00  0.00     0.037 A 
BRANCH  47  61
ATOM     61  C   UNL A   1      38.965  30.773  30.909  1.00  0.00     0.064 A 
ATOM     62  C   UNL A   1      38.838  30.749  32.305  1.00  0.00     0.173 A 
ATOM     63  C   UNL A   1      37.871  31.244  30.162  1.00  0.00     0.173 A 
ATOM     64  F   UNL A   1      39.848  30.308  33.068  1.00  0.00    -0.203 F 
ATOM     65  C   UNL A   1      37.652  31.144  32.923  1.00  0.00     0.198 A 
ATOM     66  C   UNL A   1      36.700  31.670  30.785  1.00  0.00     0.198 A 
ATOM     67  F   UNL A   1      37.944  31.310  28.824  1.00  0.00    -0.203 F 
ATOM     68  F   UNL A   1      37.534  31.062  34.256  1.00  0.00    -0.200 F 
ATOM     69  C   UNL A   1      36.587  31.609  32.165  1.00  0.00     0.200 A 
ATOM     70  F   UNL A   1      35.683  32.140  30.049  1.00  0.00    -0.200 F 
ATOM     71  F   UNL A   1      35.451  31.992  32.763  1.00  0.00    -0.200 F 
ENDBRANCH  47  61
BRANCH  48  72
ATOM     72  C   UNL A   1      47.108  27.726  26.174  1.00  0.00     0.064 A 
ATOM     73  C   UNL A   1      48.259  27.286  26.844  1.00  0.00     0.173 A 
ATOM     74  C   UNL A   1      47.145  27.753  24.770  1.00  0.00     0.173 A 
ATOM     75  F   UNL A   1      48.291  27.282  28.184  1.00  0.00    -0.203 F 
ATOM     76  C   UNL A   1      49.395  26.890  26.140  1.00  0.00     0.198 A 
ATOM     77  C   UNL A   1      48.267  27.320  24.067  1.00  0.00     0.198 A 
ATOM     78  F   UNL A   1      46.079  28.181  24.077  1.00  0.00    -0.203 F 
ATOM     79  F   UNL A   1      50.496  26.517  26.806  1.00  0.00    -0.200 F 
ATOM     80  C   UNL A   1      49.394  26.894  24.753  1.00  0.00     0.200 A 
ATOM     81  F   UNL A   1      48.253  27.313  22.727  1.00  0.00    -0.200 F 
ATOM     82  F   UNL A   1      50.480  26.498  24.077  1.00  0.00    -0.200 F 
ENDBRANCH  48  72
BRANCH  60  83
ATOM     83  C   UNL A   1      45.125  33.870  28.783  1.00  0.00     0.064 A 
ATOM     84  C   UNL A   1      44.898  34.832  27.788  1.00  0.00     0.173 A 
ATOM     85  C   UNL A   1      45.973  34.217  29.848  1.00  0.00     0.173 A 
ATOM     86  F   UNL A   1      44.110  34.547  26.740  1.00  0.00    -0.203 F 
ATOM     87  C   UNL A   1      45.512  36.081  27.844  1.00  0.00     0.198 A 
ATOM     88  C   UNL A   1      46.564  35.477  29.914  1.00  0.00     0.198 A 
ATOM     89  F   UNL A   1      46.223  33.336  30.827  1.00  0.00    -0.203 F 
ATOM     90  F   UNL A   1      45.317  36.968  26.857  1.00  0.00    -0.200 F 
ATOM     91  C   UNL A   1      46.339  36.405  28.909  1.00  0.00     0.200 A 
ATOM     92  F   UNL A   1      47.355  35.791  30.949  1.00  0.00    -0.200 F 
ATOM     93  F   UNL A   1      46.927  37.609  28.962  1.00  0.00    -0.200 F 
ENDBRANCH  60  83
ENDBRANCH  34  35
ENDBRANCH  27  29
ENDBRANCH  26  27
ENDBRANCH  25  26
ENDBRANCH  24  25
ENDBRANCH  23  24
ENDBRANCH   1  23
TORSDOF 17
ENDMDL
