MODEL 1
REMARK VINA RESULT:     -11.2      0.000      0.000
REMARK SMILES C[C@@H]1[C@@H](C(=O)OCCOC(=O)c2ccc(-c3c4nc(c(-c5c(F)c(F)c(F)c(F)c5F)c5ccc([nH]5)c(-c5c(F)c(F)c(F)c(F)c5F)c5nc(c(-c6c(F)c(F)c(F)c(F)c6F)c6ccc3[nH]6)C=C5)C=C4)cc2)CCN1C(=O)N(C)Cc1ccsc1
REMARK SMILES IDX 7 1 6 2 4 3 5 4 3 5 1 6 2 7 77 8 75 9 76 10 78 11 79 12
REMARK SMILES IDX 80 13 81 14 82 15 83 16 84 17 87 18 85 19 86 20 8 21 9 22
REMARK SMILES IDX 10 23 11 24 12 25 13 26 74 27 14 28 73 29 15 30 16 31 17 32
REMARK SMILES IDX 67 33 18 34 72 35 66 36 68 37 19 38 71 39 65 40 64 41 20 43
REMARK SMILES IDX 52 44 32 45 51 46 33 47 36 48 50 49 69 50 34 51 35 52 49 54
REMARK SMILES IDX 70 55 37 56 21 57 22 58 30 59 23 60 24 61 28 62 31 63 25 64
REMARK SMILES IDX 26 65 29 66 27 67 53 68 54 69 62 70 55 71 56 72 60 73 63 74
REMARK SMILES IDX 57 75 58 76 61 77 59 78 38 79 39 80 47 81 40 82 41 83 45 84
REMARK SMILES IDX 48 85 42 86 43 87 46 88 44 89
REMARK H PARENT 68 42 36 53
REMARK Flexibility Score: inf
ROOT
ATOM      1  C   UNL A   1      31.703  28.753  27.043  1.00  0.00     0.274 C 
ENDROOT
BRANCH   1   2
ATOM      2  O   UNL A   1      31.113  28.131  25.885  1.00  0.00    -0.462 OA
BRANCH   2   3
ATOM      3  C   UNL A   1      31.021  26.772  25.924  1.00  0.00     0.311 C 
ATOM      4  O   UNL A   1      31.357  26.081  26.876  1.00  0.00    -0.252 OA
BRANCH   3   5
ATOM      5  C   UNL A   1      30.385  26.247  24.648  1.00  0.00     0.123 C 
ATOM      6  C   UNL A   1      30.310  24.182  23.197  1.00  0.00     0.032 C 
ATOM      7  C   UNL A   1      31.205  25.082  24.061  1.00  0.00     0.098 C 
ATOM      8  N   UNL A   1      32.235  25.737  23.261  1.00  0.00    -0.321 N 
ATOM      9  C   UNL A   1      30.424  27.279  23.526  1.00  0.00     0.039 C 
ATOM     10  C   UNL A   1      31.808  27.093  22.919  1.00  0.00     0.122 C 
BRANCH   8  11
ATOM     11  C   UNL A   1      33.533  25.406  22.968  1.00  0.00     0.320 C 
ATOM     12  O   UNL A   1      34.026  25.860  21.927  1.00  0.00    -0.248 OA
BRANCH  11  13
ATOM     13  N   UNL A   1      34.303  24.609  23.791  1.00  0.00    -0.323 N 
ATOM     14  C   UNL A   1      34.769  24.824  25.151  1.00  0.00     0.149 C 
BRANCH  13  15
ATOM     15  C   UNL A   1      34.760  23.349  23.201  1.00  0.00     0.157 C 
BRANCH  15  16
ATOM     16  C   UNL A   1      34.133  22.156  23.879  1.00  0.00    -0.018 A 
ATOM     17  C   UNL A   1      34.819  21.358  24.858  1.00  0.00     0.017 A 
ATOM     18  C   UNL A   1      32.869  21.638  23.646  1.00  0.00     0.070 A 
ATOM     19  C   UNL A   1      34.070  20.290  25.301  1.00  0.00     0.065 A 
ATOM     20  S   UNL A   1      32.529  20.242  24.569  1.00  0.00    -0.152 S 
ENDBRANCH  15  16
ENDBRANCH  13  15
ENDBRANCH  11  13
ENDBRANCH   8  11
ENDBRANCH   3   5
ENDBRANCH   2   3
ENDBRANCH   1   2
BRANCH   1  21
ATOM     21  C   UNL A   1      31.799  30.276  26.900  1.00  0.00     0.275 C 
BRANCH  21  22
ATOM     22  O   UNL A   1      33.130  30.703  26.548  1.00  0.00    -0.458 OA
BRANCH  22  23
ATOM     23  C   UNL A   1      33.599  31.764  27.247  1.00  0.00     0.338 C 
ATOM     24  O   UNL A   1      33.027  32.817  27.469  1.00  0.00    -0.246 OA
BRANCH  23  25
ATOM     25  C   UNL A   1      34.868  31.407  27.902  1.00  0.00     0.060 A 
ATOM     26  C   UNL A   1      34.956  30.119  28.433  1.00  0.00     0.016 A 
ATOM     27  C   UNL A   1      35.916  32.311  28.077  1.00  0.00     0.016 A 
ATOM     28  C   UNL A   1      36.098  29.707  29.109  1.00  0.00     0.010 A 
ATOM     29  C   UNL A   1      37.061  31.906  28.780  1.00  0.00     0.010 A 
ATOM     30  C   UNL A   1      37.159  30.600  29.297  1.00  0.00    -0.014 A 
BRANCH  30  31
ATOM     31  C   UNL A   1      38.313  30.172  30.124  1.00  0.00     0.031 A 
ATOM     32  C   UNL A   1      39.351  29.264  29.531  1.00  0.00     0.074 A 
ATOM     33  C   UNL A   1      38.487  30.670  31.362  1.00  0.00     0.049 A 
ATOM     34  N   UNL A   1      40.402  28.725  30.094  1.00  0.00    -0.248 NA
ATOM     35  C   UNL A   1      39.191  28.932  28.107  1.00  0.00     0.031 C 
ATOM     36  C   UNL A   1      37.608  31.639  32.013  1.00  0.00     0.029 A 
ATOM     37  N   UNL A   1      39.477  30.441  32.287  1.00  0.00    -0.354 N 
ATOM     38  C   UNL A   1      41.017  27.973  29.102  1.00  0.00     0.074 A 
ATOM     39  C   UNL A   1      40.223  28.127  27.901  1.00  0.00     0.031 C 
ATOM     40  C   UNL A   1      38.105  31.934  33.227  1.00  0.00     0.029 A 
ATOM     41  C   UNL A   1      39.305  31.132  33.461  1.00  0.00     0.049 A 
ATOM     42  H   UNL A   1      40.238  29.838  32.123  1.00  0.00     0.167 HD
ATOM     43  C   UNL A   1      42.138  27.218  29.189  1.00  0.00     0.037 A 
ATOM     44  C   UNL A   1      40.018  31.095  34.604  1.00  0.00     0.037 A 
ATOM     45  C   UNL A   1      42.929  27.070  30.381  1.00  0.00     0.049 A 
ATOM     46  C   UNL A   1      41.206  30.174  34.703  1.00  0.00     0.074 A 
ATOM     47  C   UNL A   1      44.052  26.286  30.582  1.00  0.00     0.029 A 
ATOM     48  N   UNL A   1      42.683  27.729  31.576  1.00  0.00    -0.354 N 
ATOM     49  N   UNL A   1      41.741  29.408  33.783  1.00  0.00    -0.248 NA
ATOM     50  C   UNL A   1      41.877  30.095  36.010  1.00  0.00     0.031 C 
ATOM     51  C   UNL A   1      44.467  26.447  31.910  1.00  0.00     0.029 A 
ATOM     52  C   UNL A   1      43.626  27.361  32.522  1.00  0.00     0.049 A 
ATOM     53  H   UNL A   1      41.948  28.366  31.729  1.00  0.00     0.167 HD
ATOM     54  C   UNL A   1      42.815  28.771  34.392  1.00  0.00     0.074 A 
ATOM     55  C   UNL A   1      42.869  29.254  35.755  1.00  0.00     0.031 C 
ATOM     56  C   UNL A   1      43.672  27.860  33.871  1.00  0.00     0.037 A 
BRANCH  43  57
ATOM     57  C   UNL A   1      42.545  26.452  27.968  1.00  0.00     0.064 A 
ATOM     58  C   UNL A   1      43.459  26.971  27.041  1.00  0.00     0.173 A 
ATOM     59  C   UNL A   1      42.026  25.169  27.735  1.00  0.00     0.173 A 
ATOM     60  F   UNL A   1      43.967  28.201  27.211  1.00  0.00    -0.203 F 
ATOM     61  C   UNL A   1      43.826  26.241  25.913  1.00  0.00     0.198 A 
ATOM     62  C   UNL A   1      42.412  24.433  26.618  1.00  0.00     0.198 A 
ATOM     63  F   UNL A   1      41.148  24.629  28.593  1.00  0.00    -0.203 F 
ATOM     64  F   UNL A   1      44.671  26.771  25.019  1.00  0.00    -0.200 F 
ATOM     65  C   UNL A   1      43.307  24.970  25.707  1.00  0.00     0.200 A 
ATOM     66  F   UNL A   1      41.914  23.203  26.424  1.00  0.00    -0.200 F 
ATOM     67  F   UNL A   1      43.662  24.268  24.622  1.00  0.00    -0.200 F 
ENDBRANCH  43  57
BRANCH  44  68
ATOM     68  C   UNL A   1      39.610  31.920  35.771  1.00  0.00     0.064 A 
ATOM     69  C   UNL A   1      38.566  31.513  36.614  1.00  0.00     0.173 A 
ATOM     70  C   UNL A   1      40.224  33.151  36.044  1.00  0.00     0.173 A 
ATOM     71  F   UNL A   1      37.924  30.359  36.376  1.00  0.00    -0.203 F 
ATOM     72  C   UNL A   1      38.143  32.314  37.674  1.00  0.00     0.198 A 
ATOM     73  C   UNL A   1      39.820  33.937  37.121  1.00  0.00     0.198 A 
ATOM     74  F   UNL A   1      41.221  33.592  35.262  1.00  0.00    -0.203 F 
ATOM     75  F   UNL A   1      37.110  31.924  38.433  1.00  0.00    -0.200 F 
ATOM     76  C   UNL A   1      38.774  33.522  37.929  1.00  0.00     0.200 A 
ATOM     77  F   UNL A   1      40.438  35.099  37.368  1.00  0.00    -0.200 F 
ATOM     78  F   UNL A   1      38.365  34.291  38.948  1.00  0.00    -0.200 F 
ENDBRANCH  44  68
BRANCH  56  79
ATOM     79  C   UNL A   1      44.758  27.346  34.769  1.00  0.00     0.064 A 
ATOM     80  C   UNL A   1      44.589  26.182  35.533  1.00  0.00     0.173 A 
ATOM     81  C   UNL A   1      45.998  28.000  34.833  1.00  0.00     0.173 A 
ATOM     82  F   UNL A   1      43.416  25.530  35.516  1.00  0.00    -0.203 F 
ATOM     83  C   UNL A   1      45.614  25.701  36.342  1.00  0.00     0.198 A 
ATOM     84  C   UNL A   1      47.030  27.504  35.625  1.00  0.00     0.198 A 
ATOM     85  F   UNL A   1      46.211  29.114  34.118  1.00  0.00    -0.203 F 
ATOM     86  F   UNL A   1      45.417  24.609  37.092  1.00  0.00    -0.200 F 
ATOM     87  C   UNL A   1      46.834  26.359  36.383  1.00  0.00     0.200 A 
ATOM     88  F   UNL A   1      48.212  28.134  35.656  1.00  0.00    -0.200 F 
ATOM     89  F   UNL A   1      47.823  25.891  37.159  1.00  0.00    -0.200 F 
ENDBRANCH  56  79
ENDBRANCH  30  31
ENDBRANCH  23  25
ENDBRANCH  22  23
ENDBRANCH  21  22
ENDBRANCH   1  21
TORSDOF 15
ENDMDL
MODEL 2
REMARK VINA RESULT:     -11.2      1.118      1.952
REMARK SMILES C[C@@H]1[C@@H](C(=O)OCCOC(=O)c2ccc(-c3c4nc(c(-c5c(F)c(F)c(F)c(F)c5F)c5ccc([nH]5)c(-c5c(F)c(F)c(F)c(F)c5F)c5nc(c(-c6c(F)c(F)c(F)c(F)c6F)c6ccc3[nH]6)C=C5)C=C4)cc2)CCN1C(=O)N(C)Cc1ccsc1
REMARK SMILES IDX 7 1 6 2 4 3 5 4 3 5 1 6 2 7 77 8 75 9 76 10 78 11 79 12
REMARK SMILES IDX 80 13 81 14 82 15 83 16 84 17 87 18 85 19 86 20 8 21 9 22
REMARK SMILES IDX 10 23 11 24 12 25 13 26 74 27 14 28 73 29 15 30 16 31 17 32
REMARK SMILES IDX 67 33 18 34 72 35 66 36 68 37 19 38 71 39 65 40 64 41 20 43
REMARK SMILES IDX 52 44 32 45 51 46 33 47 36 48 50 49 69 50 34 51 35 52 49 54
REMARK SMILES IDX 70 55 37 56 21 57 22 58 30 59 23 60 24 61 28 62 31 63 25 64
REMARK SMILES IDX 26 65 29 66 27 67 53 68 54 69 62 70 55 71 56 72 60 73 63 74
REMARK SMILES IDX 57 75 58 76 61 77 59 78 38 79 39 80 47 81 40 82 41 83 45 84
REMARK SMILES IDX 48 85 42 86 43 87 46 88 44 89
REMARK H PARENT 68 42 36 53
REMARK Flexibility Score: inf
ROOT
ATOM      1  C   UNL A   1      31.696  28.781  26.428  1.00  0.00     0.274 C 
ENDROOT
BRANCH   1   2
ATOM      2  O   UNL A   1      31.150  28.054  25.310  1.00  0.00    -0.462 OA
BRANCH   2   3
ATOM      3  C   UNL A   1      30.846  26.746  25.544  1.00  0.00     0.311 C 
ATOM      4  O   UNL A   1      30.321  26.329  26.567  1.00  0.00    -0.252 OA
BRANCH   3   5
ATOM      5  C   UNL A   1      31.195  25.896  24.334  1.00  0.00     0.123 C 
ATOM      6  C   UNL A   1      30.665  23.661  23.286  1.00  0.00     0.032 C 
ATOM      7  C   UNL A   1      30.913  24.407  24.605  1.00  0.00     0.098 C 
ATOM      8  N   UNL A   1      32.122  23.929  25.270  1.00  0.00    -0.321 N 
ATOM      9  C   UNL A   1      32.692  25.904  24.044  1.00  0.00     0.039 C 
ATOM     10  C   UNL A   1      33.238  24.823  24.967  1.00  0.00     0.122 C 
BRANCH   8  11
ATOM     11  C   UNL A   1      32.337  22.976  26.231  1.00  0.00     0.320 C 
ATOM     12  O   UNL A   1      32.073  23.267  27.406  1.00  0.00    -0.248 OA
BRANCH  11  13
ATOM     13  N   UNL A   1      32.816  21.715  25.938  1.00  0.00    -0.323 N 
ATOM     14  C   UNL A   1      32.256  20.661  25.109  1.00  0.00     0.149 C 
BRANCH  13  15
ATOM     15  C   UNL A   1      34.079  21.353  26.583  1.00  0.00     0.157 C 
BRANCH  15  16
ATOM     16  C   UNL A   1      35.262  21.979  25.885  1.00  0.00    -0.018 A 
ATOM     17  C   UNL A   1      35.775  21.502  24.631  1.00  0.00     0.017 A 
ATOM     18  C   UNL A   1      36.031  23.036  26.343  1.00  0.00     0.070 A 
ATOM     19  C   UNL A   1      36.891  22.191  24.210  1.00  0.00     0.065 A 
ATOM     20  S   UNL A   1      37.324  23.432  25.299  1.00  0.00    -0.152 S 
ENDBRANCH  15  16
ENDBRANCH  13  15
ENDBRANCH  11  13
ENDBRANCH   8  11
ENDBRANCH   3   5
ENDBRANCH   2   3
ENDBRANCH   1   2
BRANCH   1  21
ATOM     21  C   UNL A   1      31.874  30.272  26.121  1.00  0.00     0.275 C 
BRANCH  21  22
ATOM     22  O   UNL A   1      33.257  30.674  26.178  1.00  0.00    -0.458 OA
BRANCH  22  23
ATOM     23  C   UNL A   1      33.545  31.624  27.098  1.00  0.00     0.338 C 
ATOM     24  O   UNL A   1      32.826  32.534  27.474  1.00  0.00    -0.246 OA
BRANCH  23  25
ATOM     25  C   UNL A   1      34.818  31.303  27.765  1.00  0.00     0.060 A 
ATOM     26  C   UNL A   1      34.942  30.013  28.284  1.00  0.00     0.016 A 
ATOM     27  C   UNL A   1      35.833  32.239  27.962  1.00  0.00     0.016 A 
ATOM     28  C   UNL A   1      36.089  29.632  28.969  1.00  0.00     0.010 A 
ATOM     29  C   UNL A   1      36.982  31.865  28.675  1.00  0.00     0.010 A 
ATOM     30  C   UNL A   1      37.117  30.558  29.180  1.00  0.00    -0.014 A 
BRANCH  30  31
ATOM     31  C   UNL A   1      38.275  30.159  30.017  1.00  0.00     0.031 A 
ATOM     32  C   UNL A   1      39.337  29.272  29.435  1.00  0.00     0.074 A 
ATOM     33  C   UNL A   1      38.429  30.667  31.253  1.00  0.00     0.049 A 
ATOM     34  N   UNL A   1      40.396  28.759  30.007  1.00  0.00    -0.248 NA
ATOM     35  C   UNL A   1      39.194  28.930  28.012  1.00  0.00     0.031 C 
ATOM     36  C   UNL A   1      37.524  31.619  31.894  1.00  0.00     0.029 A 
ATOM     37  N   UNL A   1      39.418  30.465  32.185  1.00  0.00    -0.354 N 
ATOM     38  C   UNL A   1      41.033  28.016  29.023  1.00  0.00     0.074 A 
ATOM     39  C   UNL A   1      40.244  28.146  27.816  1.00  0.00     0.031 C 
ATOM     40  C   UNL A   1      38.007  31.931  33.109  1.00  0.00     0.029 A 
ATOM     41  C   UNL A   1      39.223  31.157  33.355  1.00  0.00     0.049 A 
ATOM     42  H   UNL A   1      40.193  29.878  32.030  1.00  0.00     0.167 HD
ATOM     43  C   UNL A   1      42.170  27.286  29.122  1.00  0.00     0.037 A 
ATOM     44  C   UNL A   1      39.929  31.142  34.503  1.00  0.00     0.037 A 
ATOM     45  C   UNL A   1      42.957  27.162  30.320  1.00  0.00     0.049 A 
ATOM     46  C   UNL A   1      41.137  30.248  34.614  1.00  0.00     0.074 A 
ATOM     47  C   UNL A   1      44.096  26.404  30.532  1.00  0.00     0.029 A 
ATOM     48  N   UNL A   1      42.688  27.821  31.509  1.00  0.00    -0.354 N 
ATOM     49  N   UNL A   1      41.695  29.490  33.702  1.00  0.00    -0.248 NA
ATOM     50  C   UNL A   1      41.801  30.190  35.926  1.00  0.00     0.031 C 
ATOM     51  C   UNL A   1      44.498  26.580  31.861  1.00  0.00     0.029 A 
ATOM     52  C   UNL A   1      43.633  27.479  32.463  1.00  0.00     0.049 A 
ATOM     53  H   UNL A   1      41.938  28.442  31.655  1.00  0.00     0.167 HD
ATOM     54  C   UNL A   1      42.778  28.880  34.321  1.00  0.00     0.074 A 
ATOM     55  C   UNL A   1      42.813  29.370  35.682  1.00  0.00     0.031 C 
ATOM     56  C   UNL A   1      43.659  27.985  33.810  1.00  0.00     0.037 A 
BRANCH  43  57
ATOM     57  C   UNL A   1      42.602  26.524  27.907  1.00  0.00     0.064 A 
ATOM     58  C   UNL A   1      42.149  25.222  27.652  1.00  0.00     0.173 A 
ATOM     59  C   UNL A   1      43.466  27.117  26.973  1.00  0.00     0.173 A 
ATOM     60  F   UNL A   1      41.337  24.607  28.524  1.00  0.00    -0.203 F 
ATOM     61  C   UNL A   1      42.561  24.533  26.514  1.00  0.00     0.198 A 
ATOM     62  C   UNL A   1      43.858  26.432  25.826  1.00  0.00     0.198 A 
ATOM     63  F   UNL A   1      43.927  28.360  27.173  1.00  0.00    -0.203 F 
ATOM     64  F   UNL A   1      42.148  23.274  26.308  1.00  0.00    -0.200 F 
ATOM     65  C   UNL A   1      43.410  25.141  25.599  1.00  0.00     0.200 A 
ATOM     66  F   UNL A   1      44.673  27.024  24.941  1.00  0.00    -0.200 F 
ATOM     67  F   UNL A   1      43.804  24.476  24.504  1.00  0.00    -0.200 F 
ENDBRANCH  43  57
BRANCH  44  68
ATOM     68  C   UNL A   1      39.494  31.963  35.663  1.00  0.00     0.064 A 
ATOM     69  C   UNL A   1      38.530  31.489  36.563  1.00  0.00     0.173 A 
ATOM     70  C   UNL A   1      40.002  33.254  35.873  1.00  0.00     0.173 A 
ATOM     71  F   UNL A   1      37.989  30.274  36.387  1.00  0.00    -0.203 F 
ATOM     72  C   UNL A   1      38.079  32.281  37.617  1.00  0.00     0.198 A 
ATOM     73  C   UNL A   1      39.572  34.034  36.944  1.00  0.00     0.198 A 
ATOM     74  F   UNL A   1      40.920  33.759  35.035  1.00  0.00    -0.203 F 
ATOM     75  F   UNL A   1      37.120  31.824  38.434  1.00  0.00    -0.200 F 
ATOM     76  C   UNL A   1      38.604  33.550  37.810  1.00  0.00     0.200 A 
ATOM     77  F   UNL A   1      40.088  35.255  37.130  1.00  0.00    -0.200 F 
ATOM     78  F   UNL A   1      38.169  34.311  38.824  1.00  0.00    -0.200 F 
ENDBRANCH  44  68
BRANCH  56  79
ATOM     79  C   UNL A   1      44.750  27.499  34.718  1.00  0.00     0.064 A 
ATOM     80  C   UNL A   1      44.598  26.340  35.492  1.00  0.00     0.173 A 
ATOM     81  C   UNL A   1      45.978  28.177  34.781  1.00  0.00     0.173 A 
ATOM     82  F   UNL A   1      43.437  25.667  35.476  1.00  0.00    -0.203 F 
ATOM     83  C   UNL A   1      45.629  25.886  36.311  1.00  0.00     0.198 A 
ATOM     84  C   UNL A   1      47.014  27.707  35.582  1.00  0.00     0.198 A 
ATOM     85  F   UNL A   1      46.173  29.288  34.056  1.00  0.00    -0.203 F 
ATOM     86  F   UNL A   1      45.448  24.797  37.070  1.00  0.00    -0.200 F 
ATOM     87  C   UNL A   1      46.837  26.566  36.350  1.00  0.00     0.200 A 
ATOM     88  F   UNL A   1      48.185  28.359  35.613  1.00  0.00    -0.200 F 
ATOM     89  F   UNL A   1      47.830  26.124  37.135  1.00  0.00    -0.200 F 
ENDBRANCH  56  79
ENDBRANCH  30  31
ENDBRANCH  23  25
ENDBRANCH  22  23
ENDBRANCH  21  22
ENDBRANCH   1  21
TORSDOF 15
ENDMDL
MODEL 3
REMARK VINA RESULT:     -11.1      1.150      2.172
REMARK SMILES C[C@@H]1[C@@H](C(=O)OCCOC(=O)c2ccc(-c3c4nc(c(-c5c(F)c(F)c(F)c(F)c5F)c5ccc([nH]5)c(-c5c(F)c(F)c(F)c(F)c5F)c5nc(c(-c6c(F)c(F)c(F)c(F)c6F)c6ccc3[nH]6)C=C5)C=C4)cc2)CCN1C(=O)N(C)Cc1ccsc1
REMARK SMILES IDX 7 1 6 2 4 3 5 4 3 5 1 6 2 7 77 8 75 9 76 10 78 11 79 12
REMARK SMILES IDX 80 13 81 14 82 15 83 16 84 17 87 18 85 19 86 20 8 21 9 22
REMARK SMILES IDX 10 23 11 24 12 25 13 26 74 27 14 28 73 29 15 30 16 31 17 32
REMARK SMILES IDX 67 33 18 34 72 35 66 36 68 37 19 38 71 39 65 40 64 41 20 43
REMARK SMILES IDX 52 44 32 45 51 46 33 47 36 48 50 49 69 50 34 51 35 52 49 54
REMARK SMILES IDX 70 55 37 56 21 57 22 58 30 59 23 60 24 61 28 62 31 63 25 64
REMARK SMILES IDX 26 65 29 66 27 67 53 68 54 69 62 70 55 71 56 72 60 73 63 74
REMARK SMILES IDX 57 75 58 76 61 77 59 78 38 79 39 80 47 81 40 82 41 83 45 84
REMARK SMILES IDX 48 85 42 86 43 87 46 88 44 89
REMARK H PARENT 68 42 36 53
REMARK Flexibility Score: inf
ROOT
ATOM      1  C   UNL A   1      31.795  28.208  26.616  1.00  0.00     0.274 C 
ENDROOT
BRANCH   1   2
ATOM      2  O   UNL A   1      32.646  27.322  25.863  1.00  0.00    -0.462 OA
BRANCH   2   3
ATOM      3  C   UNL A   1      32.078  26.743  24.768  1.00  0.00     0.311 C 
ATOM      4  O   UNL A   1      32.461  26.908  23.618  1.00  0.00    -0.252 OA
BRANCH   3   5
ATOM      5  C   UNL A   1      30.947  25.818  25.186  1.00  0.00     0.123 C 
ATOM      6  C   UNL A   1      30.523  23.701  26.496  1.00  0.00     0.032 C 
ATOM      7  C   UNL A   1      31.479  24.414  25.529  1.00  0.00     0.098 C 
ATOM      8  N   UNL A   1      31.542  23.731  24.240  1.00  0.00    -0.321 N 
ATOM      9  C   UNL A   1      29.986  25.538  24.036  1.00  0.00     0.039 C 
ATOM     10  C   UNL A   1      30.653  24.392  23.286  1.00  0.00     0.122 C 
BRANCH   8  11
ATOM     11  C   UNL A   1      32.385  22.773  23.737  1.00  0.00     0.320 C 
ATOM     12  O   UNL A   1      32.590  22.766  22.515  1.00  0.00    -0.248 OA
BRANCH  11  13
ATOM     13  N   UNL A   1      33.016  21.842  24.536  1.00  0.00    -0.323 N 
ATOM     14  C   UNL A   1      34.410  21.727  24.934  1.00  0.00     0.149 C 
BRANCH  13  15
ATOM     15  C   UNL A   1      32.164  20.768  25.048  1.00  0.00     0.157 C 
BRANCH  15  16
ATOM     16  C   UNL A   1      32.528  19.432  24.448  1.00  0.00    -0.018 A 
ATOM     17  C   UNL A   1      32.326  19.113  23.061  1.00  0.00     0.017 A 
ATOM     18  C   UNL A   1      33.052  18.337  25.116  1.00  0.00     0.070 A 
ATOM     19  C   UNL A   1      32.682  17.820  22.750  1.00  0.00     0.065 A 
ATOM     20  S   UNL A   1      33.284  16.978  24.107  1.00  0.00    -0.152 S 
ENDBRANCH  15  16
ENDBRANCH  13  15
ENDBRANCH  11  13
ENDBRANCH   8  11
ENDBRANCH   3   5
ENDBRANCH   2   3
ENDBRANCH   1   2
BRANCH   1  21
ATOM     21  C   UNL A   1      31.758  29.621  26.025  1.00  0.00     0.275 C 
BRANCH  21  22
ATOM     22  O   UNL A   1      33.064  30.229  25.991  1.00  0.00    -0.458 OA
BRANCH  22  23
ATOM     23  C   UNL A   1      33.272  31.204  26.906  1.00  0.00     0.338 C 
ATOM     24  O   UNL A   1      32.492  32.075  27.251  1.00  0.00    -0.246 OA
BRANCH  23  25
ATOM     25  C   UNL A   1      34.543  30.965  27.610  1.00  0.00     0.060 A 
ATOM     26  C   UNL A   1      34.813  29.646  27.978  1.00  0.00     0.016 A 
ATOM     27  C   UNL A   1      35.413  31.990  27.983  1.00  0.00     0.016 A 
ATOM     28  C   UNL A   1      35.967  29.329  28.685  1.00  0.00     0.010 A 
ATOM     29  C   UNL A   1      36.566  31.677  28.718  1.00  0.00     0.010 A 
ATOM     30  C   UNL A   1      36.850  30.343  29.071  1.00  0.00    -0.014 A 
BRANCH  30  31
ATOM     31  C   UNL A   1      38.010  29.992  29.927  1.00  0.00     0.031 A 
ATOM     32  C   UNL A   1      39.107  29.133  29.368  1.00  0.00     0.074 A 
ATOM     33  C   UNL A   1      38.131  30.518  31.159  1.00  0.00     0.049 A 
ATOM     34  N   UNL A   1      40.174  28.661  29.960  1.00  0.00    -0.248 NA
ATOM     35  C   UNL A   1      38.993  28.771  27.948  1.00  0.00     0.031 C 
ATOM     36  C   UNL A   1      37.188  31.447  31.777  1.00  0.00     0.029 A 
ATOM     37  N   UNL A   1      39.114  30.358  32.106  1.00  0.00    -0.354 N 
ATOM     38  C   UNL A   1      40.848  27.928  28.993  1.00  0.00     0.074 A 
ATOM     39  C   UNL A   1      40.071  28.020  27.774  1.00  0.00     0.031 C 
ATOM     40  C   UNL A   1      37.644  31.788  32.995  1.00  0.00     0.029 A 
ATOM     41  C   UNL A   1      38.882  31.057  33.265  1.00  0.00     0.049 A 
ATOM     42  H   UNL A   1      39.910  29.795  31.967  1.00  0.00     0.167 HD
ATOM     43  C   UNL A   1      42.007  27.237  29.114  1.00  0.00     0.037 A 
ATOM     44  C   UNL A   1      39.573  31.077  34.422  1.00  0.00     0.037 A 
ATOM     45  C   UNL A   1      42.781  27.151  30.323  1.00  0.00     0.049 A 
ATOM     46  C   UNL A   1      40.807  30.223  34.559  1.00  0.00     0.074 A 
ATOM     47  C   UNL A   1      43.941  26.433  30.558  1.00  0.00     0.029 A 
ATOM     48  N   UNL A   1      42.476  27.815  31.501  1.00  0.00    -0.354 N 
ATOM     49  N   UNL A   1      41.401  29.474  33.662  1.00  0.00    -0.248 NA
ATOM     50  C   UNL A   1      41.455  30.201  35.879  1.00  0.00     0.031 C 
ATOM     51  C   UNL A   1      44.320  26.636  31.890  1.00  0.00     0.029 A 
ATOM     52  C   UNL A   1      43.419  27.513  32.471  1.00  0.00     0.049 A 
ATOM     53  H   UNL A   1      41.705  28.412  31.630  1.00  0.00     0.167 HD
ATOM     54  C   UNL A   1      42.495  28.906  34.301  1.00  0.00     0.074 A 
ATOM     55  C   UNL A   1      42.496  29.412  35.658  1.00  0.00     0.031 C 
ATOM     56  C   UNL A   1      43.411  28.035  33.812  1.00  0.00     0.037 A 
BRANCH  43  57
ATOM     57  C   UNL A   1      42.479  26.475  27.913  1.00  0.00     0.064 A 
ATOM     58  C   UNL A   1      43.386  27.028  26.998  1.00  0.00     0.173 A 
ATOM     59  C   UNL A   1      42.032  25.164  27.690  1.00  0.00     0.173 A 
ATOM     60  F   UNL A   1      43.827  28.284  27.160  1.00  0.00    -0.203 F 
ATOM     61  C   UNL A   1      43.814  26.301  25.890  1.00  0.00     0.198 A 
ATOM     62  C   UNL A   1      42.479  24.433  26.593  1.00  0.00     0.198 A 
ATOM     63  F   UNL A   1      41.164  24.592  28.537  1.00  0.00    -0.203 F 
ATOM     64  F   UNL A   1      44.650  26.861  25.005  1.00  0.00    -0.200 F 
ATOM     65  C   UNL A   1      43.365  25.002  25.692  1.00  0.00     0.200 A 
ATOM     66  F   UNL A   1      42.049  23.176  26.407  1.00  0.00    -0.200 F 
ATOM     67  F   UNL A   1      43.779  24.304  24.626  1.00  0.00    -0.200 F 
ENDBRANCH  43  57
BRANCH  44  68
ATOM     68  C   UNL A   1      39.097  31.896  35.567  1.00  0.00     0.064 A 
ATOM     69  C   UNL A   1      39.503  33.229  35.719  1.00  0.00     0.173 A 
ATOM     70  C   UNL A   1      38.260  31.354  36.553  1.00  0.00     0.173 A 
ATOM     71  F   UNL A   1      40.329  33.785  34.820  1.00  0.00    -0.203 F 
ATOM     72  C   UNL A   1      39.104  33.981  36.823  1.00  0.00     0.198 A 
ATOM     73  C   UNL A   1      37.838  32.115  37.641  1.00  0.00     0.198 A 
ATOM     74  F   UNL A   1      37.851  30.080  36.460  1.00  0.00    -0.203 F 
ATOM     75  F   UNL A   1      39.548  35.237  36.971  1.00  0.00    -0.200 F 
ATOM     76  C   UNL A   1      38.268  33.425  37.780  1.00  0.00     0.200 A 
ATOM     77  F   UNL A   1      37.025  31.576  38.557  1.00  0.00    -0.200 F 
ATOM     78  F   UNL A   1      37.887  34.149  38.841  1.00  0.00    -0.200 F 
ENDBRANCH  44  68
BRANCH  56  79
ATOM     79  C   UNL A   1      44.505  27.595  34.740  1.00  0.00     0.064 A 
ATOM     80  C   UNL A   1      45.700  28.318  34.859  1.00  0.00     0.173 A 
ATOM     81  C   UNL A   1      44.338  26.461  35.550  1.00  0.00     0.173 A 
ATOM     82  F   UNL A   1      45.911  29.401  34.094  1.00  0.00    -0.203 F 
ATOM     83  C   UNL A   1      46.697  27.913  35.742  1.00  0.00     0.198 A 
ATOM     84  C   UNL A   1      45.327  26.072  36.450  1.00  0.00     0.198 A 
ATOM     85  F   UNL A   1      43.211  25.739  35.476  1.00  0.00    -0.203 F 
ATOM     86  F   UNL A   1      47.846  28.598  35.812  1.00  0.00    -0.200 F 
ATOM     87  C   UNL A   1      46.507  26.795  36.541  1.00  0.00     0.200 A 
ATOM     88  F   UNL A   1      45.138  24.998  37.228  1.00  0.00    -0.200 F 
ATOM     89  F   UNL A   1      47.465  26.410  37.395  1.00  0.00    -0.200 F 
ENDBRANCH  56  79
ENDBRANCH  30  31
ENDBRANCH  23  25
ENDBRANCH  22  23
ENDBRANCH  21  22
ENDBRANCH   1  21
TORSDOF 15
ENDMDL
