MODEL 1
REMARK VINA RESULT:     -11.4      0.000      0.000
REMARK SMILES CC(C)[NH2+][C@@]1(C(=O)OCCOC(=O)c2ccc(-c3c4nc(c(-c5c(F)c(F)c(F)c(F)c5F)c5ccc([nH]5)c(-c5c(F)c(F)c(F)c(F)c5F)c5nc(c(-c6c(F)c(F)c(F)c(F)c6F)c6ccc3[nH]6)C=C5)C=C4)cc2)CC[C@@H](Sc2ccncc2)C1
REMARK SMILES IDX 9 1 8 2 6 3 7 4 5 5 77 6 87 7 78 8 79 9 4 10 2 13 1 14 3 15
REMARK SMILES IDX 80 16 81 17 82 18 86 19 83 20 85 21 84 22 10 23 11 24 12 25
REMARK SMILES IDX 13 26 14 27 15 28 76 29 16 30 75 31 17 32 18 33 19 34 69 35
REMARK SMILES IDX 20 36 74 37 68 38 70 39 21 40 73 41 67 42 66 43 22 45 54 46
REMARK SMILES IDX 34 47 53 48 35 49 38 50 52 51 71 52 36 53 37 54 51 56 72 57
REMARK SMILES IDX 39 58 23 59 24 60 32 61 25 62 26 63 30 64 33 65 27 66 28 67
REMARK SMILES IDX 31 68 29 69 55 70 56 71 64 72 57 73 58 74 62 75 65 76 59 77
REMARK SMILES IDX 60 78 63 79 61 80 40 81 41 82 49 83 42 84 43 85 47 86 50 87
REMARK SMILES IDX 44 88 45 89 48 90 46 91
REMARK H PARENT 4 11 4 12 70 44 38 55
REMARK Flexibility Score: inf
ROOT
ATOM      1  C   UNL A   1      31.549  29.006  25.067  1.00  0.00     0.274 C 
ENDROOT
BRANCH   1   2
ATOM      2  O   UNL A   1      31.436  27.704  25.678  1.00  0.00    -0.457 OA
BRANCH   2   3
ATOM      3  C   UNL A   1      30.812  26.744  24.940  1.00  0.00     0.368 C 
ATOM      4  O   UNL A   1      29.820  26.955  24.249  1.00  0.00    -0.245 OA
BRANCH   3   5
ATOM      5  C   UNL A   1      31.487  25.330  25.076  1.00  0.00     0.195 C 
ATOM      6  C   UNL A   1      33.002  25.598  24.996  1.00  0.00     0.082 C 
ATOM      7  C   UNL A   1      31.234  24.401  23.874  1.00  0.00     0.096 C 
ATOM      8  C   UNL A   1      33.250  25.765  23.497  1.00  0.00     0.022 C 
ATOM      9  C   UNL A   1      32.296  24.772  22.825  1.00  0.00     0.059 C 
BRANCH   5  10
ATOM     10  N   UNL A   1      30.947  24.755  26.328  1.00  0.00    -0.330 N 
ATOM     11  H   UNL A   1      31.494  25.152  27.092  1.00  0.00     0.347 HD
ATOM     12  H   UNL A   1      29.956  24.992  26.281  1.00  0.00     0.347 HD
BRANCH  10  13
ATOM     13  C   UNL A   1      30.932  23.309  26.529  1.00  0.00     0.176 C 
ATOM     14  C   UNL A   1      32.116  22.955  27.436  1.00  0.00     0.075 C 
ATOM     15  C   UNL A   1      29.640  22.854  27.213  1.00  0.00     0.075 C 
ENDBRANCH  10  13
ENDBRANCH   5  10
BRANCH   9  16
ATOM     16  S   UNL A   1      33.112  23.303  22.060  1.00  0.00    -0.122 SA
BRANCH  16  17
ATOM     17  C   UNL A   1      33.386  22.224  23.454  1.00  0.00     0.011 A 
ATOM     18  C   UNL A   1      32.501  21.187  23.738  1.00  0.00     0.035 A 
ATOM     19  C   UNL A   1      34.527  22.370  24.241  1.00  0.00     0.035 A 
ATOM     20  C   UNL A   1      32.758  20.383  24.836  1.00  0.00     0.112 A 
ATOM     21  C   UNL A   1      34.698  21.515  25.317  1.00  0.00     0.112 A 
ATOM     22  N   UNL A   1      33.830  20.535  25.641  1.00  0.00    -0.265 NA
ENDBRANCH  16  17
ENDBRANCH   9  16
ENDBRANCH   3   5
ENDBRANCH   2   3
ENDBRANCH   1   2
BRANCH   1  23
ATOM     23  C   UNL A   1      31.782  30.078  26.128  1.00  0.00     0.275 C 
BRANCH  23  24
ATOM     24  O   UNL A   1      33.168  30.463  26.139  1.00  0.00    -0.458 OA
BRANCH  24  25
ATOM     25  C   UNL A   1      33.526  31.336  27.105  1.00  0.00     0.338 C 
ATOM     26  O   UNL A   1      32.881  32.279  27.539  1.00  0.00    -0.246 OA
BRANCH  25  27
ATOM     27  C   UNL A   1      34.851  30.982  27.633  1.00  0.00     0.060 A 
ATOM     28  C   UNL A   1      35.141  29.649  27.907  1.00  0.00     0.016 A 
ATOM     29  C   UNL A   1      35.746  31.986  28.002  1.00  0.00     0.016 A 
ATOM     30  C   UNL A   1      36.275  29.327  28.649  1.00  0.00     0.010 A 
ATOM     31  C   UNL A   1      36.935  31.647  28.658  1.00  0.00     0.010 A 
ATOM     32  C   UNL A   1      37.192  30.317  29.035  1.00  0.00    -0.014 A 
BRANCH  32  33
ATOM     33  C   UNL A   1      38.374  29.963  29.874  1.00  0.00     0.031 A 
ATOM     34  C   UNL A   1      39.483  29.112  29.309  1.00  0.00     0.074 A 
ATOM     35  C   UNL A   1      38.491  30.435  31.133  1.00  0.00     0.049 A 
ATOM     36  N   UNL A   1      40.495  28.552  29.926  1.00  0.00    -0.248 NA
ATOM     37  C   UNL A   1      39.447  28.844  27.864  1.00  0.00     0.031 C 
ATOM     38  C   UNL A   1      37.531  31.312  31.802  1.00  0.00     0.029 A 
ATOM     39  N   UNL A   1      39.484  30.259  32.066  1.00  0.00    -0.354 N 
ATOM     40  C   UNL A   1      41.164  27.806  28.963  1.00  0.00     0.074 A 
ATOM     41  C   UNL A   1      40.458  28.000  27.714  1.00  0.00     0.031 C 
ATOM     42  C   UNL A   1      38.011  31.652  33.009  1.00  0.00     0.029 A 
ATOM     43  C   UNL A   1      39.265  30.942  33.236  1.00  0.00     0.049 A 
ATOM     44  H   UNL A   1      40.277  29.697  31.910  1.00  0.00     0.167 HD
ATOM     45  C   UNL A   1      42.262  27.027  29.110  1.00  0.00     0.037 A 
ATOM     46  C   UNL A   1      39.972  30.971  34.382  1.00  0.00     0.037 A 
ATOM     47  C   UNL A   1      43.015  26.896  30.330  1.00  0.00     0.049 A 
ATOM     48  C   UNL A   1      41.198  30.115  34.516  1.00  0.00     0.074 A 
ATOM     49  C   UNL A   1      44.136  26.122  30.577  1.00  0.00     0.029 A 
ATOM     50  N   UNL A   1      42.742  27.588  31.500  1.00  0.00    -0.354 N 
ATOM     51  N   UNL A   1      41.754  29.325  33.631  1.00  0.00    -0.248 NA
ATOM     52  C   UNL A   1      41.876  30.130  35.820  1.00  0.00     0.031 C 
ATOM     53  C   UNL A   1      44.535  26.335  31.901  1.00  0.00     0.029 A 
ATOM     54  C   UNL A   1      43.677  27.261  32.470  1.00  0.00     0.049 A 
ATOM     55  H   UNL A   1      41.995  28.216  31.623  1.00  0.00     0.167 HD
ATOM     56  C   UNL A   1      42.835  28.739  34.272  1.00  0.00     0.074 A 
ATOM     57  C   UNL A   1      42.881  29.290  35.611  1.00  0.00     0.031 C 
ATOM     58  C   UNL A   1      43.703  27.814  33.798  1.00  0.00     0.037 A 
BRANCH  45  59
ATOM     59  C   UNL A   1      42.701  26.216  27.927  1.00  0.00     0.064 A 
ATOM     60  C   UNL A   1      42.192  24.935  27.675  1.00  0.00     0.173 A 
ATOM     61  C   UNL A   1      43.614  26.755  27.008  1.00  0.00     0.173 A 
ATOM     62  F   UNL A   1      41.328  24.371  28.533  1.00  0.00    -0.203 F 
ATOM     63  C   UNL A   1      42.593  24.216  26.552  1.00  0.00     0.198 A 
ATOM     64  C   UNL A   1      43.997  26.042  25.875  1.00  0.00     0.198 A 
ATOM     65  F   UNL A   1      44.127  27.978  27.204  1.00  0.00    -0.203 F 
ATOM     66  F   UNL A   1      42.119  22.979  26.345  1.00  0.00    -0.200 F 
ATOM     67  C   UNL A   1      43.489  24.772  25.650  1.00  0.00     0.200 A 
ATOM     68  F   UNL A   1      44.855  26.585  25.001  1.00  0.00    -0.200 F 
ATOM     69  F   UNL A   1      43.867  24.081  24.566  1.00  0.00    -0.200 F 
ENDBRANCH  45  59
BRANCH  46  70
ATOM     70  C   UNL A   1      39.508  31.816  35.511  1.00  0.00     0.064 A 
ATOM     71  C   UNL A   1      39.963  33.134  35.654  1.00  0.00     0.173 A 
ATOM     72  C   UNL A   1      38.590  31.333  36.455  1.00  0.00     0.173 A 
ATOM     73  F   UNL A   1      40.863  33.629  34.792  1.00  0.00    -0.203 F 
ATOM     74  C   UNL A   1      39.516  33.937  36.702  1.00  0.00     0.198 A 
ATOM     75  C   UNL A   1      38.125  32.145  37.485  1.00  0.00     0.198 A 
ATOM     76  F   UNL A   1      38.130  30.077  36.361  1.00  0.00    -0.203 F 
ATOM     77  F   UNL A   1      39.989  35.183  36.836  1.00  0.00    -0.200 F 
ATOM     78  C   UNL A   1      38.591  33.444  37.610  1.00  0.00     0.200 A 
ATOM     79  F   UNL A   1      37.222  31.669  38.354  1.00  0.00    -0.200 F 
ATOM     80  F   UNL A   1      38.152  34.222  38.610  1.00  0.00    -0.200 F 
ENDBRANCH  46  70
BRANCH  58  81
ATOM     81  C   UNL A   1      44.772  27.341  34.734  1.00  0.00     0.064 A 
ATOM     82  C   UNL A   1      45.996  28.017  34.835  1.00  0.00     0.173 A 
ATOM     83  C   UNL A   1      44.564  26.221  35.551  1.00  0.00     0.173 A 
ATOM     84  F   UNL A   1      46.244  29.085  34.060  1.00  0.00    -0.203 F 
ATOM     85  C   UNL A   1      46.983  27.578  35.711  1.00  0.00     0.198 A 
ATOM     86  C   UNL A   1      45.547  25.794  36.438  1.00  0.00     0.198 A 
ATOM     87  F   UNL A   1      43.408  25.544  35.488  1.00  0.00    -0.203 F 
ATOM     88  F   UNL A   1      48.160  28.217  35.769  1.00  0.00    -0.200 F 
ATOM     89  C   UNL A   1      46.756  26.469  36.515  1.00  0.00     0.200 A 
ATOM     90  F   UNL A   1      45.327  24.726  37.217  1.00  0.00    -0.200 F 
ATOM     91  F   UNL A   1      47.709  26.046  37.358  1.00  0.00    -0.200 F 
ENDBRANCH  58  81
ENDBRANCH  32  33
ENDBRANCH  25  27
ENDBRANCH  24  25
ENDBRANCH  23  24
ENDBRANCH   1  23
TORSDOF 15
ENDMDL
MODEL 2
REMARK VINA RESULT:     -11.3      1.415      2.378
REMARK SMILES CC(C)[NH2+][C@@]1(C(=O)OCCOC(=O)c2ccc(-c3c4nc(c(-c5c(F)c(F)c(F)c(F)c5F)c5ccc([nH]5)c(-c5c(F)c(F)c(F)c(F)c5F)c5nc(c(-c6c(F)c(F)c(F)c(F)c6F)c6ccc3[nH]6)C=C5)C=C4)cc2)CC[C@@H](Sc2ccncc2)C1
REMARK SMILES IDX 9 1 8 2 6 3 7 4 5 5 77 6 87 7 78 8 79 9 4 10 2 13 1 14 3 15
REMARK SMILES IDX 80 16 81 17 82 18 86 19 83 20 85 21 84 22 10 23 11 24 12 25
REMARK SMILES IDX 13 26 14 27 15 28 76 29 16 30 75 31 17 32 18 33 19 34 69 35
REMARK SMILES IDX 20 36 74 37 68 38 70 39 21 40 73 41 67 42 66 43 22 45 54 46
REMARK SMILES IDX 34 47 53 48 35 49 38 50 52 51 71 52 36 53 37 54 51 56 72 57
REMARK SMILES IDX 39 58 23 59 24 60 32 61 25 62 26 63 30 64 33 65 27 66 28 67
REMARK SMILES IDX 31 68 29 69 55 70 56 71 64 72 57 73 58 74 62 75 65 76 59 77
REMARK SMILES IDX 60 78 63 79 61 80 40 81 41 82 49 83 42 84 43 85 47 86 50 87
REMARK SMILES IDX 44 88 45 89 48 90 46 91
REMARK H PARENT 4 11 4 12 70 44 38 55
REMARK Flexibility Score: inf
ROOT
ATOM      1  C   UNL A   1      31.926  28.288  27.283  1.00  0.00     0.274 C 
ENDROOT
BRANCH   1   2
ATOM      2  O   UNL A   1      32.753  27.252  26.715  1.00  0.00    -0.457 OA
BRANCH   2   3
ATOM      3  C   UNL A   1      32.103  26.143  26.264  1.00  0.00     0.368 C 
ATOM      4  O   UNL A   1      31.242  25.550  26.907  1.00  0.00    -0.245 OA
BRANCH   3   5
ATOM      5  C   UNL A   1      32.583  25.688  24.837  1.00  0.00     0.195 C 
ATOM      6  C   UNL A   1      32.014  24.268  24.655  1.00  0.00     0.082 C 
ATOM      7  C   UNL A   1      34.104  25.469  24.732  1.00  0.00     0.096 C 
ATOM      8  C   UNL A   1      32.984  23.395  25.450  1.00  0.00     0.022 C 
ATOM      9  C   UNL A   1      34.359  24.039  25.239  1.00  0.00     0.059 C 
BRANCH   5  10
ATOM     10  N   UNL A   1      32.124  26.746  23.912  1.00  0.00    -0.330 N 
ATOM     11  H   UNL A   1      31.699  27.474  24.487  1.00  0.00     0.347 HD
ATOM     12  H   UNL A   1      32.971  26.984  23.395  1.00  0.00     0.347 HD
BRANCH  10  13
ATOM     13  C   UNL A   1      31.167  26.436  22.852  1.00  0.00     0.176 C 
ATOM     14  C   UNL A   1      30.306  27.683  22.627  1.00  0.00     0.075 C 
ATOM     15  C   UNL A   1      31.879  26.091  21.541  1.00  0.00     0.075 C 
ENDBRANCH  10  13
ENDBRANCH   5  10
BRANCH   9  16
ATOM     16  S   UNL A   1      35.512  23.077  24.165  1.00  0.00    -0.122 SA
BRANCH  16  17
ATOM     17  C   UNL A   1      36.998  22.989  25.149  1.00  0.00     0.011 A 
ATOM     18  C   UNL A   1      37.398  24.067  25.935  1.00  0.00     0.035 A 
ATOM     19  C   UNL A   1      37.744  21.813  25.190  1.00  0.00     0.035 A 
ATOM     20  C   UNL A   1      38.562  23.947  26.675  1.00  0.00     0.112 A 
ATOM     21  C   UNL A   1      38.893  21.788  25.962  1.00  0.00     0.112 A 
ATOM     22  N   UNL A   1      39.327  22.835  26.693  1.00  0.00    -0.265 NA
ENDBRANCH  16  17
ENDBRANCH   9  16
ENDBRANCH   3   5
ENDBRANCH   2   3
ENDBRANCH   1   2
BRANCH   1  23
ATOM     23  C   UNL A   1      31.779  29.452  26.308  1.00  0.00     0.275 C 
BRANCH  23  24
ATOM     24  O   UNL A   1      33.060  30.069  26.085  1.00  0.00    -0.458 OA
BRANCH  24  25
ATOM     25  C   UNL A   1      33.392  31.056  26.944  1.00  0.00     0.338 C 
ATOM     26  O   UNL A   1      32.710  32.009  27.292  1.00  0.00    -0.246 OA
BRANCH  25  27
ATOM     27  C   UNL A   1      34.743  30.823  27.474  1.00  0.00     0.060 A 
ATOM     28  C   UNL A   1      35.203  29.518  27.619  1.00  0.00     0.016 A 
ATOM     29  C   UNL A   1      35.491  31.891  27.973  1.00  0.00     0.016 A 
ATOM     30  C   UNL A   1      36.355  29.269  28.360  1.00  0.00     0.010 A 
ATOM     31  C   UNL A   1      36.702  31.641  28.629  1.00  0.00     0.010 A 
ATOM     32  C   UNL A   1      37.126  30.323  28.874  1.00  0.00    -0.014 A 
BRANCH  32  33
ATOM     33  C   UNL A   1      38.329  30.039  29.710  1.00  0.00     0.031 A 
ATOM     34  C   UNL A   1      39.477  29.238  29.147  1.00  0.00     0.074 A 
ATOM     35  C   UNL A   1      38.429  30.530  30.962  1.00  0.00     0.049 A 
ATOM     36  N   UNL A   1      40.519  28.737  29.764  1.00  0.00    -0.248 NA
ATOM     37  C   UNL A   1      39.445  28.953  27.705  1.00  0.00     0.031 C 
ATOM     38  C   UNL A   1      37.430  31.366  31.628  1.00  0.00     0.029 A 
ATOM     39  N   UNL A   1      39.435  30.415  31.892  1.00  0.00    -0.354 N 
ATOM     40  C   UNL A   1      41.219  28.015  28.805  1.00  0.00     0.074 A 
ATOM     41  C   UNL A   1      40.497  28.159  27.559  1.00  0.00     0.031 C 
ATOM     42  C   UNL A   1      37.900  31.743  32.828  1.00  0.00     0.029 A 
ATOM     43  C   UNL A   1      39.189  31.099  33.055  1.00  0.00     0.049 A 
ATOM     44  H   UNL A   1      40.255  29.892  31.737  1.00  0.00     0.167 HD
ATOM     45  C   UNL A   1      42.356  27.294  28.953  1.00  0.00     0.037 A 
ATOM     46  C   UNL A   1      39.900  31.177  34.197  1.00  0.00     0.037 A 
ATOM     47  C   UNL A   1      43.122  27.215  30.170  1.00  0.00     0.049 A 
ATOM     48  C   UNL A   1      41.169  30.386  34.332  1.00  0.00     0.074 A 
ATOM     49  C   UNL A   1      44.282  26.501  30.419  1.00  0.00     0.029 A 
ATOM     50  N   UNL A   1      42.821  27.905  31.334  1.00  0.00    -0.354 N 
ATOM     51  N   UNL A   1      41.759  29.615  33.452  1.00  0.00    -0.248 NA
ATOM     52  C   UNL A   1      41.852  30.449  35.631  1.00  0.00     0.031 C 
ATOM     53  C   UNL A   1      44.677  26.750  31.738  1.00  0.00     0.029 A 
ATOM     54  C   UNL A   1      43.776  27.637  32.302  1.00  0.00     0.049 A 
ATOM     55  H   UNL A   1      42.043  28.497  31.455  1.00  0.00     0.167 HD
ATOM     56  C   UNL A   1      42.872  29.092  34.092  1.00  0.00     0.074 A 
ATOM     57  C   UNL A   1      42.897  29.659  35.425  1.00  0.00     0.031 C 
ATOM     58  C   UNL A   1      43.782  28.205  33.624  1.00  0.00     0.037 A 
BRANCH  45  59
ATOM     59  C   UNL A   1      42.828  26.492  27.778  1.00  0.00     0.064 A 
ATOM     60  C   UNL A   1      42.383  25.184  27.543  1.00  0.00     0.173 A 
ATOM     61  C   UNL A   1      43.708  27.066  26.847  1.00  0.00     0.173 A 
ATOM     62  F   UNL A   1      41.554  24.588  28.411  1.00  0.00    -0.203 F 
ATOM     63  C   UNL A   1      42.813  24.474  26.425  1.00  0.00     0.198 A 
ATOM     64  C   UNL A   1      44.120  26.361  25.719  1.00  0.00     0.198 A 
ATOM     65  F   UNL A   1      44.160  28.316  27.026  1.00  0.00    -0.203 F 
ATOM     66  F   UNL A   1      42.401  23.213  26.235  1.00  0.00    -0.200 F 
ATOM     67  C   UNL A   1      43.675  25.064  25.511  1.00  0.00     0.200 A 
ATOM     68  F   UNL A   1      44.945  26.936  24.834  1.00  0.00    -0.200 F 
ATOM     69  F   UNL A   1      44.081  24.381  24.433  1.00  0.00    -0.200 F 
ENDBRANCH  45  59
BRANCH  46  70
ATOM     70  C   UNL A   1      39.401  32.011  35.318  1.00  0.00     0.064 A 
ATOM     71  C   UNL A   1      39.711  33.376  35.392  1.00  0.00     0.173 A 
ATOM     72  C   UNL A   1      38.591  31.467  36.326  1.00  0.00     0.173 A 
ATOM     73  F   UNL A   1      40.506  33.932  34.465  1.00  0.00    -0.203 F 
ATOM     74  C   UNL A   1      39.229  34.166  36.433  1.00  0.00     0.198 A 
ATOM     75  C   UNL A   1      38.089  32.264  37.352  1.00  0.00     0.198 A 
ATOM     76  F   UNL A   1      38.271  30.166  36.301  1.00  0.00    -0.203 F 
ATOM     77  F   UNL A   1      39.565  35.461  36.498  1.00  0.00    -0.200 F 
ATOM     78  C   UNL A   1      38.412  33.611  37.406  1.00  0.00     0.200 A 
ATOM     79  F   UNL A   1      37.290  31.726  38.284  1.00  0.00    -0.200 F 
ATOM     80  F   UNL A   1      37.938  34.375  38.401  1.00  0.00    -0.200 F 
ENDBRANCH  46  70
BRANCH  58  81
ATOM     81  C   UNL A   1      44.879  27.798  34.558  1.00  0.00     0.064 A 
ATOM     82  C   UNL A   1      44.749  26.668  35.378  1.00  0.00     0.173 A 
ATOM     83  C   UNL A   1      46.076  28.525  34.617  1.00  0.00     0.173 A 
ATOM     84  F   UNL A   1      43.614  25.952  35.365  1.00  0.00    -0.203 F 
ATOM     85  C   UNL A   1      45.774  26.290  36.239  1.00  0.00     0.198 A 
ATOM     86  C   UNL A   1      47.106  28.135  35.467  1.00  0.00     0.198 A 
ATOM     87  F   UNL A   1      46.245  29.612  33.850  1.00  0.00    -0.203 F 
ATOM     88  F   UNL A   1      45.617  25.227  37.040  1.00  0.00    -0.200 F 
ATOM     89  C   UNL A   1      46.953  27.021  36.280  1.00  0.00     0.200 A 
ATOM     90  F   UNL A   1      48.246  28.838  35.504  1.00  0.00    -0.200 F 
ATOM     91  F   UNL A   1      47.940  26.656  37.111  1.00  0.00    -0.200 F 
ENDBRANCH  58  81
ENDBRANCH  32  33
ENDBRANCH  25  27
ENDBRANCH  24  25
ENDBRANCH  23  24
ENDBRANCH   1  23
TORSDOF 15
ENDMDL
MODEL 3
REMARK VINA RESULT:     -11.2      0.999      2.298
REMARK SMILES CC(C)[NH2+][C@@]1(C(=O)OCCOC(=O)c2ccc(-c3c4nc(c(-c5c(F)c(F)c(F)c(F)c5F)c5ccc([nH]5)c(-c5c(F)c(F)c(F)c(F)c5F)c5nc(c(-c6c(F)c(F)c(F)c(F)c6F)c6ccc3[nH]6)C=C5)C=C4)cc2)CC[C@@H](Sc2ccncc2)C1
REMARK SMILES IDX 9 1 8 2 6 3 7 4 5 5 77 6 87 7 78 8 79 9 4 10 2 13 1 14 3 15
REMARK SMILES IDX 80 16 81 17 82 18 86 19 83 20 85 21 84 22 10 23 11 24 12 25
REMARK SMILES IDX 13 26 14 27 15 28 76 29 16 30 75 31 17 32 18 33 19 34 69 35
REMARK SMILES IDX 20 36 74 37 68 38 70 39 21 40 73 41 67 42 66 43 22 45 54 46
REMARK SMILES IDX 34 47 53 48 35 49 38 50 52 51 71 52 36 53 37 54 51 56 72 57
REMARK SMILES IDX 39 58 23 59 24 60 32 61 25 62 26 63 30 64 33 65 27 66 28 67
REMARK SMILES IDX 31 68 29 69 55 70 56 71 64 72 57 73 58 74 62 75 65 76 59 77
REMARK SMILES IDX 60 78 63 79 61 80 40 81 41 82 49 83 42 84 43 85 47 86 50 87
REMARK SMILES IDX 44 88 45 89 48 90 46 91
REMARK H PARENT 4 11 4 12 70 44 38 55
REMARK Flexibility Score: inf
ROOT
ATOM      1  C   UNL A   1      31.429  28.553  25.798  1.00  0.00     0.274 C 
ENDROOT
BRANCH   1   2
ATOM      2  O   UNL A   1      32.220  27.372  26.045  1.00  0.00    -0.457 OA
BRANCH   2   3
ATOM      3  C   UNL A   1      33.158  27.068  25.105  1.00  0.00     0.368 C 
ATOM      4  O   UNL A   1      34.083  27.816  24.799  1.00  0.00    -0.245 OA
BRANCH   3   5
ATOM      5  C   UNL A   1      32.925  25.664  24.437  1.00  0.00     0.195 C 
ATOM      6  C   UNL A   1      32.811  24.674  25.613  1.00  0.00     0.082 C 
ATOM      7  C   UNL A   1      34.142  25.136  23.655  1.00  0.00     0.096 C 
ATOM      8  C   UNL A   1      34.267  24.436  26.014  1.00  0.00     0.022 C 
ATOM      9  C   UNL A   1      35.048  24.456  24.695  1.00  0.00     0.059 C 
BRANCH   5  10
ATOM     10  N   UNL A   1      31.749  25.836  23.557  1.00  0.00    -0.330 N 
ATOM     11  H   UNL A   1      31.541  24.919  23.162  1.00  0.00     0.347 HD
ATOM     12  H   UNL A   1      31.055  26.253  24.179  1.00  0.00     0.347 HD
BRANCH  10  13
ATOM     13  C   UNL A   1      31.795  26.775  22.438  1.00  0.00     0.176 C 
ATOM     14  C   UNL A   1      31.847  25.952  21.146  1.00  0.00     0.075 C 
ATOM     15  C   UNL A   1      30.549  27.663  22.403  1.00  0.00     0.075 C 
ENDBRANCH  10  13
ENDBRANCH   5  10
BRANCH   9  16
ATOM     16  S   UNL A   1      35.690  22.815  24.145  1.00  0.00    -0.122 SA
BRANCH  16  17
ATOM     17  C   UNL A   1      34.317  21.720  24.457  1.00  0.00     0.011 A 
ATOM     18  C   UNL A   1      34.316  20.874  25.563  1.00  0.00     0.035 A 
ATOM     19  C   UNL A   1      33.197  21.745  23.628  1.00  0.00     0.035 A 
ATOM     20  C   UNL A   1      33.227  20.040  25.755  1.00  0.00     0.112 A 
ATOM     21  C   UNL A   1      32.155  20.875  23.903  1.00  0.00     0.112 A 
ATOM     22  N   UNL A   1      32.153  20.012  24.939  1.00  0.00    -0.265 NA
ENDBRANCH  16  17
ENDBRANCH   9  16
ENDBRANCH   3   5
ENDBRANCH   2   3
ENDBRANCH   1   2
BRANCH   1  23
ATOM     23  C   UNL A   1      31.780  29.652  26.797  1.00  0.00     0.275 C 
BRANCH  23  24
ATOM     24  O   UNL A   1      32.877  30.437  26.297  1.00  0.00    -0.458 OA
BRANCH  24  25
ATOM     25  C   UNL A   1      33.325  31.409  27.120  1.00  0.00     0.338 C 
ATOM     26  O   UNL A   1      32.747  32.433  27.456  1.00  0.00    -0.246 OA
BRANCH  25  27
ATOM     27  C   UNL A   1      34.660  31.059  27.626  1.00  0.00     0.060 A 
ATOM     28  C   UNL A   1      34.967  29.725  27.874  1.00  0.00     0.016 A 
ATOM     29  C   UNL A   1      35.550  32.067  28.001  1.00  0.00     0.016 A 
ATOM     30  C   UNL A   1      36.112  29.403  28.598  1.00  0.00     0.010 A 
ATOM     31  C   UNL A   1      36.749  31.728  28.638  1.00  0.00     0.010 A 
ATOM     32  C   UNL A   1      37.024  30.395  28.988  1.00  0.00    -0.014 A 
BRANCH  32  33
ATOM     33  C   UNL A   1      38.220  30.040  29.808  1.00  0.00     0.031 A 
ATOM     34  C   UNL A   1      39.326  29.200  29.219  1.00  0.00     0.074 A 
ATOM     35  C   UNL A   1      38.352  30.499  31.069  1.00  0.00     0.049 A 
ATOM     36  N   UNL A   1      40.349  28.639  29.815  1.00  0.00    -0.248 NA
ATOM     37  C   UNL A   1      39.270  28.947  27.771  1.00  0.00     0.031 C 
ATOM     38  C   UNL A   1      37.396  31.364  31.761  1.00  0.00     0.029 A 
ATOM     39  N   UNL A   1      39.358  30.319  31.987  1.00  0.00    -0.354 N 
ATOM     40  C   UNL A   1      41.009  27.908  28.835  1.00  0.00     0.074 A 
ATOM     41  C   UNL A   1      40.284  28.111  27.599  1.00  0.00     0.031 C 
ATOM     42  C   UNL A   1      37.892  31.694  32.964  1.00  0.00     0.029 A 
ATOM     43  C   UNL A   1      39.152  30.988  33.167  1.00  0.00     0.049 A 
ATOM     44  H   UNL A   1      40.152  29.763  31.814  1.00  0.00     0.167 HD
ATOM     45  C   UNL A   1      42.112  27.133  28.959  1.00  0.00     0.037 A 
ATOM     46  C   UNL A   1      39.875  31.010  34.304  1.00  0.00     0.037 A 
ATOM     47  C   UNL A   1      42.884  26.994  30.167  1.00  0.00     0.049 A 
ATOM     48  C   UNL A   1      41.108  30.160  34.412  1.00  0.00     0.074 A 
ATOM     49  C   UNL A   1      44.012  26.224  30.391  1.00  0.00     0.029 A 
ATOM     50  N   UNL A   1      42.623  27.672  31.348  1.00  0.00    -0.354 N 
ATOM     51  N   UNL A   1      41.655  29.382  33.511  1.00  0.00    -0.248 NA
ATOM     52  C   UNL A   1      41.803  30.164  35.705  1.00  0.00     0.031 C 
ATOM     53  C   UNL A   1      44.428  26.426  31.711  1.00  0.00     0.029 A 
ATOM     54  C   UNL A   1      43.573  27.340  32.301  1.00  0.00     0.049 A 
ATOM     55  H   UNL A   1      41.874  28.295  31.488  1.00  0.00     0.167 HD
ATOM     56  C   UNL A   1      42.749  28.796  34.130  1.00  0.00     0.074 A 
ATOM     57  C   UNL A   1      42.810  29.333  35.474  1.00  0.00     0.031 C 
ATOM     58  C   UNL A   1      43.615  27.880  33.635  1.00  0.00     0.037 A 
BRANCH  45  59
ATOM     59  C   UNL A   1      42.540  26.336  27.762  1.00  0.00     0.064 A 
ATOM     60  C   UNL A   1      43.512  26.804  26.868  1.00  0.00     0.173 A 
ATOM     61  C   UNL A   1      41.995  25.062  27.538  1.00  0.00     0.173 A 
ATOM     62  F   UNL A   1      44.050  28.021  27.032  1.00  0.00    -0.203 F 
ATOM     63  C   UNL A   1      43.914  26.029  25.782  1.00  0.00     0.198 A 
ATOM     64  C   UNL A   1      42.415  24.282  26.464  1.00  0.00     0.198 A 
ATOM     65  F   UNL A   1      41.065  24.570  28.368  1.00  0.00    -0.203 F 
ATOM     66  F   UNL A   1      44.822  26.508  24.920  1.00  0.00    -0.200 F 
ATOM     67  C   UNL A   1      43.370  24.768  25.585  1.00  0.00     0.200 A 
ATOM     68  F   UNL A   1      41.895  23.061  26.281  1.00  0.00    -0.200 F 
ATOM     69  F   UNL A   1      43.764  24.022  24.544  1.00  0.00    -0.200 F 
ENDBRANCH  45  59
BRANCH  46  70
ATOM     70  C   UNL A   1      39.422  31.840  35.447  1.00  0.00     0.064 A 
ATOM     71  C   UNL A   1      39.863  33.163  35.592  1.00  0.00     0.173 A 
ATOM     72  C   UNL A   1      38.529  31.339  36.405  1.00  0.00     0.173 A 
ATOM     73  F   UNL A   1      40.740  33.676  34.716  1.00  0.00    -0.203 F 
ATOM     74  C   UNL A   1      39.426  33.953  36.653  1.00  0.00     0.198 A 
ATOM     75  C   UNL A   1      38.074  32.137  37.450  1.00  0.00     0.198 A 
ATOM     76  F   UNL A   1      38.083  30.078  36.310  1.00  0.00    -0.203 F 
ATOM     77  F   UNL A   1      39.886  35.204  36.788  1.00  0.00    -0.200 F 
ATOM     78  C   UNL A   1      38.525  33.442  37.576  1.00  0.00     0.200 A 
ATOM     79  F   UNL A   1      37.194  31.643  38.333  1.00  0.00    -0.200 F 
ATOM     80  F   UNL A   1      38.096  34.206  38.590  1.00  0.00    -0.200 F 
ENDBRANCH  46  70
BRANCH  58  81
ATOM     81  C   UNL A   1      44.699  27.404  34.550  1.00  0.00     0.064 A 
ATOM     82  C   UNL A   1      44.522  26.267  35.352  1.00  0.00     0.173 A 
ATOM     83  C   UNL A   1      45.930  28.072  34.611  1.00  0.00     0.173 A 
ATOM     84  F   UNL A   1      43.355  25.605  35.338  1.00  0.00    -0.203 F 
ATOM     85  C   UNL A   1      45.536  25.824  36.196  1.00  0.00     0.198 A 
ATOM     86  C   UNL A   1      46.948  27.617  35.444  1.00  0.00     0.198 A 
ATOM     87  F   UNL A   1      46.144  29.163  33.861  1.00  0.00    -0.203 F 
ATOM     88  F   UNL A   1      45.336  24.755  36.980  1.00  0.00    -0.200 F 
ATOM     89  C   UNL A   1      46.749  26.497  36.238  1.00  0.00     0.200 A 
ATOM     90  F   UNL A   1      48.120  28.264  35.482  1.00  0.00    -0.200 F 
ATOM     91  F   UNL A   1      47.725  26.071  37.053  1.00  0.00    -0.200 F 
ENDBRANCH  58  81
ENDBRANCH  32  33
ENDBRANCH  25  27
ENDBRANCH  24  25
ENDBRANCH  23  24
ENDBRANCH   1  23
TORSDOF 15
ENDMDL
