MODEL 1
REMARK VINA RESULT:     -12.6      0.000      0.000
REMARK SMILES C[C@](Nc1ccc(C(N)=O)nn1)(C(=O)OCCOC(=O)c1ccc(-c2c3nc(c(-c4c(F)c(F)c(F)c(F)c4F)c4ccc([nH]4)c(-c4c(F)c(F)c(F)c(F)c4F)c4nc(c(-c5c(F)c(F)c(F)c(F)c5F)c5ccc2[nH]5)C=C4)C=C3)cc1)c1ccccc1
REMARK SMILES IDX 16 1 15 2 13 3 14 4 2 5 1 6 84 7 85 8 89 9 86 10 88 11 87 12
REMARK SMILES IDX 3 13 4 15 5 16 12 17 6 18 11 19 7 20 8 21 9 22 10 23 17 26
REMARK SMILES IDX 18 27 19 28 20 29 21 30 22 31 83 32 23 33 82 34 24 35 25 36
REMARK SMILES IDX 26 37 76 38 27 39 81 40 75 41 77 42 28 43 80 44 74 45 73 46
REMARK SMILES IDX 29 48 61 49 41 50 60 51 42 52 45 53 59 54 78 55 43 56 44 57
REMARK SMILES IDX 58 59 79 60 46 61 30 62 31 63 39 64 32 65 33 66 37 67 40 68
REMARK SMILES IDX 34 69 35 70 38 71 36 72 62 73 63 74 71 75 64 76 65 77 69 78
REMARK SMILES IDX 72 79 66 80 67 81 70 82 68 83 47 84 48 85 56 86 49 87 50 88
REMARK SMILES IDX 54 89 57 90 51 91 52 92 55 93 53 94
REMARK H PARENT 3 14 9 24 9 25 77 47 45 58
REMARK Flexibility Score: inf
ROOT
ATOM      1  C   UNL A   1      31.708  29.090  27.241  1.00  0.00     0.274 C 
ENDROOT
BRANCH   1   2
ATOM      2  O   UNL A   1      31.387  28.120  26.225  1.00  0.00    -0.460 OA
BRANCH   2   3
ATOM      3  C   UNL A   1      32.367  27.802  25.323  1.00  0.00     0.336 C 
ATOM      4  O   UNL A   1      33.561  27.746  25.600  1.00  0.00    -0.249 OA
BRANCH   3   5
ATOM      5  C   UNL A   1      31.775  27.605  23.880  1.00  0.00     0.160 C 
ATOM      6  C   UNL A   1      32.710  28.463  22.998  1.00  0.00     0.053 C 
BRANCH   5   7
ATOM      7  C   UNL A   1      31.792  26.109  23.491  1.00  0.00    -0.012 A 
ATOM      8  C   UNL A   1      30.735  25.240  23.822  1.00  0.00     0.007 A 
ATOM      9  C   UNL A   1      32.862  25.562  22.750  1.00  0.00     0.007 A 
ATOM     10  C   UNL A   1      30.761  23.888  23.461  1.00  0.00     0.000 A 
ATOM     11  C   UNL A   1      32.887  24.212  22.387  1.00  0.00     0.000 A 
ATOM     12  C   UNL A   1      31.838  23.372  22.748  1.00  0.00     0.000 A 
ENDBRANCH   5   7
BRANCH   5  13
ATOM     13  N   UNL A   1      30.367  28.079  23.869  1.00  0.00    -0.350 N 
ATOM     14  H   UNL A   1      29.718  27.517  24.351  1.00  0.00     0.163 HD
BRANCH  13  15
ATOM     15  C   UNL A   1      29.865  29.200  23.271  1.00  0.00     0.149 A 
ATOM     16  C   UNL A   1      29.574  30.376  23.944  1.00  0.00     0.051 A 
ATOM     17  N   UNL A   1      29.647  29.113  21.939  1.00  0.00    -0.132 NA
ATOM     18  C   UNL A   1      28.968  31.427  23.263  1.00  0.00     0.040 A 
ATOM     19  N   UNL A   1      29.064  30.142  21.249  1.00  0.00    -0.143 NA
ATOM     20  C   UNL A   1      28.716  31.265  21.915  1.00  0.00     0.150 A 
BRANCH  20  21
ATOM     21  C   UNL A   1      28.030  32.322  21.125  1.00  0.00     0.269 C 
ATOM     22  N   UNL A   1      27.652  31.972  19.855  1.00  0.00    -0.364 N 
ATOM     23  O   UNL A   1      27.806  33.436  21.580  1.00  0.00    -0.268 OA
ATOM     24  H   UNL A   1      27.845  31.068  19.516  1.00  0.00     0.160 HD
ATOM     25  H   UNL A   1      27.188  32.625  19.283  1.00  0.00     0.160 HD
ENDBRANCH  20  21
ENDBRANCH  13  15
ENDBRANCH   5  13
ENDBRANCH   3   5
ENDBRANCH   2   3
ENDBRANCH   1   2
BRANCH   1  26
ATOM     26  C   UNL A   1      31.742  30.498  26.652  1.00  0.00     0.275 C 
BRANCH  26  27
ATOM     27  O   UNL A   1      33.103  30.917  26.453  1.00  0.00    -0.458 OA
BRANCH  27  28
ATOM     28  C   UNL A   1      33.528  31.900  27.277  1.00  0.00     0.338 C 
ATOM     29  O   UNL A   1      32.925  32.900  27.627  1.00  0.00    -0.246 OA
BRANCH  28  30
ATOM     30  C   UNL A   1      34.850  31.543  27.800  1.00  0.00     0.060 A 
ATOM     31  C   UNL A   1      35.066  30.227  28.198  1.00  0.00     0.016 A 
ATOM     32  C   UNL A   1      35.816  32.520  28.029  1.00  0.00     0.016 A 
ATOM     33  C   UNL A   1      36.211  29.895  28.910  1.00  0.00     0.010 A 
ATOM     34  C   UNL A   1      37.008  32.162  28.670  1.00  0.00     0.010 A 
ATOM     35  C   UNL A   1      37.202  30.852  29.148  1.00  0.00    -0.014 A 
BRANCH  35  36
ATOM     36  C   UNL A   1      38.410  30.499  29.938  1.00  0.00     0.031 A 
ATOM     37  C   UNL A   1      39.443  29.580  29.352  1.00  0.00     0.074 A 
ATOM     38  C   UNL A   1      38.596  31.002  31.174  1.00  0.00     0.049 A 
ATOM     39  N   UNL A   1      40.411  28.933  29.950  1.00  0.00    -0.248 NA
ATOM     40  C   UNL A   1      39.369  29.348  27.902  1.00  0.00     0.031 C 
ATOM     41  C   UNL A   1      37.719  31.966  31.840  1.00  0.00     0.029 A 
ATOM     42  N   UNL A   1      39.586  30.762  32.095  1.00  0.00    -0.354 N 
ATOM     43  C   UNL A   1      41.002  28.150  28.968  1.00  0.00     0.074 A 
ATOM     44  C   UNL A   1      40.306  28.426  27.729  1.00  0.00     0.031 C 
ATOM     45  C   UNL A   1      38.218  32.251  33.051  1.00  0.00     0.029 A 
ATOM     46  C   UNL A   1      39.388  31.412  33.288  1.00  0.00     0.049 A 
ATOM     47  H   UNL A   1      40.361  30.182  31.918  1.00  0.00     0.167 HD
ATOM     48  C   UNL A   1      42.021  27.269  29.101  1.00  0.00     0.037 A 
ATOM     49  C   UNL A   1      40.026  31.296  34.467  1.00  0.00     0.037 A 
ATOM     50  C   UNL A   1      42.756  27.061  30.322  1.00  0.00     0.049 A 
ATOM     51  C   UNL A   1      41.149  30.310  34.599  1.00  0.00     0.074 A 
ATOM     52  C   UNL A   1      43.826  26.215  30.554  1.00  0.00     0.029 A 
ATOM     53  N   UNL A   1      42.508  27.730  31.512  1.00  0.00    -0.354 N 
ATOM     54  N   UNL A   1      41.643  29.500  33.697  1.00  0.00    -0.248 NA
ATOM     55  C   UNL A   1      41.784  30.201  35.920  1.00  0.00     0.031 C 
ATOM     56  C   UNL A   1      44.207  26.350  31.894  1.00  0.00     0.029 A 
ATOM     57  C   UNL A   1      43.398  27.307  32.486  1.00  0.00     0.049 A 
ATOM     58  H   UNL A   1      41.804  28.405  31.645  1.00  0.00     0.167 HD
ATOM     59  C   UNL A   1      42.640  28.779  34.337  1.00  0.00     0.074 A 
ATOM     60  C   UNL A   1      42.697  29.265  35.701  1.00  0.00     0.031 C 
ATOM     61  C   UNL A   1      43.432  27.797  33.840  1.00  0.00     0.037 A 
BRANCH  48  62
ATOM     62  C   UNL A   1      42.364  26.419  27.914  1.00  0.00     0.064 A 
ATOM     63  C   UNL A   1      43.352  26.784  26.990  1.00  0.00     0.173 A 
ATOM     64  C   UNL A   1      41.699  25.198  27.717  1.00  0.00     0.173 A 
ATOM     65  F   UNL A   1      44.004  27.949  27.125  1.00  0.00    -0.203 F 
ATOM     66  C   UNL A   1      43.646  25.969  25.898  1.00  0.00     0.198 A 
ATOM     67  C   UNL A   1      42.013  24.375  26.640  1.00  0.00     0.198 A 
ATOM     68  F   UNL A   1      40.747  24.801  28.575  1.00  0.00    -0.203 F 
ATOM     69  F   UNL A   1      44.563  26.358  25.003  1.00  0.00    -0.200 F 
ATOM     70  C   UNL A   1      42.981  24.763  25.729  1.00  0.00     0.200 A 
ATOM     71  F   UNL A   1      41.375  23.206  26.483  1.00  0.00    -0.200 F 
ATOM     72  F   UNL A   1      43.268  23.980  24.679  1.00  0.00    -0.200 F 
ENDBRANCH  48  62
BRANCH  49  73
ATOM     73  C   UNL A   1      39.550  32.092  35.625  1.00  0.00     0.064 A 
ATOM     74  C   UNL A   1      38.542  31.611  36.468  1.00  0.00     0.173 A 
ATOM     75  C   UNL A   1      40.144  33.322  35.950  1.00  0.00     0.173 A 
ATOM     76  F   UNL A   1      37.930  30.451  36.185  1.00  0.00    -0.203 F 
ATOM     77  C   UNL A   1      38.153  32.324  37.601  1.00  0.00     0.198 A 
ATOM     78  C   UNL A   1      39.775  34.020  37.095  1.00  0.00     0.198 A 
ATOM     79  F   UNL A   1      41.116  33.824  35.172  1.00  0.00    -0.203 F 
ATOM     80  F   UNL A   1      37.176  31.850  38.386  1.00  0.00    -0.200 F 
ATOM     81  C   UNL A   1      38.779  33.521  37.920  1.00  0.00     0.200 A 
ATOM     82  F   UNL A   1      40.395  35.166  37.408  1.00  0.00    -0.200 F 
ATOM     83  F   UNL A   1      38.423  34.192  39.023  1.00  0.00    -0.200 F 
ENDBRANCH  49  73
BRANCH  61  84
ATOM     84  C   UNL A   1      44.432  27.190  34.774  1.00  0.00     0.064 A 
ATOM     85  C   UNL A   1      44.134  26.033  35.508  1.00  0.00     0.173 A 
ATOM     86  C   UNL A   1      45.715  27.742  34.899  1.00  0.00     0.173 A 
ATOM     87  F   UNL A   1      42.915  25.481  35.432  1.00  0.00    -0.203 F 
ATOM     88  C   UNL A   1      45.085  25.456  36.346  1.00  0.00     0.198 A 
ATOM     89  C   UNL A   1      46.669  27.151  35.722  1.00  0.00     0.198 A 
ATOM     90  F   UNL A   1      46.045  28.847  34.213  1.00  0.00    -0.203 F 
ATOM     91  F   UNL A   1      44.772  24.368  37.062  1.00  0.00    -0.200 F 
ATOM     92  C   UNL A   1      46.352  26.012  36.446  1.00  0.00     0.200 A 
ATOM     93  F   UNL A   1      47.895  27.684  35.815  1.00  0.00    -0.200 F 
ATOM     94  F   UNL A   1      47.268  25.452  37.249  1.00  0.00    -0.200 F 
ENDBRANCH  61  84
ENDBRANCH  35  36
ENDBRANCH  28  30
ENDBRANCH  27  28
ENDBRANCH  26  27
ENDBRANCH   1  26
TORSDOF 15
ENDMDL
MODEL 2
REMARK VINA RESULT:     -12.4      5.298     10.656
REMARK SMILES C[C@](Nc1ccc(C(N)=O)nn1)(C(=O)OCCOC(=O)c1ccc(-c2c3nc(c(-c4c(F)c(F)c(F)c(F)c4F)c4ccc([nH]4)c(-c4c(F)c(F)c(F)c(F)c4F)c4nc(c(-c5c(F)c(F)c(F)c(F)c5F)c5ccc2[nH]5)C=C4)C=C3)cc1)c1ccccc1
REMARK SMILES IDX 16 1 15 2 13 3 14 4 2 5 1 6 84 7 85 8 89 9 86 10 88 11 87 12
REMARK SMILES IDX 3 13 4 15 5 16 12 17 6 18 11 19 7 20 8 21 9 22 10 23 17 26
REMARK SMILES IDX 18 27 19 28 20 29 21 30 22 31 83 32 23 33 82 34 24 35 25 36
REMARK SMILES IDX 26 37 76 38 27 39 81 40 75 41 77 42 28 43 80 44 74 45 73 46
REMARK SMILES IDX 29 48 61 49 41 50 60 51 42 52 45 53 59 54 78 55 43 56 44 57
REMARK SMILES IDX 58 59 79 60 46 61 30 62 31 63 39 64 32 65 33 66 37 67 40 68
REMARK SMILES IDX 34 69 35 70 38 71 36 72 62 73 63 74 71 75 64 76 65 77 69 78
REMARK SMILES IDX 72 79 66 80 67 81 70 82 68 83 47 84 48 85 56 86 49 87 50 88
REMARK SMILES IDX 54 89 57 90 51 91 52 92 55 93 53 94
REMARK H PARENT 3 14 9 24 9 25 77 47 45 58
REMARK Flexibility Score: inf
ROOT
ATOM      1  C   UNL A   1      36.670  22.662  23.613  1.00  0.00     0.274 C 
ENDROOT
BRANCH   1   2
ATOM      2  O   UNL A   1      35.233  22.698  23.710  1.00  0.00    -0.460 OA
BRANCH   2   3
ATOM      3  C   UNL A   1      34.690  23.222  24.853  1.00  0.00     0.336 C 
ATOM      4  O   UNL A   1      35.225  24.096  25.527  1.00  0.00    -0.249 OA
BRANCH   3   5
ATOM      5  C   UNL A   1      33.345  22.501  25.230  1.00  0.00     0.160 C 
ATOM      6  C   UNL A   1      33.574  22.081  26.700  1.00  0.00     0.053 C 
BRANCH   5   7
ATOM      7  C   UNL A   1      32.151  23.470  25.064  1.00  0.00    -0.012 A 
ATOM      8  C   UNL A   1      31.428  23.959  26.170  1.00  0.00     0.007 A 
ATOM      9  C   UNL A   1      31.761  23.933  23.788  1.00  0.00     0.007 A 
ATOM     10  C   UNL A   1      30.351  24.839  26.005  1.00  0.00     0.000 A 
ATOM     11  C   UNL A   1      30.687  24.814  23.626  1.00  0.00     0.000 A 
ATOM     12  C   UNL A   1      29.978  25.262  24.735  1.00  0.00     0.000 A 
ENDBRANCH   5   7
BRANCH   5  13
ATOM     13  N   UNL A   1      33.146  21.346  24.318  1.00  0.00    -0.350 N 
ATOM     14  H   UNL A   1      32.886  21.565  23.394  1.00  0.00     0.163 HD
BRANCH  13  15
ATOM     15  C   UNL A   1      33.280  20.017  24.607  1.00  0.00     0.149 A 
ATOM     16  C   UNL A   1      34.480  19.328  24.552  1.00  0.00     0.051 A 
ATOM     17  N   UNL A   1      32.146  19.371  24.958  1.00  0.00    -0.132 NA
ATOM     18  C   UNL A   1      34.495  17.952  24.764  1.00  0.00     0.040 A 
ATOM     19  N   UNL A   1      32.143  18.020  25.184  1.00  0.00    -0.143 NA
ATOM     20  C   UNL A   1      33.299  17.332  25.065  1.00  0.00     0.150 A 
BRANCH  20  21
ATOM     21  C   UNL A   1      33.220  15.860  25.259  1.00  0.00     0.269 C 
ATOM     22  N   UNL A   1      31.967  15.349  25.471  1.00  0.00    -0.364 N 
ATOM     23  O   UNL A   1      34.212  15.142  25.225  1.00  0.00    -0.268 OA
ATOM     24  H   UNL A   1      31.187  15.949  25.493  1.00  0.00     0.160 HD
ATOM     25  H   UNL A   1      31.847  14.379  25.601  1.00  0.00     0.160 HD
ENDBRANCH  20  21
ENDBRANCH  13  15
ENDBRANCH   5  13
ENDBRANCH   3   5
ENDBRANCH   2   3
ENDBRANCH   1   2
BRANCH   1  26
ATOM     26  C   UNL A   1      37.230  21.445  24.342  1.00  0.00     0.275 C 
BRANCH  26  27
ATOM     27  O   UNL A   1      37.578  21.795  25.693  1.00  0.00    -0.458 OA
BRANCH  27  28
ATOM     28  C   UNL A   1      38.841  21.485  26.060  1.00  0.00     0.338 C 
ATOM     29  O   UNL A   1      39.446  20.444  25.868  1.00  0.00    -0.246 OA
BRANCH  28  30
ATOM     30  C   UNL A   1      39.459  22.663  26.676  1.00  0.00     0.060 A 
ATOM     31  C   UNL A   1      39.049  23.921  26.245  1.00  0.00     0.016 A 
ATOM     32  C   UNL A   1      40.527  22.531  27.559  1.00  0.00     0.016 A 
ATOM     33  C   UNL A   1      39.761  25.052  26.622  1.00  0.00     0.010 A 
ATOM     34  C   UNL A   1      41.188  23.681  28.007  1.00  0.00     0.010 A 
ATOM     35  C   UNL A   1      40.833  24.951  27.514  1.00  0.00    -0.014 A 
BRANCH  35  36
ATOM     36  C   UNL A   1      41.611  26.160  27.889  1.00  0.00     0.031 A 
ATOM     37  C   UNL A   1      40.981  27.218  28.750  1.00  0.00     0.074 A 
ATOM     38  C   UNL A   1      42.884  26.316  27.474  1.00  0.00     0.049 A 
ATOM     39  N   UNL A   1      41.365  28.450  28.964  1.00  0.00    -0.248 NA
ATOM     40  C   UNL A   1      39.745  26.841  29.452  1.00  0.00     0.031 C 
ATOM     41  C   UNL A   1      43.651  25.339  26.702  1.00  0.00     0.029 A 
ATOM     42  N   UNL A   1      43.753  27.366  27.640  1.00  0.00    -0.354 N 
ATOM     43  C   UNL A   1      40.375  29.021  29.750  1.00  0.00     0.074 A 
ATOM     44  C   UNL A   1      39.387  27.994  30.002  1.00  0.00     0.031 C 
ATOM     45  C   UNL A   1      44.881  25.824  26.477  1.00  0.00     0.029 A 
ATOM     46  C   UNL A   1      44.952  27.186  26.996  1.00  0.00     0.049 A 
ATOM     47  H   UNL A   1      43.539  28.170  28.167  1.00  0.00     0.167 HD
ATOM     48  C   UNL A   1      40.295  30.296  30.201  1.00  0.00     0.037 A 
ATOM     49  C   UNL A   1      45.970  28.039  26.782  1.00  0.00     0.037 A 
ATOM     50  C   UNL A   1      41.323  31.287  30.009  1.00  0.00     0.049 A 
ATOM     51  C   UNL A   1      45.863  29.450  27.281  1.00  0.00     0.074 A 
ATOM     52  C   UNL A   1      41.353  32.597  30.452  1.00  0.00     0.029 A 
ATOM     53  N   UNL A   1      42.514  31.063  29.335  1.00  0.00    -0.354 N 
ATOM     54  N   UNL A   1      44.883  30.017  27.940  1.00  0.00    -0.248 NA
ATOM     55  C   UNL A   1      46.989  30.346  26.985  1.00  0.00     0.031 C 
ATOM     56  C   UNL A   1      42.552  33.176  30.021  1.00  0.00     0.029 A 
ATOM     57  C   UNL A   1      43.284  32.216  29.340  1.00  0.00     0.049 A 
ATOM     58  H   UNL A   1      42.775  30.212  28.914  1.00  0.00     0.167 HD
ATOM     59  C   UNL A   1      45.266  31.336  28.131  1.00  0.00     0.074 A 
ATOM     60  C   UNL A   1      46.581  31.480  27.539  1.00  0.00     0.031 C 
ATOM     61  C   UNL A   1      44.586  32.339  28.737  1.00  0.00     0.037 A 
BRANCH  48  62
ATOM     62  C   UNL A   1      39.032  30.710  30.893  1.00  0.00     0.064 A 
ATOM     63  C   UNL A   1      38.902  30.697  32.288  1.00  0.00     0.173 A 
ATOM     64  C   UNL A   1      37.935  31.153  30.135  1.00  0.00     0.173 A 
ATOM     65  F   UNL A   1      39.914  30.267  33.056  1.00  0.00    -0.203 F 
ATOM     66  C   UNL A   1      37.712  31.090  32.899  1.00  0.00     0.198 A 
ATOM     67  C   UNL A   1      36.758  31.568  30.749  1.00  0.00     0.198 A 
ATOM     68  F   UNL A   1      38.009  31.186  28.796  1.00  0.00    -0.203 F 
ATOM     69  F   UNL A   1      37.595  31.029  34.232  1.00  0.00    -0.200 F 
ATOM     70  C   UNL A   1      36.645  31.531  32.130  1.00  0.00     0.200 A 
ATOM     71  F   UNL A   1      35.731  32.001  30.004  1.00  0.00    -0.200 F 
ATOM     72  F   UNL A   1      35.503  31.911  32.720  1.00  0.00    -0.200 F 
ENDBRANCH  48  62
BRANCH  49  73
ATOM     73  C   UNL A   1      47.138  27.583  25.987  1.00  0.00     0.064 A 
ATOM     74  C   UNL A   1      47.152  27.694  24.592  1.00  0.00     0.173 A 
ATOM     75  C   UNL A   1      48.291  27.088  26.617  1.00  0.00     0.173 A 
ATOM     76  F   UNL A   1      46.064  28.140  23.946  1.00  0.00    -0.203 F 
ATOM     77  C   UNL A   1      48.280  27.340  23.856  1.00  0.00     0.198 A 
ATOM     78  C   UNL A   1      49.427  26.760  25.883  1.00  0.00     0.198 A 
ATOM     79  F   UNL A   1      48.325  26.964  27.952  1.00  0.00    -0.203 F 
ATOM     80  F   UNL A   1      48.265  27.441  22.519  1.00  0.00    -0.200 F 
ATOM     81  C   UNL A   1      49.420  26.885  24.503  1.00  0.00     0.200 A 
ATOM     82  F   UNL A   1      50.532  26.339  26.514  1.00  0.00    -0.200 F 
ATOM     83  F   UNL A   1      50.513  26.569  23.796  1.00  0.00    -0.200 F 
ENDBRANCH  49  73
BRANCH  61  84
ATOM     84  C   UNL A   1      45.254  33.677  28.796  1.00  0.00     0.064 A 
ATOM     85  C   UNL A   1      45.025  34.650  27.812  1.00  0.00     0.173 A 
ATOM     86  C   UNL A   1      46.093  34.007  29.871  1.00  0.00     0.173 A 
ATOM     87  F   UNL A   1      44.243  34.373  26.759  1.00  0.00    -0.203 F 
ATOM     88  C   UNL A   1      45.623  35.905  27.898  1.00  0.00     0.198 A 
ATOM     89  C   UNL A   1      46.673  35.268  29.963  1.00  0.00     0.198 A 
ATOM     90  F   UNL A   1      46.338  33.108  30.836  1.00  0.00    -0.203 F 
ATOM     91  F   UNL A   1      45.416  36.810  26.933  1.00  0.00    -0.200 F 
ATOM     92  C   UNL A   1      46.441  36.214  28.975  1.00  0.00     0.200 A 
ATOM     93  F   UNL A   1      47.458  35.569  31.006  1.00  0.00    -0.200 F 
ATOM     94  F   UNL A   1      47.011  37.424  29.058  1.00  0.00    -0.200 F 
ENDBRANCH  61  84
ENDBRANCH  35  36
ENDBRANCH  28  30
ENDBRANCH  27  28
ENDBRANCH  26  27
ENDBRANCH   1  26
TORSDOF 15
ENDMDL
MODEL 3
REMARK VINA RESULT:     -12.4      0.605      1.725
REMARK SMILES C[C@](Nc1ccc(C(N)=O)nn1)(C(=O)OCCOC(=O)c1ccc(-c2c3nc(c(-c4c(F)c(F)c(F)c(F)c4F)c4ccc([nH]4)c(-c4c(F)c(F)c(F)c(F)c4F)c4nc(c(-c5c(F)c(F)c(F)c(F)c5F)c5ccc2[nH]5)C=C4)C=C3)cc1)c1ccccc1
REMARK SMILES IDX 16 1 15 2 13 3 14 4 2 5 1 6 84 7 85 8 89 9 86 10 88 11 87 12
REMARK SMILES IDX 3 13 4 15 5 16 12 17 6 18 11 19 7 20 8 21 9 22 10 23 17 26
REMARK SMILES IDX 18 27 19 28 20 29 21 30 22 31 83 32 23 33 82 34 24 35 25 36
REMARK SMILES IDX 26 37 76 38 27 39 81 40 75 41 77 42 28 43 80 44 74 45 73 46
REMARK SMILES IDX 29 48 61 49 41 50 60 51 42 52 45 53 59 54 78 55 43 56 44 57
REMARK SMILES IDX 58 59 79 60 46 61 30 62 31 63 39 64 32 65 33 66 37 67 40 68
REMARK SMILES IDX 34 69 35 70 38 71 36 72 62 73 63 74 71 75 64 76 65 77 69 78
REMARK SMILES IDX 72 79 66 80 67 81 70 82 68 83 47 84 48 85 56 86 49 87 50 88
REMARK SMILES IDX 54 89 57 90 51 91 52 92 55 93 53 94
REMARK H PARENT 3 14 9 24 9 25 77 47 45 58
REMARK Flexibility Score: inf
ROOT
ATOM      1  C   UNL A   1      31.381  30.078  25.289  1.00  0.00     0.274 C 
ENDROOT
BRANCH   1   2
ATOM      2  O   UNL A   1      32.152  28.903  24.972  1.00  0.00    -0.460 OA
BRANCH   2   3
ATOM      3  C   UNL A   1      31.487  27.707  24.917  1.00  0.00     0.336 C 
ATOM      4  O   UNL A   1      31.047  27.121  25.900  1.00  0.00    -0.249 OA
BRANCH   3   5
ATOM      5  C   UNL A   1      31.438  27.148  23.448  1.00  0.00     0.160 C 
ATOM      6  C   UNL A   1      32.577  27.917  22.742  1.00  0.00     0.053 C 
BRANCH   5   7
ATOM      7  C   UNL A   1      31.659  25.617  23.448  1.00  0.00    -0.012 A 
ATOM      8  C   UNL A   1      30.585  24.708  23.502  1.00  0.00     0.007 A 
ATOM      9  C   UNL A   1      32.958  25.070  23.355  1.00  0.00     0.007 A 
ATOM     10  C   UNL A   1      30.799  23.325  23.498  1.00  0.00     0.000 A 
ATOM     11  C   UNL A   1      33.171  23.688  23.348  1.00  0.00     0.000 A 
ATOM     12  C   UNL A   1      32.091  22.815  23.425  1.00  0.00     0.000 A 
ENDBRANCH   5   7
BRANCH   5  13
ATOM     13  N   UNL A   1      30.098  27.430  22.871  1.00  0.00    -0.350 N 
ATOM     14  H   UNL A   1      29.537  26.646  22.677  1.00  0.00     0.163 HD
BRANCH  13  15
ATOM     15  C   UNL A   1      29.553  28.648  22.577  1.00  0.00     0.149 A 
ATOM     16  C   UNL A   1      28.371  29.122  23.122  1.00  0.00     0.051 A 
ATOM     17  N   UNL A   1      30.238  29.404  21.689  1.00  0.00    -0.132 NA
ATOM     18  C   UNL A   1      27.845  30.332  22.679  1.00  0.00     0.040 A 
ATOM     19  N   UNL A   1      29.743  30.603  21.251  1.00  0.00    -0.143 NA
ATOM     20  C   UNL A   1      28.557  31.038  21.730  1.00  0.00     0.150 A 
BRANCH  20  21
ATOM     21  C   UNL A   1      28.041  32.316  21.170  1.00  0.00     0.269 C 
ATOM     22  N   UNL A   1      27.653  32.283  19.857  1.00  0.00    -0.364 N 
ATOM     23  O   UNL A   1      27.959  33.337  21.842  1.00  0.00    -0.268 OA
ATOM     24  H   UNL A   1      27.730  31.448  19.342  1.00  0.00     0.160 HD
ATOM     25  H   UNL A   1      27.297  33.096  19.429  1.00  0.00     0.160 HD
ENDBRANCH  20  21
ENDBRANCH  13  15
ENDBRANCH   5  13
ENDBRANCH   3   5
ENDBRANCH   2   3
ENDBRANCH   1   2
BRANCH   1  26
ATOM     26  C   UNL A   1      31.797  30.650  26.641  1.00  0.00     0.275 C 
BRANCH  26  27
ATOM     27  O   UNL A   1      33.229  30.639  26.762  1.00  0.00    -0.458 OA
BRANCH  27  28
ATOM     28  C   UNL A   1      33.761  31.704  27.402  1.00  0.00     0.338 C 
ATOM     29  O   UNL A   1      33.240  32.784  27.624  1.00  0.00    -0.246 OA
BRANCH  28  30
ATOM     30  C   UNL A   1      35.088  31.340  27.907  1.00  0.00     0.060 A 
ATOM     31  C   UNL A   1      35.305  30.022  28.297  1.00  0.00     0.016 A 
ATOM     32  C   UNL A   1      36.060  32.313  28.127  1.00  0.00     0.016 A 
ATOM     33  C   UNL A   1      36.458  29.684  28.993  1.00  0.00     0.010 A 
ATOM     34  C   UNL A   1      37.259  31.949  28.750  1.00  0.00     0.010 A 
ATOM     35  C   UNL A   1      37.455  30.637  29.221  1.00  0.00    -0.014 A 
BRANCH  35  36
ATOM     36  C   UNL A   1      38.671  30.276  29.995  1.00  0.00     0.031 A 
ATOM     37  C   UNL A   1      39.700  29.365  29.388  1.00  0.00     0.074 A 
ATOM     38  C   UNL A   1      38.870  30.766  31.234  1.00  0.00     0.049 A 
ATOM     39  N   UNL A   1      40.674  28.712  29.968  1.00  0.00    -0.248 NA
ATOM     40  C   UNL A   1      39.610  29.149  27.936  1.00  0.00     0.031 C 
ATOM     41  C   UNL A   1      38.000  31.721  31.920  1.00  0.00     0.029 A 
ATOM     42  N   UNL A   1      39.870  30.517  32.141  1.00  0.00    -0.354 N 
ATOM     43  C   UNL A   1      41.256  27.942  28.971  1.00  0.00     0.074 A 
ATOM     44  C   UNL A   1      40.547  28.230  27.743  1.00  0.00     0.031 C 
ATOM     45  C   UNL A   1      38.511  31.994  33.129  1.00  0.00     0.029 A 
ATOM     46  C   UNL A   1      39.684  31.153  33.344  1.00  0.00     0.049 A 
ATOM     47  H   UNL A   1      40.644  29.940  31.950  1.00  0.00     0.167 HD
ATOM     48  C   UNL A   1      42.278  27.060  29.084  1.00  0.00     0.037 A 
ATOM     49  C   UNL A   1      40.335  31.026  34.514  1.00  0.00     0.037 A 
ATOM     50  C   UNL A   1      43.026  26.841  30.294  1.00  0.00     0.049 A 
ATOM     51  C   UNL A   1      41.461  30.040  34.624  1.00  0.00     0.074 A 
ATOM     52  C   UNL A   1      44.099  25.993  30.506  1.00  0.00     0.029 A 
ATOM     53  N   UNL A   1      42.790  27.496  31.494  1.00  0.00    -0.354 N 
ATOM     54  N   UNL A   1      41.946  29.240  33.707  1.00  0.00    -0.248 NA
ATOM     55  C   UNL A   1      42.110  29.917  35.937  1.00  0.00     0.031 C 
ATOM     56  C   UNL A   1      44.495  26.114  31.843  1.00  0.00     0.029 A 
ATOM     57  C   UNL A   1      43.691  27.063  32.454  1.00  0.00     0.049 A 
ATOM     58  H   UNL A   1      42.086  28.168  31.642  1.00  0.00     0.167 HD
ATOM     59  C   UNL A   1      42.951  28.513  34.329  1.00  0.00     0.074 A 
ATOM     60  C   UNL A   1      43.022  28.985  35.698  1.00  0.00     0.031 C 
ATOM     61  C   UNL A   1      43.738  27.539  33.813  1.00  0.00     0.037 A 
BRANCH  48  62
ATOM     62  C   UNL A   1      42.609  26.224  27.884  1.00  0.00     0.064 A 
ATOM     63  C   UNL A   1      41.946  25.022  27.602  1.00  0.00     0.173 A 
ATOM     64  C   UNL A   1      43.598  26.656  26.986  1.00  0.00     0.173 A 
ATOM     65  F   UNL A   1      41.005  24.558  28.437  1.00  0.00    -0.203 F 
ATOM     66  C   UNL A   1      42.278  24.270  26.476  1.00  0.00     0.198 A 
ATOM     67  C   UNL A   1      43.909  25.915  25.850  1.00  0.00     0.198 A 
ATOM     68  F   UNL A   1      44.261  27.801  27.210  1.00  0.00    -0.203 F 
ATOM     69  F   UNL A   1      41.662  23.103  26.248  1.00  0.00    -0.200 F 
ATOM     70  C   UNL A   1      43.254  24.721  25.598  1.00  0.00     0.200 A 
ATOM     71  F   UNL A   1      44.847  26.357  24.999  1.00  0.00    -0.200 F 
ATOM     72  F   UNL A   1      43.569  23.997  24.514  1.00  0.00    -0.200 F 
ENDBRANCH  48  62
BRANCH  49  73
ATOM     73  C   UNL A   1      39.871  31.808  35.687  1.00  0.00     0.064 A 
ATOM     74  C   UNL A   1      40.475  33.023  36.030  1.00  0.00     0.173 A 
ATOM     75  C   UNL A   1      38.768  31.387  36.445  1.00  0.00     0.173 A 
ATOM     76  F   UNL A   1      41.545  33.455  35.348  1.00  0.00    -0.203 F 
ATOM     77  C   UNL A   1      39.985  33.795  37.082  1.00  0.00     0.198 A 
ATOM     78  C   UNL A   1      38.263  32.170  37.478  1.00  0.00     0.198 A 
ATOM     79  F   UNL A   1      38.155  30.229  36.153  1.00  0.00    -0.203 F 
ATOM     80  F   UNL A   1      40.588  34.948  37.403  1.00  0.00    -0.200 F 
ATOM     81  C   UNL A   1      38.872  33.373  37.797  1.00  0.00     0.200 A 
ATOM     82  F   UNL A   1      37.177  31.768  38.153  1.00  0.00    -0.200 F 
ATOM     83  F   UNL A   1      38.387  34.129  38.791  1.00  0.00    -0.200 F 
ENDBRANCH  49  73
BRANCH  61  84
ATOM     84  C   UNL A   1      44.749  26.922  34.729  1.00  0.00     0.064 A 
ATOM     85  C   UNL A   1      44.468  25.746  35.439  1.00  0.00     0.173 A 
ATOM     86  C   UNL A   1      46.026  27.487  34.862  1.00  0.00     0.173 A 
ATOM     87  F   UNL A   1      43.255  25.182  35.354  1.00  0.00    -0.203 F 
ATOM     88  C   UNL A   1      45.429  25.162  36.260  1.00  0.00     0.198 A 
ATOM     89  C   UNL A   1      46.991  26.889  35.667  1.00  0.00     0.198 A 
ATOM     90  F   UNL A   1      46.341  28.610  34.199  1.00  0.00    -0.203 F 
ATOM     91  F   UNL A   1      45.131  24.055  36.952  1.00  0.00    -0.200 F 
ATOM     92  C   UNL A   1      46.690  25.730  36.368  1.00  0.00     0.200 A 
ATOM     93  F   UNL A   1      48.210  27.434  35.768  1.00  0.00    -0.200 F 
ATOM     94  F   UNL A   1      47.615  25.163  37.154  1.00  0.00    -0.200 F 
ENDBRANCH  61  84
ENDBRANCH  35  36
ENDBRANCH  28  30
ENDBRANCH  27  28
ENDBRANCH  26  27
ENDBRANCH   1  26
TORSDOF 15
ENDMDL
