MODEL 1
REMARK VINA RESULT:     -12.1      0.000      0.000
REMARK SMILES C[C@H]1[C@@H](C(=O)OCCOC(=O)c2ccc(-c3c4nc(c(-c5c(F)c(F)c(F)c(F)c5F)c5ccc([nH]5)c(-c5c(F)c(F)c(F)c(F)c5F)c5nc(c(-c6c(F)c(F)c(F)c(F)c6F)c6ccc3[nH]6)C=C5)C=C4)cc2)CCN1C(=O)c1cncc(O)c1
REMARK SMILES IDX 7 1 6 2 4 3 5 4 3 5 1 6 2 7 77 8 75 9 76 10 78 11 79 12
REMARK SMILES IDX 80 13 81 14 86 15 82 16 84 17 83 18 85 19 8 21 9 22 10 23
REMARK SMILES IDX 11 24 12 25 13 26 74 27 14 28 73 29 15 30 16 31 17 32 67 33
REMARK SMILES IDX 18 34 72 35 66 36 68 37 19 38 71 39 65 40 64 41 20 43 52 44
REMARK SMILES IDX 32 45 51 46 33 47 36 48 50 49 69 50 34 51 35 52 49 54 70 55
REMARK SMILES IDX 37 56 21 57 22 58 30 59 23 60 24 61 28 62 31 63 25 64 26 65
REMARK SMILES IDX 29 66 27 67 53 68 54 69 62 70 55 71 56 72 60 73 63 74 57 75
REMARK SMILES IDX 58 76 61 77 59 78 38 79 39 80 47 81 40 82 41 83 45 84 48 85
REMARK SMILES IDX 42 86 43 87 46 88 44 89
REMARK H PARENT 85 20 68 42 36 53
REMARK Flexibility Score: inf
ROOT
ATOM      1  C   UNL A   1      31.579  28.693  24.650  1.00  0.00     0.274 C 
ENDROOT
BRANCH   1   2
ATOM      2  O   UNL A   1      30.656  27.836  25.353  1.00  0.00    -0.462 OA
BRANCH   2   3
ATOM      3  C   UNL A   1      31.153  27.039  26.320  1.00  0.00     0.311 C 
ATOM      4  O   UNL A   1      31.365  27.407  27.472  1.00  0.00    -0.252 OA
BRANCH   3   5
ATOM      5  C   UNL A   1      31.415  25.605  25.896  1.00  0.00     0.123 C 
ATOM      6  C   UNL A   1      33.989  26.061  25.565  1.00  0.00     0.032 C 
ATOM      7  C   UNL A   1      32.817  25.089  25.500  1.00  0.00     0.096 C 
ATOM      8  N   UNL A   1      32.643  24.537  24.146  1.00  0.00    -0.335 N 
ATOM      9  C   UNL A   1      30.500  25.175  24.742  1.00  0.00     0.039 C 
ATOM     10  C   UNL A   1      31.422  25.032  23.551  1.00  0.00     0.121 C 
BRANCH   8  11
ATOM     11  C   UNL A   1      33.465  23.681  23.436  1.00  0.00     0.255 C 
ATOM     12  O   UNL A   1      33.999  23.972  22.370  1.00  0.00    -0.269 OA
BRANCH  11  13
ATOM     13  C   UNL A   1      33.713  22.342  23.985  1.00  0.00     0.062 A 
ATOM     14  C   UNL A   1      35.018  21.951  24.237  1.00  0.00     0.125 A 
ATOM     15  C   UNL A   1      32.665  21.466  24.274  1.00  0.00     0.063 A 
ATOM     16  N   UNL A   1      35.337  20.773  24.825  1.00  0.00    -0.260 NA
ATOM     17  C   UNL A   1      32.971  20.257  24.881  1.00  0.00     0.134 A 
ATOM     18  C   UNL A   1      34.302  19.957  25.142  1.00  0.00     0.157 A 
BRANCH  17  19
ATOM     19  O   UNL A   1      32.002  19.372  25.241  1.00  0.00    -0.506 OA
ATOM     20  H   UNL A   1      31.666  19.375  26.115  1.00  0.00     0.293 HD
ENDBRANCH  17  19
ENDBRANCH  11  13
ENDBRANCH   8  11
ENDBRANCH   3   5
ENDBRANCH   2   3
ENDBRANCH   1   2
BRANCH   1  21
ATOM     21  C   UNL A   1      31.760  30.012  25.392  1.00  0.00     0.275 C 
BRANCH  21  22
ATOM     22  O   UNL A   1      33.100  30.097  25.903  1.00  0.00    -0.458 OA
BRANCH  22  23
ATOM     23  C   UNL A   1      33.279  31.004  26.886  1.00  0.00     0.338 C 
ATOM     24  O   UNL A   1      32.496  31.845  27.290  1.00  0.00    -0.246 OA
BRANCH  23  25
ATOM     25  C   UNL A   1      34.599  30.796  27.486  1.00  0.00     0.060 A 
ATOM     26  C   UNL A   1      34.950  29.516  27.914  1.00  0.00     0.016 A 
ATOM     27  C   UNL A   1      35.430  31.886  27.732  1.00  0.00     0.016 A 
ATOM     28  C   UNL A   1      36.097  29.334  28.679  1.00  0.00     0.010 A 
ATOM     29  C   UNL A   1      36.631  31.681  28.412  1.00  0.00     0.010 A 
ATOM     30  C   UNL A   1      36.964  30.409  28.915  1.00  0.00    -0.014 A 
BRANCH  30  31
ATOM     31  C   UNL A   1      38.218  30.227  29.687  1.00  0.00     0.031 A 
ATOM     32  C   UNL A   1      39.323  29.378  29.126  1.00  0.00     0.074 A 
ATOM     33  C   UNL A   1      38.351  30.784  30.905  1.00  0.00     0.049 A 
ATOM     34  N   UNL A   1      40.351  28.847  29.735  1.00  0.00    -0.248 NA
ATOM     35  C   UNL A   1      39.253  29.075  27.687  1.00  0.00     0.031 C 
ATOM     36  C   UNL A   1      37.385  31.680  31.541  1.00  0.00     0.029 A 
ATOM     37  N   UNL A   1      39.352  30.660  31.839  1.00  0.00    -0.354 N 
ATOM     38  C   UNL A   1      41.010  28.093  28.775  1.00  0.00     0.074 A 
ATOM     39  C   UNL A   1      40.279  28.250  27.535  1.00  0.00     0.031 C 
ATOM     40  C   UNL A   1      37.842  32.034  32.751  1.00  0.00     0.029 A 
ATOM     41  C   UNL A   1      39.082  31.314  33.015  1.00  0.00     0.049 A 
ATOM     42  H   UNL A   1      40.181  30.153  31.679  1.00  0.00     0.167 HD
ATOM     43  C   UNL A   1      42.116  27.327  28.927  1.00  0.00     0.037 A 
ATOM     44  C   UNL A   1      39.723  31.287  34.198  1.00  0.00     0.037 A 
ATOM     45  C   UNL A   1      42.862  27.223  30.153  1.00  0.00     0.049 A 
ATOM     46  C   UNL A   1      40.933  30.412  34.353  1.00  0.00     0.074 A 
ATOM     47  C   UNL A   1      43.999  26.480  30.415  1.00  0.00     0.029 A 
ATOM     48  N   UNL A   1      42.552  27.905  31.321  1.00  0.00    -0.354 N 
ATOM     49  N   UNL A   1      41.504  29.632  33.468  1.00  0.00    -0.248 NA
ATOM     50  C   UNL A   1      41.570  30.391  35.675  1.00  0.00     0.031 C 
ATOM     51  C   UNL A   1      44.365  26.694  31.749  1.00  0.00     0.029 A 
ATOM     52  C   UNL A   1      43.474  27.597  32.307  1.00  0.00     0.049 A 
ATOM     53  H   UNL A   1      41.790  28.517  31.432  1.00  0.00     0.167 HD
ATOM     54  C   UNL A   1      42.571  29.034  34.120  1.00  0.00     0.074 A 
ATOM     55  C   UNL A   1      42.576  29.551  35.473  1.00  0.00     0.031 C 
ATOM     56  C   UNL A   1      43.463  28.135  33.642  1.00  0.00     0.037 A 
BRANCH  43  57
ATOM     57  C   UNL A   1      42.565  26.509  27.754  1.00  0.00     0.064 A 
ATOM     58  C   UNL A   1      42.036  25.239  27.488  1.00  0.00     0.173 A 
ATOM     59  C   UNL A   1      43.511  27.029  26.857  1.00  0.00     0.173 A 
ATOM     60  F   UNL A   1      41.140  24.693  28.323  1.00  0.00    -0.203 F 
ATOM     61  C   UNL A   1      42.449  24.513  26.373  1.00  0.00     0.198 A 
ATOM     62  C   UNL A   1      43.906  26.310  25.733  1.00  0.00     0.198 A 
ATOM     63  F   UNL A   1      44.045  28.242  27.066  1.00  0.00    -0.203 F 
ATOM     64  F   UNL A   1      41.954  23.286  26.154  1.00  0.00    -0.200 F 
ATOM     65  C   UNL A   1      43.377  25.051  25.494  1.00  0.00     0.200 A 
ATOM     66  F   UNL A   1      44.795  26.836  24.880  1.00  0.00    -0.200 F 
ATOM     67  F   UNL A   1      43.767  24.354  24.417  1.00  0.00    -0.200 F 
ENDBRANCH  43  57
BRANCH  44  68
ATOM     68  C   UNL A   1      39.188  32.075  35.336  1.00  0.00     0.064 A 
ATOM     69  C   UNL A   1      38.408  31.468  36.328  1.00  0.00     0.173 A 
ATOM     70  C   UNL A   1      39.478  33.441  35.475  1.00  0.00     0.173 A 
ATOM     71  F   UNL A   1      38.087  30.170  36.224  1.00  0.00    -0.203 F 
ATOM     72  C   UNL A   1      37.940  32.197  37.419  1.00  0.00     0.198 A 
ATOM     73  C   UNL A   1      39.032  34.163  36.579  1.00  0.00     0.198 A 
ATOM     74  F   UNL A   1      40.223  34.068  34.551  1.00  0.00    -0.203 F 
ATOM     75  F   UNL A   1      37.177  31.599  38.344  1.00  0.00    -0.200 F 
ATOM     76  C   UNL A   1      38.261  33.541  37.549  1.00  0.00     0.200 A 
ATOM     77  F   UNL A   1      39.358  35.456  36.709  1.00  0.00    -0.200 F 
ATOM     78  F   UNL A   1      37.825  34.236  38.608  1.00  0.00    -0.200 F 
ENDBRANCH  44  68
BRANCH  56  79
ATOM     79  C   UNL A   1      44.541  27.681  34.576  1.00  0.00     0.064 A 
ATOM     80  C   UNL A   1      45.751  28.380  34.688  1.00  0.00     0.173 A 
ATOM     81  C   UNL A   1      44.338  26.568  35.403  1.00  0.00     0.173 A 
ATOM     82  F   UNL A   1      45.992  29.441  33.904  1.00  0.00    -0.203 F 
ATOM     83  C   UNL A   1      46.727  27.971  35.592  1.00  0.00     0.198 A 
ATOM     84  C   UNL A   1      45.308  26.173  36.318  1.00  0.00     0.198 A 
ATOM     85  F   UNL A   1      43.194  25.871  35.330  1.00  0.00    -0.203 F 
ATOM     86  F   UNL A   1      47.888  28.636  35.667  1.00  0.00    -0.200 F 
ATOM     87  C   UNL A   1      46.503  26.873  36.410  1.00  0.00     0.200 A 
ATOM     88  F   UNL A   1      45.088  25.116  37.112  1.00  0.00    -0.200 F 
ATOM     89  F   UNL A   1      47.441  26.486  37.285  1.00  0.00    -0.200 F 
ENDBRANCH  56  79
ENDBRANCH  30  31
ENDBRANCH  23  25
ENDBRANCH  22  23
ENDBRANCH  21  22
ENDBRANCH   1  21
TORSDOF 14
ENDMDL
MODEL 2
REMARK VINA RESULT:     -12.1      0.386      1.660
REMARK SMILES C[C@H]1[C@@H](C(=O)OCCOC(=O)c2ccc(-c3c4nc(c(-c5c(F)c(F)c(F)c(F)c5F)c5ccc([nH]5)c(-c5c(F)c(F)c(F)c(F)c5F)c5nc(c(-c6c(F)c(F)c(F)c(F)c6F)c6ccc3[nH]6)C=C5)C=C4)cc2)CCN1C(=O)c1cncc(O)c1
REMARK SMILES IDX 7 1 6 2 4 3 5 4 3 5 1 6 2 7 77 8 75 9 76 10 78 11 79 12
REMARK SMILES IDX 80 13 81 14 86 15 82 16 84 17 83 18 85 19 8 21 9 22 10 23
REMARK SMILES IDX 11 24 12 25 13 26 74 27 14 28 73 29 15 30 16 31 17 32 67 33
REMARK SMILES IDX 18 34 72 35 66 36 68 37 19 38 71 39 65 40 64 41 20 43 52 44
REMARK SMILES IDX 32 45 51 46 33 47 36 48 50 49 69 50 34 51 35 52 49 54 70 55
REMARK SMILES IDX 37 56 21 57 22 58 30 59 23 60 24 61 28 62 31 63 25 64 26 65
REMARK SMILES IDX 29 66 27 67 53 68 54 69 62 70 55 71 56 72 60 73 63 74 57 75
REMARK SMILES IDX 58 76 61 77 59 78 38 79 39 80 47 81 40 82 41 83 45 84 48 85
REMARK SMILES IDX 42 86 43 87 46 88 44 89
REMARK H PARENT 85 20 68 42 36 53
REMARK Flexibility Score: inf
ROOT
ATOM      1  C   UNL A   1      32.066  28.915  24.918  1.00  0.00     0.274 C 
ENDROOT
BRANCH   1   2
ATOM      2  O   UNL A   1      30.942  28.031  25.112  1.00  0.00    -0.462 OA
BRANCH   2   3
ATOM      3  C   UNL A   1      31.065  27.053  26.031  1.00  0.00     0.311 C 
ATOM      4  O   UNL A   1      31.101  27.250  27.243  1.00  0.00    -0.252 OA
BRANCH   3   5
ATOM      5  C   UNL A   1      31.129  25.646  25.465  1.00  0.00     0.123 C 
ATOM      6  C   UNL A   1      33.762  25.613  25.558  1.00  0.00     0.032 C 
ATOM      7  C   UNL A   1      32.460  24.905  25.204  1.00  0.00     0.096 C 
ATOM      8  N   UNL A   1      32.410  24.539  23.778  1.00  0.00    -0.335 N 
ATOM      9  C   UNL A   1      30.350  25.526  24.148  1.00  0.00     0.039 C 
ATOM     10  C   UNL A   1      31.411  25.323  23.089  1.00  0.00     0.121 C 
BRANCH   8  11
ATOM     11  C   UNL A   1      33.168  23.613  23.084  1.00  0.00     0.255 C 
ATOM     12  O   UNL A   1      33.561  23.774  21.933  1.00  0.00    -0.269 OA
BRANCH  11  13
ATOM     13  C   UNL A   1      33.521  22.359  23.761  1.00  0.00     0.062 A 
ATOM     14  C   UNL A   1      34.850  22.113  24.069  1.00  0.00     0.125 A 
ATOM     15  C   UNL A   1      32.550  21.420  24.114  1.00  0.00     0.063 A 
ATOM     16  N   UNL A   1      35.260  21.029  24.770  1.00  0.00    -0.260 NA
ATOM     17  C   UNL A   1      32.949  20.306  24.837  1.00  0.00     0.134 A 
ATOM     18  C   UNL A   1      34.294  20.154  25.146  1.00  0.00     0.157 A 
BRANCH  17  19
ATOM     19  O   UNL A   1      32.055  19.372  25.263  1.00  0.00    -0.506 OA
ATOM     20  H   UNL A   1      31.138  19.504  25.124  1.00  0.00     0.293 HD
ENDBRANCH  17  19
ENDBRANCH  11  13
ENDBRANCH   8  11
ENDBRANCH   3   5
ENDBRANCH   2   3
ENDBRANCH   1   2
BRANCH   1  21
ATOM     21  C   UNL A   1      31.868  30.214  25.691  1.00  0.00     0.275 C 
BRANCH  21  22
ATOM     22  O   UNL A   1      32.655  30.185  26.892  1.00  0.00    -0.458 OA
BRANCH  22  23
ATOM     23  C   UNL A   1      33.233  31.359  27.224  1.00  0.00     0.338 C 
ATOM     24  O   UNL A   1      32.759  32.479  27.159  1.00  0.00    -0.246 OA
BRANCH  23  25
ATOM     25  C   UNL A   1      34.568  31.092  27.764  1.00  0.00     0.060 A 
ATOM     26  C   UNL A   1      34.891  29.791  28.150  1.00  0.00     0.016 A 
ATOM     27  C   UNL A   1      35.446  32.146  27.998  1.00  0.00     0.016 A 
ATOM     28  C   UNL A   1      36.060  29.553  28.863  1.00  0.00     0.010 A 
ATOM     29  C   UNL A   1      36.666  31.885  28.623  1.00  0.00     0.010 A 
ATOM     30  C   UNL A   1      36.973  30.591  29.086  1.00  0.00    -0.014 A 
BRANCH  30  31
ATOM     31  C   UNL A   1      38.251  30.349  29.801  1.00  0.00     0.031 A 
ATOM     32  C   UNL A   1      39.289  29.452  29.192  1.00  0.00     0.074 A 
ATOM     33  C   UNL A   1      38.463  30.895  31.013  1.00  0.00     0.049 A 
ATOM     34  N   UNL A   1      40.317  28.871  29.754  1.00  0.00    -0.248 NA
ATOM     35  C   UNL A   1      39.141  29.156  27.757  1.00  0.00     0.031 C 
ATOM     36  C   UNL A   1      37.568  31.833  31.692  1.00  0.00     0.029 A 
ATOM     37  N   UNL A   1      39.497  30.722  31.901  1.00  0.00    -0.354 N 
ATOM     38  C   UNL A   1      40.897  28.090  28.765  1.00  0.00     0.074 A 
ATOM     39  C   UNL A   1      40.120  28.285  27.558  1.00  0.00     0.031 C 
ATOM     40  C   UNL A   1      38.095  32.162  32.881  1.00  0.00     0.029 A 
ATOM     41  C   UNL A   1      39.310  31.385  33.089  1.00  0.00     0.049 A 
ATOM     42  H   UNL A   1      40.294  30.177  31.704  1.00  0.00     0.167 HD
ATOM     43  C   UNL A   1      41.973  27.273  28.867  1.00  0.00     0.037 A 
ATOM     44  C   UNL A   1      40.001  31.324  34.243  1.00  0.00     0.037 A 
ATOM     45  C   UNL A   1      42.766  27.132  30.058  1.00  0.00     0.049 A 
ATOM     46  C   UNL A   1      41.174  30.393  34.343  1.00  0.00     0.074 A 
ATOM     47  C   UNL A   1      43.878  26.335  30.269  1.00  0.00     0.029 A 
ATOM     48  N   UNL A   1      42.540  27.823  31.239  1.00  0.00    -0.354 N 
ATOM     49  N   UNL A   1      41.669  29.590  33.433  1.00  0.00    -0.248 NA
ATOM     50  C   UNL A   1      41.868  30.339  35.636  1.00  0.00     0.031 C 
ATOM     51  C   UNL A   1      44.312  26.528  31.585  1.00  0.00     0.029 A 
ATOM     52  C   UNL A   1      43.489  27.470  32.184  1.00  0.00     0.049 A 
ATOM     53  H   UNL A   1      41.812  28.470  31.385  1.00  0.00     0.167 HD
ATOM     54  C   UNL A   1      42.735  28.942  34.036  1.00  0.00     0.074 A 
ATOM     55  C   UNL A   1      42.824  29.453  35.389  1.00  0.00     0.031 C 
ATOM     56  C   UNL A   1      43.562  28.003  33.519  1.00  0.00     0.037 A 
BRANCH  43  57
ATOM     57  C   UNL A   1      42.331  26.439  27.674  1.00  0.00     0.064 A 
ATOM     58  C   UNL A   1      43.337  26.819  26.777  1.00  0.00     0.173 A 
ATOM     59  C   UNL A   1      41.680  25.215  27.455  1.00  0.00     0.173 A 
ATOM     60  F   UNL A   1      43.977  27.986  26.937  1.00  0.00    -0.203 F 
ATOM     61  C   UNL A   1      43.671  26.010  25.693  1.00  0.00     0.198 A 
ATOM     62  C   UNL A   1      42.031  24.398  26.384  1.00  0.00     0.198 A 
ATOM     63  F   UNL A   1      40.712  24.805  28.287  1.00  0.00    -0.203 F 
ATOM     64  F   UNL A   1      44.615  26.407  24.829  1.00  0.00    -0.200 F 
ATOM     65  C   UNL A   1      43.023  24.798  25.501  1.00  0.00     0.200 A 
ATOM     66  F   UNL A   1      41.411  23.223  26.206  1.00  0.00    -0.200 F 
ATOM     67  F   UNL A   1      43.352  24.016  24.463  1.00  0.00    -0.200 F 
ENDBRANCH  43  57
BRANCH  44  68
ATOM     68  C   UNL A   1      39.554  32.132  35.404  1.00  0.00     0.064 A 
ATOM     69  C   UNL A   1      39.983  33.455  35.566  1.00  0.00     0.173 A 
ATOM     70  C   UNL A   1      38.659  31.612  36.352  1.00  0.00     0.173 A 
ATOM     71  F   UNL A   1      40.856  33.987  34.698  1.00  0.00    -0.203 F 
ATOM     72  C   UNL A   1      39.532  34.230  36.632  1.00  0.00     0.198 A 
ATOM     73  C   UNL A   1      38.188  32.396  37.402  1.00  0.00     0.198 A 
ATOM     74  F   UNL A   1      38.218  30.351  36.238  1.00  0.00    -0.203 F 
ATOM     75  F   UNL A   1      39.974  35.487  36.779  1.00  0.00    -0.200 F 
ATOM     76  C   UNL A   1      38.626  33.704  37.543  1.00  0.00     0.200 A 
ATOM     77  F   UNL A   1      37.302  31.888  38.270  1.00  0.00    -0.200 F 
ATOM     78  F   UNL A   1      38.180  34.456  38.558  1.00  0.00    -0.200 F 
ENDBRANCH  44  68
BRANCH  56  79
ATOM     79  C   UNL A   1      44.658  27.497  34.404  1.00  0.00     0.064 A 
ATOM     80  C   UNL A   1      45.895  28.151  34.479  1.00  0.00     0.173 A 
ATOM     81  C   UNL A   1      44.447  26.378  35.221  1.00  0.00     0.173 A 
ATOM     82  F   UNL A   1      46.144  29.216  33.702  1.00  0.00    -0.203 F 
ATOM     83  C   UNL A   1      46.890  27.694  35.339  1.00  0.00     0.198 A 
ATOM     84  C   UNL A   1      45.436  25.935  36.092  1.00  0.00     0.198 A 
ATOM     85  F   UNL A   1      43.277  25.723  35.181  1.00  0.00    -0.203 F 
ATOM     86  F   UNL A   1      48.076  28.316  35.379  1.00  0.00    -0.200 F 
ATOM     87  C   UNL A   1      46.658  26.591  36.149  1.00  0.00     0.200 A 
ATOM     88  F   UNL A   1      45.209  24.873  36.878  1.00  0.00    -0.200 F 
ATOM     89  F   UNL A   1      47.614  26.158  36.981  1.00  0.00    -0.200 F 
ENDBRANCH  56  79
ENDBRANCH  30  31
ENDBRANCH  23  25
ENDBRANCH  22  23
ENDBRANCH  21  22
ENDBRANCH   1  21
TORSDOF 14
ENDMDL
MODEL 3
REMARK VINA RESULT:     -12.0      0.319      1.651
REMARK SMILES C[C@H]1[C@@H](C(=O)OCCOC(=O)c2ccc(-c3c4nc(c(-c5c(F)c(F)c(F)c(F)c5F)c5ccc([nH]5)c(-c5c(F)c(F)c(F)c(F)c5F)c5nc(c(-c6c(F)c(F)c(F)c(F)c6F)c6ccc3[nH]6)C=C5)C=C4)cc2)CCN1C(=O)c1cncc(O)c1
REMARK SMILES IDX 7 1 6 2 4 3 5 4 3 5 1 6 2 7 77 8 75 9 76 10 78 11 79 12
REMARK SMILES IDX 80 13 81 14 86 15 82 16 84 17 83 18 85 19 8 21 9 22 10 23
REMARK SMILES IDX 11 24 12 25 13 26 74 27 14 28 73 29 15 30 16 31 17 32 67 33
REMARK SMILES IDX 18 34 72 35 66 36 68 37 19 38 71 39 65 40 64 41 20 43 52 44
REMARK SMILES IDX 32 45 51 46 33 47 36 48 50 49 69 50 34 51 35 52 49 54 70 55
REMARK SMILES IDX 37 56 21 57 22 58 30 59 23 60 24 61 28 62 31 63 25 64 26 65
REMARK SMILES IDX 29 66 27 67 53 68 54 69 62 70 55 71 56 72 60 73 63 74 57 75
REMARK SMILES IDX 58 76 61 77 59 78 38 79 39 80 47 81 40 82 41 83 45 84 48 85
REMARK SMILES IDX 42 86 43 87 46 88 44 89
REMARK H PARENT 85 20 68 42 36 53
REMARK Flexibility Score: inf
ROOT
ATOM      1  C   UNL A   1      31.820  28.783  24.660  1.00  0.00     0.274 C 
ENDROOT
BRANCH   1   2
ATOM      2  O   UNL A   1      30.726  27.910  25.010  1.00  0.00    -0.462 OA
BRANCH   2   3
ATOM      3  C   UNL A   1      30.967  26.934  25.908  1.00  0.00     0.311 C 
ATOM      4  O   UNL A   1      31.072  27.122  27.116  1.00  0.00    -0.252 OA
BRANCH   3   5
ATOM      5  C   UNL A   1      31.074  25.537  25.322  1.00  0.00     0.123 C 
ATOM      6  C   UNL A   1      33.706  25.573  25.442  1.00  0.00     0.032 C 
ATOM      7  C   UNL A   1      32.426  24.836  25.064  1.00  0.00     0.096 C 
ATOM      8  N   UNL A   1      32.400  24.489  23.633  1.00  0.00    -0.335 N 
ATOM      9  C   UNL A   1      30.311  25.416  23.995  1.00  0.00     0.039 C 
ATOM     10  C   UNL A   1      31.388  25.257  22.944  1.00  0.00     0.121 C 
BRANCH   8  11
ATOM     11  C   UNL A   1      33.190  23.594  22.934  1.00  0.00     0.255 C 
ATOM     12  O   UNL A   1      33.601  23.788  21.794  1.00  0.00    -0.269 OA
BRANCH  11  13
ATOM     13  C   UNL A   1      33.556  22.333  23.589  1.00  0.00     0.062 A 
ATOM     14  C   UNL A   1      34.849  22.172  24.061  1.00  0.00     0.125 A 
ATOM     15  C   UNL A   1      32.629  21.303  23.763  1.00  0.00     0.063 A 
ATOM     16  N   UNL A   1      35.253  21.082  24.757  1.00  0.00    -0.260 NA
ATOM     17  C   UNL A   1      33.022  20.182  24.477  1.00  0.00     0.134 A 
ATOM     18  C   UNL A   1      34.324  20.115  24.956  1.00  0.00     0.157 A 
BRANCH  17  19
ATOM     19  O   UNL A   1      32.161  19.159  24.733  1.00  0.00    -0.506 OA
ATOM     20  H   UNL A   1      31.420  19.020  24.178  1.00  0.00     0.293 HD
ENDBRANCH  17  19
ENDBRANCH  11  13
ENDBRANCH   8  11
ENDBRANCH   3   5
ENDBRANCH   2   3
ENDBRANCH   1   2
BRANCH   1  21
ATOM     21  C   UNL A   1      31.760  30.073  25.470  1.00  0.00     0.275 C 
BRANCH  21  22
ATOM     22  O   UNL A   1      32.653  29.981  26.591  1.00  0.00    -0.458 OA
BRANCH  22  23
ATOM     23  C   UNL A   1      33.118  31.162  27.049  1.00  0.00     0.338 C 
ATOM     24  O   UNL A   1      32.554  32.241  27.064  1.00  0.00    -0.246 OA
BRANCH  23  25
ATOM     25  C   UNL A   1      34.452  30.956  27.618  1.00  0.00     0.060 A 
ATOM     26  C   UNL A   1      34.844  29.663  27.964  1.00  0.00     0.016 A 
ATOM     27  C   UNL A   1      35.256  32.052  27.917  1.00  0.00     0.016 A 
ATOM     28  C   UNL A   1      36.006  29.469  28.702  1.00  0.00     0.010 A 
ATOM     29  C   UNL A   1      36.473  31.841  28.568  1.00  0.00     0.010 A 
ATOM     30  C   UNL A   1      36.847  30.551  28.991  1.00  0.00    -0.014 A 
BRANCH  30  31
ATOM     31  C   UNL A   1      38.117  30.359  29.734  1.00  0.00     0.031 A 
ATOM     32  C   UNL A   1      39.207  29.513  29.143  1.00  0.00     0.074 A 
ATOM     33  C   UNL A   1      38.277  30.904  30.954  1.00  0.00     0.049 A 
ATOM     34  N   UNL A   1      40.246  28.973  29.725  1.00  0.00    -0.248 NA
ATOM     35  C   UNL A   1      39.105  29.222  27.703  1.00  0.00     0.031 C 
ATOM     36  C   UNL A   1      37.327  31.797  31.618  1.00  0.00     0.029 A 
ATOM     37  N   UNL A   1      39.297  30.769  31.865  1.00  0.00    -0.354 N 
ATOM     38  C   UNL A   1      40.883  28.226  28.744  1.00  0.00     0.074 A 
ATOM     39  C   UNL A   1      40.126  28.396  27.521  1.00  0.00     0.031 C 
ATOM     40  C   UNL A   1      37.811  32.139  32.821  1.00  0.00     0.029 A 
ATOM     41  C   UNL A   1      39.054  31.414  33.052  1.00  0.00     0.049 A 
ATOM     42  H   UNL A   1      40.121  30.262  31.683  1.00  0.00     0.167 HD
ATOM     43  C   UNL A   1      41.990  27.456  28.865  1.00  0.00     0.037 A 
ATOM     44  C   UNL A   1      39.720  31.374  34.222  1.00  0.00     0.037 A 
ATOM     45  C   UNL A   1      42.762  27.339  30.074  1.00  0.00     0.049 A 
ATOM     46  C   UNL A   1      40.930  30.495  34.343  1.00  0.00     0.074 A 
ATOM     47  C   UNL A   1      43.902  26.590  30.305  1.00  0.00     0.029 A 
ATOM     48  N   UNL A   1      42.478  28.011  31.254  1.00  0.00    -0.354 N 
ATOM     49  N   UNL A   1      41.480  29.721  33.439  1.00  0.00    -0.248 NA
ATOM     50  C   UNL A   1      41.596  30.460  35.651  1.00  0.00     0.031 C 
ATOM     51  C   UNL A   1      44.296  26.792  31.633  1.00  0.00     0.029 A 
ATOM     52  C   UNL A   1      43.420  27.692  32.218  1.00  0.00     0.049 A 
ATOM     53  H   UNL A   1      41.720  28.625  31.388  1.00  0.00     0.167 HD
ATOM     54  C   UNL A   1      42.560  29.115  34.063  1.00  0.00     0.074 A 
ATOM     55  C   UNL A   1      42.595  29.619  35.420  1.00  0.00     0.031 C 
ATOM     56  C   UNL A   1      43.439  28.218  33.558  1.00  0.00     0.037 A 
BRANCH  43  57
ATOM     57  C   UNL A   1      42.412  26.647  27.676  1.00  0.00     0.064 A 
ATOM     58  C   UNL A   1      43.389  27.099  26.779  1.00  0.00     0.173 A 
ATOM     59  C   UNL A   1      41.854  25.377  27.458  1.00  0.00     0.173 A 
ATOM     60  F   UNL A   1      43.940  28.311  26.937  1.00  0.00    -0.203 F 
ATOM     61  C   UNL A   1      43.784  26.313  25.699  1.00  0.00     0.198 A 
ATOM     62  C   UNL A   1      42.267  24.587  26.391  1.00  0.00     0.198 A 
ATOM     63  F   UNL A   1      40.917  24.899  28.291  1.00  0.00    -0.203 F 
ATOM     64  F   UNL A   1      44.698  26.777  24.835  1.00  0.00    -0.200 F 
ATOM     65  C   UNL A   1      43.229  25.056  25.509  1.00  0.00     0.200 A 
ATOM     66  F   UNL A   1      41.736  23.368  26.214  1.00  0.00    -0.200 F 
ATOM     67  F   UNL A   1      43.616  24.299  24.473  1.00  0.00    -0.200 F 
ENDBRANCH  43  57
BRANCH  44  68
ATOM     68  C   UNL A   1      39.212  32.153  35.377  1.00  0.00     0.064 A 
ATOM     69  C   UNL A   1      38.427  31.545  36.365  1.00  0.00     0.173 A 
ATOM     70  C   UNL A   1      39.532  33.510  35.538  1.00  0.00     0.173 A 
ATOM     71  F   UNL A   1      38.076  30.257  36.242  1.00  0.00    -0.203 F 
ATOM     72  C   UNL A   1      37.983  32.265  37.473  1.00  0.00     0.198 A 
ATOM     73  C   UNL A   1      39.111  34.221  36.658  1.00  0.00     0.198 A 
ATOM     74  F   UNL A   1      40.283  34.137  34.620  1.00  0.00    -0.203 F 
ATOM     75  F   UNL A   1      37.215  31.667  38.393  1.00  0.00    -0.200 F 
ATOM     76  C   UNL A   1      38.334  33.599  37.624  1.00  0.00     0.200 A 
ATOM     77  F   UNL A   1      39.465  35.505  36.808  1.00  0.00    -0.200 F 
ATOM     78  F   UNL A   1      37.922  34.285  38.698  1.00  0.00    -0.200 F 
ENDBRANCH  44  68
BRANCH  56  79
ATOM     79  C   UNL A   1      44.535  27.753  34.465  1.00  0.00     0.064 A 
ATOM     80  C   UNL A   1      44.399  26.591  35.237  1.00  0.00     0.173 A 
ATOM     81  C   UNL A   1      45.751  28.449  34.521  1.00  0.00     0.173 A 
ATOM     82  F   UNL A   1      43.247  25.905  35.226  1.00  0.00    -0.203 F 
ATOM     83  C   UNL A   1      45.443  26.147  36.044  1.00  0.00     0.198 A 
ATOM     84  C   UNL A   1      46.798  27.993  35.313  1.00  0.00     0.198 A 
ATOM     85  F   UNL A   1      45.924  29.565  33.796  1.00  0.00    -0.203 F 
ATOM     86  F   UNL A   1      45.286  25.049  36.795  1.00  0.00    -0.200 F 
ATOM     87  C   UNL A   1      46.643  26.844  36.076  1.00  0.00     0.200 A 
ATOM     88  F   UNL A   1      47.958  28.663  35.339  1.00  0.00    -0.200 F 
ATOM     89  F   UNL A   1      47.649  26.410  36.847  1.00  0.00    -0.200 F 
ENDBRANCH  56  79
ENDBRANCH  30  31
ENDBRANCH  23  25
ENDBRANCH  22  23
ENDBRANCH  21  22
ENDBRANCH   1  21
TORSDOF 14
ENDMDL
