MODEL 1
REMARK VINA RESULT:     -10.0      0.000      0.000
REMARK SMILES O=C(Nc1ccc(Cl)cc1C(=O)OCCOC(=O)c1ccc(-c2c3nc(c(-c4c(F)c(F)c(F)c(F)c4F)c4ccc([nH]4)c(-c4c(F)c(F)c(F)c(F)c4F)c4nc(c(-c5c(F)c(F)c(F)c(F)c5F)c5ccc2[nH]5)C=C4)C=C3)cc1)c1ccc2c(c1)C(=O)N(Cc1ccco1)C2=O
REMARK SMILES IDX 14 1 13 2 11 3 12 4 10 5 4 6 5 7 6 8 9 9 7 10 8 11 3 12 1 13
REMARK SMILES IDX 2 14 82 16 83 17 87 18 84 19 86 20 85 21 88 22 97 23 89 24
REMARK SMILES IDX 90 25 98 26 91 27 92 28 93 29 96 30 94 31 95 32 15 33 16 34
REMARK SMILES IDX 17 35 18 36 19 37 20 38 81 39 21 40 80 41 22 42 23 43 24 44
REMARK SMILES IDX 74 45 25 46 79 47 73 48 75 49 26 50 78 51 72 52 71 53 27 55
REMARK SMILES IDX 59 56 39 57 58 58 40 59 43 60 57 61 76 62 41 63 42 64 56 66
REMARK SMILES IDX 77 67 44 68 28 69 29 70 37 71 30 72 31 73 35 74 38 75 32 76
REMARK SMILES IDX 33 77 36 78 34 79 60 80 61 81 69 82 62 83 63 84 67 85 70 86
REMARK SMILES IDX 64 87 65 88 68 89 66 90 45 91 46 92 54 93 47 94 48 95 52 96
REMARK SMILES IDX 55 97 49 98 50 99 53 100 51 101
REMARK H PARENT 3 15 75 54 43 65
REMARK Flexibility Score: inf
ROOT
ATOM      1  C   UNL A   1      40.777  21.150  27.143  1.00  0.00     0.275 C 
ENDROOT
BRANCH   1   2
ATOM      2  O   UNL A   1      41.648  22.245  27.495  1.00  0.00    -0.458 OA
BRANCH   2   3
ATOM      3  C   UNL A   1      42.943  22.193  27.099  1.00  0.00     0.340 C 
ATOM      4  O   UNL A   1      43.358  21.688  26.070  1.00  0.00    -0.246 OA
BRANCH   3   5
ATOM      5  C   UNL A   1      43.828  22.931  28.055  1.00  0.00     0.085 A 
ATOM      6  C   UNL A   1      45.053  23.527  27.695  1.00  0.00     0.056 A 
ATOM      7  C   UNL A   1      45.770  24.203  28.691  1.00  0.00     0.028 A 
ATOM      8  C   UNL A   1      45.378  24.171  30.032  1.00  0.00     0.023 A 
ATOM      9  C   UNL A   1      43.412  22.950  29.401  1.00  0.00     0.038 A 
ATOM     10  C   UNL A   1      44.215  23.512  30.386  1.00  0.00     0.042 A 
ATOM     11  Cl  UNL A   1      43.777  23.374  32.041  1.00  0.00    -0.084 Cl
BRANCH   6  12
ATOM     12  N   UNL A   1      45.500  23.409  26.361  1.00  0.00    -0.321 N 
ATOM     13  O   UNL A   1      46.097  24.005  24.264  1.00  0.00    -0.269 OA
ATOM     14  C   UNL A   1      45.507  24.278  25.305  1.00  0.00     0.255 C 
ATOM     15  H   UNL A   1      45.882  22.527  26.149  1.00  0.00     0.170 HD
BRANCH  14  16
ATOM     16  C   UNL A   1      44.807  25.552  25.382  1.00  0.00     0.041 A 
ATOM     17  C   UNL A   1      43.449  25.694  25.021  1.00  0.00     0.015 A 
ATOM     18  C   UNL A   1      45.538  26.599  25.920  1.00  0.00     0.028 A 
ATOM     19  C   UNL A   1      42.790  26.920  25.227  1.00  0.00     0.015 A 
ATOM     20  C   UNL A   1      44.875  27.788  26.045  1.00  0.00     0.054 A 
ATOM     21  C   UNL A   1      43.536  27.956  25.764  1.00  0.00     0.053 A 
ATOM     22  C   UNL A   1      45.390  28.980  26.669  1.00  0.00     0.261 C 
ATOM     23  C   UNL A   1      43.166  29.256  26.342  1.00  0.00     0.261 C 
ATOM     24  O   UNL A   1      46.553  29.073  26.959  1.00  0.00    -0.269 OA
ATOM     25  N   UNL A   1      44.313  29.795  26.876  1.00  0.00    -0.267 N 
ATOM     26  O   UNL A   1      42.017  29.649  26.419  1.00  0.00    -0.269 OA
BRANCH  25  27
ATOM     27  C   UNL A   1      44.314  30.814  27.905  1.00  0.00     0.204 C 
BRANCH  27  28
ATOM     28  C   UNL A   1      44.153  32.194  27.375  1.00  0.00     0.123 A 
ATOM     29  C   UNL A   1      44.263  32.765  26.120  1.00  0.00     0.047 A 
ATOM     30  O   UNL A   1      43.925  33.173  28.298  1.00  0.00    -0.467 OA
ATOM     31  C   UNL A   1      44.032  34.148  26.277  1.00  0.00     0.042 A 
ATOM     32  C   UNL A   1      43.861  34.351  27.624  1.00  0.00     0.195 A 
ENDBRANCH  27  28
ENDBRANCH  25  27
ENDBRANCH  14  16
ENDBRANCH   6  12
ENDBRANCH   3   5
ENDBRANCH   2   3
ENDBRANCH   1   2
BRANCH   1  33
ATOM     33  C   UNL A   1      39.825  21.555  26.016  1.00  0.00     0.275 C 
BRANCH  33  34
ATOM     34  O   UNL A   1      38.648  22.181  26.558  1.00  0.00    -0.458 OA
BRANCH  34  35
ATOM     35  C   UNL A   1      38.315  23.366  25.998  1.00  0.00     0.338 C 
ATOM     36  O   UNL A   1      37.471  23.582  25.146  1.00  0.00    -0.246 OA
BRANCH  35  37
ATOM     37  C   UNL A   1      39.006  24.447  26.714  1.00  0.00     0.060 A 
ATOM     38  C   UNL A   1      38.816  24.502  28.089  1.00  0.00     0.016 A 
ATOM     39  C   UNL A   1      39.700  25.459  26.061  1.00  0.00     0.016 A 
ATOM     40  C   UNL A   1      39.261  25.588  28.828  1.00  0.00     0.010 A 
ATOM     41  C   UNL A   1      40.207  26.529  26.814  1.00  0.00     0.010 A 
ATOM     42  C   UNL A   1      39.969  26.617  28.201  1.00  0.00    -0.014 A 
BRANCH  42  43
ATOM     43  C   UNL A   1      40.395  27.803  28.995  1.00  0.00     0.031 A 
ATOM     44  C   UNL A   1      41.804  27.891  29.514  1.00  0.00     0.074 A 
ATOM     45  C   UNL A   1      39.540  28.822  29.214  1.00  0.00     0.049 A 
ATOM     46  N   UNL A   1      42.332  28.756  30.344  1.00  0.00    -0.248 NA
ATOM     47  C   UNL A   1      42.745  26.862  29.045  1.00  0.00     0.031 C 
ATOM     48  C   UNL A   1      38.169  28.904  28.707  1.00  0.00     0.029 A 
ATOM     49  N   UNL A   1      39.704  29.996  29.910  1.00  0.00    -0.354 N 
ATOM     50  C   UNL A   1      43.642  28.338  30.545  1.00  0.00     0.074 A 
ATOM     51  C   UNL A   1      43.831  27.144  29.749  1.00  0.00     0.031 C 
ATOM     52  C   UNL A   1      37.632  30.076  29.075  1.00  0.00     0.029 A 
ATOM     53  C   UNL A   1      38.583  30.789  29.920  1.00  0.00     0.049 A 
ATOM     54  H   UNL A   1      40.544  30.244  30.359  1.00  0.00     0.167 HD
ATOM     55  C   UNL A   1      44.595  28.901  31.326  1.00  0.00     0.037 A 
ATOM     56  C   UNL A   1      38.331  31.942  30.571  1.00  0.00     0.037 A 
ATOM     57  C   UNL A   1      44.419  30.125  32.063  1.00  0.00     0.049 A 
ATOM     58  C   UNL A   1      39.390  32.520  31.467  1.00  0.00     0.074 A 
ATOM     59  C   UNL A   1      45.333  30.793  32.859  1.00  0.00     0.029 A 
ATOM     60  N   UNL A   1      43.250  30.873  32.086  1.00  0.00    -0.354 N 
ATOM     61  N   UNL A   1      40.609  32.094  31.692  1.00  0.00    -0.248 NA
ATOM     62  C   UNL A   1      39.030  33.729  32.221  1.00  0.00     0.031 C 
ATOM     63  C   UNL A   1      44.704  31.919  33.401  1.00  0.00     0.029 A 
ATOM     64  C   UNL A   1      43.414  31.983  32.901  1.00  0.00     0.049 A 
ATOM     65  H   UNL A   1      42.426  30.649  31.595  1.00  0.00     0.167 HD
ATOM     66  C   UNL A   1      41.167  32.990  32.593  1.00  0.00     0.074 A 
ATOM     67  C   UNL A   1      40.159  33.995  32.861  1.00  0.00     0.031 C 
ATOM     68  C   UNL A   1      42.402  32.978  33.151  1.00  0.00     0.037 A 
BRANCH  55  69
ATOM     69  C   UNL A   1      45.902  28.174  31.464  1.00  0.00     0.064 A 
ATOM     70  C   UNL A   1      46.054  27.053  32.291  1.00  0.00     0.173 A 
ATOM     71  C   UNL A   1      47.018  28.597  30.723  1.00  0.00     0.173 A 
ATOM     72  F   UNL A   1      45.024  26.615  33.031  1.00  0.00    -0.203 F 
ATOM     73  C   UNL A   1      47.281  26.400  32.396  1.00  0.00     0.198 A 
ATOM     74  C   UNL A   1      48.233  27.924  30.806  1.00  0.00     0.198 A 
ATOM     75  F   UNL A   1      46.927  29.661  29.912  1.00  0.00    -0.203 F 
ATOM     76  F   UNL A   1      47.416  25.362  33.233  1.00  0.00    -0.200 F 
ATOM     77  C   UNL A   1      48.366  26.832  31.649  1.00  0.00     0.200 A 
ATOM     78  F   UNL A   1      49.277  28.335  30.073  1.00  0.00    -0.200 F 
ATOM     79  F   UNL A   1      49.544  26.199  31.746  1.00  0.00    -0.200 F 
ENDBRANCH  55  69
BRANCH  56  80
ATOM     80  C   UNL A   1      37.006  32.603  30.430  1.00  0.00     0.064 A 
ATOM     81  C   UNL A   1      36.003  32.421  31.391  1.00  0.00     0.173 A 
ATOM     82  C   UNL A   1      36.714  33.426  29.331  1.00  0.00     0.173 A 
ATOM     83  F   UNL A   1      36.223  31.619  32.444  1.00  0.00    -0.203 F 
ATOM     84  C   UNL A   1      34.756  33.027  31.255  1.00  0.00     0.198 A 
ATOM     85  C   UNL A   1      35.478  34.059  29.214  1.00  0.00     0.198 A 
ATOM     86  F   UNL A   1      37.636  33.630  28.380  1.00  0.00    -0.203 F 
ATOM     87  F   UNL A   1      33.799  32.800  32.166  1.00  0.00    -0.200 F 
ATOM     88  C   UNL A   1      34.498  33.852  30.171  1.00  0.00     0.200 A 
ATOM     89  F   UNL A   1      35.239  34.866  28.171  1.00  0.00    -0.200 F 
ATOM     90  F   UNL A   1      33.301  34.443  30.045  1.00  0.00    -0.200 F 
ENDBRANCH  56  80
BRANCH  68  91
ATOM     91  C   UNL A   1      42.746  34.109  34.075  1.00  0.00     0.064 A 
ATOM     92  C   UNL A   1      42.492  34.039  35.453  1.00  0.00     0.173 A 
ATOM     93  C   UNL A   1      43.367  35.266  33.579  1.00  0.00     0.173 A 
ATOM     94  F   UNL A   1      41.885  32.962  35.972  1.00  0.00    -0.203 F 
ATOM     95  C   UNL A   1      42.822  35.098  36.295  1.00  0.00     0.198 A 
ATOM     96  C   UNL A   1      43.724  36.308  34.429  1.00  0.00     0.198 A 
ATOM     97  F   UNL A   1      43.637  35.380  32.270  1.00  0.00    -0.203 F 
ATOM     98  F   UNL A   1      42.524  35.029  37.600  1.00  0.00    -0.200 F 
ATOM     99  C   UNL A   1      43.443  36.227  35.784  1.00  0.00     0.200 A 
ATOM    100  F   UNL A   1      44.335  37.394  33.936  1.00  0.00    -0.200 F 
ATOM    101  F   UNL A   1      43.765  37.242  36.598  1.00  0.00    -0.200 F 
ENDBRANCH  68  91
ENDBRANCH  42  43
ENDBRANCH  35  37
ENDBRANCH  34  35
ENDBRANCH  33  34
ENDBRANCH   1  33
TORSDOF 15
ENDMDL
MODEL 2
REMARK VINA RESULT:     -10.0      5.613     10.849
REMARK SMILES O=C(Nc1ccc(Cl)cc1C(=O)OCCOC(=O)c1ccc(-c2c3nc(c(-c4c(F)c(F)c(F)c(F)c4F)c4ccc([nH]4)c(-c4c(F)c(F)c(F)c(F)c4F)c4nc(c(-c5c(F)c(F)c(F)c(F)c5F)c5ccc2[nH]5)C=C4)C=C3)cc1)c1ccc2c(c1)C(=O)N(Cc1ccco1)C2=O
REMARK SMILES IDX 14 1 13 2 11 3 12 4 10 5 4 6 5 7 6 8 9 9 7 10 8 11 3 12 1 13
REMARK SMILES IDX 2 14 82 16 83 17 87 18 84 19 86 20 85 21 88 22 97 23 89 24
REMARK SMILES IDX 90 25 98 26 91 27 92 28 93 29 96 30 94 31 95 32 15 33 16 34
REMARK SMILES IDX 17 35 18 36 19 37 20 38 81 39 21 40 80 41 22 42 23 43 24 44
REMARK SMILES IDX 74 45 25 46 79 47 73 48 75 49 26 50 78 51 72 52 71 53 27 55
REMARK SMILES IDX 59 56 39 57 58 58 40 59 43 60 57 61 76 62 41 63 42 64 56 66
REMARK SMILES IDX 77 67 44 68 28 69 29 70 37 71 30 72 31 73 35 74 38 75 32 76
REMARK SMILES IDX 33 77 36 78 34 79 60 80 61 81 69 82 62 83 63 84 67 85 70 86
REMARK SMILES IDX 64 87 65 88 68 89 66 90 45 91 46 92 54 93 47 94 48 95 52 96
REMARK SMILES IDX 55 97 49 98 50 99 53 100 51 101
REMARK H PARENT 3 15 75 54 43 65
REMARK Flexibility Score: inf
ROOT
ATOM      1  C   UNL A   1      36.872  22.218  23.888  1.00  0.00     0.275 C 
ENDROOT
BRANCH   1   2
ATOM      2  O   UNL A   1      35.431  22.228  23.951  1.00  0.00    -0.458 OA
BRANCH   2   3
ATOM      3  C   UNL A   1      34.772  23.321  23.496  1.00  0.00     0.340 C 
ATOM      4  O   UNL A   1      35.220  24.162  22.735  1.00  0.00    -0.246 OA
BRANCH   3   5
ATOM      5  C   UNL A   1      33.353  23.332  23.974  1.00  0.00     0.085 A 
ATOM      6  C   UNL A   1      32.272  23.836  23.224  1.00  0.00     0.056 A 
ATOM      7  C   UNL A   1      30.993  23.766  23.791  1.00  0.00     0.028 A 
ATOM      8  C   UNL A   1      30.793  23.354  25.111  1.00  0.00     0.023 A 
ATOM      9  C   UNL A   1      33.136  22.867  25.286  1.00  0.00     0.038 A 
ATOM     10  C   UNL A   1      31.874  22.939  25.866  1.00  0.00     0.042 A 
ATOM     11  Cl  UNL A   1      31.660  22.531  27.521  1.00  0.00    -0.084 Cl
BRANCH   6  12
ATOM     12  N   UNL A   1      32.529  24.390  21.951  1.00  0.00    -0.321 N 
ATOM     13  O   UNL A   1      32.960  25.935  20.359  1.00  0.00    -0.269 OA
ATOM     14  C   UNL A   1      32.553  25.676  21.487  1.00  0.00     0.255 C 
ATOM     15  H   UNL A   1      32.731  23.718  21.261  1.00  0.00     0.170 HD
BRANCH  14  16
ATOM     16  C   UNL A   1      32.089  26.778  22.318  1.00  0.00     0.041 A 
ATOM     17  C   UNL A   1      32.976  27.671  22.958  1.00  0.00     0.015 A 
ATOM     18  C   UNL A   1      30.714  26.947  22.366  1.00  0.00     0.028 A 
ATOM     19  C   UNL A   1      32.473  28.787  23.652  1.00  0.00     0.015 A 
ATOM     20  C   UNL A   1      30.268  28.009  23.102  1.00  0.00     0.054 A 
ATOM     21  C   UNL A   1      31.098  28.939  23.691  1.00  0.00     0.053 A 
ATOM     22  C   UNL A   1      28.900  28.445  23.213  1.00  0.00     0.261 C 
ATOM     23  C   UNL A   1      30.230  30.061  24.079  1.00  0.00     0.261 C 
ATOM     24  O   UNL A   1      27.998  27.761  22.805  1.00  0.00    -0.269 OA
ATOM     25  N   UNL A   1      28.944  29.702  23.747  1.00  0.00    -0.267 N 
ATOM     26  O   UNL A   1      30.656  31.127  24.482  1.00  0.00    -0.269 OA
BRANCH  25  27
ATOM     27  C   UNL A   1      27.874  30.657  23.542  1.00  0.00     0.204 C 
BRANCH  27  28
ATOM     28  C   UNL A   1      27.874  31.267  22.186  1.00  0.00     0.123 A 
ATOM     29  C   UNL A   1      28.013  30.768  20.904  1.00  0.00     0.047 A 
ATOM     30  O   UNL A   1      27.805  32.629  22.136  1.00  0.00    -0.467 OA
ATOM     31  C   UNL A   1      27.967  31.873  20.027  1.00  0.00     0.042 A 
ATOM     32  C   UNL A   1      27.870  32.984  20.827  1.00  0.00     0.195 A 
ENDBRANCH  27  28
ENDBRANCH  25  27
ENDBRANCH  14  16
ENDBRANCH   6  12
ENDBRANCH   3   5
ENDBRANCH   2   3
ENDBRANCH   1   2
BRANCH   1  33
ATOM     33  C   UNL A   1      37.445  21.077  24.730  1.00  0.00     0.275 C 
BRANCH  33  34
ATOM     34  O   UNL A   1      37.890  21.572  26.007  1.00  0.00    -0.458 OA
BRANCH  34  35
ATOM     35  C   UNL A   1      39.187  21.331  26.299  1.00  0.00     0.338 C 
ATOM     36  O   UNL A   1      39.844  20.339  26.034  1.00  0.00    -0.246 OA
BRANCH  35  37
ATOM     37  C   UNL A   1      39.793  22.554  26.843  1.00  0.00     0.060 A 
ATOM     38  C   UNL A   1      39.357  23.757  26.301  1.00  0.00     0.016 A 
ATOM     39  C   UNL A   1      40.849  22.534  27.745  1.00  0.00     0.016 A 
ATOM     40  C   UNL A   1      39.999  24.950  26.601  1.00  0.00     0.010 A 
ATOM     41  C   UNL A   1      41.460  23.746  28.102  1.00  0.00     0.010 A 
ATOM     42  C   UNL A   1      41.058  24.962  27.513  1.00  0.00    -0.014 A 
BRANCH  42  43
ATOM     43  C   UNL A   1      41.773  26.240  27.787  1.00  0.00     0.031 A 
ATOM     44  C   UNL A   1      41.121  27.296  28.636  1.00  0.00     0.074 A 
ATOM     45  C   UNL A   1      43.021  26.439  27.320  1.00  0.00     0.049 A 
ATOM     46  N   UNL A   1      41.502  28.527  28.871  1.00  0.00    -0.248 NA
ATOM     47  C   UNL A   1      39.864  26.922  29.304  1.00  0.00     0.031 C 
ATOM     48  C   UNL A   1      43.803  25.471  26.547  1.00  0.00     0.029 A 
ATOM     49  N   UNL A   1      43.861  27.520  27.438  1.00  0.00    -0.354 N 
ATOM     50  C   UNL A   1      40.504  29.090  29.656  1.00  0.00     0.074 A 
ATOM     51  C   UNL A   1      39.500  28.068  29.861  1.00  0.00     0.031 C 
ATOM     52  C   UNL A   1      45.015  25.985  26.294  1.00  0.00     0.029 A 
ATOM     53  C   UNL A   1      45.068  27.350  26.804  1.00  0.00     0.049 A 
ATOM     54  H   UNL A   1      43.621  28.338  27.930  1.00  0.00     0.167 HD
ATOM     55  C   UNL A   1      40.434  30.348  30.155  1.00  0.00     0.037 A 
ATOM     56  C   UNL A   1      46.087  28.211  26.616  1.00  0.00     0.037 A 
ATOM     57  C   UNL A   1      41.467  31.339  30.002  1.00  0.00     0.049 A 
ATOM     58  C   UNL A   1      45.964  29.614  27.140  1.00  0.00     0.074 A 
ATOM     59  C   UNL A   1      41.505  32.631  30.496  1.00  0.00     0.029 A 
ATOM     60  N   UNL A   1      42.654  31.143  29.309  1.00  0.00    -0.354 N 
ATOM     61  N   UNL A   1      44.996  30.156  27.839  1.00  0.00    -0.248 NA
ATOM     62  C   UNL A   1      47.067  30.535  26.830  1.00  0.00     0.031 C 
ATOM     63  C   UNL A   1      42.692  33.232  30.063  1.00  0.00     0.029 A 
ATOM     64  C   UNL A   1      43.420  32.298  29.344  1.00  0.00     0.049 A 
ATOM     65  H   UNL A   1      42.914  30.305  28.860  1.00  0.00     0.167 HD
ATOM     66  C   UNL A   1      45.380  31.470  28.069  1.00  0.00     0.074 A 
ATOM     67  C   UNL A   1      46.678  31.640  27.450  1.00  0.00     0.031 C 
ATOM     68  C   UNL A   1      44.714  32.448  28.729  1.00  0.00     0.037 A 
BRANCH  55  69
ATOM     69  C   UNL A   1      39.177  30.743  30.875  1.00  0.00     0.064 A 
ATOM     70  C   UNL A   1      38.075  31.300  30.212  1.00  0.00     0.173 A 
ATOM     71  C   UNL A   1      39.067  30.528  32.259  1.00  0.00     0.173 A 
ATOM     72  F   UNL A   1      38.131  31.540  28.893  1.00  0.00    -0.203 F 
ATOM     73  C   UNL A   1      36.922  31.656  30.910  1.00  0.00     0.198 A 
ATOM     74  C   UNL A   1      37.903  30.854  32.948  1.00  0.00     0.198 A 
ATOM     75  F   UNL A   1      40.089  29.993  32.943  1.00  0.00    -0.203 F 
ATOM     76  F   UNL A   1      35.901  32.234  30.263  1.00  0.00    -0.200 F 
ATOM     77  C   UNL A   1      36.835  31.426  32.275  1.00  0.00     0.200 A 
ATOM     78  F   UNL A   1      37.816  30.619  34.264  1.00  0.00    -0.200 F 
ATOM     79  F   UNL A   1      35.723  31.762  32.944  1.00  0.00    -0.200 F 
ENDBRANCH  55  69
BRANCH  56  80
ATOM     80  C   UNL A   1      47.296  27.781  25.863  1.00  0.00     0.064 A 
ATOM     81  C   UNL A   1      48.458  27.377  26.533  1.00  0.00     0.173 A 
ATOM     82  C   UNL A   1      47.317  27.771  24.459  1.00  0.00     0.173 A 
ATOM     83  F   UNL A   1      48.499  27.398  27.874  1.00  0.00    -0.203 F 
ATOM     84  C   UNL A   1      49.596  26.988  25.830  1.00  0.00     0.198 A 
ATOM     85  C   UNL A   1      48.444  27.349  23.758  1.00  0.00     0.198 A 
ATOM     86  F   UNL A   1      46.233  28.154  23.768  1.00  0.00    -0.203 F 
ATOM     87  F   UNL A   1      50.709  26.647  26.496  1.00  0.00    -0.200 F 
ATOM     88  C   UNL A   1      49.586  26.966  24.444  1.00  0.00     0.200 A 
ATOM     89  F   UNL A   1      48.424  27.317  22.419  1.00  0.00    -0.200 F 
ATOM     90  F   UNL A   1      50.678  26.583  23.768  1.00  0.00    -0.200 F 
ENDBRANCH  56  80
BRANCH  68  91
ATOM     91  C   UNL A   1      45.398  33.778  28.853  1.00  0.00     0.064 A 
ATOM     92  C   UNL A   1      46.265  34.064  29.918  1.00  0.00     0.173 A 
ATOM     93  C   UNL A   1      45.207  34.767  27.876  1.00  0.00     0.173 A 
ATOM     94  F   UNL A   1      46.466  33.158  30.886  1.00  0.00    -0.203 F 
ATOM     95  C   UNL A   1      46.894  35.303  30.014  1.00  0.00     0.198 A 
ATOM     96  C   UNL A   1      45.862  35.992  27.959  1.00  0.00     0.198 A 
ATOM     97  F   UNL A   1      44.393  34.540  26.834  1.00  0.00    -0.203 F 
ATOM     98  F   UNL A   1      47.678  35.573  31.066  1.00  0.00    -0.200 F 
ATOM     99  C   UNL A   1      46.698  36.262  29.032  1.00  0.00     0.200 A 
ATOM    100  F   UNL A   1      45.682  36.913  27.003  1.00  0.00    -0.200 F 
ATOM    101  F   UNL A   1      47.309  37.451  29.124  1.00  0.00    -0.200 F 
ENDBRANCH  68  91
ENDBRANCH  42  43
ENDBRANCH  35  37
ENDBRANCH  34  35
ENDBRANCH  33  34
ENDBRANCH   1  33
TORSDOF 15
ENDMDL
MODEL 3
REMARK VINA RESULT:     -10.0      4.052     10.302
REMARK SMILES O=C(Nc1ccc(Cl)cc1C(=O)OCCOC(=O)c1ccc(-c2c3nc(c(-c4c(F)c(F)c(F)c(F)c4F)c4ccc([nH]4)c(-c4c(F)c(F)c(F)c(F)c4F)c4nc(c(-c5c(F)c(F)c(F)c(F)c5F)c5ccc2[nH]5)C=C4)C=C3)cc1)c1ccc2c(c1)C(=O)N(Cc1ccco1)C2=O
REMARK SMILES IDX 14 1 13 2 11 3 12 4 10 5 4 6 5 7 6 8 9 9 7 10 8 11 3 12 1 13
REMARK SMILES IDX 2 14 82 16 83 17 87 18 84 19 86 20 85 21 88 22 97 23 89 24
REMARK SMILES IDX 90 25 98 26 91 27 92 28 93 29 96 30 94 31 95 32 15 33 16 34
REMARK SMILES IDX 17 35 18 36 19 37 20 38 81 39 21 40 80 41 22 42 23 43 24 44
REMARK SMILES IDX 74 45 25 46 79 47 73 48 75 49 26 50 78 51 72 52 71 53 27 55
REMARK SMILES IDX 59 56 39 57 58 58 40 59 43 60 57 61 76 62 41 63 42 64 56 66
REMARK SMILES IDX 77 67 44 68 28 69 29 70 37 71 30 72 31 73 35 74 38 75 32 76
REMARK SMILES IDX 33 77 36 78 34 79 60 80 61 81 69 82 62 83 63 84 67 85 70 86
REMARK SMILES IDX 64 87 65 88 68 89 66 90 45 91 46 92 54 93 47 94 48 95 52 96
REMARK SMILES IDX 55 97 49 98 50 99 53 100 51 101
REMARK H PARENT 3 15 75 54 43 65
REMARK Flexibility Score: inf
ROOT
ATOM      1  C   UNL A   1      34.415  33.323  29.184  1.00  0.00     0.275 C 
ENDROOT
BRANCH   1   2
ATOM      2  O   UNL A   1      35.740  33.679  29.628  1.00  0.00    -0.458 OA
BRANCH   2   3
ATOM      3  C   UNL A   1      36.261  33.028  30.696  1.00  0.00     0.340 C 
ATOM      4  O   UNL A   1      35.744  32.096  31.288  1.00  0.00    -0.246 OA
BRANCH   3   5
ATOM      5  C   UNL A   1      37.630  33.537  31.023  1.00  0.00     0.085 A 
ATOM      6  C   UNL A   1      38.100  33.751  32.334  1.00  0.00     0.056 A 
ATOM      7  C   UNL A   1      39.413  34.215  32.491  1.00  0.00     0.028 A 
ATOM      8  C   UNL A   1      40.194  34.601  31.399  1.00  0.00     0.023 A 
ATOM      9  C   UNL A   1      38.445  33.879  29.925  1.00  0.00     0.038 A 
ATOM     10  C   UNL A   1      39.691  34.464  30.119  1.00  0.00     0.042 A 
ATOM     11  Cl  UNL A   1      40.597  35.032  28.775  1.00  0.00    -0.084 Cl
BRANCH   6  12
ATOM     12  N   UNL A   1      37.230  33.498  33.417  1.00  0.00    -0.321 N 
ATOM     13  O   UNL A   1      36.538  32.933  35.493  1.00  0.00    -0.269 OA
ATOM     14  C   UNL A   1      37.414  32.903  34.634  1.00  0.00     0.255 C 
ATOM     15  H   UNL A   1      36.310  33.812  33.265  1.00  0.00     0.170 HD
BRANCH  14  16
ATOM     16  C   UNL A   1      38.656  32.210  34.946  1.00  0.00     0.041 A 
ATOM     17  C   UNL A   1      39.565  32.683  35.918  1.00  0.00     0.015 A 
ATOM     18  C   UNL A   1      38.843  31.005  34.289  1.00  0.00     0.028 A 
ATOM     19  C   UNL A   1      40.690  31.913  36.263  1.00  0.00     0.015 A 
ATOM     20  C   UNL A   1      39.982  30.319  34.612  1.00  0.00     0.054 A 
ATOM     21  C   UNL A   1      40.863  30.712  35.596  1.00  0.00     0.053 A 
ATOM     22  C   UNL A   1      40.338  29.005  34.141  1.00  0.00     0.261 C 
ATOM     23  C   UNL A   1      41.734  29.553  35.839  1.00  0.00     0.261 C 
ATOM     24  O   UNL A   1      39.729  28.482  33.246  1.00  0.00    -0.269 OA
ATOM     25  N   UNL A   1      41.350  28.574  34.952  1.00  0.00    -0.267 N 
ATOM     26  O   UNL A   1      42.526  29.494  36.761  1.00  0.00    -0.269 OA
BRANCH  25  27
ATOM     27  C   UNL A   1      41.625  27.165  35.147  1.00  0.00     0.204 C 
BRANCH  27  28
ATOM     28  C   UNL A   1      42.823  26.685  34.409  1.00  0.00     0.123 A 
ATOM     29  C   UNL A   1      43.710  27.271  33.525  1.00  0.00     0.047 A 
ATOM     30  O   UNL A   1      43.113  25.357  34.528  1.00  0.00    -0.467 OA
ATOM     31  C   UNL A   1      44.621  26.266  33.133  1.00  0.00     0.042 A 
ATOM     32  C   UNL A   1      44.197  25.114  33.746  1.00  0.00     0.195 A 
ENDBRANCH  27  28
ENDBRANCH  25  27
ENDBRANCH  14  16
ENDBRANCH   6  12
ENDBRANCH   3   5
ENDBRANCH   2   3
ENDBRANCH   1   2
BRANCH   1  33
ATOM     33  C   UNL A   1      34.480  32.374  27.986  1.00  0.00     0.275 C 
BRANCH  33  34
ATOM     34  O   UNL A   1      34.160  31.031  28.395  1.00  0.00    -0.458 OA
BRANCH  34  35
ATOM     35  C   UNL A   1      34.758  30.053  27.679  1.00  0.00     0.338 C 
ATOM     36  O   UNL A   1      34.349  29.505  26.670  1.00  0.00    -0.246 OA
BRANCH  35  37
ATOM     37  C   UNL A   1      36.120  29.847  28.189  1.00  0.00     0.060 A 
ATOM     38  C   UNL A   1      37.159  30.056  27.289  1.00  0.00     0.016 A 
ATOM     39  C   UNL A   1      36.382  29.332  29.453  1.00  0.00     0.016 A 
ATOM     40  C   UNL A   1      38.461  29.704  27.608  1.00  0.00     0.010 A 
ATOM     41  C   UNL A   1      37.707  29.034  29.803  1.00  0.00     0.010 A 
ATOM     42  C   UNL A   1      38.756  29.192  28.875  1.00  0.00    -0.014 A 
BRANCH  42  43
ATOM     43  C   UNL A   1      40.150  28.768  29.187  1.00  0.00     0.031 A 
ATOM     44  C   UNL A   1      41.026  29.644  30.040  1.00  0.00     0.074 A 
ATOM     45  C   UNL A   1      40.618  27.582  28.751  1.00  0.00     0.049 A 
ATOM     46  N   UNL A   1      42.304  29.536  30.305  1.00  0.00    -0.248 NA
ATOM     47  C   UNL A   1      40.381  30.805  30.674  1.00  0.00     0.031 C 
ATOM     48  C   UNL A   1      39.853  26.601  27.979  1.00  0.00     0.029 A 
ATOM     49  N   UNL A   1      41.849  26.992  28.906  1.00  0.00    -0.354 N 
ATOM     50  C   UNL A   1      42.627  30.644  31.078  1.00  0.00     0.074 A 
ATOM     51  C   UNL A   1      41.411  31.413  31.242  1.00  0.00     0.031 C 
ATOM     52  C   UNL A   1      40.617  25.520  27.761  1.00  0.00     0.029 A 
ATOM     53  C   UNL A   1      41.951  25.765  28.296  1.00  0.00     0.049 A 
ATOM     54  H   UNL A   1      42.587  27.408  29.407  1.00  0.00     0.167 HD
ATOM     55  C   UNL A   1      43.830  30.987  31.598  1.00  0.00     0.037 A 
ATOM     56  C   UNL A   1      43.011  24.948  28.146  1.00  0.00     0.037 A 
ATOM     57  C   UNL A   1      45.020  30.183  31.484  1.00  0.00     0.049 A 
ATOM     58  C   UNL A   1      44.345  25.374  28.692  1.00  0.00     0.074 A 
ATOM     59  C   UNL A   1      46.280  30.428  32.002  1.00  0.00     0.029 A 
ATOM     60  N   UNL A   1      45.094  28.970  30.815  1.00  0.00    -0.354 N 
ATOM     61  N   UNL A   1      44.655  26.447  29.379  1.00  0.00    -0.248 NA
ATOM     62  C   UNL A   1      45.484  24.486  28.422  1.00  0.00     0.031 C 
ATOM     63  C   UNL A   1      47.127  29.388  31.606  1.00  0.00     0.029 A 
ATOM     64  C   UNL A   1      46.383  28.466  30.887  1.00  0.00     0.049 A 
ATOM     65  H   UNL A   1      44.340  28.531  30.356  1.00  0.00     0.167 HD
ATOM     66  C   UNL A   1      46.015  26.353  29.640  1.00  0.00     0.074 A 
ATOM     67  C   UNL A   1      46.469  25.110  29.053  1.00  0.00     0.031 C 
ATOM     68  C   UNL A   1      46.816  27.223  30.303  1.00  0.00     0.037 A 
BRANCH  55  69
ATOM     69  C   UNL A   1      43.935  32.312  32.297  1.00  0.00     0.064 A 
ATOM     70  C   UNL A   1      44.013  33.525  31.599  1.00  0.00     0.173 A 
ATOM     71  C   UNL A   1      43.928  32.363  33.700  1.00  0.00     0.173 A 
ATOM     72  F   UNL A   1      44.037  33.532  30.257  1.00  0.00    -0.203 F 
ATOM     73  C   UNL A   1      44.109  34.738  32.279  1.00  0.00     0.198 A 
ATOM     74  C   UNL A   1      43.992  33.578  34.376  1.00  0.00     0.198 A 
ATOM     75  F   UNL A   1      43.851  31.233  34.418  1.00  0.00    -0.203 F 
ATOM     76  F   UNL A   1      44.234  35.881  31.590  1.00  0.00    -0.200 F 
ATOM     77  C   UNL A   1      44.092  34.763  33.665  1.00  0.00     0.200 A 
ATOM     78  F   UNL A   1      43.962  33.601  35.716  1.00  0.00    -0.200 F 
ATOM     79  F   UNL A   1      44.178  35.932  34.317  1.00  0.00    -0.200 F 
ENDBRANCH  55  69
BRANCH  56  80
ATOM     80  C   UNL A   1      42.863  23.663  27.412  1.00  0.00     0.064 A 
ATOM     81  C   UNL A   1      42.297  22.540  28.030  1.00  0.00     0.173 A 
ATOM     82  C   UNL A   1      43.287  23.529  26.080  1.00  0.00     0.173 A 
ATOM     83  F   UNL A   1      41.904  22.608  29.311  1.00  0.00    -0.203 F 
ATOM     84  C   UNL A   1      42.170  21.331  27.350  1.00  0.00     0.198 A 
ATOM     85  C   UNL A   1      43.128  22.329  25.391  1.00  0.00     0.198 A 
ATOM     86  F   UNL A   1      43.840  24.571  25.443  1.00  0.00    -0.203 F 
ATOM     87  F   UNL A   1      41.666  20.260  27.979  1.00  0.00    -0.200 F 
ATOM     88  C   UNL A   1      42.577  21.228  26.028  1.00  0.00     0.200 A 
ATOM     89  F   UNL A   1      43.511  22.239  24.110  1.00  0.00    -0.200 F 
ATOM     90  F   UNL A   1      42.446  20.067  25.371  1.00  0.00    -0.200 F 
ENDBRANCH  56  80
BRANCH  68  91
ATOM     91  C   UNL A   1      48.257  26.837  30.465  1.00  0.00     0.064 A 
ATOM     92  C   UNL A   1      49.244  27.284  29.573  1.00  0.00     0.173 A 
ATOM     93  C   UNL A   1      48.660  26.037  31.544  1.00  0.00     0.173 A 
ATOM     94  F   UNL A   1      48.907  28.036  28.515  1.00  0.00    -0.203 F 
ATOM     95  C   UNL A   1      50.578  26.919  29.741  1.00  0.00     0.198 A 
ATOM     96  C   UNL A   1      49.999  25.701  31.727  1.00  0.00     0.198 A 
ATOM     97  F   UNL A   1      47.757  25.591  32.429  1.00  0.00    -0.203 F 
ATOM     98  F   UNL A   1      51.495  27.314  28.849  1.00  0.00    -0.200 F 
ATOM     99  C   UNL A   1      50.954  26.135  30.821  1.00  0.00     0.200 A 
ATOM    100  F   UNL A   1      50.363  24.954  32.778  1.00  0.00    -0.200 F 
ATOM    101  F   UNL A   1      52.239  25.790  30.985  1.00  0.00    -0.200 F 
ENDBRANCH  68  91
ENDBRANCH  42  43
ENDBRANCH  35  37
ENDBRANCH  34  35
ENDBRANCH  33  34
ENDBRANCH   1  33
TORSDOF 15
ENDMDL
