MODEL 1
REMARK VINA RESULT:     -11.5      0.000      0.000
REMARK SMILES CSc1ccc(NC(=O)CC(C)(C)CC(=O)OCCOC(=O)c2ccc(-c3c4nc(c(-c5c(F)c(F)c(F)c(F)c5F)c5ccc([nH]5)c(-c5c(F)c(F)c(F)c(F)c5F)c5nc(c(-c6c(F)c(F)c(F)c(F)c6F)c6ccc3[nH]6)C=C5)C=C4)cc2)cc1
REMARK SMILES IDX 17 1 15 2 16 3 14 4 11 5 12 6 13 7 10 8 8 9 7 10 9 12 6 13
REMARK SMILES IDX 3 14 4 15 87 16 5 17 86 18 2 19 1 20 18 21 19 22 20 23 21 24
REMARK SMILES IDX 22 25 23 26 24 27 85 28 25 29 84 30 26 31 27 32 28 33 78 34
REMARK SMILES IDX 29 35 83 36 77 37 79 38 30 39 82 40 76 41 75 42 31 44 63 45
REMARK SMILES IDX 43 46 62 47 44 48 47 49 61 50 80 51 45 52 46 53 60 55 81 56
REMARK SMILES IDX 48 57 32 58 33 59 41 60 34 61 35 62 39 63 42 64 36 65 37 66
REMARK SMILES IDX 40 67 38 68 64 69 65 70 73 71 66 72 67 73 71 74 74 75 68 76
REMARK SMILES IDX 69 77 72 78 70 79 49 80 50 81 58 82 51 83 52 84 56 85 59 86
REMARK SMILES IDX 53 87 54 88 57 89 55 90
REMARK H PARENT 7 11 79 43 47 54
REMARK Flexibility Score: inf
ROOT
ATOM      1  O   UNL A   1      31.171  27.891  25.928  1.00  0.00    -0.462 OA
ENDROOT
BRANCH   1   2
ATOM      2  C   UNL A   1      31.240  26.570  26.203  1.00  0.00     0.306 C 
ATOM      3  O   UNL A   1      30.269  25.861  26.449  1.00  0.00    -0.252 OA
BRANCH   2   4
ATOM      4  C   UNL A   1      32.643  26.005  26.263  1.00  0.00     0.129 C 
BRANCH   4   5
ATOM      5  C   UNL A   1      33.395  25.451  25.025  1.00  0.00    -0.016 C 
ATOM      6  C   UNL A   1      32.495  24.323  24.470  1.00  0.00     0.012 C 
ATOM      7  C   UNL A   1      34.732  24.776  25.401  1.00  0.00     0.012 C 
BRANCH   5   8
ATOM      8  C   UNL A   1      33.695  26.542  23.955  1.00  0.00     0.107 C 
BRANCH   8   9
ATOM      9  C   UNL A   1      33.245  26.268  22.526  1.00  0.00     0.224 C 
ATOM     10  N   UNL A   1      32.186  26.881  21.930  1.00  0.00    -0.326 N 
ATOM     11  H   UNL A   1      32.087  26.661  20.975  1.00  0.00     0.169 HD
ATOM     12  O   UNL A   1      33.915  25.518  21.809  1.00  0.00    -0.275 OA
BRANCH  10  13
ATOM     13  C   UNL A   1      31.210  27.763  22.406  1.00  0.00     0.041 A 
ATOM     14  C   UNL A   1      29.022  29.406  23.091  1.00  0.00     0.007 A 
ATOM     15  C   UNL A   1      30.284  29.954  22.833  1.00  0.00     0.017 A 
ATOM     16  C   UNL A   1      28.894  28.015  23.094  1.00  0.00     0.017 A 
ATOM     17  C   UNL A   1      31.375  29.139  22.505  1.00  0.00     0.027 A 
ATOM     18  C   UNL A   1      29.985  27.200  22.774  1.00  0.00     0.027 A 
BRANCH  14  19
ATOM     19  S   UNL A   1      27.687  30.553  23.392  1.00  0.00    -0.130 SA
ATOM     20  C   UNL A   1      28.021  31.898  22.224  1.00  0.00     0.091 C 
ENDBRANCH  14  19
ENDBRANCH  10  13
ENDBRANCH   8   9
ENDBRANCH   5   8
ENDBRANCH   4   5
ENDBRANCH   2   4
ENDBRANCH   1   2
BRANCH   1  21
ATOM     21  C   UNL A   1      31.782  28.763  26.899  1.00  0.00     0.274 C 
BRANCH  21  22
ATOM     22  C   UNL A   1      31.805  30.205  26.405  1.00  0.00     0.275 C 
BRANCH  22  23
ATOM     23  O   UNL A   1      33.159  30.672  26.304  1.00  0.00    -0.458 OA
BRANCH  23  24
ATOM     24  C   UNL A   1      33.518  31.606  27.213  1.00  0.00     0.338 C 
ATOM     25  O   UNL A   1      32.908  32.619  27.521  1.00  0.00    -0.246 OA
BRANCH  24  26
ATOM     26  C   UNL A   1      34.832  31.258  27.767  1.00  0.00     0.060 A 
ATOM     27  C   UNL A   1      35.100  29.957  28.199  1.00  0.00     0.016 A 
ATOM     28  C   UNL A   1      35.766  32.275  27.958  1.00  0.00     0.016 A 
ATOM     29  C   UNL A   1      36.280  29.683  28.889  1.00  0.00     0.010 A 
ATOM     30  C   UNL A   1      36.976  31.982  28.583  1.00  0.00     0.010 A 
ATOM     31  C   UNL A   1      37.232  30.690  29.077  1.00  0.00    -0.014 A 
BRANCH  31  32
ATOM     32  C   UNL A   1      38.505  30.436  29.791  1.00  0.00     0.031 A 
ATOM     33  C   UNL A   1      39.513  29.494  29.201  1.00  0.00     0.074 A 
ATOM     34  C   UNL A   1      38.714  30.978  31.004  1.00  0.00     0.049 A 
ATOM     35  N   UNL A   1      40.509  28.876  29.782  1.00  0.00    -0.248 NA
ATOM     36  C   UNL A   1      39.370  29.198  27.767  1.00  0.00     0.031 C 
ATOM     37  C   UNL A   1      37.845  31.956  31.656  1.00  0.00     0.029 A 
ATOM     38  N   UNL A   1      39.708  30.746  31.922  1.00  0.00    -0.354 N 
ATOM     39  C   UNL A   1      41.079  28.078  28.800  1.00  0.00     0.074 A 
ATOM     40  C   UNL A   1      40.328  28.299  27.583  1.00  0.00     0.031 C 
ATOM     41  C   UNL A   1      38.328  32.224  32.879  1.00  0.00     0.029 A 
ATOM     42  C   UNL A   1      39.489  31.376  33.122  1.00  0.00     0.049 A 
ATOM     43  H   UNL A   1      40.497  30.186  31.739  1.00  0.00     0.167 HD
ATOM     44  C   UNL A   1      42.127  27.229  28.920  1.00  0.00     0.037 A 
ATOM     45  C   UNL A   1      40.110  31.233  34.308  1.00  0.00     0.037 A 
ATOM     46  C   UNL A   1      42.885  27.046  30.131  1.00  0.00     0.049 A 
ATOM     47  C   UNL A   1      41.231  30.242  34.435  1.00  0.00     0.074 A 
ATOM     48  C   UNL A   1      43.975  26.224  30.354  1.00  0.00     0.029 A 
ATOM     49  N   UNL A   1      42.629  27.707  31.324  1.00  0.00    -0.354 N 
ATOM     50  N   UNL A   1      41.735  29.445  33.525  1.00  0.00    -0.248 NA
ATOM     51  C   UNL A   1      41.855  30.115  35.759  1.00  0.00     0.031 C 
ATOM     52  C   UNL A   1      44.363  26.366  31.692  1.00  0.00     0.029 A 
ATOM     53  C   UNL A   1      43.535  27.301  32.291  1.00  0.00     0.049 A 
ATOM     54  H   UNL A   1      41.911  28.365  31.464  1.00  0.00     0.167 HD
ATOM     55  C   UNL A   1      42.745  28.734  34.157  1.00  0.00     0.074 A 
ATOM     56  C   UNL A   1      42.785  29.197  35.530  1.00  0.00     0.031 C 
ATOM     57  C   UNL A   1      43.564  27.785  33.646  1.00  0.00     0.037 A 
BRANCH  44  58
ATOM     58  C   UNL A   1      42.499  26.405  27.725  1.00  0.00     0.064 A 
ATOM     59  C   UNL A   1      43.502  26.807  26.833  1.00  0.00     0.173 A 
ATOM     60  C   UNL A   1      41.878  25.166  27.504  1.00  0.00     0.173 A 
ATOM     61  F   UNL A   1      44.116  27.987  26.996  1.00  0.00    -0.203 F 
ATOM     62  C   UNL A   1      43.861  26.004  25.753  1.00  0.00     0.198 A 
ATOM     63  C   UNL A   1      42.254  24.356  26.436  1.00  0.00     0.198 A 
ATOM     64  F   UNL A   1      40.916  24.734  28.333  1.00  0.00    -0.203 F 
ATOM     65  F   UNL A   1      44.804  26.419  24.896  1.00  0.00    -0.200 F 
ATOM     66  C   UNL A   1      43.242  24.777  25.559  1.00  0.00     0.200 A 
ATOM     67  F   UNL A   1      41.663  23.167  26.256  1.00  0.00    -0.200 F 
ATOM     68  F   UNL A   1      43.598  24.001  24.526  1.00  0.00    -0.200 F 
ENDBRANCH  44  58
BRANCH  45  69
ATOM     69  C   UNL A   1      39.634  32.012  35.477  1.00  0.00     0.064 A 
ATOM     70  C   UNL A   1      38.641  31.502  36.322  1.00  0.00     0.173 A 
ATOM     71  C   UNL A   1      40.188  33.262  35.792  1.00  0.00     0.173 A 
ATOM     72  F   UNL A   1      38.066  30.322  36.044  1.00  0.00    -0.203 F 
ATOM     73  C   UNL A   1      38.219  32.214  37.442  1.00  0.00     0.198 A 
ATOM     74  C   UNL A   1      39.782  33.961  36.926  1.00  0.00     0.198 A 
ATOM     75  F   UNL A   1      41.141  33.791  35.012  1.00  0.00    -0.203 F 
ATOM     76  F   UNL A   1      37.248  31.717  38.221  1.00  0.00    -0.200 F 
ATOM     77  C   UNL A   1      38.796  33.438  37.748  1.00  0.00     0.200 A 
ATOM     78  F   UNL A   1      40.351  35.137  37.225  1.00  0.00    -0.200 F 
ATOM     79  F   UNL A   1      38.398  34.115  38.834  1.00  0.00    -0.200 F 
ENDBRANCH  45  69
BRANCH  57  80
ATOM     80  C   UNL A   1      44.601  27.215  34.562  1.00  0.00     0.064 A 
ATOM     81  C   UNL A   1      45.847  27.832  34.731  1.00  0.00     0.173 A 
ATOM     82  C   UNL A   1      44.322  26.066  35.318  1.00  0.00     0.173 A 
ATOM     83  F   UNL A   1      46.163  28.923  34.017  1.00  0.00    -0.203 F 
ATOM     84  C   UNL A   1      46.785  27.311  35.619  1.00  0.00     0.198 A 
ATOM     85  C   UNL A   1      45.254  25.560  36.218  1.00  0.00     0.198 A 
ATOM     86  F   UNL A   1      43.141  25.445  35.190  1.00  0.00    -0.203 F 
ATOM     87  F   UNL A   1      47.983  27.899  35.746  1.00  0.00    -0.200 F 
ATOM     88  C   UNL A   1      46.486  26.181  36.365  1.00  0.00     0.200 A 
ATOM     89  F   UNL A   1      44.961  24.472  36.942  1.00  0.00    -0.200 F 
ATOM     90  F   UNL A   1      47.387  25.685  37.224  1.00  0.00    -0.200 F 
ENDBRANCH  57  80
ENDBRANCH  31  32
ENDBRANCH  24  26
ENDBRANCH  23  24
ENDBRANCH  22  23
ENDBRANCH  21  22
ENDBRANCH   1  21
TORSDOF 16
ENDMDL
MODEL 2
REMARK VINA RESULT:     -11.3      2.053      3.737
REMARK SMILES CSc1ccc(NC(=O)CC(C)(C)CC(=O)OCCOC(=O)c2ccc(-c3c4nc(c(-c5c(F)c(F)c(F)c(F)c5F)c5ccc([nH]5)c(-c5c(F)c(F)c(F)c(F)c5F)c5nc(c(-c6c(F)c(F)c(F)c(F)c6F)c6ccc3[nH]6)C=C5)C=C4)cc2)cc1
REMARK SMILES IDX 17 1 15 2 16 3 14 4 11 5 12 6 13 7 10 8 8 9 7 10 9 12 6 13
REMARK SMILES IDX 3 14 4 15 87 16 5 17 86 18 2 19 1 20 18 21 19 22 20 23 21 24
REMARK SMILES IDX 22 25 23 26 24 27 85 28 25 29 84 30 26 31 27 32 28 33 78 34
REMARK SMILES IDX 29 35 83 36 77 37 79 38 30 39 82 40 76 41 75 42 31 44 63 45
REMARK SMILES IDX 43 46 62 47 44 48 47 49 61 50 80 51 45 52 46 53 60 55 81 56
REMARK SMILES IDX 48 57 32 58 33 59 41 60 34 61 35 62 39 63 42 64 36 65 37 66
REMARK SMILES IDX 40 67 38 68 64 69 65 70 73 71 66 72 67 73 71 74 74 75 68 76
REMARK SMILES IDX 69 77 72 78 70 79 49 80 50 81 58 82 51 83 52 84 56 85 59 86
REMARK SMILES IDX 53 87 54 88 57 89 55 90
REMARK H PARENT 7 11 79 43 47 54
REMARK Flexibility Score: inf
ROOT
ATOM      1  O   UNL A   1      30.497  28.784  23.993  1.00  0.00    -0.462 OA
ENDROOT
BRANCH   1   2
ATOM      2  C   UNL A   1      30.424  27.542  23.467  1.00  0.00     0.306 C 
ATOM      3  O   UNL A   1      30.553  27.283  22.274  1.00  0.00    -0.252 OA
BRANCH   2   4
ATOM      4  C   UNL A   1      30.090  26.449  24.461  1.00  0.00     0.129 C 
BRANCH   4   5
ATOM      5  C   UNL A   1      31.155  25.518  25.097  1.00  0.00    -0.016 C 
ATOM      6  C   UNL A   1      31.460  26.132  26.483  1.00  0.00     0.012 C 
ATOM      7  C   UNL A   1      32.493  25.538  24.324  1.00  0.00     0.012 C 
BRANCH   5   8
ATOM      8  C   UNL A   1      30.687  24.037  25.202  1.00  0.00     0.107 C 
BRANCH   8   9
ATOM      9  C   UNL A   1      30.759  23.373  26.571  1.00  0.00     0.224 C 
ATOM     10  N   UNL A   1      31.857  22.725  27.047  1.00  0.00    -0.326 N 
ATOM     11  H   UNL A   1      31.770  22.434  27.984  1.00  0.00     0.169 HD
ATOM     12  O   UNL A   1      29.813  23.491  27.357  1.00  0.00    -0.275 OA
BRANCH  10  13
ATOM     13  C   UNL A   1      33.086  22.390  26.467  1.00  0.00     0.041 A 
ATOM     14  C   UNL A   1      35.517  21.375  25.460  1.00  0.00     0.007 A 
ATOM     15  C   UNL A   1      35.480  22.566  26.197  1.00  0.00     0.017 A 
ATOM     16  C   UNL A   1      34.307  20.750  25.154  1.00  0.00     0.017 A 
ATOM     17  C   UNL A   1      34.272  23.077  26.688  1.00  0.00     0.027 A 
ATOM     18  C   UNL A   1      33.098  21.266  25.637  1.00  0.00     0.027 A 
BRANCH  14  19
ATOM     19  S   UNL A   1      37.127  20.768  24.982  1.00  0.00    -0.130 SA
ATOM     20  C   UNL A   1      38.259  22.010  25.661  1.00  0.00     0.091 C 
ENDBRANCH  14  19
ENDBRANCH  10  13
ENDBRANCH   8   9
ENDBRANCH   5   8
ENDBRANCH   4   5
ENDBRANCH   2   4
ENDBRANCH   1   2
BRANCH   1  21
ATOM     21  C   UNL A   1      31.823  29.245  24.320  1.00  0.00     0.274 C 
BRANCH  21  22
ATOM     22  C   UNL A   1      31.925  29.622  25.793  1.00  0.00     0.275 C 
BRANCH  22  23
ATOM     23  O   UNL A   1      33.250  30.089  26.095  1.00  0.00    -0.458 OA
BRANCH  23  24
ATOM     24  C   UNL A   1      33.312  31.144  26.936  1.00  0.00     0.338 C 
ATOM     25  O   UNL A   1      32.543  32.091  27.003  1.00  0.00    -0.246 OA
BRANCH  24  26
ATOM     26  C   UNL A   1      34.521  31.030  27.763  1.00  0.00     0.060 A 
ATOM     27  C   UNL A   1      35.382  32.119  27.918  1.00  0.00     0.016 A 
ATOM     28  C   UNL A   1      34.848  29.786  28.297  1.00  0.00     0.016 A 
ATOM     29  C   UNL A   1      36.613  31.947  28.549  1.00  0.00     0.010 A 
ATOM     30  C   UNL A   1      36.046  29.634  28.992  1.00  0.00     0.010 A 
ATOM     31  C   UNL A   1      36.950  30.707  29.102  1.00  0.00    -0.014 A 
BRANCH  31  32
ATOM     32  C   UNL A   1      38.241  30.487  29.794  1.00  0.00     0.031 A 
ATOM     33  C   UNL A   1      39.257  29.561  29.194  1.00  0.00     0.074 A 
ATOM     34  C   UNL A   1      38.462  31.047  30.997  1.00  0.00     0.049 A 
ATOM     35  N   UNL A   1      40.277  28.971  29.762  1.00  0.00    -0.248 NA
ATOM     36  C   UNL A   1      39.093  29.247  27.767  1.00  0.00     0.031 C 
ATOM     37  C   UNL A   1      37.584  32.014  31.656  1.00  0.00     0.029 A 
ATOM     38  N   UNL A   1      39.478  30.847  31.898  1.00  0.00    -0.354 N 
ATOM     39  C   UNL A   1      40.846  28.174  28.778  1.00  0.00     0.074 A 
ATOM     40  C   UNL A   1      40.067  28.366  27.573  1.00  0.00     0.031 C 
ATOM     41  C   UNL A   1      38.085  32.305  32.866  1.00  0.00     0.029 A 
ATOM     42  C   UNL A   1      39.269  31.485  33.095  1.00  0.00     0.049 A 
ATOM     43  H   UNL A   1      40.275  30.301  31.705  1.00  0.00     0.167 HD
ATOM     44  C   UNL A   1      41.913  27.349  28.887  1.00  0.00     0.037 A 
ATOM     45  C   UNL A   1      39.915  31.367  34.270  1.00  0.00     0.037 A 
ATOM     46  C   UNL A   1      42.698  27.195  30.085  1.00  0.00     0.049 A 
ATOM     47  C   UNL A   1      41.059  30.402  34.386  1.00  0.00     0.074 A 
ATOM     48  C   UNL A   1      43.809  26.399  30.295  1.00  0.00     0.029 A 
ATOM     49  N   UNL A   1      42.451  27.863  31.275  1.00  0.00    -0.354 N 
ATOM     50  N   UNL A   1      41.562  29.606  33.475  1.00  0.00    -0.248 NA
ATOM     51  C   UNL A   1      41.710  30.302  35.699  1.00  0.00     0.031 C 
ATOM     52  C   UNL A   1      44.220  26.563  31.623  1.00  0.00     0.029 A 
ATOM     53  C   UNL A   1      43.384  27.488  32.228  1.00  0.00     0.049 A 
ATOM     54  H   UNL A   1      41.722  28.508  31.422  1.00  0.00     0.167 HD
ATOM     55  C   UNL A   1      42.599  28.924  34.095  1.00  0.00     0.074 A 
ATOM     56  C   UNL A   1      42.655  29.402  35.462  1.00  0.00     0.031 C 
ATOM     57  C   UNL A   1      43.428  27.987  33.578  1.00  0.00     0.037 A 
BRANCH  44  58
ATOM     58  C   UNL A   1      42.280  26.520  27.693  1.00  0.00     0.064 A 
ATOM     59  C   UNL A   1      43.284  26.916  26.799  1.00  0.00     0.173 A 
ATOM     60  C   UNL A   1      41.653  25.284  27.475  1.00  0.00     0.173 A 
ATOM     61  F   UNL A   1      43.905  28.093  26.958  1.00  0.00    -0.203 F 
ATOM     62  C   UNL A   1      43.638  26.108  25.721  1.00  0.00     0.198 A 
ATOM     63  C   UNL A   1      42.024  24.469  26.409  1.00  0.00     0.198 A 
ATOM     64  F   UNL A   1      40.689  24.858  28.307  1.00  0.00    -0.203 F 
ATOM     65  F   UNL A   1      44.582  26.516  24.861  1.00  0.00    -0.200 F 
ATOM     66  C   UNL A   1      43.013  24.884  25.531  1.00  0.00     0.200 A 
ATOM     67  F   UNL A   1      41.426  23.283  26.233  1.00  0.00    -0.200 F 
ATOM     68  F   UNL A   1      43.364  24.103  24.499  1.00  0.00    -0.200 F 
ENDBRANCH  44  58
BRANCH  45  69
ATOM     69  C   UNL A   1      39.444  32.149  35.440  1.00  0.00     0.064 A 
ATOM     70  C   UNL A   1      38.567  31.585  36.373  1.00  0.00     0.173 A 
ATOM     71  C   UNL A   1      39.892  33.459  35.666  1.00  0.00     0.173 A 
ATOM     72  F   UNL A   1      38.095  30.343  36.183  1.00  0.00    -0.203 F 
ATOM     73  C   UNL A   1      38.154  32.302  37.493  1.00  0.00     0.198 A 
ATOM     74  C   UNL A   1      39.496  34.167  36.799  1.00  0.00     0.198 A 
ATOM     75  F   UNL A   1      40.732  34.042  34.800  1.00  0.00    -0.203 F 
ATOM     76  F   UNL A   1      37.293  31.750  38.359  1.00  0.00    -0.200 F 
ATOM     77  C   UNL A   1      38.626  33.589  37.710  1.00  0.00     0.200 A 
ATOM     78  F   UNL A   1      39.965  35.404  37.011  1.00  0.00    -0.200 F 
ATOM     79  F   UNL A   1      38.238  34.272  38.795  1.00  0.00    -0.200 F 
ENDBRANCH  45  69
BRANCH  57  80
ATOM     80  C   UNL A   1      44.494  27.448  34.480  1.00  0.00     0.064 A 
ATOM     81  C   UNL A   1      44.300  26.278  35.225  1.00  0.00     0.173 A 
ATOM     82  C   UNL A   1      45.742  28.084  34.558  1.00  0.00     0.173 A 
ATOM     83  F   UNL A   1      43.117  25.646  35.194  1.00  0.00    -0.203 F 
ATOM     84  C   UNL A   1      45.317  25.768  36.027  1.00  0.00     0.198 A 
ATOM     85  C   UNL A   1      46.762  27.562  35.345  1.00  0.00     0.198 A 
ATOM     86  F   UNL A   1      45.973  29.206  33.859  1.00  0.00    -0.203 F 
ATOM     87  F   UNL A   1      45.103  24.663  36.755  1.00  0.00    -0.200 F 
ATOM     88  C   UNL A   1      46.548  26.406  36.082  1.00  0.00     0.200 A 
ATOM     89  F   UNL A   1      47.952  28.175  35.392  1.00  0.00    -0.200 F 
ATOM     90  F   UNL A   1      47.528  25.910  36.849  1.00  0.00    -0.200 F 
ENDBRANCH  57  80
ENDBRANCH  31  32
ENDBRANCH  24  26
ENDBRANCH  23  24
ENDBRANCH  22  23
ENDBRANCH  21  22
ENDBRANCH   1  21
TORSDOF 16
ENDMDL
MODEL 3
REMARK VINA RESULT:     -11.1      4.560      9.680
REMARK SMILES CSc1ccc(NC(=O)CC(C)(C)CC(=O)OCCOC(=O)c2ccc(-c3c4nc(c(-c5c(F)c(F)c(F)c(F)c5F)c5ccc([nH]5)c(-c5c(F)c(F)c(F)c(F)c5F)c5nc(c(-c6c(F)c(F)c(F)c(F)c6F)c6ccc3[nH]6)C=C5)C=C4)cc2)cc1
REMARK SMILES IDX 17 1 15 2 16 3 14 4 11 5 12 6 13 7 10 8 8 9 7 10 9 12 6 13
REMARK SMILES IDX 3 14 4 15 87 16 5 17 86 18 2 19 1 20 18 21 19 22 20 23 21 24
REMARK SMILES IDX 22 25 23 26 24 27 85 28 25 29 84 30 26 31 27 32 28 33 78 34
REMARK SMILES IDX 29 35 83 36 77 37 79 38 30 39 82 40 76 41 75 42 31 44 63 45
REMARK SMILES IDX 43 46 62 47 44 48 47 49 61 50 80 51 45 52 46 53 60 55 81 56
REMARK SMILES IDX 48 57 32 58 33 59 41 60 34 61 35 62 39 63 42 64 36 65 37 66
REMARK SMILES IDX 40 67 38 68 64 69 65 70 73 71 66 72 67 73 71 74 74 75 68 76
REMARK SMILES IDX 69 77 72 78 70 79 49 80 50 81 58 82 51 83 52 84 56 85 59 86
REMARK SMILES IDX 53 87 54 88 57 89 55 90
REMARK H PARENT 7 11 79 43 47 54
REMARK Flexibility Score: inf
ROOT
ATOM      1  O   UNL A   1      34.863  20.169  25.144  1.00  0.00    -0.462 OA
ENDROOT
BRANCH   1   2
ATOM      2  C   UNL A   1      33.532  20.400  25.122  1.00  0.00     0.306 C 
ATOM      3  O   UNL A   1      32.680  19.585  25.465  1.00  0.00    -0.252 OA
BRANCH   2   4
ATOM      4  C   UNL A   1      33.129  21.747  24.563  1.00  0.00     0.129 C 
BRANCH   4   5
ATOM      5  C   UNL A   1      32.523  22.885  25.426  1.00  0.00    -0.016 C 
ATOM      6  C   UNL A   1      33.114  24.193  24.853  1.00  0.00     0.012 C 
ATOM      7  C   UNL A   1      32.990  22.821  26.897  1.00  0.00     0.012 C 
BRANCH   5   8
ATOM      8  C   UNL A   1      30.966  22.892  25.420  1.00  0.00     0.107 C 
BRANCH   8   9
ATOM      9  C   UNL A   1      30.263  23.644  26.542  1.00  0.00     0.224 C 
ATOM     10  N   UNL A   1      29.841  24.935  26.448  1.00  0.00    -0.326 N 
ATOM     11  H   UNL A   1      29.322  25.240  27.227  1.00  0.00     0.169 HD
ATOM     12  O   UNL A   1      29.958  23.046  27.580  1.00  0.00    -0.275 OA
BRANCH  10  13
ATOM     13  C   UNL A   1      30.001  25.914  25.461  1.00  0.00     0.041 A 
ATOM     14  C   UNL A   1      30.265  28.140  23.749  1.00  0.00     0.007 A 
ATOM     15  C   UNL A   1      29.351  27.117  23.468  1.00  0.00     0.017 A 
ATOM     16  C   UNL A   1      31.112  27.986  24.848  1.00  0.00     0.017 A 
ATOM     17  C   UNL A   1      29.227  26.005  24.311  1.00  0.00     0.027 A 
ATOM     18  C   UNL A   1      30.995  26.871  25.685  1.00  0.00     0.027 A 
BRANCH  14  19
ATOM     19  S   UNL A   1      30.255  29.556  22.661  1.00  0.00    -0.130 SA
ATOM     20  C   UNL A   1      29.112  30.701  23.477  1.00  0.00     0.091 C 
ENDBRANCH  14  19
ENDBRANCH  10  13
ENDBRANCH   8   9
ENDBRANCH   5   8
ENDBRANCH   4   5
ENDBRANCH   2   4
ENDBRANCH   1   2
BRANCH   1  21
ATOM     21  C   UNL A   1      35.692  21.257  24.690  1.00  0.00     0.274 C 
BRANCH  21  22
ATOM     22  C   UNL A   1      37.170  20.939  24.884  1.00  0.00     0.275 C 
BRANCH  22  23
ATOM     23  O   UNL A   1      37.763  21.878  25.795  1.00  0.00    -0.458 OA
BRANCH  23  24
ATOM     24  C   UNL A   1      39.035  21.602  26.162  1.00  0.00     0.338 C 
ATOM     25  O   UNL A   1      39.605  20.523  26.119  1.00  0.00    -0.246 OA
BRANCH  24  26
ATOM     26  C   UNL A   1      39.655  22.819  26.702  1.00  0.00     0.060 A 
ATOM     27  C   UNL A   1      39.295  24.077  26.213  1.00  0.00     0.016 A 
ATOM     28  C   UNL A   1      40.685  22.686  27.630  1.00  0.00     0.016 A 
ATOM     29  C   UNL A   1      40.018  25.205  26.600  1.00  0.00     0.010 A 
ATOM     30  C   UNL A   1      41.358  23.824  28.071  1.00  0.00     0.010 A 
ATOM     31  C   UNL A   1      41.047  25.089  27.540  1.00  0.00    -0.014 A 
BRANCH  31  32
ATOM     32  C   UNL A   1      41.828  26.265  27.989  1.00  0.00     0.031 A 
ATOM     33  C   UNL A   1      41.158  27.339  28.796  1.00  0.00     0.074 A 
ATOM     34  C   UNL A   1      43.107  26.411  27.599  1.00  0.00     0.049 A 
ATOM     35  N   UNL A   1      41.533  28.574  29.005  1.00  0.00    -0.248 NA
ATOM     36  C   UNL A   1      39.888  26.973  29.442  1.00  0.00     0.031 C 
ATOM     37  C   UNL A   1      43.889  25.414  26.871  1.00  0.00     0.029 A 
ATOM     38  N   UNL A   1      43.959  27.479  27.728  1.00  0.00    -0.354 N 
ATOM     39  C   UNL A   1      40.521  29.151  29.760  1.00  0.00     0.074 A 
ATOM     40  C   UNL A   1      39.523  28.127  29.986  1.00  0.00     0.031 C 
ATOM     41  C   UNL A   1      45.099  25.923  26.594  1.00  0.00     0.029 A 
ATOM     42  C   UNL A   1      45.143  27.307  27.053  1.00  0.00     0.049 A 
ATOM     43  H   UNL A   1      43.744  28.286  28.250  1.00  0.00     0.167 HD
ATOM     44  C   UNL A   1      40.437  30.426  30.206  1.00  0.00     0.037 A 
ATOM     45  C   UNL A   1      46.122  28.186  26.773  1.00  0.00     0.037 A 
ATOM     46  C   UNL A   1      41.456  31.423  30.001  1.00  0.00     0.049 A 
ATOM     47  C   UNL A   1      45.982  29.611  27.226  1.00  0.00     0.074 A 
ATOM     48  C   UNL A   1      41.478  32.739  30.427  1.00  0.00     0.029 A 
ATOM     49  N   UNL A   1      42.641  31.204  29.313  1.00  0.00    -0.354 N 
ATOM     50  N   UNL A   1      45.002  30.173  27.890  1.00  0.00    -0.248 NA
ATOM     51  C   UNL A   1      47.074  30.528  26.871  1.00  0.00     0.031 C 
ATOM     52  C   UNL A   1      42.664  33.327  29.972  1.00  0.00     0.029 A 
ATOM     53  C   UNL A   1      43.396  32.366  29.293  1.00  0.00     0.049 A 
ATOM     54  H   UNL A   1      42.906  30.351  28.900  1.00  0.00     0.167 HD
ATOM     55  C   UNL A   1      45.363  31.503  28.049  1.00  0.00     0.074 A 
ATOM     56  C   UNL A   1      46.656  31.664  27.414  1.00  0.00     0.031 C 
ATOM     57  C   UNL A   1      44.684  32.499  28.667  1.00  0.00     0.037 A 
BRANCH  44  58
ATOM     58  C   UNL A   1      39.190  30.832  30.932  1.00  0.00     0.064 A 
ATOM     59  C   UNL A   1      38.072  31.335  30.254  1.00  0.00     0.173 A 
ATOM     60  C   UNL A   1      39.098  30.661  32.321  1.00  0.00     0.173 A 
ATOM     61  F   UNL A   1      38.115  31.527  28.928  1.00  0.00    -0.203 F 
ATOM     62  C   UNL A   1      36.908  31.665  30.945  1.00  0.00     0.198 A 
ATOM     63  C   UNL A   1      37.926  30.972  33.006  1.00  0.00     0.198 A 
ATOM     64  F   UNL A   1      40.140  30.178  33.015  1.00  0.00    -0.203 F 
ATOM     65  F   UNL A   1      35.857  32.170  30.283  1.00  0.00    -0.200 F 
ATOM     66  C   UNL A   1      36.834  31.477  32.318  1.00  0.00     0.200 A 
ATOM     67  F   UNL A   1      37.853  30.780  34.330  1.00  0.00    -0.200 F 
ATOM     68  F   UNL A   1      35.708  31.784  32.978  1.00  0.00    -0.200 F 
ENDBRANCH  44  58
BRANCH  45  69
ATOM     69  C   UNL A   1      47.289  27.743  25.971  1.00  0.00     0.064 A 
ATOM     70  C   UNL A   1      47.241  27.747  24.572  1.00  0.00     0.173 A 
ATOM     71  C   UNL A   1      48.486  27.346  26.587  1.00  0.00     0.173 A 
ATOM     72  F   UNL A   1      46.109  28.096  23.942  1.00  0.00    -0.203 F 
ATOM     73  C   UNL A   1      48.347  27.368  23.816  1.00  0.00     0.198 A 
ATOM     74  C   UNL A   1      49.599  26.991  25.829  1.00  0.00     0.198 A 
ATOM     75  F   UNL A   1      48.579  27.326  27.924  1.00  0.00    -0.203 F 
ATOM     76  F   UNL A   1      48.268  27.354  22.478  1.00  0.00    -0.200 F 
ATOM     77  C   UNL A   1      49.528  27.000  24.445  1.00  0.00     0.200 A 
ATOM     78  F   UNL A   1      50.742  26.648  26.440  1.00  0.00    -0.200 F 
ATOM     79  F   UNL A   1      50.596  26.650  23.716  1.00  0.00    -0.200 F 
ENDBRANCH  45  69
BRANCH  57  80
ATOM     80  C   UNL A   1      45.346  33.841  28.723  1.00  0.00     0.064 A 
ATOM     81  C   UNL A   1      45.108  34.815  27.744  1.00  0.00     0.173 A 
ATOM     82  C   UNL A   1      46.185  34.171  29.796  1.00  0.00     0.173 A 
ATOM     83  F   UNL A   1      44.325  34.537  26.691  1.00  0.00    -0.203 F 
ATOM     84  C   UNL A   1      45.699  36.072  27.833  1.00  0.00     0.198 A 
ATOM     85  C   UNL A   1      46.759  35.434  29.893  1.00  0.00     0.198 A 
ATOM     86  F   UNL A   1      46.438  33.270  30.757  1.00  0.00    -0.203 F 
ATOM     87  F   UNL A   1      45.483  36.982  26.873  1.00  0.00    -0.200 F 
ATOM     88  C   UNL A   1      46.518  36.383  28.909  1.00  0.00     0.200 A 
ATOM     89  F   UNL A   1      47.544  35.735  30.936  1.00  0.00    -0.200 F 
ATOM     90  F   UNL A   1      47.080  37.596  28.997  1.00  0.00    -0.200 F 
ENDBRANCH  57  80
ENDBRANCH  31  32
ENDBRANCH  24  26
ENDBRANCH  23  24
ENDBRANCH  22  23
ENDBRANCH  21  22
ENDBRANCH   1  21
TORSDOF 16
ENDMDL
