MODEL 1
REMARK VINA RESULT:     -12.6      0.000      0.000
REMARK SMILES Cc1ccc([C@H](CC2CCCC2)C(=O)OCCOC(=O)c2ccc(-c3c4nc(c(-c5c(F)c(F)c(F)c(F)c5F)c5ccc([nH]5)c(-c5c(F)c(F)c(F)c(F)c5F)c5nc(c(-c6c(F)c(F)c(F)c(F)c6F)c6ccc3[nH]6)C=C5)C=C4)cc2)cc1
REMARK SMILES IDX 16 1 15 2 13 3 14 4 6 5 5 6 1 7 2 8 3 9 85 10 4 11 84 12
REMARK SMILES IDX 7 13 8 14 9 15 12 16 10 17 11 18 17 19 18 20 19 21 20 22
REMARK SMILES IDX 21 23 22 24 83 25 23 26 82 27 24 28 25 29 26 30 76 31 27 32
REMARK SMILES IDX 81 33 75 34 77 35 28 36 80 37 74 38 73 39 29 41 61 42 41 43
REMARK SMILES IDX 60 44 42 45 45 46 59 47 78 48 43 49 44 50 58 52 79 53 46 54
REMARK SMILES IDX 30 55 31 56 39 57 32 58 33 59 37 60 40 61 34 62 35 63 38 64
REMARK SMILES IDX 36 65 62 66 63 67 71 68 64 69 65 70 69 71 72 72 66 73 67 74
REMARK SMILES IDX 70 75 68 76 47 77 48 78 56 79 49 80 50 81 54 82 57 83 51 84
REMARK SMILES IDX 52 85 55 86 53 87
REMARK H PARENT 77 40 45 51
REMARK Flexibility Score: inf
ROOT
ATOM      1  C   UNL A   1      33.034  30.044  26.425  1.00  0.00     0.274 C 
ENDROOT
BRANCH   1   2
ATOM      2  O   UNL A   1      33.429  28.986  25.477  1.00  0.00    -0.462 OA
BRANCH   2   3
ATOM      3  C   UNL A   1      32.915  28.945  24.209  1.00  0.00     0.313 C 
ATOM      4  O   UNL A   1      33.629  29.249  23.251  1.00  0.00    -0.252 OA
BRANCH   3   5
ATOM      5  C   UNL A   1      31.446  28.402  23.945  1.00  0.00     0.129 C 
BRANCH   5   6
ATOM      6  C   UNL A   1      30.889  26.983  24.360  1.00  0.00    -0.034 A 
ATOM      7  C   UNL A   1      30.788  22.819  25.805  1.00  0.00     0.044 C 
ATOM      8  C   UNL A   1      30.888  24.217  25.256  1.00  0.00    -0.051 A 
ATOM      9  C   UNL A   1      30.760  24.544  23.903  1.00  0.00     0.004 A 
ATOM     10  C   UNL A   1      30.951  25.273  26.140  1.00  0.00     0.004 A 
ATOM     11  C   UNL A   1      30.838  25.901  23.461  1.00  0.00     0.005 A 
ATOM     12  C   UNL A   1      30.744  26.583  25.677  1.00  0.00     0.005 A 
ENDBRANCH   5   6
BRANCH   5  13
ATOM     13  C   UNL A   1      30.831  28.755  22.538  1.00  0.00     0.023 C 
BRANCH  13  14
ATOM     14  C   UNL A   1      29.552  29.611  22.536  1.00  0.00    -0.010 C 
ATOM     15  C   UNL A   1      28.255  28.867  22.824  1.00  0.00     0.003 C 
ATOM     16  C   UNL A   1      29.487  30.663  23.653  1.00  0.00     0.003 C 
ATOM     17  C   UNL A   1      27.236  29.987  23.017  1.00  0.00     0.000 C 
ATOM     18  C   UNL A   1      28.030  31.137  23.634  1.00  0.00     0.000 C 
ENDBRANCH  13  14
ENDBRANCH   5  13
ENDBRANCH   3   5
ENDBRANCH   2   3
ENDBRANCH   1   2
BRANCH   1  19
ATOM     19  C   UNL A   1      33.860  30.660  27.623  1.00  0.00     0.275 C 
BRANCH  19  20
ATOM     20  O   UNL A   1      34.504  31.937  27.562  1.00  0.00    -0.458 OA
BRANCH  20  21
ATOM     21  C   UNL A   1      33.882  32.985  28.123  1.00  0.00     0.338 C 
ATOM     22  O   UNL A   1      32.835  33.435  27.657  1.00  0.00    -0.246 OA
BRANCH  21  23
ATOM     23  C   UNL A   1      34.647  33.584  29.243  1.00  0.00     0.060 A 
ATOM     24  C   UNL A   1      35.786  34.247  28.868  1.00  0.00     0.016 A 
ATOM     25  C   UNL A   1      34.612  32.982  30.499  1.00  0.00     0.016 A 
ATOM     26  C   UNL A   1      36.959  33.845  29.487  1.00  0.00     0.010 A 
ATOM     27  C   UNL A   1      35.810  32.536  31.055  1.00  0.00     0.010 A 
ATOM     28  C   UNL A   1      37.002  32.777  30.390  1.00  0.00    -0.014 A 
BRANCH  28  29
ATOM     29  C   UNL A   1      38.224  32.062  30.832  1.00  0.00     0.031 A 
ATOM     30  C   UNL A   1      38.461  30.723  30.204  1.00  0.00     0.074 A 
ATOM     31  C   UNL A   1      39.150  32.505  31.741  1.00  0.00     0.049 A 
ATOM     32  N   UNL A   1      39.248  29.792  30.637  1.00  0.00    -0.248 NA
ATOM     33  C   UNL A   1      37.654  30.284  29.056  1.00  0.00     0.031 C 
ATOM     34  C   UNL A   1      40.592  32.307  31.556  1.00  0.00     0.029 A 
ATOM     35  N   UNL A   1      39.103  33.286  32.928  1.00  0.00    -0.354 N 
ATOM     36  C   UNL A   1      39.287  28.833  29.641  1.00  0.00     0.074 A 
ATOM     37  C   UNL A   1      38.117  29.054  28.844  1.00  0.00     0.031 C 
ATOM     38  C   UNL A   1      41.269  32.767  32.618  1.00  0.00     0.029 A 
ATOM     39  C   UNL A   1      40.312  33.081  33.653  1.00  0.00     0.049 A 
ATOM     40  H   UNL A   1      38.361  33.871  33.204  1.00  0.00     0.167 HD
ATOM     41  C   UNL A   1      40.439  28.159  29.364  1.00  0.00     0.037 A 
ATOM     42  C   UNL A   1      40.439  32.686  34.960  1.00  0.00     0.037 A 
ATOM     43  C   UNL A   1      41.493  28.601  30.255  1.00  0.00     0.049 A 
ATOM     44  C   UNL A   1      41.220  31.399  35.138  1.00  0.00     0.074 A 
ATOM     45  C   UNL A   1      42.414  29.632  30.158  1.00  0.00     0.029 A 
ATOM     46  N   UNL A   1      41.470  28.223  31.578  1.00  0.00    -0.354 N 
ATOM     47  N   UNL A   1      41.600  30.674  34.128  1.00  0.00    -0.248 NA
ATOM     48  C   UNL A   1      41.484  30.746  36.422  1.00  0.00     0.031 C 
ATOM     49  C   UNL A   1      42.988  29.829  31.439  1.00  0.00     0.029 A 
ATOM     50  C   UNL A   1      42.439  28.894  32.296  1.00  0.00     0.049 A 
ATOM     51  H   UNL A   1      40.847  27.563  31.959  1.00  0.00     0.167 HD
ATOM     52  C   UNL A   1      42.122  29.497  34.574  1.00  0.00     0.074 A 
ATOM     53  C   UNL A   1      41.974  29.561  36.016  1.00  0.00     0.031 C 
ATOM     54  C   UNL A   1      42.609  28.571  33.698  1.00  0.00     0.037 A 
BRANCH  41  55
ATOM     55  C   UNL A   1      40.706  27.449  28.050  1.00  0.00     0.064 A 
ATOM     56  C   UNL A   1      40.432  26.069  27.923  1.00  0.00     0.173 A 
ATOM     57  C   UNL A   1      41.274  28.042  26.905  1.00  0.00     0.173 A 
ATOM     58  F   UNL A   1      39.784  25.394  28.880  1.00  0.00    -0.203 F 
ATOM     59  C   UNL A   1      40.816  25.323  26.807  1.00  0.00     0.198 A 
ATOM     60  C   UNL A   1      41.703  27.287  25.805  1.00  0.00     0.198 A 
ATOM     61  F   UNL A   1      41.392  29.371  26.795  1.00  0.00    -0.203 F 
ATOM     62  F   UNL A   1      40.545  24.012  26.762  1.00  0.00    -0.200 F 
ATOM     63  C   UNL A   1      41.486  25.925  25.763  1.00  0.00     0.200 A 
ATOM     64  F   UNL A   1      42.331  27.892  24.786  1.00  0.00    -0.200 F 
ATOM     65  F   UNL A   1      41.893  25.201  24.712  1.00  0.00    -0.200 F 
ENDBRANCH  41  55
BRANCH  42  66
ATOM     66  C   UNL A   1      39.328  33.058  35.853  1.00  0.00     0.064 A 
ATOM     67  C   UNL A   1      38.441  32.065  36.291  1.00  0.00     0.173 A 
ATOM     68  C   UNL A   1      39.388  34.264  36.555  1.00  0.00     0.173 A 
ATOM     69  F   UNL A   1      38.313  30.918  35.606  1.00  0.00    -0.203 F 
ATOM     70  C   UNL A   1      37.788  32.199  37.509  1.00  0.00     0.198 A 
ATOM     71  C   UNL A   1      38.733  34.397  37.768  1.00  0.00     0.198 A 
ATOM     72  F   UNL A   1      40.173  35.261  36.128  1.00  0.00    -0.203 F 
ATOM     73  F   UNL A   1      37.125  31.155  38.027  1.00  0.00    -0.200 F 
ATOM     74  C   UNL A   1      37.956  33.354  38.257  1.00  0.00     0.200 A 
ATOM     75  F   UNL A   1      38.972  35.484  38.513  1.00  0.00    -0.200 F 
ATOM     76  F   UNL A   1      37.469  33.397  39.505  1.00  0.00    -0.200 F 
ENDBRANCH  42  66
BRANCH  54  77
ATOM     77  C   UNL A   1      43.261  27.274  34.083  1.00  0.00     0.064 A 
ATOM     78  C   UNL A   1      42.546  26.195  34.617  1.00  0.00     0.173 A 
ATOM     79  C   UNL A   1      44.664  27.094  34.008  1.00  0.00     0.173 A 
ATOM     80  F   UNL A   1      41.252  26.313  34.946  1.00  0.00    -0.203 F 
ATOM     81  C   UNL A   1      43.155  24.969  34.882  1.00  0.00     0.198 A 
ATOM     82  C   UNL A   1      45.279  25.890  34.327  1.00  0.00     0.198 A 
ATOM     83  F   UNL A   1      45.496  28.069  33.623  1.00  0.00    -0.203 F 
ATOM     84  F   UNL A   1      42.408  23.939  35.300  1.00  0.00    -0.200 F 
ATOM     85  C   UNL A   1      44.519  24.814  34.725  1.00  0.00     0.200 A 
ATOM     86  F   UNL A   1      46.612  25.786  34.236  1.00  0.00    -0.200 F 
ATOM     87  F   UNL A   1      45.103  23.635  34.975  1.00  0.00    -0.200 F 
ENDBRANCH  54  77
ENDBRANCH  28  29
ENDBRANCH  21  23
ENDBRANCH  20  21
ENDBRANCH  19  20
ENDBRANCH   1  19
TORSDOF 14
ENDMDL
MODEL 2
REMARK VINA RESULT:     -12.5      5.017     10.463
REMARK SMILES Cc1ccc([C@H](CC2CCCC2)C(=O)OCCOC(=O)c2ccc(-c3c4nc(c(-c5c(F)c(F)c(F)c(F)c5F)c5ccc([nH]5)c(-c5c(F)c(F)c(F)c(F)c5F)c5nc(c(-c6c(F)c(F)c(F)c(F)c6F)c6ccc3[nH]6)C=C5)C=C4)cc2)cc1
REMARK SMILES IDX 16 1 15 2 13 3 14 4 6 5 5 6 1 7 2 8 3 9 85 10 4 11 84 12
REMARK SMILES IDX 7 13 8 14 9 15 12 16 10 17 11 18 17 19 18 20 19 21 20 22
REMARK SMILES IDX 21 23 22 24 83 25 23 26 82 27 24 28 25 29 26 30 76 31 27 32
REMARK SMILES IDX 81 33 75 34 77 35 28 36 80 37 74 38 73 39 29 41 61 42 41 43
REMARK SMILES IDX 60 44 42 45 45 46 59 47 78 48 43 49 44 50 58 52 79 53 46 54
REMARK SMILES IDX 30 55 31 56 39 57 32 58 33 59 37 60 40 61 34 62 35 63 38 64
REMARK SMILES IDX 36 65 62 66 63 67 71 68 64 69 65 70 69 71 72 72 66 73 67 74
REMARK SMILES IDX 70 75 68 76 47 77 48 78 56 79 49 80 50 81 54 82 57 83 51 84
REMARK SMILES IDX 52 85 55 86 53 87
REMARK H PARENT 77 40 45 51
REMARK Flexibility Score: inf
ROOT
ATOM      1  C   UNL A   1      37.701  23.226  25.790  1.00  0.00     0.274 C 
ENDROOT
BRANCH   1   2
ATOM      2  O   UNL A   1      37.140  23.874  24.590  1.00  0.00    -0.462 OA
BRANCH   2   3
ATOM      3  C   UNL A   1      36.237  23.223  23.792  1.00  0.00     0.313 C 
ATOM      4  O   UNL A   1      36.587  22.812  22.684  1.00  0.00    -0.252 OA
BRANCH   3   5
ATOM      5  C   UNL A   1      34.777  22.891  24.322  1.00  0.00     0.129 C 
BRANCH   5   6
ATOM      6  C   UNL A   1      34.196  21.451  24.612  1.00  0.00    -0.034 A 
ATOM      7  C   UNL A   1      33.204  17.187  24.085  1.00  0.00     0.044 C 
ATOM      8  C   UNL A   1      33.509  18.658  24.184  1.00  0.00    -0.051 A 
ATOM      9  C   UNL A   1      32.560  19.672  24.033  1.00  0.00     0.004 A 
ATOM     10  C   UNL A   1      34.763  19.048  24.604  1.00  0.00     0.004 A 
ATOM     11  C   UNL A   1      32.921  21.048  24.170  1.00  0.00     0.005 A 
ATOM     12  C   UNL A   1      34.986  20.379  24.992  1.00  0.00     0.005 A 
ENDBRANCH   5   6
BRANCH   5  13
ATOM     13  C   UNL A   1      33.613  23.749  23.697  1.00  0.00     0.023 C 
BRANCH  13  14
ATOM     14  C   UNL A   1      33.642  25.263  23.976  1.00  0.00    -0.010 C 
ATOM     15  C   UNL A   1      32.307  25.986  23.849  1.00  0.00     0.003 C 
ATOM     16  C   UNL A   1      33.988  25.638  25.425  1.00  0.00     0.003 C 
ATOM     17  C   UNL A   1      32.593  27.368  24.431  1.00  0.00     0.000 C 
ATOM     18  C   UNL A   1      33.638  27.126  25.519  1.00  0.00     0.000 C 
ENDBRANCH  13  14
ENDBRANCH   5  13
ENDBRANCH   3   5
ENDBRANCH   2   3
ENDBRANCH   1   2
BRANCH   1  19
ATOM     19  C   UNL A   1      38.531  21.886  25.896  1.00  0.00     0.275 C 
BRANCH  19  20
ATOM     20  O   UNL A   1      39.761  21.776  26.619  1.00  0.00    -0.458 OA
BRANCH  20  21
ATOM     21  C   UNL A   1      40.648  20.851  26.222  1.00  0.00     0.338 C 
ATOM     22  O   UNL A   1      40.287  19.742  25.829  1.00  0.00    -0.246 OA
BRANCH  21  23
ATOM     23  C   UNL A   1      42.056  21.270  26.429  1.00  0.00     0.060 A 
ATOM     24  C   UNL A   1      42.444  21.346  27.740  1.00  0.00     0.016 A 
ATOM     25  C   UNL A   1      42.664  22.118  25.506  1.00  0.00     0.016 A 
ATOM     26  C   UNL A   1      42.984  22.555  28.149  1.00  0.00     0.010 A 
ATOM     27  C   UNL A   1      43.136  23.352  25.950  1.00  0.00     0.010 A 
ATOM     28  C   UNL A   1      43.067  23.664  27.299  1.00  0.00    -0.014 A 
BRANCH  28  29
ATOM     29  C   UNL A   1      43.301  25.067  27.721  1.00  0.00     0.031 A 
ATOM     30  C   UNL A   1      42.093  25.951  27.745  1.00  0.00     0.074 A 
ATOM     31  C   UNL A   1      44.497  25.622  28.095  1.00  0.00     0.049 A 
ATOM     32  N   UNL A   1      42.080  27.245  27.764  1.00  0.00    -0.248 NA
ATOM     33  C   UNL A   1      40.746  25.381  27.592  1.00  0.00     0.031 C 
ATOM     34  C   UNL A   1      44.612  26.566  29.213  1.00  0.00     0.029 A 
ATOM     35  N   UNL A   1      45.854  25.448  27.708  1.00  0.00    -0.354 N 
ATOM     36  C   UNL A   1      40.762  27.609  27.977  1.00  0.00     0.074 A 
ATOM     37  C   UNL A   1      39.979  26.469  27.603  1.00  0.00     0.031 C 
ATOM     38  C   UNL A   1      45.871  27.013  29.322  1.00  0.00     0.029 A 
ATOM     39  C   UNL A   1      46.601  26.575  28.155  1.00  0.00     0.049 A 
ATOM     40  H   UNL A   1      46.217  24.679  27.213  1.00  0.00     0.167 HD
ATOM     41  C   UNL A   1      40.451  28.688  28.749  1.00  0.00     0.037 A 
ATOM     42  C   UNL A   1      47.402  27.393  27.400  1.00  0.00     0.037 A 
ATOM     43  C   UNL A   1      41.666  29.316  29.229  1.00  0.00     0.049 A 
ATOM     44  C   UNL A   1      46.982  28.849  27.420  1.00  0.00     0.074 A 
ATOM     45  C   UNL A   1      42.438  29.093  30.358  1.00  0.00     0.029 A 
ATOM     46  N   UNL A   1      42.450  30.036  28.358  1.00  0.00    -0.354 N 
ATOM     47  N   UNL A   1      45.880  29.245  27.985  1.00  0.00    -0.248 NA
ATOM     48  C   UNL A   1      47.649  29.927  26.686  1.00  0.00     0.031 C 
ATOM     49  C   UNL A   1      43.683  29.744  30.174  1.00  0.00     0.029 A 
ATOM     50  C   UNL A   1      43.646  30.388  28.952  1.00  0.00     0.049 A 
ATOM     51  H   UNL A   1      42.193  30.270  27.437  1.00  0.00     0.167 HD
ATOM     52  C   UNL A   1      45.664  30.561  27.705  1.00  0.00     0.074 A 
ATOM     53  C   UNL A   1      46.767  30.931  26.839  1.00  0.00     0.031 C 
ATOM     54  C   UNL A   1      44.574  31.212  28.204  1.00  0.00     0.037 A 
BRANCH  41  55
ATOM     55  C   UNL A   1      39.096  28.899  29.398  1.00  0.00     0.064 A 
ATOM     56  C   UNL A   1      38.061  29.540  28.682  1.00  0.00     0.173 A 
ATOM     57  C   UNL A   1      38.765  28.550  30.722  1.00  0.00     0.173 A 
ATOM     58  F   UNL A   1      38.183  29.824  27.379  1.00  0.00    -0.203 F 
ATOM     59  C   UNL A   1      36.857  29.921  29.276  1.00  0.00     0.198 A 
ATOM     60  C   UNL A   1      37.577  28.972  31.333  1.00  0.00     0.198 A 
ATOM     61  F   UNL A   1      39.557  27.755  31.452  1.00  0.00    -0.203 F 
ATOM     62  F   UNL A   1      35.925  30.547  28.544  1.00  0.00    -0.200 F 
ATOM     63  C   UNL A   1      36.629  29.670  30.613  1.00  0.00     0.200 A 
ATOM     64  F   UNL A   1      37.359  28.699  32.628  1.00  0.00    -0.200 F 
ATOM     65  F   UNL A   1      35.490  30.073  31.194  1.00  0.00    -0.200 F 
ENDBRANCH  41  55
BRANCH  42  66
ATOM     66  C   UNL A   1      48.017  26.771  26.215  1.00  0.00     0.064 A 
ATOM     67  C   UNL A   1      47.487  27.043  24.946  1.00  0.00     0.173 A 
ATOM     68  C   UNL A   1      49.312  26.257  26.306  1.00  0.00     0.173 A 
ATOM     69  F   UNL A   1      46.224  27.481  24.817  1.00  0.00    -0.203 F 
ATOM     70  C   UNL A   1      48.301  26.995  23.823  1.00  0.00     0.198 A 
ATOM     71  C   UNL A   1      50.122  26.205  25.184  1.00  0.00     0.198 A 
ATOM     72  F   UNL A   1      49.829  25.920  27.495  1.00  0.00    -0.203 F 
ATOM     73  F   UNL A   1      47.851  27.474  22.654  1.00  0.00    -0.200 F 
ATOM     74  C   UNL A   1      49.624  26.601  23.948  1.00  0.00     0.200 A 
ATOM     75  F   UNL A   1      51.418  25.901  25.337  1.00  0.00    -0.200 F 
ATOM     76  F   UNL A   1      50.443  26.730  22.896  1.00  0.00    -0.200 F 
ENDBRANCH  42  66
BRANCH  54  77
ATOM     77  C   UNL A   1      44.274  32.671  28.012  1.00  0.00     0.064 A 
ATOM     78  C   UNL A   1      44.231  33.584  29.073  1.00  0.00     0.173 A 
ATOM     79  C   UNL A   1      43.929  33.200  26.744  1.00  0.00     0.173 A 
ATOM     80  F   UNL A   1      44.320  33.173  30.346  1.00  0.00    -0.203 F 
ATOM     81  C   UNL A   1      44.041  34.949  28.862  1.00  0.00     0.198 A 
ATOM     82  C   UNL A   1      43.683  34.553  26.543  1.00  0.00     0.198 A 
ATOM     83  F   UNL A   1      43.817  32.437  25.650  1.00  0.00    -0.203 F 
ATOM     84  F   UNL A   1      44.107  35.791  29.901  1.00  0.00    -0.200 F 
ATOM     85  C   UNL A   1      43.780  35.434  27.595  1.00  0.00     0.200 A 
ATOM     86  F   UNL A   1      43.359  34.989  25.318  1.00  0.00    -0.200 F 
ATOM     87  F   UNL A   1      43.602  36.745  27.392  1.00  0.00    -0.200 F 
ENDBRANCH  54  77
ENDBRANCH  28  29
ENDBRANCH  21  23
ENDBRANCH  20  21
ENDBRANCH  19  20
ENDBRANCH   1  19
TORSDOF 14
ENDMDL
MODEL 3
REMARK VINA RESULT:     -12.5      1.380      2.001
REMARK SMILES Cc1ccc([C@H](CC2CCCC2)C(=O)OCCOC(=O)c2ccc(-c3c4nc(c(-c5c(F)c(F)c(F)c(F)c5F)c5ccc([nH]5)c(-c5c(F)c(F)c(F)c(F)c5F)c5nc(c(-c6c(F)c(F)c(F)c(F)c6F)c6ccc3[nH]6)C=C5)C=C4)cc2)cc1
REMARK SMILES IDX 16 1 15 2 13 3 14 4 6 5 5 6 1 7 2 8 3 9 85 10 4 11 84 12
REMARK SMILES IDX 7 13 8 14 9 15 12 16 10 17 11 18 17 19 18 20 19 21 20 22
REMARK SMILES IDX 21 23 22 24 83 25 23 26 82 27 24 28 25 29 26 30 76 31 27 32
REMARK SMILES IDX 81 33 75 34 77 35 28 36 80 37 74 38 73 39 29 41 61 42 41 43
REMARK SMILES IDX 60 44 42 45 45 46 59 47 78 48 43 49 44 50 58 52 79 53 46 54
REMARK SMILES IDX 30 55 31 56 39 57 32 58 33 59 37 60 40 61 34 62 35 63 38 64
REMARK SMILES IDX 36 65 62 66 63 67 71 68 64 69 65 70 69 71 72 72 66 73 67 74
REMARK SMILES IDX 70 75 68 76 47 77 48 78 56 79 49 80 50 81 54 82 57 83 51 84
REMARK SMILES IDX 52 85 55 86 53 87
REMARK H PARENT 77 40 45 51
REMARK Flexibility Score: inf
ROOT
ATOM      1  C   UNL A   1      34.325  29.233  26.975  1.00  0.00     0.274 C 
ENDROOT
BRANCH   1   2
ATOM      2  O   UNL A   1      33.642  28.078  26.365  1.00  0.00    -0.462 OA
BRANCH   2   3
ATOM      3  C   UNL A   1      33.510  27.971  25.007  1.00  0.00     0.313 C 
ATOM      4  O   UNL A   1      33.868  28.902  24.283  1.00  0.00    -0.252 OA
BRANCH   3   5
ATOM      5  C   UNL A   1      33.007  26.617  24.344  1.00  0.00     0.129 C 
BRANCH   5   6
ATOM      6  C   UNL A   1      33.759  25.228  24.380  1.00  0.00    -0.034 A 
ATOM      7  C   UNL A   1      37.011  22.256  24.182  1.00  0.00     0.044 C 
ATOM      8  C   UNL A   1      35.928  23.302  24.171  1.00  0.00    -0.051 A 
ATOM      9  C   UNL A   1      34.990  23.455  23.146  1.00  0.00     0.004 A 
ATOM     10  C   UNL A   1      35.732  24.066  25.302  1.00  0.00     0.004 A 
ATOM     11  C   UNL A   1      33.971  24.456  23.221  1.00  0.00     0.005 A 
ATOM     12  C   UNL A   1      34.560  24.827  25.435  1.00  0.00     0.005 A 
ENDBRANCH   5   6
BRANCH   5  13
ATOM     13  C   UNL A   1      32.348  26.758  22.921  1.00  0.00     0.023 C 
BRANCH  13  14
ATOM     14  C   UNL A   1      30.811  26.817  22.873  1.00  0.00    -0.010 C 
ATOM     15  C   UNL A   1      30.086  26.274  24.097  1.00  0.00     0.003 C 
ATOM     16  C   UNL A   1      30.227  28.238  22.851  1.00  0.00     0.003 C 
ATOM     17  C   UNL A   1      28.638  26.704  23.877  1.00  0.00     0.000 C 
ATOM     18  C   UNL A   1      28.734  28.032  23.128  1.00  0.00     0.000 C 
ENDBRANCH  13  14
ENDBRANCH   5  13
ENDBRANCH   3   5
ENDBRANCH   2   3
ENDBRANCH   1   2
BRANCH   1  19
ATOM     19  C   UNL A   1      33.700  30.572  27.537  1.00  0.00     0.275 C 
BRANCH  19  20
ATOM     20  O   UNL A   1      34.410  31.814  27.582  1.00  0.00    -0.458 OA
BRANCH  20  21
ATOM     21  C   UNL A   1      33.792  32.875  28.121  1.00  0.00     0.338 C 
ATOM     22  O   UNL A   1      32.765  33.341  27.626  1.00  0.00    -0.246 OA
BRANCH  21  23
ATOM     23  C   UNL A   1      34.538  33.467  29.259  1.00  0.00     0.060 A 
ATOM     24  C   UNL A   1      35.664  34.162  28.904  1.00  0.00     0.016 A 
ATOM     25  C   UNL A   1      34.509  32.839  30.501  1.00  0.00     0.016 A 
ATOM     26  C   UNL A   1      36.842  33.773  29.522  1.00  0.00     0.010 A 
ATOM     27  C   UNL A   1      35.713  32.407  31.055  1.00  0.00     0.010 A 
ATOM     28  C   UNL A   1      36.903  32.687  30.402  1.00  0.00    -0.014 A 
BRANCH  28  29
ATOM     29  C   UNL A   1      38.138  31.990  30.837  1.00  0.00     0.031 A 
ATOM     30  C   UNL A   1      38.393  30.657  30.203  1.00  0.00     0.074 A 
ATOM     31  C   UNL A   1      39.061  32.444  31.743  1.00  0.00     0.049 A 
ATOM     32  N   UNL A   1      39.196  29.737  30.629  1.00  0.00    -0.248 NA
ATOM     33  C   UNL A   1      37.588  30.209  29.057  1.00  0.00     0.031 C 
ATOM     34  C   UNL A   1      40.505  32.269  31.552  1.00  0.00     0.029 A 
ATOM     35  N   UNL A   1      39.007  33.220  32.934  1.00  0.00    -0.354 N 
ATOM     36  C   UNL A   1      39.246  28.782  29.629  1.00  0.00     0.074 A 
ATOM     37  C   UNL A   1      38.070  28.988  28.838  1.00  0.00     0.031 C 
ATOM     38  C   UNL A   1      41.179  32.735  32.613  1.00  0.00     0.029 A 
ATOM     39  C   UNL A   1      40.221  33.031  33.653  1.00  0.00     0.049 A 
ATOM     40  H   UNL A   1      38.257  33.792  33.215  1.00  0.00     0.167 HD
ATOM     41  C   UNL A   1      40.407  28.127  29.345  1.00  0.00     0.037 A 
ATOM     42  C   UNL A   1      40.360  32.633  34.958  1.00  0.00     0.037 A 
ATOM     43  C   UNL A   1      41.458  28.582  30.234  1.00  0.00     0.049 A 
ATOM     44  C   UNL A   1      41.161  31.358  35.128  1.00  0.00     0.074 A 
ATOM     45  C   UNL A   1      42.362  29.628  30.137  1.00  0.00     0.029 A 
ATOM     46  N   UNL A   1      41.446  28.199  31.555  1.00  0.00    -0.354 N 
ATOM     47  N   UNL A   1      41.549  30.642  34.114  1.00  0.00    -0.248 NA
ATOM     48  C   UNL A   1      41.441  30.705  36.409  1.00  0.00     0.031 C 
ATOM     49  C   UNL A   1      42.938  29.829  31.416  1.00  0.00     0.029 A 
ATOM     50  C   UNL A   1      42.408  28.882  32.272  1.00  0.00     0.049 A 
ATOM     51  H   UNL A   1      40.835  27.528  31.937  1.00  0.00     0.167 HD
ATOM     52  C   UNL A   1      42.091  29.473  34.554  1.00  0.00     0.074 A 
ATOM     53  C   UNL A   1      41.947  29.529  35.996  1.00  0.00     0.031 C 
ATOM     54  C   UNL A   1      42.588  28.557  33.672  1.00  0.00     0.037 A 
BRANCH  41  55
ATOM     55  C   UNL A   1      40.679  27.426  28.028  1.00  0.00     0.064 A 
ATOM     56  C   UNL A   1      40.315  26.072  27.859  1.00  0.00     0.173 A 
ATOM     57  C   UNL A   1      41.336  27.999  26.921  1.00  0.00     0.173 A 
ATOM     58  F   UNL A   1      39.581  25.425  28.773  1.00  0.00    -0.203 F 
ATOM     59  C   UNL A   1      40.694  25.323  26.743  1.00  0.00     0.198 A 
ATOM     60  C   UNL A   1      41.758  27.239  25.823  1.00  0.00     0.198 A 
ATOM     61  F   UNL A   1      41.552  29.319  26.846  1.00  0.00    -0.203 F 
ATOM     62  F   UNL A   1      40.334  24.035  26.656  1.00  0.00    -0.200 F 
ATOM     63  C   UNL A   1      41.449  25.896  25.742  1.00  0.00     0.200 A 
ATOM     64  F   UNL A   1      42.470  27.817  24.845  1.00  0.00    -0.200 F 
ATOM     65  F   UNL A   1      41.849  25.166  24.691  1.00  0.00    -0.200 F 
ENDBRANCH  41  55
BRANCH  42  66
ATOM     66  C   UNL A   1      39.247  32.985  35.857  1.00  0.00     0.064 A 
ATOM     67  C   UNL A   1      38.370  31.979  36.286  1.00  0.00     0.173 A 
ATOM     68  C   UNL A   1      39.297  34.183  36.571  1.00  0.00     0.173 A 
ATOM     69  F   UNL A   1      38.252  30.838  35.589  1.00  0.00    -0.203 F 
ATOM     70  C   UNL A   1      37.718  32.093  37.506  1.00  0.00     0.198 A 
ATOM     71  C   UNL A   1      38.642  34.298  37.787  1.00  0.00     0.198 A 
ATOM     72  F   UNL A   1      40.071  35.193  36.154  1.00  0.00    -0.203 F 
ATOM     73  F   UNL A   1      37.066  31.037  38.013  1.00  0.00    -0.200 F 
ATOM     74  C   UNL A   1      37.876  33.242  38.266  1.00  0.00     0.200 A 
ATOM     75  F   UNL A   1      38.872  35.379  38.544  1.00  0.00    -0.200 F 
ATOM     76  F   UNL A   1      37.391  33.267  39.515  1.00  0.00    -0.200 F 
ENDBRANCH  42  66
BRANCH  54  77
ATOM     77  C   UNL A   1      43.262  27.269  34.050  1.00  0.00     0.064 A 
ATOM     78  C   UNL A   1      44.621  27.026  33.812  1.00  0.00     0.173 A 
ATOM     79  C   UNL A   1      42.539  26.182  34.597  1.00  0.00     0.173 A 
ATOM     80  F   UNL A   1      45.366  27.884  33.101  1.00  0.00    -0.203 F 
ATOM     81  C   UNL A   1      45.247  25.861  34.252  1.00  0.00     0.198 A 
ATOM     82  C   UNL A   1      43.153  24.997  34.984  1.00  0.00     0.198 A 
ATOM     83  F   UNL A   1      41.214  26.218  34.782  1.00  0.00    -0.203 F 
ATOM     84  F   UNL A   1      46.568  25.720  34.086  1.00  0.00    -0.200 F 
ATOM     85  C   UNL A   1      44.515  24.852  34.849  1.00  0.00     0.200 A 
ATOM     86  F   UNL A   1      42.410  24.005  35.494  1.00  0.00    -0.200 F 
ATOM     87  F   UNL A   1      45.117  23.736  35.277  1.00  0.00    -0.200 F 
ENDBRANCH  54  77
ENDBRANCH  28  29
ENDBRANCH  21  23
ENDBRANCH  20  21
ENDBRANCH  19  20
ENDBRANCH   1  19
TORSDOF 14
ENDMDL
