MODEL 1
REMARK VINA RESULT:     -11.9      0.000      0.000
REMARK SMILES O=C(OCCOC(=O)c1ccc(-c2c3nc(c(-c4c(F)c(F)c(F)c(F)c4F)c4ccc([nH]4)c(-c4c(F)c(F)c(F)c(F)c4F)c4nc(c(-c5c(F)c(F)c(F)c(F)c5F)c5ccc2[nH]5)C=C4)C=C3)cc1)c1ccc(C#CC#C[C@H]2C[C@@H](O)C2)cc1
REMARK SMILES IDX 4 1 3 2 2 3 1 4 72 5 73 6 86 7 74 8 85 9 75 10 76 11 77 12
REMARK SMILES IDX 78 13 79 14 80 15 84 16 81 17 82 18 83 19 5 21 6 22 7 23
REMARK SMILES IDX 8 24 9 25 10 26 71 27 11 28 70 29 12 30 13 31 14 32 64 33
REMARK SMILES IDX 15 34 69 35 63 36 65 37 16 38 68 39 62 40 61 41 17 43 49 44
REMARK SMILES IDX 29 45 48 46 30 47 33 48 47 49 66 50 31 51 32 52 46 54 67 55
REMARK SMILES IDX 34 56 18 57 19 58 27 59 20 60 21 61 25 62 28 63 22 64 23 65
REMARK SMILES IDX 26 66 24 67 50 68 51 69 59 70 52 71 53 72 57 73 60 74 54 75
REMARK SMILES IDX 55 76 58 77 56 78 35 79 36 80 44 81 37 82 38 83 42 84 45 85
REMARK SMILES IDX 39 86 40 87 43 88 41 89
REMARK H PARENT 83 20 65 42 33 53
REMARK Flexibility Score: inf
ROOT
ATOM      1  C   UNL A   1      42.891  20.434  26.075  1.00  0.00     0.275 C 
ENDROOT
BRANCH   1   2
ATOM      2  O   UNL A   1      41.545  20.784  25.716  1.00  0.00    -0.458 OA
BRANCH   2   3
ATOM      3  C   UNL A   1      40.492  21.104  26.500  1.00  0.00     0.338 C 
ATOM      4  O   UNL A   1      40.498  20.695  27.662  1.00  0.00    -0.246 OA
BRANCH   3   5
ATOM      5  C   UNL A   1      39.274  21.871  26.050  1.00  0.00     0.060 A 
ATOM      6  C   UNL A   1      38.156  21.362  25.384  1.00  0.00     0.017 A 
ATOM      7  C   UNL A   1      39.219  23.220  26.450  1.00  0.00     0.017 A 
ATOM      8  C   UNL A   1      36.986  22.111  25.239  1.00  0.00     0.018 A 
ATOM      9  C   UNL A   1      38.071  23.993  26.252  1.00  0.00     0.018 A 
ATOM     10  C   UNL A   1      36.934  23.416  25.703  1.00  0.00     0.026 A 
BRANCH  10  11
ATOM     11  C   UNL A   1      35.699  24.121  25.644  1.00  0.00    -0.053 C 
ATOM     12  C   UNL A   1      34.698  24.768  25.530  1.00  0.00    -0.010 C 
BRANCH  12  13
ATOM     13  C   UNL A   1      33.493  25.687  25.384  1.00  0.00    -0.015 C 
ATOM     14  C   UNL A   1      32.607  26.491  25.344  1.00  0.00    -0.085 C 
BRANCH  14  15
ATOM     15  C   UNL A   1      31.596  27.517  25.390  1.00  0.00     0.070 C 
ATOM     16  C   UNL A   1      32.041  28.930  24.945  1.00  0.00     0.048 C 
ATOM     17  C   UNL A   1      30.637  27.527  24.172  1.00  0.00     0.048 C 
ATOM     18  C   UNL A   1      30.664  29.069  24.255  1.00  0.00     0.116 C 
BRANCH  18  19
ATOM     19  O   UNL A   1      30.637  29.781  23.006  1.00  0.00    -0.393 OA
ATOM     20  H   UNL A   1      31.044  30.653  23.123  1.00  0.00     0.210 HD
ENDBRANCH  18  19
ENDBRANCH  14  15
ENDBRANCH  12  13
ENDBRANCH  10  11
ENDBRANCH   3   5
ENDBRANCH   2   3
ENDBRANCH   1   2
BRANCH   1  21
ATOM     21  C   UNL A   1      43.928  21.427  25.516  1.00  0.00     0.275 C 
BRANCH  21  22
ATOM     22  O   UNL A   1      43.330  22.574  24.870  1.00  0.00    -0.458 OA
BRANCH  22  23
ATOM     23  C   UNL A   1      44.006  23.750  24.984  1.00  0.00     0.338 C 
ATOM     24  O   UNL A   1      44.901  24.133  24.251  1.00  0.00    -0.246 OA
BRANCH  23  25
ATOM     25  C   UNL A   1      43.392  24.605  26.044  1.00  0.00     0.060 A 
ATOM     26  C   UNL A   1      43.822  25.934  26.150  1.00  0.00     0.016 A 
ATOM     27  C   UNL A   1      42.400  24.143  26.915  1.00  0.00     0.016 A 
ATOM     28  C   UNL A   1      43.283  26.789  27.127  1.00  0.00     0.010 A 
ATOM     29  C   UNL A   1      41.853  25.006  27.885  1.00  0.00     0.010 A 
ATOM     30  C   UNL A   1      42.301  26.335  28.021  1.00  0.00    -0.014 A 
BRANCH  30  31
ATOM     31  C   UNL A   1      41.816  27.213  29.139  1.00  0.00     0.031 A 
ATOM     32  C   UNL A   1      42.505  27.169  30.479  1.00  0.00     0.074 A 
ATOM     33  C   UNL A   1      40.786  28.074  28.989  1.00  0.00     0.049 A 
ATOM     34  N   UNL A   1      42.250  27.855  31.569  1.00  0.00    -0.248 NA
ATOM     35  C   UNL A   1      43.637  26.242  30.607  1.00  0.00     0.031 C 
ATOM     36  C   UNL A   1      40.050  28.283  27.751  1.00  0.00     0.029 A 
ATOM     37  N   UNL A   1      40.175  28.929  29.881  1.00  0.00    -0.354 N 
ATOM     38  C   UNL A   1      43.196  27.454  32.502  1.00  0.00     0.074 A 
ATOM     39  C   UNL A   1      43.998  26.425  31.870  1.00  0.00     0.031 C 
ATOM     40  C   UNL A   1      39.061  29.169  27.961  1.00  0.00     0.029 A 
ATOM     41  C   UNL A   1      39.094  29.603  29.356  1.00  0.00     0.049 A 
ATOM     42  H   UNL A   1      40.481  29.046  30.809  1.00  0.00     0.167 HD
ATOM     43  C   UNL A   1      43.399  27.911  33.763  1.00  0.00     0.037 A 
ATOM     44  C   UNL A   1      38.228  30.472  29.921  1.00  0.00     0.037 A 
ATOM     45  C   UNL A   1      42.612  28.929  34.411  1.00  0.00     0.049 A 
ATOM     46  C   UNL A   1      38.416  30.890  31.361  1.00  0.00     0.074 A 
ATOM     47  C   UNL A   1      42.779  29.466  35.677  1.00  0.00     0.029 A 
ATOM     48  N   UNL A   1      41.502  29.552  33.861  1.00  0.00    -0.354 N 
ATOM     49  N   UNL A   1      39.355  30.547  32.208  1.00  0.00    -0.248 NA
ATOM     50  C   UNL A   1      37.434  31.835  31.918  1.00  0.00     0.031 C 
ATOM     51  C   UNL A   1      41.725  30.349  35.925  1.00  0.00     0.029 A 
ATOM     52  C   UNL A   1      40.950  30.433  34.782  1.00  0.00     0.049 A 
ATOM     53  H   UNL A   1      41.157  29.393  32.953  1.00  0.00     0.167 HD
ATOM     54  C   UNL A   1      39.104  31.265  33.371  1.00  0.00     0.074 A 
ATOM     55  C   UNL A   1      37.934  32.075  33.121  1.00  0.00     0.031 C 
ATOM     56  C   UNL A   1      39.790  31.252  34.541  1.00  0.00     0.037 A 
BRANCH  43  57
ATOM     57  C   UNL A   1      44.520  27.296  34.552  1.00  0.00     0.064 A 
ATOM     58  C   UNL A   1      45.791  27.889  34.615  1.00  0.00     0.173 A 
ATOM     59  C   UNL A   1      44.298  26.138  35.313  1.00  0.00     0.173 A 
ATOM     60  F   UNL A   1      46.058  28.994  33.904  1.00  0.00    -0.203 F 
ATOM     61  C   UNL A   1      46.804  27.327  35.388  1.00  0.00     0.198 A 
ATOM     62  C   UNL A   1      45.302  25.601  36.113  1.00  0.00     0.198 A 
ATOM     63  F   UNL A   1      43.097  25.539  35.297  1.00  0.00    -0.203 F 
ATOM     64  F   UNL A   1      48.023  27.883  35.398  1.00  0.00    -0.200 F 
ATOM     65  C   UNL A   1      46.556  26.191  36.144  1.00  0.00     0.200 A 
ATOM     66  F   UNL A   1      45.052  24.516  36.860  1.00  0.00    -0.200 F 
ATOM     67  F   UNL A   1      47.527  25.662  36.900  1.00  0.00    -0.200 F 
ENDBRANCH  43  57
BRANCH  44  68
ATOM     68  C   UNL A   1      37.082  31.021  29.138  1.00  0.00     0.064 A 
ATOM     69  C   UNL A   1      37.054  32.363  28.727  1.00  0.00     0.173 A 
ATOM     70  C   UNL A   1      35.955  30.235  28.856  1.00  0.00     0.173 A 
ATOM     71  F   UNL A   1      38.092  33.169  28.999  1.00  0.00    -0.203 F 
ATOM     72  C   UNL A   1      35.931  32.906  28.104  1.00  0.00     0.198 A 
ATOM     73  C   UNL A   1      34.847  30.769  28.198  1.00  0.00     0.198 A 
ATOM     74  F   UNL A   1      35.919  28.949  29.233  1.00  0.00    -0.203 F 
ATOM     75  F   UNL A   1      35.902  34.209  27.797  1.00  0.00    -0.200 F 
ATOM     76  C   UNL A   1      34.830  32.108  27.836  1.00  0.00     0.200 A 
ATOM     77  F   UNL A   1      33.789  29.992  27.934  1.00  0.00    -0.200 F 
ATOM     78  F   UNL A   1      33.746  32.631  27.247  1.00  0.00    -0.200 F 
ENDBRANCH  44  68
BRANCH  56  79
ATOM     79  C   UNL A   1      39.332  32.177  35.638  1.00  0.00     0.064 A 
ATOM     80  C   UNL A   1      38.429  31.767  36.631  1.00  0.00     0.173 A 
ATOM     81  C   UNL A   1      39.837  33.485  35.720  1.00  0.00     0.173 A 
ATOM     82  F   UNL A   1      37.904  30.532  36.599  1.00  0.00    -0.203 F 
ATOM     83  C   UNL A   1      38.024  32.639  37.640  1.00  0.00     0.198 A 
ATOM     84  C   UNL A   1      39.463  34.341  36.753  1.00  0.00     0.198 A 
ATOM     85  F   UNL A   1      40.711  33.932  34.806  1.00  0.00    -0.203 F 
ATOM     86  F   UNL A   1      37.115  32.242  38.541  1.00  0.00    -0.200 F 
ATOM     87  C   UNL A   1      38.547  33.921  37.706  1.00  0.00     0.200 A 
ATOM     88  F   UNL A   1      39.987  35.572  36.826  1.00  0.00    -0.200 F 
ATOM     89  F   UNL A   1      38.166  34.755  38.683  1.00  0.00    -0.200 F 
ENDBRANCH  56  79
ENDBRANCH  30  31
ENDBRANCH  23  25
ENDBRANCH  22  23
ENDBRANCH  21  22
ENDBRANCH   1  21
TORSDOF 15
ENDMDL
MODEL 2
REMARK VINA RESULT:     -11.7      5.313     10.868
REMARK SMILES O=C(OCCOC(=O)c1ccc(-c2c3nc(c(-c4c(F)c(F)c(F)c(F)c4F)c4ccc([nH]4)c(-c4c(F)c(F)c(F)c(F)c4F)c4nc(c(-c5c(F)c(F)c(F)c(F)c5F)c5ccc2[nH]5)C=C4)C=C3)cc1)c1ccc(C#CC#C[C@H]2C[C@@H](O)C2)cc1
REMARK SMILES IDX 4 1 3 2 2 3 1 4 72 5 73 6 86 7 74 8 85 9 75 10 76 11 77 12
REMARK SMILES IDX 78 13 79 14 80 15 84 16 81 17 82 18 83 19 5 21 6 22 7 23
REMARK SMILES IDX 8 24 9 25 10 26 71 27 11 28 70 29 12 30 13 31 14 32 64 33
REMARK SMILES IDX 15 34 69 35 63 36 65 37 16 38 68 39 62 40 61 41 17 43 49 44
REMARK SMILES IDX 29 45 48 46 30 47 33 48 47 49 66 50 31 51 32 52 46 54 67 55
REMARK SMILES IDX 34 56 18 57 19 58 27 59 20 60 21 61 25 62 28 63 22 64 23 65
REMARK SMILES IDX 26 66 24 67 50 68 51 69 59 70 52 71 53 72 57 73 60 74 54 75
REMARK SMILES IDX 55 76 58 77 56 78 35 79 36 80 44 81 37 82 38 83 42 84 45 85
REMARK SMILES IDX 39 86 40 87 43 88 41 89
REMARK H PARENT 83 20 65 42 33 53
REMARK Flexibility Score: inf
ROOT
ATOM      1  C   UNL A   1      34.209  34.352  30.521  1.00  0.00     0.275 C 
ENDROOT
BRANCH   1   2
ATOM      2  O   UNL A   1      34.039  33.174  29.717  1.00  0.00    -0.458 OA
BRANCH   2   3
ATOM      3  C   UNL A   1      34.441  32.920  28.453  1.00  0.00     0.338 C 
ATOM      4  O   UNL A   1      34.871  33.864  27.788  1.00  0.00    -0.246 OA
BRANCH   3   5
ATOM      5  C   UNL A   1      34.348  31.583  27.762  1.00  0.00     0.060 A 
ATOM      6  C   UNL A   1      35.346  30.607  27.675  1.00  0.00     0.017 A 
ATOM      7  C   UNL A   1      33.080  31.245  27.251  1.00  0.00     0.017 A 
ATOM      8  C   UNL A   1      35.068  29.314  27.227  1.00  0.00     0.018 A 
ATOM      9  C   UNL A   1      32.813  29.969  26.745  1.00  0.00     0.018 A 
ATOM     10  C   UNL A   1      33.793  28.987  26.794  1.00  0.00     0.026 A 
BRANCH  10  11
ATOM     11  C   UNL A   1      33.506  27.637  26.447  1.00  0.00    -0.053 C 
ATOM     12  C   UNL A   1      33.281  26.479  26.242  1.00  0.00    -0.010 C 
BRANCH  12  13
ATOM     13  C   UNL A   1      33.090  24.981  26.048  1.00  0.00    -0.015 C 
ATOM     14  C   UNL A   1      33.063  23.797  25.871  1.00  0.00    -0.085 C 
BRANCH  14  15
ATOM     15  C   UNL A   1      33.143  22.383  25.607  1.00  0.00     0.070 C 
ATOM     16  C   UNL A   1      34.131  21.954  24.497  1.00  0.00     0.048 C 
ATOM     17  C   UNL A   1      34.041  21.596  26.594  1.00  0.00     0.048 C 
ATOM     18  C   UNL A   1      34.498  20.745  25.389  1.00  0.00     0.116 C 
BRANCH  18  19
ATOM     19  O   UNL A   1      35.874  20.331  25.379  1.00  0.00    -0.393 OA
ATOM     20  H   UNL A   1      36.391  20.939  24.827  1.00  0.00     0.210 HD
ENDBRANCH  18  19
ENDBRANCH  14  15
ENDBRANCH  12  13
ENDBRANCH  10  11
ENDBRANCH   3   5
ENDBRANCH   2   3
ENDBRANCH   1   2
BRANCH   1  21
ATOM     21  C   UNL A   1      34.341  34.028  32.021  1.00  0.00     0.275 C 
BRANCH  21  22
ATOM     22  O   UNL A   1      34.725  32.658  32.278  1.00  0.00    -0.458 OA
BRANCH  22  23
ATOM     23  C   UNL A   1      35.838  32.477  33.041  1.00  0.00     0.338 C 
ATOM     24  O   UNL A   1      35.914  32.650  34.245  1.00  0.00    -0.246 OA
BRANCH  23  25
ATOM     25  C   UNL A   1      36.936  31.870  32.230  1.00  0.00     0.060 A 
ATOM     26  C   UNL A   1      38.018  31.295  32.908  1.00  0.00     0.016 A 
ATOM     27  C   UNL A   1      36.918  31.835  30.832  1.00  0.00     0.016 A 
ATOM     28  C   UNL A   1      39.082  30.708  32.202  1.00  0.00     0.010 A 
ATOM     29  C   UNL A   1      37.980  31.235  30.126  1.00  0.00     0.010 A 
ATOM     30  C   UNL A   1      39.088  30.682  30.799  1.00  0.00    -0.014 A 
BRANCH  30  31
ATOM     31  C   UNL A   1      40.281  30.164  30.047  1.00  0.00     0.031 A 
ATOM     32  C   UNL A   1      41.443  31.081  29.761  1.00  0.00     0.074 A 
ATOM     33  C   UNL A   1      40.372  28.884  29.627  1.00  0.00     0.049 A 
ATOM     34  N   UNL A   1      42.570  30.827  29.139  1.00  0.00    -0.248 NA
ATOM     35  C   UNL A   1      41.328  32.462  30.251  1.00  0.00     0.031 C 
ATOM     36  C   UNL A   1      39.370  27.856  29.868  1.00  0.00     0.029 A 
ATOM     37  N   UNL A   1      41.346  28.227  28.906  1.00  0.00    -0.354 N 
ATOM     38  C   UNL A   1      43.301  32.007  29.176  1.00  0.00     0.074 A 
ATOM     39  C   UNL A   1      42.468  32.994  29.834  1.00  0.00     0.031 C 
ATOM     40  C   UNL A   1      39.749  26.711  29.274  1.00  0.00     0.029 A 
ATOM     41  C   UNL A   1      41.035  26.918  28.612  1.00  0.00     0.049 A 
ATOM     42  H   UNL A   1      42.187  28.655  28.626  1.00  0.00     0.167 HD
ATOM     43  C   UNL A   1      44.557  32.247  28.726  1.00  0.00     0.037 A 
ATOM     44  C   UNL A   1      41.701  25.986  27.896  1.00  0.00     0.037 A 
ATOM     45  C   UNL A   1      45.400  31.281  28.067  1.00  0.00     0.049 A 
ATOM     46  C   UNL A   1      43.059  26.310  27.318  1.00  0.00     0.074 A 
ATOM     47  C   UNL A   1      46.698  31.445  27.611  1.00  0.00     0.029 A 
ATOM     48  N   UNL A   1      45.030  29.984  27.750  1.00  0.00    -0.354 N 
ATOM     49  N   UNL A   1      43.760  27.412  27.418  1.00  0.00    -0.248 NA
ATOM     50  C   UNL A   1      43.728  25.252  26.544  1.00  0.00     0.031 C 
ATOM     51  C   UNL A   1      47.083  30.278  26.947  1.00  0.00     0.029 A 
ATOM     52  C   UNL A   1      46.061  29.354  27.064  1.00  0.00     0.049 A 
ATOM     53  H   UNL A   1      44.166  29.570  27.976  1.00  0.00     0.167 HD
ATOM     54  C   UNL A   1      44.962  27.164  26.765  1.00  0.00     0.074 A 
ATOM     55  C   UNL A   1      44.905  25.802  26.284  1.00  0.00     0.031 C 
ATOM     56  C   UNL A   1      46.019  27.995  26.588  1.00  0.00     0.037 A 
BRANCH  43  57
ATOM     57  C   UNL A   1      45.109  33.632  28.913  1.00  0.00     0.064 A 
ATOM     58  C   UNL A   1      45.877  33.976  30.037  1.00  0.00     0.173 A 
ATOM     59  C   UNL A   1      44.926  34.607  27.921  1.00  0.00     0.173 A 
ATOM     60  F   UNL A   1      46.079  33.084  31.017  1.00  0.00    -0.203 F 
ATOM     61  C   UNL A   1      46.417  35.253  30.171  1.00  0.00     0.198 A 
ATOM     62  C   UNL A   1      45.498  35.870  28.041  1.00  0.00     0.198 A 
ATOM     63  F   UNL A   1      44.210  34.326  26.821  1.00  0.00    -0.203 F 
ATOM     64  F   UNL A   1      47.108  35.574  31.273  1.00  0.00    -0.200 F 
ATOM     65  C   UNL A   1      46.235  36.195  29.169  1.00  0.00     0.200 A 
ATOM     66  F   UNL A   1      45.340  36.771  27.061  1.00  0.00    -0.200 F 
ATOM     67  F   UNL A   1      46.770  37.417  29.292  1.00  0.00    -0.200 F 
ENDBRANCH  43  57
BRANCH  44  68
ATOM     68  C   UNL A   1      41.107  24.636  27.666  1.00  0.00     0.064 A 
ATOM     69  C   UNL A   1      41.652  23.486  28.258  1.00  0.00     0.173 A 
ATOM     70  C   UNL A   1      40.029  24.459  26.785  1.00  0.00     0.173 A 
ATOM     71  F   UNL A   1      42.704  23.593  29.084  1.00  0.00    -0.203 F 
ATOM     72  C   UNL A   1      41.173  22.215  27.947  1.00  0.00     0.198 A 
ATOM     73  C   UNL A   1      39.525  23.190  26.504  1.00  0.00     0.198 A 
ATOM     74  F   UNL A   1      39.472  25.519  26.182  1.00  0.00    -0.203 F 
ATOM     75  F   UNL A   1      41.767  21.131  28.464  1.00  0.00    -0.200 F 
ATOM     76  C   UNL A   1      40.108  22.067  27.073  1.00  0.00     0.200 A 
ATOM     77  F   UNL A   1      38.490  23.054  25.665  1.00  0.00    -0.200 F 
ATOM     78  F   UNL A   1      39.653  20.845  26.764  1.00  0.00    -0.200 F 
ENDBRANCH  44  68
BRANCH  56  79
ATOM     79  C   UNL A   1      47.233  27.451  25.882  1.00  0.00     0.064 A 
ATOM     80  C   UNL A   1      47.415  27.586  24.498  1.00  0.00     0.173 A 
ATOM     81  C   UNL A   1      48.254  26.818  26.612  1.00  0.00     0.173 A 
ATOM     82  F   UNL A   1      46.470  28.173  23.746  1.00  0.00    -0.203 F 
ATOM     83  C   UNL A   1      48.550  27.080  23.867  1.00  0.00     0.198 A 
ATOM     84  C   UNL A   1      49.406  26.349  25.985  1.00  0.00     0.198 A 
ATOM     85  F   UNL A   1      48.142  26.667  27.940  1.00  0.00    -0.203 F 
ATOM     86  F   UNL A   1      48.672  27.170  22.536  1.00  0.00    -0.200 F 
ATOM     87  C   UNL A   1      49.548  26.470  24.612  1.00  0.00     0.200 A 
ATOM     88  F   UNL A   1      50.378  25.780  26.711  1.00  0.00    -0.200 F 
ATOM     89  F   UNL A   1      50.645  25.994  24.006  1.00  0.00    -0.200 F 
ENDBRANCH  56  79
ENDBRANCH  30  31
ENDBRANCH  23  25
ENDBRANCH  22  23
ENDBRANCH  21  22
ENDBRANCH   1  21
TORSDOF 15
ENDMDL
MODEL 3
REMARK VINA RESULT:     -11.6      5.330     10.746
REMARK SMILES O=C(OCCOC(=O)c1ccc(-c2c3nc(c(-c4c(F)c(F)c(F)c(F)c4F)c4ccc([nH]4)c(-c4c(F)c(F)c(F)c(F)c4F)c4nc(c(-c5c(F)c(F)c(F)c(F)c5F)c5ccc2[nH]5)C=C4)C=C3)cc1)c1ccc(C#CC#C[C@H]2C[C@@H](O)C2)cc1
REMARK SMILES IDX 4 1 3 2 2 3 1 4 72 5 73 6 86 7 74 8 85 9 75 10 76 11 77 12
REMARK SMILES IDX 78 13 79 14 80 15 84 16 81 17 82 18 83 19 5 21 6 22 7 23
REMARK SMILES IDX 8 24 9 25 10 26 71 27 11 28 70 29 12 30 13 31 14 32 64 33
REMARK SMILES IDX 15 34 69 35 63 36 65 37 16 38 68 39 62 40 61 41 17 43 49 44
REMARK SMILES IDX 29 45 48 46 30 47 33 48 47 49 66 50 31 51 32 52 46 54 67 55
REMARK SMILES IDX 34 56 18 57 19 58 27 59 20 60 21 61 25 62 28 63 22 64 23 65
REMARK SMILES IDX 26 66 24 67 50 68 51 69 59 70 52 71 53 72 57 73 60 74 54 75
REMARK SMILES IDX 55 76 58 77 56 78 35 79 36 80 44 81 37 82 38 83 42 84 45 85
REMARK SMILES IDX 39 86 40 87 43 88 41 89
REMARK H PARENT 83 20 65 42 33 53
REMARK Flexibility Score: inf
ROOT
ATOM      1  C   UNL A   1      34.130  34.454  30.232  1.00  0.00     0.275 C 
ENDROOT
BRANCH   1   2
ATOM      2  O   UNL A   1      33.742  33.298  29.473  1.00  0.00    -0.458 OA
BRANCH   2   3
ATOM      3  C   UNL A   1      34.275  32.781  28.345  1.00  0.00     0.338 C 
ATOM      4  O   UNL A   1      34.959  33.526  27.641  1.00  0.00    -0.246 OA
BRANCH   3   5
ATOM      5  C   UNL A   1      34.049  31.379  27.839  1.00  0.00     0.060 A 
ATOM      6  C   UNL A   1      32.881  30.867  27.264  1.00  0.00     0.017 A 
ATOM      7  C   UNL A   1      35.177  30.536  27.847  1.00  0.00     0.017 A 
ATOM      8  C   UNL A   1      32.866  29.634  26.610  1.00  0.00     0.018 A 
ATOM      9  C   UNL A   1      35.149  29.274  27.247  1.00  0.00     0.018 A 
ATOM     10  C   UNL A   1      34.011  28.853  26.573  1.00  0.00     0.026 A 
BRANCH  10  11
ATOM     11  C   UNL A   1      34.004  27.653  25.808  1.00  0.00    -0.053 C 
ATOM     12  C   UNL A   1      33.945  26.607  25.229  1.00  0.00    -0.010 C 
BRANCH  12  13
ATOM     13  C   UNL A   1      33.890  25.222  24.597  1.00  0.00    -0.015 C 
ATOM     14  C   UNL A   1      33.759  24.105  24.186  1.00  0.00    -0.085 C 
BRANCH  14  15
ATOM     15  C   UNL A   1      33.540  22.736  23.796  1.00  0.00     0.070 C 
ATOM     16  C   UNL A   1      33.832  21.667  24.875  1.00  0.00     0.048 C 
ATOM     17  C   UNL A   1      32.060  22.279  23.864  1.00  0.00     0.048 C 
ATOM     18  C   UNL A   1      32.579  20.914  24.368  1.00  0.00     0.116 C 
BRANCH  18  19
ATOM     19  O   UNL A   1      31.780  20.249  25.361  1.00  0.00    -0.393 OA
ATOM     20  H   UNL A   1      31.726  20.803  26.155  1.00  0.00     0.210 HD
ENDBRANCH  18  19
ENDBRANCH  14  15
ENDBRANCH  12  13
ENDBRANCH  10  11
ENDBRANCH   3   5
ENDBRANCH   2   3
ENDBRANCH   1   2
BRANCH   1  21
ATOM     21  C   UNL A   1      34.266  34.154  31.737  1.00  0.00     0.275 C 
BRANCH  21  22
ATOM     22  O   UNL A   1      34.585  32.772  32.017  1.00  0.00    -0.458 OA
BRANCH  22  23
ATOM     23  C   UNL A   1      35.655  32.554  32.829  1.00  0.00     0.338 C 
ATOM     24  O   UNL A   1      35.674  32.700  34.040  1.00  0.00    -0.246 OA
BRANCH  23  25
ATOM     25  C   UNL A   1      36.781  31.944  32.061  1.00  0.00     0.060 A 
ATOM     26  C   UNL A   1      37.791  31.288  32.777  1.00  0.00     0.016 A 
ATOM     27  C   UNL A   1      36.857  31.983  30.665  1.00  0.00     0.016 A 
ATOM     28  C   UNL A   1      38.877  30.695  32.111  1.00  0.00     0.010 A 
ATOM     29  C   UNL A   1      37.941  31.376  29.999  1.00  0.00     0.010 A 
ATOM     30  C   UNL A   1      38.978  30.741  30.712  1.00  0.00    -0.014 A 
BRANCH  30  31
ATOM     31  C   UNL A   1      40.198  30.214  30.013  1.00  0.00     0.031 A 
ATOM     32  C   UNL A   1      41.375  31.124  29.768  1.00  0.00     0.074 A 
ATOM     33  C   UNL A   1      40.300  28.930  29.606  1.00  0.00     0.049 A 
ATOM     34  N   UNL A   1      42.525  30.860  29.195  1.00  0.00    -0.248 NA
ATOM     35  C   UNL A   1      41.246  32.508  30.243  1.00  0.00     0.031 C 
ATOM     36  C   UNL A   1      39.286  27.908  29.813  1.00  0.00     0.029 A 
ATOM     37  N   UNL A   1      41.301  28.264  28.930  1.00  0.00    -0.354 N 
ATOM     38  C   UNL A   1      43.259  32.037  29.253  1.00  0.00     0.074 A 
ATOM     39  C   UNL A   1      42.405  33.032  29.869  1.00  0.00     0.031 C 
ATOM     40  C   UNL A   1      39.683  26.757  29.244  1.00  0.00     0.029 A 
ATOM     41  C   UNL A   1      40.996  26.954  28.633  1.00  0.00     0.049 A 
ATOM     42  H   UNL A   1      42.154  28.686  28.681  1.00  0.00     0.167 HD
ATOM     43  C   UNL A   1      44.534  32.269  28.853  1.00  0.00     0.037 A 
ATOM     44  C   UNL A   1      41.687  26.014  27.951  1.00  0.00     0.037 A 
ATOM     45  C   UNL A   1      45.399  31.295  28.236  1.00  0.00     0.049 A 
ATOM     46  C   UNL A   1      43.068  26.328  27.427  1.00  0.00     0.074 A 
ATOM     47  C   UNL A   1      46.715  31.449  27.833  1.00  0.00     0.029 A 
ATOM     48  N   UNL A   1      45.037  29.996  27.913  1.00  0.00    -0.354 N 
ATOM     49  N   UNL A   1      43.770  27.428  27.548  1.00  0.00    -0.248 NA
ATOM     50  C   UNL A   1      43.764  25.262  26.689  1.00  0.00     0.031 C 
ATOM     51  C   UNL A   1      47.122  30.276  27.192  1.00  0.00     0.029 A 
ATOM     52  C   UNL A   1      46.091  29.357  27.275  1.00  0.00     0.049 A 
ATOM     53  H   UNL A   1      44.162  29.588  28.107  1.00  0.00     0.167 HD
ATOM     54  C   UNL A   1      44.996  27.170  26.947  1.00  0.00     0.074 A 
ATOM     55  C   UNL A   1      44.953  25.805  26.473  1.00  0.00     0.031 C 
ATOM     56  C   UNL A   1      46.063  27.995  26.807  1.00  0.00     0.037 A 
BRANCH  43  57
ATOM     57  C   UNL A   1      45.084  33.653  29.053  1.00  0.00     0.064 A 
ATOM     58  C   UNL A   1      44.983  34.639  28.058  1.00  0.00     0.173 A 
ATOM     59  C   UNL A   1      45.657  34.017  30.281  1.00  0.00     0.173 A 
ATOM     60  F   UNL A   1      44.449  34.343  26.865  1.00  0.00    -0.203 F 
ATOM     61  C   UNL A   1      45.460  35.929  28.279  1.00  0.00     0.198 A 
ATOM     62  C   UNL A   1      46.098  35.317  30.511  1.00  0.00     0.198 A 
ATOM     63  F   UNL A   1      45.766  33.116  31.269  1.00  0.00    -0.203 F 
ATOM     64  F   UNL A   1      45.395  36.841  27.300  1.00  0.00    -0.200 F 
ATOM     65  C   UNL A   1      46.007  36.269  29.508  1.00  0.00     0.200 A 
ATOM     66  F   UNL A   1      46.605  35.648  31.706  1.00  0.00    -0.200 F 
ATOM     67  F   UNL A   1      46.449  37.515  29.723  1.00  0.00    -0.200 F 
ENDBRANCH  43  57
BRANCH  44  68
ATOM     68  C   UNL A   1      41.096  24.665  27.707  1.00  0.00     0.064 A 
ATOM     69  C   UNL A   1      41.623  23.514  28.316  1.00  0.00     0.173 A 
ATOM     70  C   UNL A   1      40.044  24.489  26.796  1.00  0.00     0.173 A 
ATOM     71  F   UNL A   1      42.651  23.621  29.171  1.00  0.00    -0.203 F 
ATOM     72  C   UNL A   1      41.149  22.243  27.993  1.00  0.00     0.198 A 
ATOM     73  C   UNL A   1      39.545  23.220  26.503  1.00  0.00     0.198 A 
ATOM     74  F   UNL A   1      39.506  25.549  26.176  1.00  0.00    -0.203 F 
ATOM     75  F   UNL A   1      41.727  21.160  28.529  1.00  0.00    -0.200 F 
ATOM     76  C   UNL A   1      40.109  22.097  27.090  1.00  0.00     0.200 A 
ATOM     77  F   UNL A   1      38.533  23.085  25.635  1.00  0.00    -0.200 F 
ATOM     78  F   UNL A   1      39.660  20.875  26.771  1.00  0.00    -0.200 F 
ENDBRANCH  44  68
BRANCH  56  79
ATOM     79  C   UNL A   1      47.303  27.441  26.155  1.00  0.00     0.064 A 
ATOM     80  C   UNL A   1      47.500  27.487  24.767  1.00  0.00     0.173 A 
ATOM     81  C   UNL A   1      48.331  26.890  26.939  1.00  0.00     0.173 A 
ATOM     82  F   UNL A   1      46.550  27.991  23.965  1.00  0.00    -0.203 F 
ATOM     83  C   UNL A   1      48.659  26.973  24.187  1.00  0.00     0.198 A 
ATOM     84  C   UNL A   1      49.505  26.415  26.360  1.00  0.00     0.198 A 
ATOM     85  F   UNL A   1      48.205  26.828  28.273  1.00  0.00    -0.203 F 
ATOM     86  F   UNL A   1      48.797  26.974  22.854  1.00  0.00    -0.200 F 
ATOM     87  C   UNL A   1      49.663  26.446  24.984  1.00  0.00     0.200 A 
ATOM     88  F   UNL A   1      50.483  25.927  27.135  1.00  0.00    -0.200 F 
ATOM     89  F   UNL A   1      50.782  25.963  24.426  1.00  0.00    -0.200 F 
ENDBRANCH  56  79
ENDBRANCH  30  31
ENDBRANCH  23  25
ENDBRANCH  22  23
ENDBRANCH  21  22
ENDBRANCH   1  21
TORSDOF 15
ENDMDL
