MODEL 1
REMARK VINA RESULT:     -12.9      0.000      0.000
REMARK SMILES O=C(OCCOC(=O)c1cccn(Cc2ccc3c(c2)OC(F)(F)O3)c1=O)c1ccc(-c2c3nc(c(-c4c(F)c(F)c(F)c(F)c4F)c4ccc([nH]4)c(-c4c(F)c(F)c(F)c(F)c4F)c4nc(c(-c5c(F)c(F)c(F)c(F)c5F)c5ccc2[nH]5)C=C4)C=C3)cc1
REMARK SMILES IDX 4 1 3 2 2 3 1 4 28 5 29 6 90 7 30 8 89 9 31 10 32 11 33 12
REMARK SMILES IDX 83 13 34 14 88 15 82 16 84 17 35 18 87 19 81 20 80 21 36 23
REMARK SMILES IDX 68 24 48 25 67 26 49 27 52 28 66 29 85 30 50 31 51 32 65 34
REMARK SMILES IDX 86 35 53 36 37 37 38 38 46 39 39 40 40 41 44 42 47 43 41 44
REMARK SMILES IDX 42 45 45 46 43 47 69 48 70 49 78 50 71 51 72 52 76 53 79 54
REMARK SMILES IDX 73 55 74 56 77 57 75 58 54 59 55 60 63 61 56 62 57 63 61 64
REMARK SMILES IDX 64 65 58 66 59 67 62 68 60 69 5 70 6 71 7 72 8 73 9 74 10 75
REMARK SMILES IDX 26 76 11 77 13 78 27 79 12 80 14 81 15 82 16 83 20 84 17 85
REMARK SMILES IDX 19 86 18 87 21 88 25 89 22 90 23 91 24 92
REMARK H PARENT 84 22 52 33
REMARK Flexibility Score: inf
ROOT
ATOM      1  C   UNL A   1      43.974  21.753  25.152  1.00  0.00     0.275 C 
ENDROOT
BRANCH   1   2
ATOM      2  O   UNL A   1      43.622  23.074  24.700  1.00  0.00    -0.458 OA
BRANCH   2   3
ATOM      3  C   UNL A   1      44.130  24.264  25.102  1.00  0.00     0.338 C 
ATOM      4  O   UNL A   1      45.192  24.661  24.624  1.00  0.00    -0.246 OA
BRANCH   3   5
ATOM      5  C   UNL A   1      43.572  25.016  26.266  1.00  0.00     0.060 A 
ATOM      6  C   UNL A   1      44.201  26.233  26.573  1.00  0.00     0.016 A 
ATOM      7  C   UNL A   1      42.485  24.624  27.050  1.00  0.00     0.016 A 
ATOM      8  C   UNL A   1      43.829  26.972  27.699  1.00  0.00     0.010 A 
ATOM      9  C   UNL A   1      42.101  25.368  28.174  1.00  0.00     0.010 A 
ATOM     10  C   UNL A   1      42.776  26.540  28.519  1.00  0.00    -0.014 A 
BRANCH  10  11
ATOM     11  C   UNL A   1      42.250  27.425  29.584  1.00  0.00     0.031 A 
ATOM     12  C   UNL A   1      41.228  28.496  29.336  1.00  0.00     0.074 A 
ATOM     13  C   UNL A   1      42.742  27.249  30.823  1.00  0.00     0.049 A 
ATOM     14  N   UNL A   1      40.485  29.116  30.220  1.00  0.00    -0.248 NA
ATOM     15  C   UNL A   1      40.948  28.892  27.950  1.00  0.00     0.031 C 
ATOM     16  C   UNL A   1      43.778  26.280  31.193  1.00  0.00     0.029 A 
ATOM     17  N   UNL A   1      42.465  27.904  31.992  1.00  0.00    -0.354 N 
ATOM     18  C   UNL A   1      39.540  29.825  29.491  1.00  0.00     0.074 A 
ATOM     19  C   UNL A   1      39.872  29.663  28.096  1.00  0.00     0.031 C 
ATOM     20  C   UNL A   1      44.081  26.437  32.488  1.00  0.00     0.029 A 
ATOM     21  C   UNL A   1      43.282  27.531  33.027  1.00  0.00     0.049 A 
ATOM     22  H   UNL A   1      41.750  28.576  32.081  1.00  0.00     0.167 HD
ATOM     23  C   UNL A   1      38.468  30.495  29.972  1.00  0.00     0.037 A 
ATOM     24  C   UNL A   1      43.403  28.047  34.261  1.00  0.00     0.037 A 
ATOM     25  C   UNL A   1      38.327  30.886  31.350  1.00  0.00     0.049 A 
ATOM     26  C   UNL A   1      42.454  29.128  34.683  1.00  0.00     0.074 A 
ATOM     27  C   UNL A   1      37.346  31.673  31.929  1.00  0.00     0.029 A 
ATOM     28  N   UNL A   1      39.256  30.608  32.338  1.00  0.00    -0.354 N 
ATOM     29  N   UNL A   1      41.422  29.615  34.036  1.00  0.00    -0.248 NA
ATOM     30  C   UNL A   1      42.673  29.723  36.005  1.00  0.00     0.031 C 
ATOM     31  C   UNL A   1      37.740  31.955  33.242  1.00  0.00     0.029 A 
ATOM     32  C   UNL A   1      38.928  31.288  33.498  1.00  0.00     0.049 A 
ATOM     33  H   UNL A   1      40.034  30.015  32.231  1.00  0.00     0.167 HD
ATOM     34  C   UNL A   1      40.838  30.537  34.891  1.00  0.00     0.074 A 
ATOM     35  C   UNL A   1      41.639  30.547  36.100  1.00  0.00     0.031 C 
ATOM     36  C   UNL A   1      39.729  31.293  34.695  1.00  0.00     0.037 A 
BRANCH  23  37
ATOM     37  C   UNL A   1      37.347  30.844  29.042  1.00  0.00     0.064 A 
ATOM     38  C   UNL A   1      36.414  29.851  28.696  1.00  0.00     0.173 A 
ATOM     39  C   UNL A   1      37.071  32.163  28.671  1.00  0.00     0.173 A 
ATOM     40  F   UNL A   1      36.620  28.578  29.067  1.00  0.00    -0.203 F 
ATOM     41  C   UNL A   1      35.237  30.172  28.026  1.00  0.00     0.198 A 
ATOM     42  C   UNL A   1      35.890  32.483  28.001  1.00  0.00     0.198 A 
ATOM     43  F   UNL A   1      37.916  33.148  29.008  1.00  0.00    -0.203 F 
ATOM     44  F   UNL A   1      34.342  29.216  27.747  1.00  0.00    -0.200 F 
ATOM     45  C   UNL A   1      34.971  31.490  27.686  1.00  0.00     0.200 A 
ATOM     46  F   UNL A   1      35.619  33.759  27.697  1.00  0.00    -0.200 F 
ATOM     47  F   UNL A   1      33.819  31.808  27.081  1.00  0.00    -0.200 F 
ENDBRANCH  23  37
BRANCH  24  48
ATOM     48  C   UNL A   1      44.482  27.553  35.151  1.00  0.00     0.064 A 
ATOM     49  C   UNL A   1      44.273  26.480  36.022  1.00  0.00     0.173 A 
ATOM     50  C   UNL A   1      45.763  28.129  35.113  1.00  0.00     0.173 A 
ATOM     51  F   UNL A   1      43.062  25.908  36.103  1.00  0.00    -0.203 F 
ATOM     52  C   UNL A   1      45.304  26.002  36.829  1.00  0.00     0.198 A 
ATOM     53  C   UNL A   1      46.799  27.631  35.897  1.00  0.00     0.198 A 
ATOM     54  F   UNL A   1      46.014  29.159  34.292  1.00  0.00    -0.203 F 
ATOM     55  F   UNL A   1      45.071  24.991  37.678  1.00  0.00    -0.200 F 
ATOM     56  C   UNL A   1      46.566  26.571  36.759  1.00  0.00     0.200 A 
ATOM     57  F   UNL A   1      48.022  28.172  35.809  1.00  0.00    -0.200 F 
ATOM     58  F   UNL A   1      47.560  26.099  37.523  1.00  0.00    -0.200 F 
ENDBRANCH  24  48
BRANCH  36  59
ATOM     59  C   UNL A   1      39.293  32.174  35.826  1.00  0.00     0.064 A 
ATOM     60  C   UNL A   1      39.784  33.478  35.975  1.00  0.00     0.173 A 
ATOM     61  C   UNL A   1      38.345  31.715  36.755  1.00  0.00     0.173 A 
ATOM     62  F   UNL A   1      40.701  33.956  35.120  1.00  0.00    -0.203 F 
ATOM     63  C   UNL A   1      39.366  34.281  37.032  1.00  0.00     0.198 A 
ATOM     64  C   UNL A   1      37.903  32.533  37.789  1.00  0.00     0.198 A 
ATOM     65  F   UNL A   1      37.838  30.478  36.650  1.00  0.00    -0.203 F 
ATOM     66  F   UNL A   1      39.891  35.503  37.188  1.00  0.00    -0.200 F 
ATOM     67  C   UNL A   1      38.421  33.812  37.932  1.00  0.00     0.200 A 
ATOM     68  F   UNL A   1      36.978  32.084  38.647  1.00  0.00    -0.200 F 
ATOM     69  F   UNL A   1      38.016  34.589  38.945  1.00  0.00    -0.200 F 
ENDBRANCH  36  59
ENDBRANCH  10  11
ENDBRANCH   3   5
ENDBRANCH   2   3
ENDBRANCH   1   2
BRANCH   1  70
ATOM     70  C   UNL A   1      42.927  21.082  26.046  1.00  0.00     0.275 C 
BRANCH  70  71
ATOM     71  O   UNL A   1      41.585  21.377  25.639  1.00  0.00    -0.458 OA
BRANCH  71  72
ATOM     72  C   UNL A   1      40.627  21.124  26.570  1.00  0.00     0.343 C 
ATOM     73  O   UNL A   1      40.772  20.432  27.570  1.00  0.00    -0.246 OA
BRANCH  72  74
ATOM     74  C   UNL A   1      39.429  21.942  26.319  1.00  0.00     0.125 A 
ATOM     75  C   UNL A   1      39.456  23.209  26.768  1.00  0.00     0.023 A 
ATOM     76  C   UNL A   1      38.246  21.455  25.556  1.00  0.00     0.265 A 
ATOM     77  C   UNL A   1      38.370  24.116  26.501  1.00  0.00     0.019 A 
ATOM     78  N   UNL A   1      37.206  22.384  25.382  1.00  0.00    -0.310 N 
ATOM     79  O   UNL A   1      38.207  20.301  25.134  1.00  0.00    -0.268 OA
ATOM     80  C   UNL A   1      37.293  23.687  25.837  1.00  0.00     0.089 A 
BRANCH  78  81
ATOM     81  C   UNL A   1      35.978  21.962  24.716  1.00  0.00     0.161 C 
BRANCH  81  82
ATOM     82  C   UNL A   1      34.739  22.463  25.417  1.00  0.00    -0.024 A 
ATOM     83  C   UNL A   1      34.385  21.966  26.691  1.00  0.00     0.010 A 
ATOM     84  C   UNL A   1      33.943  23.447  24.806  1.00  0.00     0.056 A 
ATOM     85  C   UNL A   1      33.257  22.451  27.359  1.00  0.00     0.051 A 
ATOM     86  C   UNL A   1      32.847  23.913  25.492  1.00  0.00     0.173 A 
ATOM     87  C   UNL A   1      32.513  23.429  26.737  1.00  0.00     0.172 A 
ATOM     88  O   UNL A   1      32.005  24.888  25.064  1.00  0.00    -0.395 OA
ATOM     89  O   UNL A   1      31.416  24.048  27.251  1.00  0.00    -0.395 OA
ATOM     90  C   UNL A   1      31.215  25.054  26.249  1.00  0.00     0.586 C 
ATOM     91  F   UNL A   1      31.515  26.264  26.784  1.00  0.00    -0.125 F 
ATOM     92  F   UNL A   1      29.907  25.073  25.901  1.00  0.00    -0.125 F 
ENDBRANCH  81  82
ENDBRANCH  78  81
ENDBRANCH  72  74
ENDBRANCH  71  72
ENDBRANCH  70  71
ENDBRANCH   1  70
TORSDOF 13
ENDMDL
MODEL 2
REMARK VINA RESULT:     -12.7      4.994      9.356
REMARK SMILES O=C(OCCOC(=O)c1cccn(Cc2ccc3c(c2)OC(F)(F)O3)c1=O)c1ccc(-c2c3nc(c(-c4c(F)c(F)c(F)c(F)c4F)c4ccc([nH]4)c(-c4c(F)c(F)c(F)c(F)c4F)c4nc(c(-c5c(F)c(F)c(F)c(F)c5F)c5ccc2[nH]5)C=C4)C=C3)cc1
REMARK SMILES IDX 4 1 3 2 2 3 1 4 28 5 29 6 90 7 30 8 89 9 31 10 32 11 33 12
REMARK SMILES IDX 83 13 34 14 88 15 82 16 84 17 35 18 87 19 81 20 80 21 36 23
REMARK SMILES IDX 68 24 48 25 67 26 49 27 52 28 66 29 85 30 50 31 51 32 65 34
REMARK SMILES IDX 86 35 53 36 37 37 38 38 46 39 39 40 40 41 44 42 47 43 41 44
REMARK SMILES IDX 42 45 45 46 43 47 69 48 70 49 78 50 71 51 72 52 76 53 79 54
REMARK SMILES IDX 73 55 74 56 77 57 75 58 54 59 55 60 63 61 56 62 57 63 61 64
REMARK SMILES IDX 64 65 58 66 59 67 62 68 60 69 5 70 6 71 7 72 8 73 9 74 10 75
REMARK SMILES IDX 26 76 11 77 13 78 27 79 12 80 14 81 15 82 16 83 20 84 17 85
REMARK SMILES IDX 19 86 18 87 21 88 25 89 22 90 23 91 24 92
REMARK H PARENT 84 22 52 33
REMARK Flexibility Score: inf
ROOT
ATOM      1  C   UNL A   1      38.708  19.904  25.125  1.00  0.00     0.275 C 
ENDROOT
BRANCH   1   2
ATOM      2  O   UNL A   1      39.716  19.140  25.814  1.00  0.00    -0.458 OA
BRANCH   2   3
ATOM      3  C   UNL A   1      41.046  19.386  25.899  1.00  0.00     0.338 C 
ATOM      4  O   UNL A   1      41.842  18.458  25.767  1.00  0.00    -0.246 OA
BRANCH   3   5
ATOM      5  C   UNL A   1      41.584  20.699  26.368  1.00  0.00     0.060 A 
ATOM      6  C   UNL A   1      42.104  21.543  25.373  1.00  0.00     0.016 A 
ATOM      7  C   UNL A   1      41.600  21.154  27.688  1.00  0.00     0.016 A 
ATOM      8  C   UNL A   1      42.723  22.751  25.704  1.00  0.00     0.010 A 
ATOM      9  C   UNL A   1      42.212  22.370  28.023  1.00  0.00     0.010 A 
ATOM     10  C   UNL A   1      42.791  23.173  27.040  1.00  0.00    -0.014 A 
BRANCH  10  11
ATOM     11  C   UNL A   1      43.259  24.541  27.365  1.00  0.00     0.031 A 
ATOM     12  C   UNL A   1      44.709  24.921  27.444  1.00  0.00     0.074 A 
ATOM     13  C   UNL A   1      42.314  25.466  27.612  1.00  0.00     0.049 A 
ATOM     14  N   UNL A   1      45.225  26.124  27.421  1.00  0.00    -0.248 NA
ATOM     15  C   UNL A   1      45.713  23.850  27.497  1.00  0.00     0.031 C 
ATOM     16  C   UNL A   1      40.870  25.220  27.620  1.00  0.00     0.029 A 
ATOM     17  N   UNL A   1      42.429  26.789  27.941  1.00  0.00    -0.354 N 
ATOM     18  C   UNL A   1      46.594  25.947  27.272  1.00  0.00     0.074 A 
ATOM     19  C   UNL A   1      46.847  24.528  27.333  1.00  0.00     0.031 C 
ATOM     20  C   UNL A   1      40.237  26.342  27.984  1.00  0.00     0.029 A 
ATOM     21  C   UNL A   1      41.231  27.373  28.258  1.00  0.00     0.049 A 
ATOM     22  H   UNL A   1      43.287  27.274  27.949  1.00  0.00     0.167 HD
ATOM     23  C   UNL A   1      47.524  26.903  27.047  1.00  0.00     0.037 A 
ATOM     24  C   UNL A   1      40.970  28.592  28.759  1.00  0.00     0.037 A 
ATOM     25  C   UNL A   1      47.298  28.305  27.283  1.00  0.00     0.049 A 
ATOM     26  C   UNL A   1      42.103  29.560  28.918  1.00  0.00     0.074 A 
ATOM     27  C   UNL A   1      48.201  29.351  27.210  1.00  0.00     0.029 A 
ATOM     28  N   UNL A   1      46.105  28.835  27.745  1.00  0.00    -0.354 N 
ATOM     29  N   UNL A   1      43.354  29.429  28.549  1.00  0.00    -0.248 NA
ATOM     30  C   UNL A   1      41.791  30.848  29.546  1.00  0.00     0.031 C 
ATOM     31  C   UNL A   1      47.580  30.494  27.728  1.00  0.00     0.029 A 
ATOM     32  C   UNL A   1      46.273  30.173  28.058  1.00  0.00     0.049 A 
ATOM     33  H   UNL A   1      45.262  28.334  27.837  1.00  0.00     0.167 HD
ATOM     34  C   UNL A   1      43.969  30.633  28.855  1.00  0.00     0.074 A 
ATOM     35  C   UNL A   1      42.952  31.480  29.447  1.00  0.00     0.031 C 
ATOM     36  C   UNL A   1      45.257  31.007  28.646  1.00  0.00     0.037 A 
BRANCH  23  37
ATOM     37  C   UNL A   1      48.864  26.507  26.509  1.00  0.00     0.064 A 
ATOM     38  C   UNL A   1      49.116  26.653  25.134  1.00  0.00     0.173 A 
ATOM     39  C   UNL A   1      49.941  26.196  27.345  1.00  0.00     0.173 A 
ATOM     40  F   UNL A   1      48.120  26.990  24.300  1.00  0.00    -0.203 F 
ATOM     41  C   UNL A   1      50.403  26.517  24.621  1.00  0.00     0.198 A 
ATOM     42  C   UNL A   1      51.229  26.062  26.828  1.00  0.00     0.198 A 
ATOM     43  F   UNL A   1      49.754  26.079  28.668  1.00  0.00    -0.203 F 
ATOM     44  F   UNL A   1      50.627  26.706  23.313  1.00  0.00    -0.200 F 
ATOM     45  C   UNL A   1      51.461  26.230  25.470  1.00  0.00     0.200 A 
ATOM     46  F   UNL A   1      52.256  25.812  27.651  1.00  0.00    -0.200 F 
ATOM     47  F   UNL A   1      52.707  26.143  24.984  1.00  0.00    -0.200 F 
ENDBRANCH  23  37
BRANCH  24  48
ATOM     48  C   UNL A   1      39.582  28.927  29.161  1.00  0.00     0.064 A 
ATOM     49  C   UNL A   1      38.663  29.447  28.244  1.00  0.00     0.173 A 
ATOM     50  C   UNL A   1      39.140  28.695  30.475  1.00  0.00     0.173 A 
ATOM     51  F   UNL A   1      39.045  29.700  26.984  1.00  0.00    -0.203 F 
ATOM     52  C   UNL A   1      37.352  29.727  28.625  1.00  0.00     0.198 A 
ATOM     53  C   UNL A   1      37.823  28.946  30.846  1.00  0.00     0.198 A 
ATOM     54  F   UNL A   1      39.983  28.194  31.390  1.00  0.00    -0.203 F 
ATOM     55  F   UNL A   1      36.499  30.253  27.736  1.00  0.00    -0.200 F 
ATOM     56  C   UNL A   1      36.931  29.468  29.921  1.00  0.00     0.200 A 
ATOM     57  F   UNL A   1      37.417  28.674  32.093  1.00  0.00    -0.200 F 
ATOM     58  F   UNL A   1      35.666  29.722  30.281  1.00  0.00    -0.200 F 
ENDBRANCH  24  48
BRANCH  36  59
ATOM     59  C   UNL A   1      45.634  32.405  29.030  1.00  0.00     0.064 A 
ATOM     60  C   UNL A   1      45.445  33.485  28.158  1.00  0.00     0.173 A 
ATOM     61  C   UNL A   1      46.164  32.669  30.303  1.00  0.00     0.173 A 
ATOM     62  F   UNL A   1      44.954  33.280  26.926  1.00  0.00    -0.203 F 
ATOM     63  C   UNL A   1      45.802  34.776  28.534  1.00  0.00     0.198 A 
ATOM     64  C   UNL A   1      46.486  33.967  30.688  1.00  0.00     0.198 A 
ATOM     65  F   UNL A   1      46.356  31.671  31.178  1.00  0.00    -0.203 F 
ATOM     66  F   UNL A   1      45.665  35.785  27.663  1.00  0.00    -0.200 F 
ATOM     67  C   UNL A   1      46.314  35.017  29.800  1.00  0.00     0.200 A 
ATOM     68  F   UNL A   1      46.965  34.199  31.917  1.00  0.00    -0.200 F 
ATOM     69  F   UNL A   1      46.651  36.262  30.161  1.00  0.00    -0.200 F 
ENDBRANCH  36  59
ENDBRANCH  10  11
ENDBRANCH   3   5
ENDBRANCH   2   3
ENDBRANCH   1   2
BRANCH   1  70
ATOM     70  C   UNL A   1      38.400  21.269  25.749  1.00  0.00     0.275 C 
BRANCH  70  71
ATOM     71  O   UNL A   1      37.813  22.182  24.815  1.00  0.00    -0.458 OA
BRANCH  71  72
ATOM     72  C   UNL A   1      36.985  23.115  25.356  1.00  0.00     0.343 C 
ATOM     73  O   UNL A   1      37.326  24.012  26.117  1.00  0.00    -0.246 OA
BRANCH  72  74
ATOM     74  C   UNL A   1      35.639  23.022  24.767  1.00  0.00     0.125 A 
ATOM     75  C   UNL A   1      35.380  23.828  23.721  1.00  0.00     0.023 A 
ATOM     76  C   UNL A   1      34.603  22.057  25.229  1.00  0.00     0.265 A 
ATOM     77  C   UNL A   1      34.124  23.755  23.021  1.00  0.00     0.019 A 
ATOM     78  N   UNL A   1      33.386  22.083  24.527  1.00  0.00    -0.310 N 
ATOM     79  O   UNL A   1      34.826  21.311  26.180  1.00  0.00    -0.268 OA
ATOM     80  C   UNL A   1      33.177  22.910  23.438  1.00  0.00     0.089 A 
BRANCH  78  81
ATOM     81  C   UNL A   1      32.290  21.226  24.969  1.00  0.00     0.161 C 
BRANCH  81  82
ATOM     82  C   UNL A   1      32.512  19.776  24.612  1.00  0.00    -0.024 A 
ATOM     83  C   UNL A   1      32.529  19.365  23.261  1.00  0.00     0.010 A 
ATOM     84  C   UNL A   1      32.723  18.833  25.631  1.00  0.00     0.056 A 
ATOM     85  C   UNL A   1      32.766  18.029  22.923  1.00  0.00     0.051 A 
ATOM     86  C   UNL A   1      32.965  17.530  25.268  1.00  0.00     0.173 A 
ATOM     87  C   UNL A   1      32.989  17.138  23.950  1.00  0.00     0.172 A 
ATOM     88  O   UNL A   1      33.231  16.509  26.124  1.00  0.00    -0.395 OA
ATOM     89  O   UNL A   1      33.278  15.816  23.811  1.00  0.00    -0.395 OA
ATOM     90  C   UNL A   1      33.572  15.489  25.176  1.00  0.00     0.586 C 
ATOM     91  F   UNL A   1      34.901  15.244  25.287  1.00  0.00    -0.125 F 
ATOM     92  F   UNL A   1      32.916  14.351  25.507  1.00  0.00    -0.125 F 
ENDBRANCH  81  82
ENDBRANCH  78  81
ENDBRANCH  72  74
ENDBRANCH  71  72
ENDBRANCH  70  71
ENDBRANCH   1  70
TORSDOF 13
ENDMDL
MODEL 3
REMARK VINA RESULT:     -12.7      5.016      9.190
REMARK SMILES O=C(OCCOC(=O)c1cccn(Cc2ccc3c(c2)OC(F)(F)O3)c1=O)c1ccc(-c2c3nc(c(-c4c(F)c(F)c(F)c(F)c4F)c4ccc([nH]4)c(-c4c(F)c(F)c(F)c(F)c4F)c4nc(c(-c5c(F)c(F)c(F)c(F)c5F)c5ccc2[nH]5)C=C4)C=C3)cc1
REMARK SMILES IDX 4 1 3 2 2 3 1 4 28 5 29 6 90 7 30 8 89 9 31 10 32 11 33 12
REMARK SMILES IDX 83 13 34 14 88 15 82 16 84 17 35 18 87 19 81 20 80 21 36 23
REMARK SMILES IDX 68 24 48 25 67 26 49 27 52 28 66 29 85 30 50 31 51 32 65 34
REMARK SMILES IDX 86 35 53 36 37 37 38 38 46 39 39 40 40 41 44 42 47 43 41 44
REMARK SMILES IDX 42 45 45 46 43 47 69 48 70 49 78 50 71 51 72 52 76 53 79 54
REMARK SMILES IDX 73 55 74 56 77 57 75 58 54 59 55 60 63 61 56 62 57 63 61 64
REMARK SMILES IDX 64 65 58 66 59 67 62 68 60 69 5 70 6 71 7 72 8 73 9 74 10 75
REMARK SMILES IDX 26 76 11 77 13 78 27 79 12 80 14 81 15 82 16 83 20 84 17 85
REMARK SMILES IDX 19 86 18 87 21 88 25 89 22 90 23 91 24 92
REMARK H PARENT 84 22 52 33
REMARK Flexibility Score: inf
ROOT
ATOM      1  C   UNL A   1      39.027  19.857  25.201  1.00  0.00     0.275 C 
ENDROOT
BRANCH   1   2
ATOM      2  O   UNL A   1      40.082  19.279  25.992  1.00  0.00    -0.458 OA
BRANCH   2   3
ATOM      3  C   UNL A   1      41.400  19.595  25.997  1.00  0.00     0.338 C 
ATOM      4  O   UNL A   1      42.233  18.718  25.777  1.00  0.00    -0.246 OA
BRANCH   3   5
ATOM      5  C   UNL A   1      41.899  20.919  26.477  1.00  0.00     0.060 A 
ATOM      6  C   UNL A   1      42.245  21.846  25.481  1.00  0.00     0.016 A 
ATOM      7  C   UNL A   1      42.033  21.309  27.812  1.00  0.00     0.016 A 
ATOM      8  C   UNL A   1      42.816  23.078  25.811  1.00  0.00     0.010 A 
ATOM      9  C   UNL A   1      42.596  22.549  28.147  1.00  0.00     0.010 A 
ATOM     10  C   UNL A   1      43.007  23.439  27.153  1.00  0.00    -0.014 A 
BRANCH  10  11
ATOM     11  C   UNL A   1      43.415  24.819  27.502  1.00  0.00     0.031 A 
ATOM     12  C   UNL A   1      44.846  25.273  27.533  1.00  0.00     0.074 A 
ATOM     13  C   UNL A   1      42.435  25.685  27.816  1.00  0.00     0.049 A 
ATOM     14  N   UNL A   1      45.297  26.503  27.527  1.00  0.00    -0.248 NA
ATOM     15  C   UNL A   1      45.905  24.257  27.510  1.00  0.00     0.031 C 
ATOM     16  C   UNL A   1      41.007  25.361  27.876  1.00  0.00     0.029 A 
ATOM     17  N   UNL A   1      42.495  27.002  28.182  1.00  0.00    -0.354 N 
ATOM     18  C   UNL A   1      46.666  26.404  27.316  1.00  0.00     0.074 A 
ATOM     19  C   UNL A   1      46.995  24.999  27.322  1.00  0.00     0.031 C 
ATOM     20  C   UNL A   1      40.333  26.437  28.301  1.00  0.00     0.029 A 
ATOM     21  C   UNL A   1      41.282  27.511  28.567  1.00  0.00     0.049 A 
ATOM     22  H   UNL A   1      43.326  27.531  28.170  1.00  0.00     0.167 HD
ATOM     23  C   UNL A   1      47.535  27.414  27.085  1.00  0.00     0.037 A 
ATOM     24  C   UNL A   1      40.980  28.699  29.116  1.00  0.00     0.037 A 
ATOM     25  C   UNL A   1      47.245  28.795  27.374  1.00  0.00     0.049 A 
ATOM     26  C   UNL A   1      42.067  29.721  29.259  1.00  0.00     0.074 A 
ATOM     27  C   UNL A   1      48.089  29.889  27.297  1.00  0.00     0.029 A 
ATOM     28  N   UNL A   1      46.047  29.246  27.901  1.00  0.00    -0.354 N 
ATOM     29  N   UNL A   1      43.306  29.668  28.836  1.00  0.00    -0.248 NA
ATOM     30  C   UNL A   1      41.714  30.971  29.941  1.00  0.00     0.031 C 
ATOM     31  C   UNL A   1      47.431  30.981  27.876  1.00  0.00     0.029 A 
ATOM     32  C   UNL A   1      46.158  30.581  28.249  1.00  0.00     0.049 A 
ATOM     33  H   UNL A   1      45.237  28.698  28.012  1.00  0.00     0.167 HD
ATOM     34  C   UNL A   1      43.870  30.894  29.154  1.00  0.00     0.074 A 
ATOM     35  C   UNL A   1      42.836  31.667  29.814  1.00  0.00     0.031 C 
ATOM     36  C   UNL A   1      45.126  31.342  28.905  1.00  0.00     0.037 A 
BRANCH  23  37
ATOM     37  C   UNL A   1      48.869  27.106  26.479  1.00  0.00     0.064 A 
ATOM     38  C   UNL A   1      49.880  26.569  27.296  1.00  0.00     0.173 A 
ATOM     39  C   UNL A   1      49.085  27.133  25.098  1.00  0.00     0.173 A 
ATOM     40  F   UNL A   1      49.698  26.487  28.623  1.00  0.00    -0.203 F 
ATOM     41  C   UNL A   1      51.051  26.057  26.746  1.00  0.00     0.198 A 
ATOM     42  C   UNL A   1      50.259  26.618  24.550  1.00  0.00     0.198 A 
ATOM     43  F   UNL A   1      48.135  27.607  24.278  1.00  0.00    -0.203 F 
ATOM     44  F   UNL A   1      51.981  25.509  27.540  1.00  0.00    -0.200 F 
ATOM     45  C   UNL A   1      51.237  26.073  25.372  1.00  0.00     0.200 A 
ATOM     46  F   UNL A   1      50.427  26.609  23.221  1.00  0.00    -0.200 F 
ATOM     47  F   UNL A   1      52.344  25.540  24.838  1.00  0.00    -0.200 F 
ENDBRANCH  23  37
BRANCH  24  48
ATOM     48  C   UNL A   1      39.595  28.948  29.586  1.00  0.00     0.064 A 
ATOM     49  C   UNL A   1      38.616  29.459  28.728  1.00  0.00     0.173 A 
ATOM     50  C   UNL A   1      39.218  28.639  30.904  1.00  0.00     0.173 A 
ATOM     51  F   UNL A   1      38.934  29.782  27.466  1.00  0.00    -0.203 F 
ATOM     52  C   UNL A   1      37.309  29.657  29.171  1.00  0.00     0.198 A 
ATOM     53  C   UNL A   1      37.906  28.809  31.336  1.00  0.00     0.198 A 
ATOM     54  F   UNL A   1      40.120  28.144  31.764  1.00  0.00    -0.203 F 
ATOM     55  F   UNL A   1      36.396  30.175  28.339  1.00  0.00    -0.200 F 
ATOM     56  C   UNL A   1      36.954  29.323  30.470  1.00  0.00     0.200 A 
ATOM     57  F   UNL A   1      37.565  28.465  32.585  1.00  0.00    -0.200 F 
ATOM     58  F   UNL A   1      35.694  29.499  30.889  1.00  0.00    -0.200 F 
ENDBRANCH  24  48
BRANCH  36  59
ATOM     59  C   UNL A   1      45.446  32.746  29.318  1.00  0.00     0.064 A 
ATOM     60  C   UNL A   1      46.022  33.034  30.562  1.00  0.00     0.173 A 
ATOM     61  C   UNL A   1      45.202  33.814  28.440  1.00  0.00     0.173 A 
ATOM     62  F   UNL A   1      46.262  32.047  31.440  1.00  0.00    -0.203 F 
ATOM     63  C   UNL A   1      46.313  34.345  30.928  1.00  0.00     0.198 A 
ATOM     64  C   UNL A   1      45.527  35.119  28.795  1.00  0.00     0.198 A 
ATOM     65  F   UNL A   1      44.661  33.590  27.234  1.00  0.00    -0.203 F 
ATOM     66  F   UNL A   1      46.810  34.603  32.145  1.00  0.00    -0.200 F 
ATOM     67  C   UNL A   1      46.074  35.384  30.041  1.00  0.00     0.200 A 
ATOM     68  F   UNL A   1      45.310  36.120  27.931  1.00  0.00    -0.200 F 
ATOM     69  F   UNL A   1      46.360  36.645  30.393  1.00  0.00    -0.200 F 
ENDBRANCH  36  59
ENDBRANCH  10  11
ENDBRANCH   3   5
ENDBRANCH   2   3
ENDBRANCH   1   2
BRANCH   1  70
ATOM     70  C   UNL A   1      38.542  21.228  25.683  1.00  0.00     0.275 C 
BRANCH  70  71
ATOM     71  O   UNL A   1      37.790  21.929  24.685  1.00  0.00    -0.458 OA
BRANCH  71  72
ATOM     72  C   UNL A   1      37.034  22.960  25.145  1.00  0.00     0.343 C 
ATOM     73  O   UNL A   1      37.448  23.911  25.797  1.00  0.00    -0.246 OA
BRANCH  72  74
ATOM     74  C   UNL A   1      35.667  22.886  24.603  1.00  0.00     0.125 A 
ATOM     75  C   UNL A   1      35.380  23.702  23.573  1.00  0.00     0.023 A 
ATOM     76  C   UNL A   1      34.637  21.929  25.095  1.00  0.00     0.265 A 
ATOM     77  C   UNL A   1      34.099  23.648  22.917  1.00  0.00     0.019 A 
ATOM     78  N   UNL A   1      33.396  21.974  24.437  1.00  0.00    -0.310 N 
ATOM     79  O   UNL A   1      34.886  21.174  26.033  1.00  0.00    -0.268 OA
ATOM     80  C   UNL A   1      33.159  22.810  23.362  1.00  0.00     0.089 A 
BRANCH  78  81
ATOM     81  C   UNL A   1      32.308  21.125  24.912  1.00  0.00     0.161 C 
BRANCH  81  82
ATOM     82  C   UNL A   1      32.530  19.667  24.589  1.00  0.00    -0.024 A 
ATOM     83  C   UNL A   1      32.537  19.223  23.249  1.00  0.00     0.010 A 
ATOM     84  C   UNL A   1      32.752  18.750  25.630  1.00  0.00     0.056 A 
ATOM     85  C   UNL A   1      32.774  17.879  22.941  1.00  0.00     0.051 A 
ATOM     86  C   UNL A   1      32.994  17.438  25.297  1.00  0.00     0.173 A 
ATOM     87  C   UNL A   1      33.007  17.014  23.988  1.00  0.00     0.172 A 
ATOM     88  O   UNL A   1      33.270  16.440  26.175  1.00  0.00    -0.395 OA
ATOM     89  O   UNL A   1      33.299  15.689  23.879  1.00  0.00    -0.395 OA
ATOM     90  C   UNL A   1      33.605  15.398  25.250  1.00  0.00     0.586 C 
ATOM     91  F   UNL A   1      34.936  15.158  25.355  1.00  0.00    -0.125 F 
ATOM     92  F   UNL A   1      32.955  14.267  25.614  1.00  0.00    -0.125 F 
ENDBRANCH  81  82
ENDBRANCH  78  81
ENDBRANCH  72  74
ENDBRANCH  71  72
ENDBRANCH  70  71
ENDBRANCH   1  70
TORSDOF 13
ENDMDL
