MODEL 1
REMARK VINA RESULT:     -13.2      0.000      0.000
REMARK SMILES O=C(CCc1cn(-c2ccc(Br)cc2)nc1-c1ccccc1)OCCOC(=O)c1ccc(-c2c3nc(c(-c4c(F)c(F)c(F)c(F)c4F)c4ccc([nH]4)c(-c4c(F)c(F)c(F)c(F)c4F)c4nc(c(-c5c(F)c(F)c(F)c(F)c5F)c5ccc2[nH]5)C=C4)C=C3)cc1
REMARK SMILES IDX 24 1 23 2 2 3 1 4 3 5 4 6 5 7 6 8 16 9 7 10 15 11 17 12
REMARK SMILES IDX 18 13 22 14 19 15 21 16 20 17 8 18 9 19 14 20 10 21 13 22
REMARK SMILES IDX 11 23 12 24 25 25 26 26 27 27 28 28 29 29 30 30 91 31 31 32
REMARK SMILES IDX 90 33 32 34 33 35 34 36 84 37 35 38 89 39 83 40 85 41 36 42
REMARK SMILES IDX 88 43 82 44 81 45 37 47 69 48 49 49 68 50 50 51 53 52 67 53
REMARK SMILES IDX 86 54 51 55 52 56 66 58 87 59 54 60 38 61 39 62 47 63 40 64
REMARK SMILES IDX 41 65 45 66 48 67 42 68 43 69 46 70 44 71 70 72 71 73 79 74
REMARK SMILES IDX 72 75 73 76 77 77 80 78 74 79 75 80 78 81 76 82 55 83 56 84
REMARK SMILES IDX 64 85 57 86 58 87 62 88 65 89 59 90 60 91 63 92 61 93
REMARK H PARENT 85 46 53 57
REMARK Flexibility Score: inf
ROOT
ATOM      1  C   UNL A   1      41.695  20.306  27.031  1.00  0.00     0.274 C 
ENDROOT
BRANCH   1   2
ATOM      2  O   UNL A   1      40.738  20.927  26.148  1.00  0.00    -0.462 OA
BRANCH   2   3
ATOM      3  C   UNL A   1      39.543  20.414  25.765  1.00  0.00     0.306 C 
ATOM      4  O   UNL A   1      39.457  19.225  25.462  1.00  0.00    -0.252 OA
BRANCH   3   5
ATOM      5  C   UNL A   1      38.326  21.310  25.652  1.00  0.00     0.127 C 
BRANCH   5   6
ATOM      6  C   UNL A   1      37.191  20.698  24.843  1.00  0.00     0.051 C 
BRANCH   6   7
ATOM      7  C   UNL A   1      35.877  21.271  25.250  1.00  0.00    -0.001 A 
ATOM      8  C   UNL A   1      35.704  22.566  25.686  1.00  0.00     0.119 A 
ATOM      9  C   UNL A   1      34.545  20.756  25.108  1.00  0.00     0.096 A 
ATOM     10  N   UNL A   1      34.359  22.797  25.733  1.00  0.00    -0.240 N 
ATOM     11  N   UNL A   1      33.641  21.676  25.491  1.00  0.00    -0.168 NA
BRANCH   9  12
ATOM     12  C   UNL A   1      34.116  19.480  24.525  1.00  0.00     0.002 A 
ATOM     13  C   UNL A   1      34.950  18.350  24.597  1.00  0.00     0.010 A 
ATOM     14  C   UNL A   1      32.870  19.354  23.902  1.00  0.00     0.010 A 
ATOM     15  C   UNL A   1      34.544  17.123  24.059  1.00  0.00     0.001 A 
ATOM     16  C   UNL A   1      32.466  18.128  23.359  1.00  0.00     0.001 A 
ATOM     17  C   UNL A   1      33.300  17.013  23.439  1.00  0.00     0.000 A 
ENDBRANCH   9  12
BRANCH  10  18
ATOM     18  C   UNL A   1      33.748  24.063  25.850  1.00  0.00     0.065 A 
ATOM     19  C   UNL A   1      34.469  25.218  25.509  1.00  0.00     0.029 A 
ATOM     20  C   UNL A   1      32.440  24.155  26.327  1.00  0.00     0.029 A 
ATOM     21  C   UNL A   1      33.874  26.472  25.643  1.00  0.00     0.018 A 
ATOM     22  C   UNL A   1      31.877  25.418  26.530  1.00  0.00     0.018 A 
ATOM     23  C   UNL A   1      32.592  26.567  26.180  1.00  0.00     0.018 A 
ATOM     24  Br  UNL A   1      31.823  28.271  26.454  1.00  0.00    -0.051 Br
ENDBRANCH  10  18
ENDBRANCH   6   7
ENDBRANCH   5   6
ENDBRANCH   3   5
ENDBRANCH   2   3
ENDBRANCH   1   2
BRANCH   1  25
ATOM     25  C   UNL A   1      42.712  19.421  26.343  1.00  0.00     0.275 C 
BRANCH  25  26
ATOM     26  O   UNL A   1      43.015  19.957  25.067  1.00  0.00    -0.458 OA
BRANCH  26  27
ATOM     27  C   UNL A   1      44.331  20.041  24.750  1.00  0.00     0.338 C 
ATOM     28  O   UNL A   1      45.107  19.143  24.545  1.00  0.00    -0.246 OA
BRANCH  27  29
ATOM     29  C   UNL A   1      44.675  21.466  24.858  1.00  0.00     0.060 A 
ATOM     30  C   UNL A   1      45.646  21.790  25.799  1.00  0.00     0.016 A 
ATOM     31  C   UNL A   1      43.797  22.420  24.323  1.00  0.00     0.016 A 
ATOM     32  C   UNL A   1      45.517  22.997  26.443  1.00  0.00     0.010 A 
ATOM     33  C   UNL A   1      43.635  23.596  24.996  1.00  0.00     0.010 A 
ATOM     34  C   UNL A   1      44.430  23.814  26.112  1.00  0.00    -0.014 A 
BRANCH  34  35
ATOM     35  C   UNL A   1      44.200  25.007  26.885  1.00  0.00     0.031 A 
ATOM     36  C   UNL A   1      45.270  25.993  26.653  1.00  0.00     0.074 A 
ATOM     37  C   UNL A   1      43.091  25.188  27.626  1.00  0.00     0.049 A 
ATOM     38  N   UNL A   1      46.250  26.265  27.446  1.00  0.00    -0.248 NA
ATOM     39  C   UNL A   1      45.425  26.539  25.293  1.00  0.00     0.031 C 
ATOM     40  C   UNL A   1      41.883  24.363  27.685  1.00  0.00     0.029 A 
ATOM     41  N   UNL A   1      42.791  26.230  28.447  1.00  0.00    -0.354 N 
ATOM     42  C   UNL A   1      47.002  27.215  26.769  1.00  0.00     0.074 A 
ATOM     43  C   UNL A   1      46.616  27.130  25.390  1.00  0.00     0.031 C 
ATOM     44  C   UNL A   1      40.903  25.049  28.322  1.00  0.00     0.029 A 
ATOM     45  C   UNL A   1      41.452  26.295  28.828  1.00  0.00     0.049 A 
ATOM     46  H   UNL A   1      43.462  26.884  28.748  1.00  0.00     0.167 HD
ATOM     47  C   UNL A   1      47.595  28.222  27.465  1.00  0.00     0.037 A 
ATOM     48  C   UNL A   1      40.865  27.356  29.443  1.00  0.00     0.037 A 
ATOM     49  C   UNL A   1      47.714  27.869  28.862  1.00  0.00     0.049 A 
ATOM     50  C   UNL A   1      41.958  28.164  30.052  1.00  0.00     0.074 A 
ATOM     51  C   UNL A   1      48.327  26.841  29.553  1.00  0.00     0.029 A 
ATOM     52  N   UNL A   1      46.796  28.408  29.731  1.00  0.00    -0.354 N 
ATOM     53  N   UNL A   1      42.686  27.747  31.052  1.00  0.00    -0.248 NA
ATOM     54  C   UNL A   1      42.564  29.197  29.225  1.00  0.00     0.031 C 
ATOM     55  C   UNL A   1      47.432  26.520  30.617  1.00  0.00     0.029 A 
ATOM     56  C   UNL A   1      46.365  27.419  30.574  1.00  0.00     0.049 A 
ATOM     57  H   UNL A   1      46.500  29.347  29.745  1.00  0.00     0.167 HD
ATOM     58  C   UNL A   1      43.981  28.124  30.724  1.00  0.00     0.074 A 
ATOM     59  C   UNL A   1      43.836  29.068  29.618  1.00  0.00     0.031 C 
ATOM     60  C   UNL A   1      45.052  27.405  31.173  1.00  0.00     0.037 A 
BRANCH  47  61
ATOM     61  C   UNL A   1      47.616  29.658  26.987  1.00  0.00     0.064 A 
ATOM     62  C   UNL A   1      48.810  30.389  27.139  1.00  0.00     0.173 A 
ATOM     63  C   UNL A   1      46.471  30.432  26.686  1.00  0.00     0.173 A 
ATOM     64  F   UNL A   1      49.960  29.763  27.431  1.00  0.00    -0.203 F 
ATOM     65  C   UNL A   1      48.830  31.785  27.103  1.00  0.00     0.198 A 
ATOM     66  C   UNL A   1      46.506  31.821  26.599  1.00  0.00     0.198 A 
ATOM     67  F   UNL A   1      45.245  29.911  26.569  1.00  0.00    -0.203 F 
ATOM     68  F   UNL A   1      49.962  32.438  27.397  1.00  0.00    -0.200 F 
ATOM     69  C   UNL A   1      47.676  32.500  26.845  1.00  0.00     0.200 A 
ATOM     70  F   UNL A   1      45.369  32.492  26.363  1.00  0.00    -0.200 F 
ATOM     71  F   UNL A   1      47.678  33.838  26.880  1.00  0.00    -0.200 F 
ENDBRANCH  47  61
BRANCH  48  72
ATOM     72  C   UNL A   1      39.505  27.913  29.233  1.00  0.00     0.064 A 
ATOM     73  C   UNL A   1      38.612  28.075  30.308  1.00  0.00     0.173 A 
ATOM     74  C   UNL A   1      39.161  28.570  28.036  1.00  0.00     0.173 A 
ATOM     75  F   UNL A   1      38.886  27.526  31.500  1.00  0.00    -0.203 F 
ATOM     76  C   UNL A   1      37.463  28.868  30.198  1.00  0.00     0.198 A 
ATOM     77  C   UNL A   1      38.013  29.357  27.926  1.00  0.00     0.198 A 
ATOM     78  F   UNL A   1      39.985  28.546  26.978  1.00  0.00    -0.203 F 
ATOM     79  F   UNL A   1      36.670  29.050  31.263  1.00  0.00    -0.200 F 
ATOM     80  C   UNL A   1      37.171  29.517  29.010  1.00  0.00     0.200 A 
ATOM     81  F   UNL A   1      37.766  30.014  26.784  1.00  0.00    -0.200 F 
ATOM     82  F   UNL A   1      36.107  30.328  28.923  1.00  0.00    -0.200 F 
ENDBRANCH  48  72
BRANCH  60  83
ATOM     83  C   UNL A   1      44.803  26.375  32.240  1.00  0.00     0.064 A 
ATOM     84  C   UNL A   1      44.486  25.028  31.988  1.00  0.00     0.173 A 
ATOM     85  C   UNL A   1      45.036  26.743  33.572  1.00  0.00     0.173 A 
ATOM     86  F   UNL A   1      44.345  24.576  30.735  1.00  0.00    -0.203 F 
ATOM     87  C   UNL A   1      44.365  24.107  33.030  1.00  0.00     0.198 A 
ATOM     88  C   UNL A   1      44.952  25.814  34.605  1.00  0.00     0.198 A 
ATOM     89  F   UNL A   1      45.395  28.003  33.867  1.00  0.00    -0.203 F 
ATOM     90  F   UNL A   1      44.049  22.830  32.766  1.00  0.00    -0.200 F 
ATOM     91  C   UNL A   1      44.605  24.501  34.335  1.00  0.00     0.200 A 
ATOM     92  F   UNL A   1      45.235  26.190  35.860  1.00  0.00    -0.200 F 
ATOM     93  F   UNL A   1      44.530  23.608  35.333  1.00  0.00    -0.200 F 
ENDBRANCH  60  83
ENDBRANCH  34  35
ENDBRANCH  27  29
ENDBRANCH  26  27
ENDBRANCH  25  26
ENDBRANCH   1  25
TORSDOF 15
ENDMDL
MODEL 2
REMARK VINA RESULT:     -12.9      4.163      7.347
REMARK SMILES O=C(CCc1cn(-c2ccc(Br)cc2)nc1-c1ccccc1)OCCOC(=O)c1ccc(-c2c3nc(c(-c4c(F)c(F)c(F)c(F)c4F)c4ccc([nH]4)c(-c4c(F)c(F)c(F)c(F)c4F)c4nc(c(-c5c(F)c(F)c(F)c(F)c5F)c5ccc2[nH]5)C=C4)C=C3)cc1
REMARK SMILES IDX 24 1 23 2 2 3 1 4 3 5 4 6 5 7 6 8 16 9 7 10 15 11 17 12
REMARK SMILES IDX 18 13 22 14 19 15 21 16 20 17 8 18 9 19 14 20 10 21 13 22
REMARK SMILES IDX 11 23 12 24 25 25 26 26 27 27 28 28 29 29 30 30 91 31 31 32
REMARK SMILES IDX 90 33 32 34 33 35 34 36 84 37 35 38 89 39 83 40 85 41 36 42
REMARK SMILES IDX 88 43 82 44 81 45 37 47 69 48 49 49 68 50 50 51 53 52 67 53
REMARK SMILES IDX 86 54 51 55 52 56 66 58 87 59 54 60 38 61 39 62 47 63 40 64
REMARK SMILES IDX 41 65 45 66 48 67 42 68 43 69 46 70 44 71 70 72 71 73 79 74
REMARK SMILES IDX 72 75 73 76 77 77 80 78 74 79 75 80 78 81 76 82 55 83 56 84
REMARK SMILES IDX 64 85 57 86 58 87 62 88 65 89 59 90 60 91 63 92 61 93
REMARK H PARENT 85 46 53 57
REMARK Flexibility Score: inf
ROOT
ATOM      1  C   UNL A   1      42.252  20.585  26.615  1.00  0.00     0.274 C 
ENDROOT
BRANCH   1   2
ATOM      2  O   UNL A   1      43.009  20.703  25.393  1.00  0.00    -0.462 OA
BRANCH   2   3
ATOM      3  C   UNL A   1      43.922  21.661  25.098  1.00  0.00     0.306 C 
ATOM      4  O   UNL A   1      44.733  21.475  24.192  1.00  0.00    -0.252 OA
BRANCH   3   5
ATOM      5  C   UNL A   1      43.986  22.934  25.917  1.00  0.00     0.127 C 
BRANCH   5   6
ATOM      6  C   UNL A   1      45.137  22.961  26.913  1.00  0.00     0.051 C 
BRANCH   6   7
ATOM      7  C   UNL A   1      44.832  23.868  28.056  1.00  0.00    -0.001 A 
ATOM      8  C   UNL A   1      44.497  23.429  29.318  1.00  0.00     0.119 A 
ATOM      9  C   UNL A   1      44.997  25.286  28.198  1.00  0.00     0.096 A 
ATOM     10  N   UNL A   1      44.528  24.518  30.142  1.00  0.00    -0.240 N 
ATOM     11  N   UNL A   1      44.722  25.669  29.458  1.00  0.00    -0.168 NA
BRANCH   9  12
ATOM     12  C   UNL A   1      45.506  26.250  27.215  1.00  0.00     0.002 A 
ATOM     13  C   UNL A   1      46.572  27.104  27.545  1.00  0.00     0.010 A 
ATOM     14  C   UNL A   1      44.957  26.330  25.931  1.00  0.00     0.010 A 
ATOM     15  C   UNL A   1      47.078  28.015  26.610  1.00  0.00     0.001 A 
ATOM     16  C   UNL A   1      45.459  27.245  24.997  1.00  0.00     0.001 A 
ATOM     17  C   UNL A   1      46.520  28.085  25.335  1.00  0.00     0.000 A 
ENDBRANCH   9  12
BRANCH  10  18
ATOM     18  C   UNL A   1      44.530  24.480  31.552  1.00  0.00     0.065 A 
ATOM     19  C   UNL A   1      44.095  23.322  32.217  1.00  0.00     0.029 A 
ATOM     20  C   UNL A   1      44.941  25.602  32.271  1.00  0.00     0.029 A 
ATOM     21  C   UNL A   1      44.076  23.289  33.611  1.00  0.00     0.018 A 
ATOM     22  C   UNL A   1      44.849  25.588  33.665  1.00  0.00     0.018 A 
ATOM     23  C   UNL A   1      44.426  24.432  34.328  1.00  0.00     0.018 A 
ATOM     24  Br  UNL A   1      44.307  24.419  36.213  1.00  0.00    -0.051 Br
ENDBRANCH  10  18
ENDBRANCH   6   7
ENDBRANCH   5   6
ENDBRANCH   3   5
ENDBRANCH   2   3
ENDBRANCH   1   2
BRANCH   1  25
ATOM     25  C   UNL A   1      40.764  20.828  26.466  1.00  0.00     0.275 C 
BRANCH  25  26
ATOM     26  O   UNL A   1      40.370  21.877  27.332  1.00  0.00    -0.458 OA
BRANCH  26  27
ATOM     27  C   UNL A   1      39.673  22.893  26.764  1.00  0.00     0.338 C 
ATOM     28  O   UNL A   1      38.654  22.832  26.126  1.00  0.00    -0.246 OA
BRANCH  27  29
ATOM     29  C   UNL A   1      40.501  24.094  26.951  1.00  0.00     0.060 A 
ATOM     30  C   UNL A   1      41.207  24.168  28.146  1.00  0.00     0.016 A 
ATOM     31  C   UNL A   1      40.261  25.218  26.147  1.00  0.00     0.016 A 
ATOM     32  C   UNL A   1      41.382  25.416  28.694  1.00  0.00     0.010 A 
ATOM     33  C   UNL A   1      40.386  26.453  26.712  1.00  0.00     0.010 A 
ATOM     34  C   UNL A   1      40.847  26.519  28.020  1.00  0.00    -0.014 A 
BRANCH  34  35
ATOM     35  C   UNL A   1      40.891  27.810  28.658  1.00  0.00     0.031 A 
ATOM     36  C   UNL A   1      41.999  28.619  28.121  1.00  0.00     0.074 A 
ATOM     37  C   UNL A   1      39.964  28.211  29.546  1.00  0.00     0.049 A 
ATOM     38  N   UNL A   1      43.131  28.849  28.693  1.00  0.00    -0.248 NA
ATOM     39  C   UNL A   1      41.957  28.988  26.695  1.00  0.00     0.031 C 
ATOM     40  C   UNL A   1      38.706  27.559  29.918  1.00  0.00     0.029 A 
ATOM     41  N   UNL A   1      39.932  29.367  30.264  1.00  0.00    -0.354 N 
ATOM     42  C   UNL A   1      43.842  29.615  27.781  1.00  0.00     0.074 A 
ATOM     43  C   UNL A   1      43.202  29.429  26.510  1.00  0.00     0.031 C 
ATOM     44  C   UNL A   1      37.939  28.429  30.617  1.00  0.00     0.029 A 
ATOM     45  C   UNL A   1      38.701  29.643  30.855  1.00  0.00     0.049 A 
ATOM     46  H   UNL A   1      40.713  29.958  30.358  1.00  0.00     0.167 HD
ATOM     47  C   UNL A   1      44.657  30.608  28.227  1.00  0.00     0.037 A 
ATOM     48  C   UNL A   1      38.354  30.831  31.417  1.00  0.00     0.037 A 
ATOM     49  C   UNL A   1      44.993  30.398  29.618  1.00  0.00     0.049 A 
ATOM     50  C   UNL A   1      39.620  31.555  31.721  1.00  0.00     0.074 A 
ATOM     51  C   UNL A   1      45.610  29.381  30.323  1.00  0.00     0.029 A 
ATOM     52  N   UNL A   1      44.314  31.142  30.552  1.00  0.00    -0.354 N 
ATOM     53  N   UNL A   1      40.471  31.161  32.627  1.00  0.00    -0.248 NA
ATOM     54  C   UNL A   1      40.170  32.405  30.675  1.00  0.00     0.031 C 
ATOM     55  C   UNL A   1      44.898  29.297  31.557  1.00  0.00     0.029 A 
ATOM     56  C   UNL A   1      43.943  30.314  31.578  1.00  0.00     0.049 A 
ATOM     57  H   UNL A   1      44.126  32.106  30.493  1.00  0.00     0.167 HD
ATOM     58  C   UNL A   1      41.716  31.331  32.038  1.00  0.00     0.074 A 
ATOM     59  C   UNL A   1      41.470  32.158  30.859  1.00  0.00     0.031 C 
ATOM     60  C   UNL A   1      42.768  30.534  32.388  1.00  0.00     0.037 A 
BRANCH  47  61
ATOM     61  C   UNL A   1      44.742  31.968  27.570  1.00  0.00     0.064 A 
ATOM     62  C   UNL A   1      45.893  32.268  26.817  1.00  0.00     0.173 A 
ATOM     63  C   UNL A   1      43.924  33.078  27.887  1.00  0.00     0.173 A 
ATOM     64  F   UNL A   1      46.747  31.297  26.459  1.00  0.00    -0.203 F 
ATOM     65  C   UNL A   1      46.250  33.582  26.506  1.00  0.00     0.198 A 
ATOM     66  C   UNL A   1      44.257  34.381  27.530  1.00  0.00     0.198 A 
ATOM     67  F   UNL A   1      42.828  32.985  28.646  1.00  0.00    -0.203 F 
ATOM     68  F   UNL A   1      47.427  33.826  25.915  1.00  0.00    -0.200 F 
ATOM     69  C   UNL A   1      45.438  34.639  26.874  1.00  0.00     0.200 A 
ATOM     70  F   UNL A   1      43.461  35.390  27.913  1.00  0.00    -0.200 F 
ATOM     71  F   UNL A   1      45.811  35.902  26.640  1.00  0.00    -0.200 F 
ENDBRANCH  47  61
BRANCH  48  72
ATOM     72  C   UNL A   1      37.045  31.531  31.370  1.00  0.00     0.064 A 
ATOM     73  C   UNL A   1      36.391  31.929  32.550  1.00  0.00     0.173 A 
ATOM     74  C   UNL A   1      36.555  32.086  30.171  1.00  0.00     0.173 A 
ATOM     75  F   UNL A   1      36.823  31.489  33.741  1.00  0.00    -0.203 F 
ATOM     76  C   UNL A   1      35.332  32.846  32.533  1.00  0.00     0.198 A 
ATOM     77  C   UNL A   1      35.497  32.997  30.155  1.00  0.00     0.198 A 
ATOM     78  F   UNL A   1      37.159  31.835  29.001  1.00  0.00    -0.203 F 
ATOM     79  F   UNL A   1      34.776  33.250  33.684  1.00  0.00    -0.200 F 
ATOM     80  C   UNL A   1      34.894  33.387  31.336  1.00  0.00     0.200 A 
ATOM     81  F   UNL A   1      35.111  33.545  28.994  1.00  0.00    -0.200 F 
ATOM     82  F   UNL A   1      33.925  34.313  31.323  1.00  0.00    -0.200 F 
ENDBRANCH  48  72
BRANCH  60  83
ATOM     83  C   UNL A   1      42.613  29.667  33.608  1.00  0.00     0.064 A 
ATOM     84  C   UNL A   1      42.071  28.369  33.598  1.00  0.00     0.173 A 
ATOM     85  C   UNL A   1      43.167  30.124  34.811  1.00  0.00     0.173 A 
ATOM     86  F   UNL A   1      41.610  27.823  32.465  1.00  0.00    -0.203 F 
ATOM     87  C   UNL A   1      42.048  27.588  34.753  1.00  0.00     0.198 A 
ATOM     88  C   UNL A   1      43.177  29.328  35.951  1.00  0.00     0.198 A 
ATOM     89  F   UNL A   1      43.746  31.335  34.865  1.00  0.00    -0.203 F 
ATOM     90  F   UNL A   1      41.515  26.357  34.723  1.00  0.00    -0.200 F 
ATOM     91  C   UNL A   1      42.608  28.066  35.926  1.00  0.00     0.200 A 
ATOM     92  F   UNL A   1      43.765  29.777  37.069  1.00  0.00    -0.200 F 
ATOM     93  F   UNL A   1      42.624  27.300  37.026  1.00  0.00    -0.200 F 
ENDBRANCH  60  83
ENDBRANCH  34  35
ENDBRANCH  27  29
ENDBRANCH  26  27
ENDBRANCH  25  26
ENDBRANCH   1  25
TORSDOF 15
ENDMDL
MODEL 3
REMARK VINA RESULT:     -12.7      5.660     10.767
REMARK SMILES O=C(CCc1cn(-c2ccc(Br)cc2)nc1-c1ccccc1)OCCOC(=O)c1ccc(-c2c3nc(c(-c4c(F)c(F)c(F)c(F)c4F)c4ccc([nH]4)c(-c4c(F)c(F)c(F)c(F)c4F)c4nc(c(-c5c(F)c(F)c(F)c(F)c5F)c5ccc2[nH]5)C=C4)C=C3)cc1
REMARK SMILES IDX 24 1 23 2 2 3 1 4 3 5 4 6 5 7 6 8 16 9 7 10 15 11 17 12
REMARK SMILES IDX 18 13 22 14 19 15 21 16 20 17 8 18 9 19 14 20 10 21 13 22
REMARK SMILES IDX 11 23 12 24 25 25 26 26 27 27 28 28 29 29 30 30 91 31 31 32
REMARK SMILES IDX 90 33 32 34 33 35 34 36 84 37 35 38 89 39 83 40 85 41 36 42
REMARK SMILES IDX 88 43 82 44 81 45 37 47 69 48 49 49 68 50 50 51 53 52 67 53
REMARK SMILES IDX 86 54 51 55 52 56 66 58 87 59 54 60 38 61 39 62 47 63 40 64
REMARK SMILES IDX 41 65 45 66 48 67 42 68 43 69 46 70 44 71 70 72 71 73 79 74
REMARK SMILES IDX 72 75 73 76 77 77 80 78 74 79 75 80 78 81 76 82 55 83 56 84
REMARK SMILES IDX 64 85 57 86 58 87 62 88 65 89 59 90 60 91 63 92 61 93
REMARK H PARENT 85 46 53 57
REMARK Flexibility Score: inf
ROOT
ATOM      1  C   UNL A   1      34.368  34.459  28.577  1.00  0.00     0.274 C 
ENDROOT
BRANCH   1   2
ATOM      2  O   UNL A   1      33.855  33.111  28.523  1.00  0.00    -0.462 OA
BRANCH   2   3
ATOM      3  C   UNL A   1      32.949  32.627  27.638  1.00  0.00     0.306 C 
ATOM      4  O   UNL A   1      32.013  33.336  27.273  1.00  0.00    -0.252 OA
BRANCH   3   5
ATOM      5  C   UNL A   1      33.051  31.199  27.142  1.00  0.00     0.127 C 
BRANCH   5   6
ATOM      6  C   UNL A   1      31.767  30.679  26.512  1.00  0.00     0.051 C 
BRANCH   6   7
ATOM      7  C   UNL A   1      32.061  29.649  25.476  1.00  0.00    -0.001 A 
ATOM      8  C   UNL A   1      33.084  28.732  25.570  1.00  0.00     0.119 A 
ATOM      9  C   UNL A   1      31.309  29.235  24.326  1.00  0.00     0.096 A 
ATOM     10  N   UNL A   1      32.895  27.816  24.575  1.00  0.00    -0.240 N 
ATOM     11  N   UNL A   1      31.886  28.167  23.745  1.00  0.00    -0.168 NA
BRANCH   9  12
ATOM     12  C   UNL A   1      30.021  29.747  23.842  1.00  0.00     0.002 A 
ATOM     13  C   UNL A   1      29.675  31.095  24.038  1.00  0.00     0.010 A 
ATOM     14  C   UNL A   1      29.121  28.915  23.167  1.00  0.00     0.010 A 
ATOM     15  C   UNL A   1      28.458  31.600  23.565  1.00  0.00     0.001 A 
ATOM     16  C   UNL A   1      27.901  29.419  22.700  1.00  0.00     0.001 A 
ATOM     17  C   UNL A   1      27.570  30.759  22.897  1.00  0.00     0.000 A 
ENDBRANCH   9  12
BRANCH  10  18
ATOM     18  C   UNL A   1      33.536  26.563  24.482  1.00  0.00     0.065 A 
ATOM     19  C   UNL A   1      33.553  25.879  23.256  1.00  0.00     0.029 A 
ATOM     20  C   UNL A   1      34.126  26.005  25.616  1.00  0.00     0.029 A 
ATOM     21  C   UNL A   1      34.168  24.631  23.166  1.00  0.00     0.018 A 
ATOM     22  C   UNL A   1      34.674  24.723  25.537  1.00  0.00     0.018 A 
ATOM     23  C   UNL A   1      34.700  24.046  24.314  1.00  0.00     0.018 A 
ATOM     24  Br  UNL A   1      35.447  22.314  24.214  1.00  0.00    -0.051 Br
ENDBRANCH  10  18
ENDBRANCH   6   7
ENDBRANCH   5   6
ENDBRANCH   3   5
ENDBRANCH   2   3
ENDBRANCH   1   2
BRANCH   1  25
ATOM     25  C   UNL A   1      33.638  35.377  29.536  1.00  0.00     0.275 C 
BRANCH  25  26
ATOM     26  O   UNL A   1      33.216  34.635  30.666  1.00  0.00    -0.458 OA
BRANCH  26  27
ATOM     27  C   UNL A   1      33.428  35.213  31.875  1.00  0.00     0.338 C 
ATOM     28  O   UNL A   1      32.953  36.231  32.308  1.00  0.00    -0.246 OA
BRANCH  27  29
ATOM     29  C   UNL A   1      34.493  34.423  32.510  1.00  0.00     0.060 A 
ATOM     30  C   UNL A   1      35.670  35.105  32.797  1.00  0.00     0.016 A 
ATOM     31  C   UNL A   1      34.429  33.023  32.451  1.00  0.00     0.016 A 
ATOM     32  C   UNL A   1      36.844  34.399  32.698  1.00  0.00     0.010 A 
ATOM     33  C   UNL A   1      35.595  32.331  32.300  1.00  0.00     0.010 A 
ATOM     34  C   UNL A   1      36.780  33.053  32.321  1.00  0.00    -0.014 A 
BRANCH  34  35
ATOM     35  C   UNL A   1      38.009  32.345  32.066  1.00  0.00     0.031 A 
ATOM     36  C   UNL A   1      38.782  32.179  33.310  1.00  0.00     0.074 A 
ATOM     37  C   UNL A   1      38.316  31.838  30.859  1.00  0.00     0.049 A 
ATOM     38  N   UNL A   1      39.823  32.853  33.663  1.00  0.00    -0.248 NA
ATOM     39  C   UNL A   1      38.188  31.374  34.391  1.00  0.00     0.031 C 
ATOM     40  C   UNL A   1      37.476  31.743  29.663  1.00  0.00     0.029 A 
ATOM     41  N   UNL A   1      39.464  31.216  30.476  1.00  0.00    -0.354 N 
ATOM     42  C   UNL A   1      40.156  32.361  34.918  1.00  0.00     0.074 A 
ATOM     43  C   UNL A   1      38.990  31.685  35.410  1.00  0.00     0.031 C 
ATOM     44  C   UNL A   1      38.061  30.910  28.769  1.00  0.00     0.029 A 
ATOM     45  C   UNL A   1      39.369  30.523  29.270  1.00  0.00     0.049 A 
ATOM     46  H   UNL A   1      40.293  31.251  31.006  1.00  0.00     0.167 HD
ATOM     47  C   UNL A   1      41.465  32.243  35.267  1.00  0.00     0.037 A 
ATOM     48  C   UNL A   1      40.292  29.643  28.800  1.00  0.00     0.037 A 
ATOM     49  C   UNL A   1      42.289  33.085  34.428  1.00  0.00     0.049 A 
ATOM     50  C   UNL A   1      41.568  29.930  29.513  1.00  0.00     0.074 A 
ATOM     51  C   UNL A   1      42.336  34.440  34.163  1.00  0.00     0.029 A 
ATOM     52  N   UNL A   1      42.970  32.479  33.400  1.00  0.00    -0.354 N 
ATOM     53  N   UNL A   1      42.253  31.028  29.343  1.00  0.00    -0.248 NA
ATOM     54  C   UNL A   1      41.799  29.237  30.772  1.00  0.00     0.031 C 
ATOM     55  C   UNL A   1      42.630  34.539  32.770  1.00  0.00     0.029 A 
ATOM     56  C   UNL A   1      42.831  33.249  32.276  1.00  0.00     0.049 A 
ATOM     57  H   UNL A   1      43.472  31.635  33.461  1.00  0.00     0.167 HD
ATOM     58  C   UNL A   1      42.647  31.396  30.622  1.00  0.00     0.074 A 
ATOM     59  C   UNL A   1      42.391  30.223  31.454  1.00  0.00     0.031 C 
ATOM     60  C   UNL A   1      42.851  32.709  30.938  1.00  0.00     0.037 A 
BRANCH  47  61
ATOM     61  C   UNL A   1      42.019  31.046  36.008  1.00  0.00     0.064 A 
ATOM     62  C   UNL A   1      42.955  31.278  37.034  1.00  0.00     0.173 A 
ATOM     63  C   UNL A   1      41.924  29.704  35.571  1.00  0.00     0.173 A 
ATOM     64  F   UNL A   1      43.136  32.512  37.526  1.00  0.00    -0.203 F 
ATOM     65  C   UNL A   1      43.802  30.271  37.502  1.00  0.00     0.198 A 
ATOM     66  C   UNL A   1      42.735  28.692  36.078  1.00  0.00     0.198 A 
ATOM     67  F   UNL A   1      41.134  29.315  34.566  1.00  0.00    -0.203 F 
ATOM     68  F   UNL A   1      44.772  30.574  38.374  1.00  0.00    -0.200 F 
ATOM     69  C   UNL A   1      43.699  28.981  37.015  1.00  0.00     0.200 A 
ATOM     70  F   UNL A   1      42.627  27.452  35.577  1.00  0.00    -0.200 F 
ATOM     71  F   UNL A   1      44.555  28.031  37.408  1.00  0.00    -0.200 F 
ENDBRANCH  47  61
BRANCH  48  72
ATOM     72  C   UNL A   1      40.070  28.365  28.078  1.00  0.00     0.064 A 
ATOM     73  C   UNL A   1      40.740  28.085  26.873  1.00  0.00     0.173 A 
ATOM     74  C   UNL A   1      39.430  27.275  28.700  1.00  0.00     0.173 A 
ATOM     75  F   UNL A   1      41.419  29.053  26.240  1.00  0.00    -0.203 F 
ATOM     76  C   UNL A   1      40.790  26.791  26.341  1.00  0.00     0.198 A 
ATOM     77  C   UNL A   1      39.477  25.986  28.166  1.00  0.00     0.198 A 
ATOM     78  F   UNL A   1      38.832  27.418  29.891  1.00  0.00    -0.203 F 
ATOM     79  F   UNL A   1      41.493  26.551  25.225  1.00  0.00    -0.200 F 
ATOM     80  C   UNL A   1      40.167  25.741  26.994  1.00  0.00     0.200 A 
ATOM     81  F   UNL A   1      38.905  24.972  28.831  1.00  0.00    -0.200 F 
ATOM     82  F   UNL A   1      40.268  24.491  26.521  1.00  0.00    -0.200 F 
ENDBRANCH  48  72
BRANCH  60  83
ATOM     83  C   UNL A   1      42.905  33.699  29.807  1.00  0.00     0.064 A 
ATOM     84  C   UNL A   1      41.802  34.441  29.345  1.00  0.00     0.173 A 
ATOM     85  C   UNL A   1      44.160  34.008  29.265  1.00  0.00     0.173 A 
ATOM     86  F   UNL A   1      40.586  34.274  29.881  1.00  0.00    -0.203 F 
ATOM     87  C   UNL A   1      41.949  35.413  28.355  1.00  0.00     0.198 A 
ATOM     88  C   UNL A   1      44.309  35.004  28.305  1.00  0.00     0.198 A 
ATOM     89  F   UNL A   1      45.256  33.370  29.707  1.00  0.00    -0.203 F 
ATOM     90  F   UNL A   1      40.881  36.098  27.921  1.00  0.00    -0.200 F 
ATOM     91  C   UNL A   1      43.204  35.698  27.842  1.00  0.00     0.200 A 
ATOM     92  F   UNL A   1      45.532  35.309  27.850  1.00  0.00    -0.200 F 
ATOM     93  F   UNL A   1      43.353  36.660  26.921  1.00  0.00    -0.200 F 
ENDBRANCH  60  83
ENDBRANCH  34  35
ENDBRANCH  27  29
ENDBRANCH  26  27
ENDBRANCH  25  26
ENDBRANCH   1  25
TORSDOF 15
ENDMDL
