MODEL 1
REMARK VINA RESULT:     -11.3      0.000      0.000
REMARK SMILES CC[C@](C)([NH3+])C(=O)N1CC[NH+]([C@H](C)C(=O)OCCOC(=O)c2ccc(-c3c4nc(c(-c5c(F)c(F)c(F)c(F)c5F)c5ccc([nH]5)c(-c5c(F)c(F)c(F)c(F)c5F)c5nc(c(-c6c(F)c(F)c(F)c(F)c6F)c6ccc3[nH]6)C=C5)C=C4)cc2)CC1
REMARK SMILES IDX 17 1 16 2 14 3 15 4 12 5 13 6 11 7 6 8 7 9 8 10 9 11 86 12
REMARK SMILES IDX 10 13 85 14 3 16 4 17 2 18 1 19 5 20 18 24 19 25 20 26 21 27
REMARK SMILES IDX 22 28 23 29 84 30 24 31 83 32 25 33 26 34 27 35 77 36 28 37
REMARK SMILES IDX 82 38 76 39 78 40 29 41 81 42 75 43 74 44 30 46 62 47 42 48
REMARK SMILES IDX 61 49 43 50 46 51 60 52 79 53 44 54 45 55 59 57 80 58 47 59
REMARK SMILES IDX 31 60 32 61 40 62 33 63 34 64 38 65 41 66 35 67 36 68 39 69
REMARK SMILES IDX 37 70 63 71 64 72 72 73 65 74 66 75 70 76 73 77 67 78 68 79
REMARK SMILES IDX 71 80 69 81 48 82 49 83 57 84 50 85 51 86 55 87 58 88 52 89
REMARK SMILES IDX 53 90 56 91 54 92
REMARK H PARENT 11 15 5 21 5 22 5 23 78 45 46 56
REMARK Flexibility Score: inf
ROOT
ATOM      1  C   UNL A   1      35.115  21.423  24.760  1.00  0.00     0.274 C 
ENDROOT
BRANCH   1   2
ATOM      2  O   UNL A   1      34.807  22.829  24.724  1.00  0.00    -0.458 OA
BRANCH   2   3
ATOM      3  C   UNL A   1      34.680  23.388  23.488  1.00  0.00     0.364 C 
ATOM      4  O   UNL A   1      35.487  23.242  22.575  1.00  0.00    -0.245 OA
BRANCH   3   5
ATOM      5  C   UNL A   1      33.398  24.231  23.351  1.00  0.00     0.292 C 
ATOM      6  C   UNL A   1      32.184  23.617  24.061  1.00  0.00     0.088 C 
BRANCH   5   7
ATOM      7  N   UNL A   1      33.685  25.654  23.658  1.00  0.00    -0.321 N 
ATOM      8  C   UNL A   1      31.682  29.177  24.081  1.00  0.00     0.283 C 
ATOM      9  O   UNL A   1      31.423  29.696  25.176  1.00  0.00    -0.268 OA
ATOM     10  N   UNL A   1      32.803  28.374  23.972  1.00  0.00    -0.326 N 
ATOM     11  C   UNL A   1      33.257  27.641  25.152  1.00  0.00     0.181 C 
ATOM     12  C   UNL A   1      33.565  28.017  22.783  1.00  0.00     0.181 C 
ATOM     13  C   UNL A   1      33.039  26.132  24.900  1.00  0.00     0.284 C 
ATOM     14  C   UNL A   1      33.413  26.518  22.486  1.00  0.00     0.284 C 
ATOM     15  H   UNL A   1      34.685  25.718  23.851  1.00  0.00     0.348 HD
BRANCH   8  16
ATOM     16  C   UNL A   1      30.595  29.222  22.944  1.00  0.00     0.171 C 
ATOM     17  C   UNL A   1      29.401  30.063  23.437  1.00  0.00     0.090 C 
BRANCH  16  18
ATOM     18  C   UNL A   1      30.135  27.781  22.597  1.00  0.00     0.075 C 
ATOM     19  C   UNL A   1      29.557  26.976  23.759  1.00  0.00     0.011 C 
ENDBRANCH  16  18
BRANCH  16  20
ATOM     20  N   UNL A   1      31.070  29.872  21.698  1.00  0.00    -0.345 N 
ATOM     21  H   UNL A   1      30.831  30.864  21.720  1.00  0.00     0.345 HD
ATOM     22  H   UNL A   1      30.622  29.433  20.893  1.00  0.00     0.345 HD
ATOM     23  H   UNL A   1      32.081  29.768  21.624  1.00  0.00     0.345 HD
ENDBRANCH  16  20
ENDBRANCH   8  16
ENDBRANCH   5   7
ENDBRANCH   3   5
ENDBRANCH   2   3
ENDBRANCH   1   2
BRANCH   1  24
ATOM     24  C   UNL A   1      36.627  21.176  24.776  1.00  0.00     0.275 C 
BRANCH  24  25
ATOM     25  O   UNL A   1      37.263  21.819  25.898  1.00  0.00    -0.458 OA
BRANCH  25  26
ATOM     26  C   UNL A   1      38.579  21.541  26.047  1.00  0.00     0.338 C 
ATOM     27  O   UNL A   1      39.162  20.524  25.715  1.00  0.00    -0.246 OA
BRANCH  26  28
ATOM     28  C   UNL A   1      39.292  22.731  26.538  1.00  0.00     0.060 A 
ATOM     29  C   UNL A   1      38.852  23.977  26.084  1.00  0.00     0.016 A 
ATOM     30  C   UNL A   1      40.415  22.635  27.359  1.00  0.00     0.016 A 
ATOM     31  C   UNL A   1      39.521  25.137  26.454  1.00  0.00     0.010 A 
ATOM     32  C   UNL A   1      41.096  23.804  27.724  1.00  0.00     0.010 A 
ATOM     33  C   UNL A   1      40.654  25.059  27.270  1.00  0.00    -0.014 A 
BRANCH  33  34
ATOM     34  C   UNL A   1      41.393  26.303  27.585  1.00  0.00     0.031 A 
ATOM     35  C   UNL A   1      40.733  27.380  28.393  1.00  0.00     0.074 A 
ATOM     36  C   UNL A   1      42.676  26.429  27.201  1.00  0.00     0.049 A 
ATOM     37  N   UNL A   1      41.200  28.548  28.755  1.00  0.00    -0.248 NA
ATOM     38  C   UNL A   1      39.367  27.104  28.863  1.00  0.00     0.031 C 
ATOM     39  C   UNL A   1      43.437  25.423  26.463  1.00  0.00     0.029 A 
ATOM     40  N   UNL A   1      43.568  27.454  27.392  1.00  0.00    -0.354 N 
ATOM     41  C   UNL A   1      40.182  29.154  29.478  1.00  0.00     0.074 A 
ATOM     42  C   UNL A   1      39.067  28.230  29.495  1.00  0.00     0.031 C 
ATOM     43  C   UNL A   1      44.686  25.877  26.267  1.00  0.00     0.029 A 
ATOM     44  C   UNL A   1      44.799  27.220  26.830  1.00  0.00     0.049 A 
ATOM     45  H   UNL A   1      43.347  28.278  27.882  1.00  0.00     0.167 HD
ATOM     46  C   UNL A   1      40.181  30.370  30.074  1.00  0.00     0.037 A 
ATOM     47  C   UNL A   1      45.886  28.011  26.761  1.00  0.00     0.037 A 
ATOM     48  C   UNL A   1      41.297  31.279  30.064  1.00  0.00     0.049 A 
ATOM     49  C   UNL A   1      45.840  29.377  27.388  1.00  0.00     0.074 A 
ATOM     50  C   UNL A   1      41.395  32.535  30.638  1.00  0.00     0.029 A 
ATOM     51  N   UNL A   1      42.514  31.027  29.447  1.00  0.00    -0.354 N 
ATOM     52  N   UNL A   1      44.867  29.949  28.054  1.00  0.00    -0.248 NA
ATOM     53  C   UNL A   1      47.044  30.208  27.250  1.00  0.00     0.031 C 
ATOM     54  C   UNL A   1      42.658  33.058  30.338  1.00  0.00     0.029 A 
ATOM     55  C   UNL A   1      43.363  32.111  29.612  1.00  0.00     0.049 A 
ATOM     56  H   UNL A   1      42.742  30.201  28.963  1.00  0.00     0.167 HD
ATOM     57  C   UNL A   1      45.342  31.201  28.423  1.00  0.00     0.074 A 
ATOM     58  C   UNL A   1      46.700  31.293  27.929  1.00  0.00     0.031 C 
ATOM     59  C   UNL A   1      44.709  32.187  29.105  1.00  0.00     0.037 A 
BRANCH  46  60
ATOM     60  C   UNL A   1      38.918  30.802  30.757  1.00  0.00     0.064 A 
ATOM     61  C   UNL A   1      37.845  31.356  30.044  1.00  0.00     0.173 A 
ATOM     62  C   UNL A   1      38.771  30.635  32.143  1.00  0.00     0.173 A 
ATOM     63  F   UNL A   1      37.944  31.552  28.720  1.00  0.00    -0.203 F 
ATOM     64  C   UNL A   1      36.679  31.746  30.696  1.00  0.00     0.198 A 
ATOM     65  C   UNL A   1      37.594  31.004  32.788  1.00  0.00     0.198 A 
ATOM     66  F   UNL A   1      39.767  30.109  32.870  1.00  0.00    -0.203 F 
ATOM     67  F   UNL A   1      35.681  32.311  30.001  1.00  0.00    -0.200 F 
ATOM     68  C   UNL A   1      36.551  31.564  32.065  1.00  0.00     0.200 A 
ATOM     69  F   UNL A   1      37.470  30.821  34.110  1.00  0.00    -0.200 F 
ATOM     70  F   UNL A   1      35.427  31.938  32.691  1.00  0.00    -0.200 F 
ENDBRANCH  46  60
BRANCH  47  71
ATOM     71  C   UNL A   1      47.101  27.536  26.052  1.00  0.00     0.064 A 
ATOM     72  C   UNL A   1      47.229  27.676  24.663  1.00  0.00     0.173 A 
ATOM     73  C   UNL A   1      48.156  26.927  26.748  1.00  0.00     0.173 A 
ATOM     74  F   UNL A   1      46.235  28.226  23.952  1.00  0.00    -0.203 F 
ATOM     75  C   UNL A   1      48.361  27.214  23.996  1.00  0.00     0.198 A 
ATOM     76  C   UNL A   1      49.299  26.490  26.083  1.00  0.00     0.198 A 
ATOM     77  F   UNL A   1      48.079  26.767  28.076  1.00  0.00    -0.203 F 
ATOM     78  F   UNL A   1      48.442  27.321  22.663  1.00  0.00    -0.200 F 
ATOM     79  C   UNL A   1      49.398  26.628  24.707  1.00  0.00     0.200 A 
ATOM     80  F   UNL A   1      50.302  25.934  26.776  1.00  0.00    -0.200 F 
ATOM     81  F   UNL A   1      50.489  26.187  24.065  1.00  0.00    -0.200 F 
ENDBRANCH  47  71
BRANCH  59  82
ATOM     82  C   UNL A   1      45.489  33.441  29.364  1.00  0.00     0.064 A 
ATOM     83  C   UNL A   1      46.288  33.583  30.509  1.00  0.00     0.173 A 
ATOM     84  C   UNL A   1      45.448  34.507  28.453  1.00  0.00     0.173 A 
ATOM     85  F   UNL A   1      46.345  32.597  31.418  1.00  0.00    -0.203 F 
ATOM     86  C   UNL A   1      46.994  34.758  30.747  1.00  0.00     0.198 A 
ATOM     87  C   UNL A   1      46.177  35.670  28.680  1.00  0.00     0.198 A 
ATOM     88  F   UNL A   1      44.704  34.418  27.341  1.00  0.00    -0.203 F 
ATOM     89  F   UNL A   1      47.710  34.892  31.872  1.00  0.00    -0.200 F 
ATOM     90  C   UNL A   1      46.942  35.799  29.831  1.00  0.00     0.200 A 
ATOM     91  F   UNL A   1      46.133  36.672  27.792  1.00  0.00    -0.200 F 
ATOM     92  F   UNL A   1      47.621  36.931  30.063  1.00  0.00    -0.200 F 
ENDBRANCH  59  82
ENDBRANCH  33  34
ENDBRANCH  26  28
ENDBRANCH  25  26
ENDBRANCH  24  25
ENDBRANCH   1  24
TORSDOF 15
ENDMDL
MODEL 2
REMARK VINA RESULT:     -11.3      4.080      9.618
REMARK SMILES CC[C@](C)([NH3+])C(=O)N1CC[NH+]([C@H](C)C(=O)OCCOC(=O)c2ccc(-c3c4nc(c(-c5c(F)c(F)c(F)c(F)c5F)c5ccc([nH]5)c(-c5c(F)c(F)c(F)c(F)c5F)c5nc(c(-c6c(F)c(F)c(F)c(F)c6F)c6ccc3[nH]6)C=C5)C=C4)cc2)CC1
REMARK SMILES IDX 17 1 16 2 14 3 15 4 12 5 13 6 11 7 6 8 7 9 8 10 9 11 86 12
REMARK SMILES IDX 10 13 85 14 3 16 4 17 2 18 1 19 5 20 18 24 19 25 20 26 21 27
REMARK SMILES IDX 22 28 23 29 84 30 24 31 83 32 25 33 26 34 27 35 77 36 28 37
REMARK SMILES IDX 82 38 76 39 78 40 29 41 81 42 75 43 74 44 30 46 62 47 42 48
REMARK SMILES IDX 61 49 43 50 46 51 60 52 79 53 44 54 45 55 59 57 80 58 47 59
REMARK SMILES IDX 31 60 32 61 40 62 33 63 34 64 38 65 41 66 35 67 36 68 39 69
REMARK SMILES IDX 37 70 63 71 64 72 72 73 65 74 66 75 70 76 73 77 67 78 68 79
REMARK SMILES IDX 71 80 69 81 48 82 49 83 57 84 50 85 51 86 55 87 58 88 52 89
REMARK SMILES IDX 53 90 56 91 54 92
REMARK H PARENT 11 15 5 21 5 22 5 23 78 45 46 56
REMARK Flexibility Score: inf
ROOT
ATOM      1  C   UNL A   1      31.061  29.672  24.620  1.00  0.00     0.274 C 
ENDROOT
BRANCH   1   2
ATOM      2  O   UNL A   1      31.723  28.862  23.630  1.00  0.00    -0.458 OA
BRANCH   2   3
ATOM      3  C   UNL A   1      30.978  27.874  23.062  1.00  0.00     0.364 C 
ATOM      4  O   UNL A   1      30.389  27.978  21.991  1.00  0.00    -0.245 OA
BRANCH   3   5
ATOM      5  C   UNL A   1      30.951  26.590  23.915  1.00  0.00     0.292 C 
ATOM      6  C   UNL A   1      29.538  26.176  24.350  1.00  0.00     0.088 C 
BRANCH   5   7
ATOM      7  N   UNL A   1      31.778  25.535  23.280  1.00  0.00    -0.321 N 
ATOM      8  C   UNL A   1      34.156  22.414  24.374  1.00  0.00     0.283 C 
ATOM      9  O   UNL A   1      33.806  21.226  24.318  1.00  0.00    -0.268 OA
ATOM     10  N   UNL A   1      33.597  23.317  23.489  1.00  0.00    -0.326 N 
ATOM     11  C   UNL A   1      32.242  23.071  23.000  1.00  0.00     0.181 C 
ATOM     12  C   UNL A   1      34.111  24.605  23.045  1.00  0.00     0.181 C 
ATOM     13  C   UNL A   1      31.312  24.163  23.578  1.00  0.00     0.284 C 
ATOM     14  C   UNL A   1      33.216  25.741  23.564  1.00  0.00     0.284 C 
ATOM     15  H   UNL A   1      31.655  25.631  22.272  1.00  0.00     0.348 HD
BRANCH   8  16
ATOM     16  C   UNL A   1      35.001  22.897  25.611  1.00  0.00     0.171 C 
ATOM     17  C   UNL A   1      34.094  23.741  26.528  1.00  0.00     0.090 C 
BRANCH  16  18
ATOM     18  C   UNL A   1      36.212  23.737  25.127  1.00  0.00     0.075 C 
ATOM     19  C   UNL A   1      37.487  23.592  25.954  1.00  0.00     0.011 C 
ENDBRANCH  16  18
BRANCH  16  20
ATOM     20  N   UNL A   1      35.511  21.784  26.449  1.00  0.00    -0.345 N 
ATOM     21  H   UNL A   1      34.867  20.994  26.394  1.00  0.00     0.345 HD
ATOM     22  H   UNL A   1      35.584  22.094  27.418  1.00  0.00     0.345 HD
ATOM     23  H   UNL A   1      36.430  21.498  26.113  1.00  0.00     0.345 HD
ENDBRANCH  16  20
ENDBRANCH   8  16
ENDBRANCH   5   7
ENDBRANCH   3   5
ENDBRANCH   2   3
ENDBRANCH   1   2
BRANCH   1  24
ATOM     24  C   UNL A   1      31.766  29.594  25.977  1.00  0.00     0.275 C 
BRANCH  24  25
ATOM     25  O   UNL A   1      33.084  30.175  25.931  1.00  0.00    -0.458 OA
BRANCH  25  26
ATOM     26  C   UNL A   1      33.321  31.132  26.858  1.00  0.00     0.338 C 
ATOM     27  O   UNL A   1      32.566  32.022  27.211  1.00  0.00    -0.246 OA
BRANCH  26  28
ATOM     28  C   UNL A   1      34.599  30.870  27.537  1.00  0.00     0.060 A 
ATOM     29  C   UNL A   1      34.838  29.566  27.976  1.00  0.00     0.016 A 
ATOM     30  C   UNL A   1      35.513  31.887  27.814  1.00  0.00     0.016 A 
ATOM     31  C   UNL A   1      35.995  29.262  28.683  1.00  0.00     0.010 A 
ATOM     32  C   UNL A   1      36.674  31.584  28.537  1.00  0.00     0.010 A 
ATOM     33  C   UNL A   1      36.918  30.270  28.977  1.00  0.00    -0.014 A 
BRANCH  33  34
ATOM     34  C   UNL A   1      38.103  29.935  29.799  1.00  0.00     0.031 A 
ATOM     35  C   UNL A   1      39.162  29.028  29.249  1.00  0.00     0.074 A 
ATOM     36  C   UNL A   1      38.254  30.502  31.010  1.00  0.00     0.049 A 
ATOM     37  N   UNL A   1      40.260  28.596  29.816  1.00  0.00    -0.248 NA
ATOM     38  C   UNL A   1      38.964  28.547  27.873  1.00  0.00     0.031 C 
ATOM     39  C   UNL A   1      37.318  31.443  31.621  1.00  0.00     0.029 A 
ATOM     40  N   UNL A   1      39.259  30.376  31.935  1.00  0.00    -0.354 N 
ATOM     41  C   UNL A   1      40.874  27.779  28.876  1.00  0.00     0.074 A 
ATOM     42  C   UNL A   1      40.022  27.765  27.705  1.00  0.00     0.031 C 
ATOM     43  C   UNL A   1      37.795  31.816  32.821  1.00  0.00     0.029 A 
ATOM     44  C   UNL A   1      39.047  31.110  33.076  1.00  0.00     0.049 A 
ATOM     45  H   UNL A   1      40.054  29.813  31.796  1.00  0.00     0.167 HD
ATOM     46  C   UNL A   1      42.043  27.105  28.983  1.00  0.00     0.037 A 
ATOM     47  C   UNL A   1      39.774  31.184  34.207  1.00  0.00     0.037 A 
ATOM     48  C   UNL A   1      42.892  27.132  30.145  1.00  0.00     0.049 A 
ATOM     49  C   UNL A   1      41.043  30.385  34.318  1.00  0.00     0.074 A 
ATOM     50  C   UNL A   1      44.097  26.481  30.352  1.00  0.00     0.029 A 
ATOM     51  N   UNL A   1      42.625  27.852  31.301  1.00  0.00    -0.354 N 
ATOM     52  N   UNL A   1      41.606  29.600  33.432  1.00  0.00    -0.248 NA
ATOM     53  C   UNL A   1      41.774  30.479  35.589  1.00  0.00     0.031 C 
ATOM     54  C   UNL A   1      44.541  26.780  31.645  1.00  0.00     0.029 A 
ATOM     55  C   UNL A   1      43.633  27.648  32.231  1.00  0.00     0.049 A 
ATOM     56  H   UNL A   1      41.836  28.423  31.440  1.00  0.00     0.167 HD
ATOM     57  C   UNL A   1      42.761  29.116  34.032  1.00  0.00     0.074 A 
ATOM     58  C   UNL A   1      42.830  29.716  35.348  1.00  0.00     0.031 C 
ATOM     59  C   UNL A   1      43.679  28.249  33.539  1.00  0.00     0.037 A 
BRANCH  46  60
ATOM     60  C   UNL A   1      42.455  26.250  27.822  1.00  0.00     0.064 A 
ATOM     61  C   UNL A   1      41.948  24.955  27.643  1.00  0.00     0.173 A 
ATOM     62  C   UNL A   1      43.349  26.745  26.861  1.00  0.00     0.173 A 
ATOM     63  F   UNL A   1      41.104  24.430  28.544  1.00  0.00    -0.203 F 
ATOM     64  C   UNL A   1      42.339  24.178  26.555  1.00  0.00     0.198 A 
ATOM     65  C   UNL A   1      43.718  25.975  25.762  1.00  0.00     0.198 A 
ATOM     66  F   UNL A   1      43.861  27.979  26.985  1.00  0.00    -0.203 F 
ATOM     67  F   UNL A   1      41.874  22.928  26.426  1.00  0.00    -0.200 F 
ATOM     68  C   UNL A   1      43.217  24.691  25.613  1.00  0.00     0.200 A 
ATOM     69  F   UNL A   1      44.563  26.475  24.848  1.00  0.00    -0.200 F 
ATOM     70  F   UNL A   1      43.590  23.943  24.565  1.00  0.00    -0.200 F 
ENDBRANCH  46  60
BRANCH  47  71
ATOM     71  C   UNL A   1      39.304  32.032  35.332  1.00  0.00     0.064 A 
ATOM     72  C   UNL A   1      39.667  33.383  35.420  1.00  0.00     0.173 A 
ATOM     73  C   UNL A   1      38.488  31.507  36.345  1.00  0.00     0.173 A 
ATOM     74  F   UNL A   1      40.468  33.923  34.491  1.00  0.00    -0.203 F 
ATOM     75  C   UNL A   1      39.241  34.173  36.485  1.00  0.00     0.198 A 
ATOM     76  C   UNL A   1      38.040  32.305  37.395  1.00  0.00     0.198 A 
ATOM     77  F   UNL A   1      38.117  30.219  36.308  1.00  0.00    -0.203 F 
ATOM     78  F   UNL A   1      39.635  35.451  36.569  1.00  0.00    -0.200 F 
ATOM     79  C   UNL A   1      38.422  33.636  37.468  1.00  0.00     0.200 A 
ATOM     80  F   UNL A   1      37.242  31.783  38.336  1.00  0.00    -0.200 F 
ATOM     81  F   UNL A   1      38.009  34.398  38.490  1.00  0.00    -0.200 F 
ENDBRANCH  47  71
BRANCH  59  82
ATOM     82  C   UNL A   1      44.840  27.912  34.427  1.00  0.00     0.064 A 
ATOM     83  C   UNL A   1      46.011  28.685  34.424  1.00  0.00     0.173 A 
ATOM     84  C   UNL A   1      44.777  26.815  35.298  1.00  0.00     0.173 A 
ATOM     85  F   UNL A   1      46.125  29.734  33.596  1.00  0.00    -0.203 F 
ATOM     86  C   UNL A   1      47.089  28.353  35.241  1.00  0.00     0.198 A 
ATOM     87  C   UNL A   1      45.845  26.501  36.133  1.00  0.00     0.198 A 
ATOM     88  F   UNL A   1      43.677  26.048  35.341  1.00  0.00    -0.203 F 
ATOM     89  F   UNL A   1      48.216  29.075  35.186  1.00  0.00    -0.200 F 
ATOM     90  C   UNL A   1      47.003  27.265  36.097  1.00  0.00     0.200 A 
ATOM     91  F   UNL A   1      45.759  25.455  36.966  1.00  0.00    -0.200 F 
ATOM     92  F   UNL A   1      48.042  26.945  36.882  1.00  0.00    -0.200 F 
ENDBRANCH  59  82
ENDBRANCH  33  34
ENDBRANCH  26  28
ENDBRANCH  25  26
ENDBRANCH  24  25
ENDBRANCH   1  24
TORSDOF 15
ENDMDL
MODEL 3
REMARK VINA RESULT:     -11.3      4.276      9.863
REMARK SMILES CC[C@](C)([NH3+])C(=O)N1CC[NH+]([C@H](C)C(=O)OCCOC(=O)c2ccc(-c3c4nc(c(-c5c(F)c(F)c(F)c(F)c5F)c5ccc([nH]5)c(-c5c(F)c(F)c(F)c(F)c5F)c5nc(c(-c6c(F)c(F)c(F)c(F)c6F)c6ccc3[nH]6)C=C5)C=C4)cc2)CC1
REMARK SMILES IDX 17 1 16 2 14 3 15 4 12 5 13 6 11 7 6 8 7 9 8 10 9 11 86 12
REMARK SMILES IDX 10 13 85 14 3 16 4 17 2 18 1 19 5 20 18 24 19 25 20 26 21 27
REMARK SMILES IDX 22 28 23 29 84 30 24 31 83 32 25 33 26 34 27 35 77 36 28 37
REMARK SMILES IDX 82 38 76 39 78 40 29 41 81 42 75 43 74 44 30 46 62 47 42 48
REMARK SMILES IDX 61 49 43 50 46 51 60 52 79 53 44 54 45 55 59 57 80 58 47 59
REMARK SMILES IDX 31 60 32 61 40 62 33 63 34 64 38 65 41 66 35 67 36 68 39 69
REMARK SMILES IDX 37 70 63 71 64 72 72 73 65 74 66 75 70 76 73 77 67 78 68 79
REMARK SMILES IDX 71 80 69 81 48 82 49 83 57 84 50 85 51 86 55 87 58 88 52 89
REMARK SMILES IDX 53 90 56 91 54 92
REMARK H PARENT 11 15 5 21 5 22 5 23 78 45 46 56
REMARK Flexibility Score: inf
ROOT
ATOM      1  C   UNL A   1      31.660  28.820  26.945  1.00  0.00     0.274 C 
ENDROOT
BRANCH   1   2
ATOM      2  O   UNL A   1      32.434  27.898  26.155  1.00  0.00    -0.458 OA
BRANCH   2   3
ATOM      3  C   UNL A   1      32.012  26.603  26.151  1.00  0.00     0.364 C 
ATOM      4  O   UNL A   1      31.116  26.164  26.866  1.00  0.00    -0.245 OA
BRANCH   3   5
ATOM      5  C   UNL A   1      32.784  25.733  25.140  1.00  0.00     0.292 C 
ATOM      6  C   UNL A   1      33.335  26.528  23.947  1.00  0.00     0.088 C 
BRANCH   5   7
ATOM      7  N   UNL A   1      33.750  24.859  25.848  1.00  0.00    -0.321 N 
ATOM      8  C   UNL A   1      35.264  21.087  25.571  1.00  0.00     0.283 C 
ATOM      9  O   UNL A   1      36.391  20.826  25.124  1.00  0.00    -0.268 OA
ATOM     10  N   UNL A   1      35.053  22.315  26.170  1.00  0.00    -0.326 N 
ATOM     11  C   UNL A   1      35.845  23.458  25.724  1.00  0.00     0.181 C 
ATOM     12  C   UNL A   1      34.027  22.703  27.129  1.00  0.00     0.181 C 
ATOM     13  C   UNL A   1      34.901  24.454  25.012  1.00  0.00     0.284 C 
ATOM     14  C   UNL A   1      33.063  23.716  26.492  1.00  0.00     0.284 C 
ATOM     15  H   UNL A   1      34.163  25.419  26.594  1.00  0.00     0.348 HD
BRANCH   8  16
ATOM     16  C   UNL A   1      34.063  20.141  25.198  1.00  0.00     0.171 C 
ATOM     17  C   UNL A   1      34.631  18.826  24.625  1.00  0.00     0.090 C 
BRANCH  16  18
ATOM     18  C   UNL A   1      33.149  20.835  24.154  1.00  0.00     0.075 C 
ATOM     19  C   UNL A   1      32.162  19.921  23.432  1.00  0.00     0.011 C 
ENDBRANCH  16  18
BRANCH  16  20
ATOM     20  N   UNL A   1      33.231  19.755  26.364  1.00  0.00    -0.345 N 
ATOM     21  H   UNL A   1      33.836  19.482  27.138  1.00  0.00     0.345 HD
ATOM     22  H   UNL A   1      32.631  18.970  26.109  1.00  0.00     0.345 HD
ATOM     23  H   UNL A   1      32.654  20.546  26.647  1.00  0.00     0.345 HD
ENDBRANCH  16  20
ENDBRANCH   8  16
ENDBRANCH   5   7
ENDBRANCH   3   5
ENDBRANCH   2   3
ENDBRANCH   1   2
BRANCH   1  24
ATOM     24  C   UNL A   1      31.765  30.251  26.407  1.00  0.00     0.275 C 
BRANCH  24  25
ATOM     25  O   UNL A   1      33.136  30.673  26.271  1.00  0.00    -0.458 OA
BRANCH  25  26
ATOM     26  C   UNL A   1      33.515  31.666  27.107  1.00  0.00     0.338 C 
ATOM     27  O   UNL A   1      32.886  32.669  27.397  1.00  0.00    -0.246 OA
BRANCH  26  28
ATOM     28  C   UNL A   1      34.771  31.302  27.783  1.00  0.00     0.060 A 
ATOM     29  C   UNL A   1      34.894  29.992  28.249  1.00  0.00     0.016 A 
ATOM     30  C   UNL A   1      35.776  32.237  28.031  1.00  0.00     0.016 A 
ATOM     31  C   UNL A   1      36.025  29.598  28.954  1.00  0.00     0.010 A 
ATOM     32  C   UNL A   1      36.911  31.845  28.751  1.00  0.00     0.010 A 
ATOM     33  C   UNL A   1      37.038  30.524  29.219  1.00  0.00    -0.014 A 
BRANCH  33  34
ATOM     34  C   UNL A   1      38.195  30.100  30.040  1.00  0.00     0.031 A 
ATOM     35  C   UNL A   1      39.224  29.176  29.460  1.00  0.00     0.074 A 
ATOM     36  C   UNL A   1      38.352  30.601  31.279  1.00  0.00     0.049 A 
ATOM     37  N   UNL A   1      40.294  28.671  30.020  1.00  0.00    -0.248 NA
ATOM     38  C   UNL A   1      39.027  28.771  28.060  1.00  0.00     0.031 C 
ATOM     39  C   UNL A   1      37.446  31.550  31.923  1.00  0.00     0.029 A 
ATOM     40  N   UNL A   1      39.335  30.387  32.210  1.00  0.00    -0.354 N 
ATOM     41  C   UNL A   1      40.888  27.875  29.050  1.00  0.00     0.074 A 
ATOM     42  C   UNL A   1      40.054  27.954  27.868  1.00  0.00     0.031 C 
ATOM     43  C   UNL A   1      37.920  31.844  33.145  1.00  0.00     0.029 A 
ATOM     44  C   UNL A   1      39.137  31.074  33.383  1.00  0.00     0.049 A 
ATOM     45  H   UNL A   1      40.108  29.799  32.054  1.00  0.00     0.167 HD
ATOM     46  C   UNL A   1      42.026  27.148  29.140  1.00  0.00     0.037 A 
ATOM     47  C   UNL A   1      39.849  31.063  34.526  1.00  0.00     0.037 A 
ATOM     48  C   UNL A   1      42.858  27.082  30.313  1.00  0.00     0.049 A 
ATOM     49  C   UNL A   1      41.081  30.206  34.614  1.00  0.00     0.074 A 
ATOM     50  C   UNL A   1      44.031  26.372  30.504  1.00  0.00     0.029 A 
ATOM     51  N   UNL A   1      42.603  27.756  31.499  1.00  0.00    -0.354 N 
ATOM     52  N   UNL A   1      41.625  29.442  33.699  1.00  0.00    -0.248 NA
ATOM     53  C   UNL A   1      41.796  30.208  35.898  1.00  0.00     0.031 C 
ATOM     54  C   UNL A   1      44.466  26.588  31.816  1.00  0.00     0.029 A 
ATOM     55  C   UNL A   1      43.587  27.466  32.431  1.00  0.00     0.049 A 
ATOM     56  H   UNL A   1      41.836  28.353  31.655  1.00  0.00     0.167 HD
ATOM     57  C   UNL A   1      42.749  28.881  34.290  1.00  0.00     0.074 A 
ATOM     58  C   UNL A   1      42.823  29.413  35.634  1.00  0.00     0.031 C 
ATOM     59  C   UNL A   1      43.638  27.999  33.767  1.00  0.00     0.037 A 
BRANCH  46  60
ATOM     60  C   UNL A   1      42.419  26.333  27.943  1.00  0.00     0.064 A 
ATOM     61  C   UNL A   1      43.341  26.807  26.998  1.00  0.00     0.173 A 
ATOM     62  C   UNL A   1      41.884  25.049  27.755  1.00  0.00     0.173 A 
ATOM     63  F   UNL A   1      43.867  28.034  27.124  1.00  0.00    -0.203 F 
ATOM     64  C   UNL A   1      43.696  26.032  25.897  1.00  0.00     0.198 A 
ATOM     65  C   UNL A   1      42.261  24.269  26.666  1.00  0.00     0.198 A 
ATOM     66  F   UNL A   1      41.000  24.550  28.632  1.00  0.00    -0.203 F 
ATOM     67  F   UNL A   1      44.548  26.521  24.984  1.00  0.00    -0.200 F 
ATOM     68  C   UNL A   1      43.162  24.763  25.735  1.00  0.00     0.200 A 
ATOM     69  F   UNL A   1      41.748  23.040  26.515  1.00  0.00    -0.200 F 
ATOM     70  F   UNL A   1      43.508  24.018  24.676  1.00  0.00    -0.200 F 
ENDBRANCH  46  60
BRANCH  47  71
ATOM     71  C   UNL A   1      39.397  31.875  35.684  1.00  0.00     0.064 A 
ATOM     72  C   UNL A   1      39.925  33.152  35.921  1.00  0.00     0.173 A 
ATOM     73  C   UNL A   1      38.434  31.388  36.580  1.00  0.00     0.173 A 
ATOM     74  F   UNL A   1      40.867  33.648  35.108  1.00  0.00    -0.203 F 
ATOM     75  C   UNL A   1      39.514  33.905  37.019  1.00  0.00     0.198 A 
ATOM     76  C   UNL A   1      38.005  32.153  37.662  1.00  0.00     0.198 A 
ATOM     77  F   UNL A   1      37.903  30.170  36.399  1.00  0.00    -0.203 F 
ATOM     78  F   UNL A   1      40.063  35.106  37.248  1.00  0.00    -0.200 F 
ATOM     79  C   UNL A   1      38.550  33.409  37.884  1.00  0.00     0.200 A 
ATOM     80  F   UNL A   1      37.067  31.673  38.488  1.00  0.00    -0.200 F 
ATOM     81  F   UNL A   1      38.152  34.136  38.937  1.00  0.00    -0.200 F 
ENDBRANCH  47  71
BRANCH  59  82
ATOM     82  C   UNL A   1      44.770  27.572  34.653  1.00  0.00     0.064 A 
ATOM     83  C   UNL A   1      45.973  28.292  34.702  1.00  0.00     0.173 A 
ATOM     84  C   UNL A   1      44.646  26.439  35.471  1.00  0.00     0.173 A 
ATOM     85  F   UNL A   1      46.144  29.372  33.926  1.00  0.00    -0.203 F 
ATOM     86  C   UNL A   1      47.023  27.875  35.517  1.00  0.00     0.198 A 
ATOM     87  C   UNL A   1      45.687  26.040  36.304  1.00  0.00     0.198 A 
ATOM     88  F   UNL A   1      43.513  25.720  35.464  1.00  0.00    -0.203 F 
ATOM     89  F   UNL A   1      48.181  28.548  35.510  1.00  0.00    -0.200 F 
ATOM     90  C   UNL A   1      46.878  26.753  36.319  1.00  0.00     0.200 A 
ATOM     91  F   UNL A   1      45.544  24.962  37.086  1.00  0.00    -0.200 F 
ATOM     92  F   UNL A   1      47.890  26.352  37.101  1.00  0.00    -0.200 F 
ENDBRANCH  59  82
ENDBRANCH  33  34
ENDBRANCH  26  28
ENDBRANCH  25  26
ENDBRANCH  24  25
ENDBRANCH   1  24
TORSDOF 15
ENDMDL
