MODEL 1
REMARK VINA RESULT:     -12.5      0.000      0.000
REMARK SMILES CC(C)[C@@H](CNC(=O)[C@@H]1CC[C@@H]2CCCC[C@@H]2[NH2+]1)C(=O)OCCOC(=O)c1ccc(-c2c3nc(c(-c4c(F)c(F)c(F)c(F)c4F)c4ccc([nH]4)c(-c4c(F)c(F)c(F)c(F)c4F)c4nc(c(-c5c(F)c(F)c(F)c(F)c5F)c5ccc2[nH]5)C=C4)C=C3)cc1
REMARK SMILES IDX 22 1 21 2 19 3 20 4 4 5 2 6 1 7 3 8 5 9 6 10 7 11 8 13 9 14
REMARK SMILES IDX 10 15 18 16 11 17 17 18 12 21 16 22 13 23 15 24 14 25 23 26
REMARK SMILES IDX 24 27 25 28 26 29 27 30 28 31 89 32 29 33 88 34 30 35 31 36
REMARK SMILES IDX 32 37 82 38 33 39 87 40 81 41 83 42 34 43 86 44 80 45 79 46
REMARK SMILES IDX 35 48 67 49 47 50 66 51 48 52 51 53 65 54 84 55 49 56 50 57
REMARK SMILES IDX 64 59 85 60 52 61 36 62 37 63 45 64 38 65 39 66 43 67 46 68
REMARK SMILES IDX 40 69 41 70 44 71 42 72 68 73 69 74 77 75 70 76 71 77 75 78
REMARK SMILES IDX 78 79 72 80 73 81 76 82 74 83 53 84 54 85 62 86 55 87 56 88
REMARK SMILES IDX 60 89 63 90 57 91 58 92 61 93 59 94
REMARK H PARENT 6 12 18 19 18 20 83 47 51 58
REMARK Flexibility Score: inf
ROOT
ATOM      1  C   UNL A   1      31.562  29.285  24.814  1.00  0.00     0.274 C 
ENDROOT
BRANCH   1   2
ATOM      2  O   UNL A   1      31.611  29.156  23.379  1.00  0.00    -0.462 OA
BRANCH   2   3
ATOM      3  C   UNL A   1      30.780  28.238  22.828  1.00  0.00     0.311 C 
ATOM      4  O   UNL A   1      31.036  27.569  21.832  1.00  0.00    -0.252 OA
BRANCH   3   5
ATOM      5  C   UNL A   1      29.419  28.156  23.501  1.00  0.00     0.121 C 
BRANCH   5   6
ATOM      6  C   UNL A   1      28.277  28.963  22.820  1.00  0.00    -0.001 C 
ATOM      7  C   UNL A   1      26.902  28.578  23.379  1.00  0.00     0.008 C 
ATOM      8  C   UNL A   1      28.464  30.476  23.003  1.00  0.00     0.008 C 
ENDBRANCH   5   6
BRANCH   5   9
ATOM      9  C   UNL A   1      29.128  26.653  23.703  1.00  0.00     0.131 C 
BRANCH   9  10
ATOM     10  N   UNL A   1      30.110  26.039  24.575  1.00  0.00    -0.350 N 
ATOM     11  C   UNL A   1      30.559  24.751  24.528  1.00  0.00     0.278 C 
ATOM     12  H   UNL A   1      30.495  26.613  25.276  1.00  0.00     0.163 HD
ATOM     13  O   UNL A   1      30.757  24.214  25.616  1.00  0.00    -0.268 OA
BRANCH  11  14
ATOM     14  C   UNL A   1      30.871  24.081  23.165  1.00  0.00     0.272 C 
ATOM     15  C   UNL A   1      31.391  22.652  23.287  1.00  0.00     0.076 C 
ATOM     16  N   UNL A   1      31.796  24.919  22.374  1.00  0.00    -0.333 N 
ATOM     17  C   UNL A   1      32.790  22.594  23.884  1.00  0.00     0.016 C 
ATOM     18  C   UNL A   1      33.218  24.854  22.746  1.00  0.00     0.186 C 
ATOM     19  H   UNL A   1      31.493  25.888  22.467  1.00  0.00     0.347 HD
ATOM     20  H   UNL A   1      31.748  24.552  21.423  1.00  0.00     0.347 HD
ATOM     21  C   UNL A   1      33.753  23.445  23.053  1.00  0.00     0.048 C 
ATOM     22  C   UNL A   1      33.679  25.979  23.701  1.00  0.00     0.065 C 
ATOM     23  C   UNL A   1      35.146  23.522  23.681  1.00  0.00     0.010 C 
ATOM     24  C   UNL A   1      34.386  25.583  24.999  1.00  0.00     0.006 C 
ATOM     25  C   UNL A   1      35.151  24.266  25.007  1.00  0.00     0.001 C 
ENDBRANCH  11  14
ENDBRANCH   9  10
ENDBRANCH   5   9
ENDBRANCH   3   5
ENDBRANCH   2   3
ENDBRANCH   1   2
BRANCH   1  26
ATOM     26  C   UNL A   1      32.905  29.703  25.408  1.00  0.00     0.275 C 
BRANCH  26  27
ATOM     27  O   UNL A   1      32.770  29.985  26.811  1.00  0.00    -0.458 OA
BRANCH  27  28
ATOM     28  C   UNL A   1      33.324  31.140  27.231  1.00  0.00     0.338 C 
ATOM     29  O   UNL A   1      32.820  32.255  27.252  1.00  0.00    -0.246 OA
BRANCH  28  30
ATOM     30  C   UNL A   1      34.678  30.881  27.721  1.00  0.00     0.060 A 
ATOM     31  C   UNL A   1      35.045  29.580  28.081  1.00  0.00     0.016 A 
ATOM     32  C   UNL A   1      35.539  31.952  27.941  1.00  0.00     0.016 A 
ATOM     33  C   UNL A   1      36.279  29.339  28.672  1.00  0.00     0.010 A 
ATOM     34  C   UNL A   1      36.777  31.712  28.533  1.00  0.00     0.010 A 
ATOM     35  C   UNL A   1      37.142  30.409  28.919  1.00  0.00    -0.014 A 
BRANCH  35  36
ATOM     36  C   UNL A   1      38.393  30.211  29.675  1.00  0.00     0.031 A 
ATOM     37  C   UNL A   1      39.431  29.292  29.112  1.00  0.00     0.074 A 
ATOM     38  C   UNL A   1      38.565  30.805  30.866  1.00  0.00     0.049 A 
ATOM     39  N   UNL A   1      40.457  28.741  29.703  1.00  0.00    -0.248 NA
ATOM     40  C   UNL A   1      39.287  28.941  27.690  1.00  0.00     0.031 C 
ATOM     41  C   UNL A   1      37.657  31.783  31.463  1.00  0.00     0.029 A 
ATOM     42  N   UNL A   1      39.553  30.642  31.803  1.00  0.00    -0.354 N 
ATOM     43  C   UNL A   1      41.055  27.941  28.740  1.00  0.00     0.074 A 
ATOM     44  C   UNL A   1      40.289  28.090  27.521  1.00  0.00     0.031 C 
ATOM     45  C   UNL A   1      38.111  32.107  32.685  1.00  0.00     0.029 A 
ATOM     46  C   UNL A   1      39.300  31.310  32.974  1.00  0.00     0.049 A 
ATOM     47  H   UNL A   1      40.361  30.099  31.650  1.00  0.00     0.167 HD
ATOM     48  C   UNL A   1      42.137  27.142  28.878  1.00  0.00     0.037 A 
ATOM     49  C   UNL A   1      39.925  31.232  34.164  1.00  0.00     0.037 A 
ATOM     50  C   UNL A   1      42.890  27.019  30.097  1.00  0.00     0.049 A 
ATOM     51  C   UNL A   1      41.087  30.289  34.316  1.00  0.00     0.074 A 
ATOM     52  C   UNL A   1      43.996  26.230  30.358  1.00  0.00     0.029 A 
ATOM     53  N   UNL A   1      42.607  27.717  31.263  1.00  0.00    -0.354 N 
ATOM     54  N   UNL A   1      41.620  29.486  33.426  1.00  0.00    -0.248 NA
ATOM     55  C   UNL A   1      41.722  30.224  35.639  1.00  0.00     0.031 C 
ATOM     56  C   UNL A   1      44.366  26.432  31.692  1.00  0.00     0.029 A 
ATOM     57  C   UNL A   1      43.513  27.372  32.250  1.00  0.00     0.049 A 
ATOM     58  H   UNL A   1      41.871  28.362  31.371  1.00  0.00     0.167 HD
ATOM     59  C   UNL A   1      42.663  28.838  34.071  1.00  0.00     0.074 A 
ATOM     60  C   UNL A   1      42.690  29.342  35.430  1.00  0.00     0.031 C 
ATOM     61  C   UNL A   1      43.523  27.910  33.585  1.00  0.00     0.037 A 
BRANCH  48  62
ATOM     62  C   UNL A   1      42.536  26.307  27.700  1.00  0.00     0.064 A 
ATOM     63  C   UNL A   1      41.942  25.064  27.440  1.00  0.00     0.173 A 
ATOM     64  C   UNL A   1      43.516  26.769  26.808  1.00  0.00     0.173 A 
ATOM     65  F   UNL A   1      41.016  24.571  28.275  1.00  0.00    -0.203 F 
ATOM     66  C   UNL A   1      42.326  24.306  26.337  1.00  0.00     0.198 A 
ATOM     67  C   UNL A   1      43.883  26.018  25.694  1.00  0.00     0.198 A 
ATOM     68  F   UNL A   1      44.116  27.951  27.015  1.00  0.00    -0.203 F 
ATOM     69  F   UNL A   1      41.773  23.103  26.126  1.00  0.00    -0.200 F 
ATOM     70  C   UNL A   1      43.291  24.785  25.462  1.00  0.00     0.200 A 
ATOM     71  F   UNL A   1      44.811  26.486  24.849  1.00  0.00    -0.200 F 
ATOM     72  F   UNL A   1      43.658  24.056  24.400  1.00  0.00    -0.200 F 
ENDBRANCH  48  62
BRANCH  49  73
ATOM     73  C   UNL A   1      39.425  32.031  35.311  1.00  0.00     0.064 A 
ATOM     74  C   UNL A   1      38.568  31.464  36.262  1.00  0.00     0.173 A 
ATOM     75  C   UNL A   1      39.810  33.368  35.489  1.00  0.00     0.173 A 
ATOM     76  F   UNL A   1      38.154  30.197  36.119  1.00  0.00    -0.203 F 
ATOM     77  C   UNL A   1      38.109  32.207  37.348  1.00  0.00     0.198 A 
ATOM     78  C   UNL A   1      39.371  34.103  36.588  1.00  0.00     0.198 A 
ATOM     79  F   UNL A   1      40.629  33.955  34.604  1.00  0.00    -0.203 F 
ATOM     80  F   UNL A   1      37.266  31.651  38.228  1.00  0.00    -0.200 F 
ATOM     81  C   UNL A   1      38.517  33.522  37.514  1.00  0.00     0.200 A 
ATOM     82  F   UNL A   1      39.775  35.369  36.751  1.00  0.00    -0.200 F 
ATOM     83  F   UNL A   1      38.083  34.233  38.565  1.00  0.00    -0.200 F 
ENDBRANCH  49  73
BRANCH  61  84
ATOM     84  C   UNL A   1      44.591  27.416  34.511  1.00  0.00     0.064 A 
ATOM     85  C   UNL A   1      44.412  26.262  35.286  1.00  0.00     0.173 A 
ATOM     86  C   UNL A   1      45.831  28.069  34.566  1.00  0.00     0.173 A 
ATOM     87  F   UNL A   1      43.238  25.615  35.273  1.00  0.00    -0.203 F 
ATOM     88  C   UNL A   1      45.439  25.783  36.093  1.00  0.00     0.198 A 
ATOM     89  C   UNL A   1      46.862  27.575  35.359  1.00  0.00     0.198 A 
ATOM     90  F   UNL A   1      46.047  29.173  33.836  1.00  0.00    -0.203 F 
ATOM     91  F   UNL A   1      45.244  24.691  36.845  1.00  0.00    -0.200 F 
ATOM     92  C   UNL A   1      46.664  26.434  36.123  1.00  0.00     0.200 A 
ATOM     93  F   UNL A   1      48.047  28.200  35.382  1.00  0.00    -0.200 F 
ATOM     94  F   UNL A   1      47.656  25.963  36.892  1.00  0.00    -0.200 F 
ENDBRANCH  61  84
ENDBRANCH  35  36
ENDBRANCH  28  30
ENDBRANCH  27  28
ENDBRANCH  26  27
ENDBRANCH   1  26
TORSDOF 15
ENDMDL
MODEL 2
REMARK VINA RESULT:     -12.3      1.011      2.073
REMARK SMILES CC(C)[C@@H](CNC(=O)[C@@H]1CC[C@@H]2CCCC[C@@H]2[NH2+]1)C(=O)OCCOC(=O)c1ccc(-c2c3nc(c(-c4c(F)c(F)c(F)c(F)c4F)c4ccc([nH]4)c(-c4c(F)c(F)c(F)c(F)c4F)c4nc(c(-c5c(F)c(F)c(F)c(F)c5F)c5ccc2[nH]5)C=C4)C=C3)cc1
REMARK SMILES IDX 22 1 21 2 19 3 20 4 4 5 2 6 1 7 3 8 5 9 6 10 7 11 8 13 9 14
REMARK SMILES IDX 10 15 18 16 11 17 17 18 12 21 16 22 13 23 15 24 14 25 23 26
REMARK SMILES IDX 24 27 25 28 26 29 27 30 28 31 89 32 29 33 88 34 30 35 31 36
REMARK SMILES IDX 32 37 82 38 33 39 87 40 81 41 83 42 34 43 86 44 80 45 79 46
REMARK SMILES IDX 35 48 67 49 47 50 66 51 48 52 51 53 65 54 84 55 49 56 50 57
REMARK SMILES IDX 64 59 85 60 52 61 36 62 37 63 45 64 38 65 39 66 43 67 46 68
REMARK SMILES IDX 40 69 41 70 44 71 42 72 68 73 69 74 77 75 70 76 71 77 75 78
REMARK SMILES IDX 78 79 72 80 73 81 76 82 74 83 53 84 54 85 62 86 55 87 56 88
REMARK SMILES IDX 60 89 63 90 57 91 58 92 61 93 59 94
REMARK H PARENT 6 12 18 19 18 20 83 47 51 58
REMARK Flexibility Score: inf
ROOT
ATOM      1  C   UNL A   1      31.764  28.544  27.416  1.00  0.00     0.274 C 
ENDROOT
BRANCH   1   2
ATOM      2  O   UNL A   1      31.087  27.475  26.726  1.00  0.00    -0.462 OA
BRANCH   2   3
ATOM      3  C   UNL A   1      31.551  27.163  25.492  1.00  0.00     0.311 C 
ATOM      4  O   UNL A   1      32.710  26.856  25.236  1.00  0.00    -0.252 OA
BRANCH   3   5
ATOM      5  C   UNL A   1      30.516  27.315  24.388  1.00  0.00     0.121 C 
BRANCH   5   6
ATOM      6  C   UNL A   1      31.026  27.957  23.067  1.00  0.00    -0.001 C 
ATOM      7  C   UNL A   1      31.346  26.892  22.009  1.00  0.00     0.008 C 
ATOM      8  C   UNL A   1      29.995  28.928  22.473  1.00  0.00     0.008 C 
ENDBRANCH   5   6
BRANCH   5   9
ATOM      9  C   UNL A   1      29.849  25.932  24.230  1.00  0.00     0.131 C 
BRANCH   9  10
ATOM     10  N   UNL A   1      30.423  24.962  25.143  1.00  0.00    -0.350 N 
ATOM     11  C   UNL A   1      30.950  23.745  24.823  1.00  0.00     0.278 C 
ATOM     12  H   UNL A   1      30.434  25.209  26.095  1.00  0.00     0.163 HD
ATOM     13  O   UNL A   1      30.718  22.837  25.618  1.00  0.00    -0.268 OA
BRANCH  11  14
ATOM     14  C   UNL A   1      31.854  23.588  23.573  1.00  0.00     0.272 C 
ATOM     15  C   UNL A   1      32.044  22.142  23.128  1.00  0.00     0.076 C 
ATOM     16  N   UNL A   1      33.156  24.254  23.786  1.00  0.00    -0.333 N 
ATOM     17  C   UNL A   1      32.887  21.340  24.109  1.00  0.00     0.016 C 
ATOM     18  C   UNL A   1      34.138  23.525  24.604  1.00  0.00     0.186 C 
ATOM     19  H   UNL A   1      32.975  25.149  24.241  1.00  0.00     0.347 HD
ATOM     20  H   UNL A   1      33.577  24.329  22.860  1.00  0.00     0.347 HD
ATOM     21  C   UNL A   1      34.243  22.018  24.314  1.00  0.00     0.048 C 
ATOM     22  C   UNL A   1      34.155  23.933  26.095  1.00  0.00     0.065 C 
ATOM     23  C   UNL A   1      35.082  21.320  25.387  1.00  0.00     0.010 C 
ATOM     24  C   UNL A   1      34.004  22.835  27.149  1.00  0.00     0.006 C 
ATOM     25  C   UNL A   1      34.472  21.435  26.775  1.00  0.00     0.001 C 
ENDBRANCH  11  14
ENDBRANCH   9  10
ENDBRANCH   5   9
ENDBRANCH   3   5
ENDBRANCH   2   3
ENDBRANCH   1   2
BRANCH   1  26
ATOM     26  C   UNL A   1      31.789  29.838  26.607  1.00  0.00     0.275 C 
BRANCH  26  27
ATOM     27  O   UNL A   1      33.141  30.287  26.415  1.00  0.00    -0.458 OA
BRANCH  27  28
ATOM     28  C   UNL A   1      33.543  31.288  27.222  1.00  0.00     0.338 C 
ATOM     29  O   UNL A   1      32.921  32.290  27.552  1.00  0.00    -0.246 OA
BRANCH  28  30
ATOM     30  C   UNL A   1      34.891  31.003  27.717  1.00  0.00     0.060 A 
ATOM     31  C   UNL A   1      35.235  29.692  28.066  1.00  0.00     0.016 A 
ATOM     32  C   UNL A   1      35.768  32.058  27.952  1.00  0.00     0.016 A 
ATOM     33  C   UNL A   1      36.462  29.426  28.661  1.00  0.00     0.010 A 
ATOM     34  C   UNL A   1      36.998  31.792  28.548  1.00  0.00     0.010 A 
ATOM     35  C   UNL A   1      37.340  30.480  28.923  1.00  0.00    -0.014 A 
BRANCH  35  36
ATOM     36  C   UNL A   1      38.584  30.255  29.683  1.00  0.00     0.031 A 
ATOM     37  C   UNL A   1      39.612  29.326  29.116  1.00  0.00     0.074 A 
ATOM     38  C   UNL A   1      38.759  30.833  30.882  1.00  0.00     0.049 A 
ATOM     39  N   UNL A   1      40.626  28.753  29.706  1.00  0.00    -0.248 NA
ATOM     40  C   UNL A   1      39.470  28.992  27.689  1.00  0.00     0.031 C 
ATOM     41  C   UNL A   1      37.863  31.818  31.484  1.00  0.00     0.029 A 
ATOM     42  N   UNL A   1      39.739  30.644  31.822  1.00  0.00    -0.354 N 
ATOM     43  C   UNL A   1      41.216  27.954  28.738  1.00  0.00     0.074 A 
ATOM     44  C   UNL A   1      40.460  28.128  27.517  1.00  0.00     0.031 C 
ATOM     45  C   UNL A   1      38.315  32.122  32.712  1.00  0.00     0.029 A 
ATOM     46  C   UNL A   1      39.490  31.304  32.999  1.00  0.00     0.049 A 
ATOM     47  H   UNL A   1      40.539  30.091  31.668  1.00  0.00     0.167 HD
ATOM     48  C   UNL A   1      42.285  27.136  28.873  1.00  0.00     0.037 A 
ATOM     49  C   UNL A   1      40.107  31.203  34.191  1.00  0.00     0.037 A 
ATOM     50  C   UNL A   1      43.029  26.989  30.095  1.00  0.00     0.049 A 
ATOM     51  C   UNL A   1      41.254  30.240  34.339  1.00  0.00     0.074 A 
ATOM     52  C   UNL A   1      44.121  26.181  30.353  1.00  0.00     0.029 A 
ATOM     53  N   UNL A   1      42.751  27.679  31.267  1.00  0.00    -0.354 N 
ATOM     54  N   UNL A   1      41.779  29.439  33.443  1.00  0.00    -0.248 NA
ATOM     55  C   UNL A   1      41.880  30.151  35.665  1.00  0.00     0.031 C 
ATOM     56  C   UNL A   1      44.487  26.363  31.691  1.00  0.00     0.029 A 
ATOM     57  C   UNL A   1      43.645  27.309  32.255  1.00  0.00     0.049 A 
ATOM     58  H   UNL A   1      42.024  28.334  31.378  1.00  0.00     0.167 HD
ATOM     59  C   UNL A   1      42.808  28.768  34.087  1.00  0.00     0.074 A 
ATOM     60  C   UNL A   1      42.836  29.257  35.451  1.00  0.00     0.031 C 
ATOM     61  C   UNL A   1      43.656  27.832  33.596  1.00  0.00     0.037 A 
BRANCH  48  62
ATOM     62  C   UNL A   1      42.678  26.309  27.689  1.00  0.00     0.064 A 
ATOM     63  C   UNL A   1      43.659  26.734  26.782  1.00  0.00     0.173 A 
ATOM     64  C   UNL A   1      42.073  25.062  27.468  1.00  0.00     0.173 A 
ATOM     65  F   UNL A   1      44.251  27.927  26.939  1.00  0.00    -0.203 F 
ATOM     66  C   UNL A   1      44.011  25.946  25.689  1.00  0.00     0.198 A 
ATOM     67  C   UNL A   1      42.442  24.267  26.386  1.00  0.00     0.198 A 
ATOM     68  F   UNL A   1      41.125  24.612  28.305  1.00  0.00    -0.203 F 
ATOM     69  F   UNL A   1      44.926  26.387  24.814  1.00  0.00    -0.200 F 
ATOM     70  C   UNL A   1      43.407  24.712  25.495  1.00  0.00     0.200 A 
ATOM     71  F   UNL A   1      41.860  23.074  26.204  1.00  0.00    -0.200 F 
ATOM     72  F   UNL A   1      43.748  23.954  24.444  1.00  0.00    -0.200 F 
ENDBRANCH  48  62
BRANCH  49  73
ATOM     73  C   UNL A   1      39.613  31.997  35.344  1.00  0.00     0.064 A 
ATOM     74  C   UNL A   1      40.079  33.298  35.572  1.00  0.00     0.173 A 
ATOM     75  C   UNL A   1      38.654  31.480  36.227  1.00  0.00     0.173 A 
ATOM     76  F   UNL A   1      41.014  33.825  34.769  1.00  0.00    -0.203 F 
ATOM     77  C   UNL A   1      39.606  34.052  36.645  1.00  0.00     0.198 A 
ATOM     78  C   UNL A   1      38.163  32.244  37.284  1.00  0.00     0.198 A 
ATOM     79  F   UNL A   1      38.179  30.238  36.051  1.00  0.00    -0.203 F 
ATOM     80  F   UNL A   1      40.089  35.284  36.859  1.00  0.00    -0.200 F 
ATOM     81  C   UNL A   1      38.644  33.527  37.494  1.00  0.00     0.200 A 
ATOM     82  F   UNL A   1      37.227  31.737  38.096  1.00  0.00    -0.200 F 
ATOM     83  F   UNL A   1      38.182  34.257  38.519  1.00  0.00    -0.200 F 
ENDBRANCH  49  73
BRANCH  61  84
ATOM     84  C   UNL A   1      44.712  27.312  34.523  1.00  0.00     0.064 A 
ATOM     85  C   UNL A   1      44.509  26.156  35.287  1.00  0.00     0.173 A 
ATOM     86  C   UNL A   1      45.963  27.942  34.588  1.00  0.00     0.173 A 
ATOM     87  F   UNL A   1      43.323  25.530  35.264  1.00  0.00    -0.203 F 
ATOM     88  C   UNL A   1      45.524  25.651  36.094  1.00  0.00     0.198 A 
ATOM     89  C   UNL A   1      46.982  27.424  35.381  1.00  0.00     0.198 A 
ATOM     90  F   UNL A   1      46.201  29.048  33.868  1.00  0.00    -0.203 F 
ATOM     91  F   UNL A   1      45.306  24.557  36.837  1.00  0.00    -0.200 F 
ATOM     92  C   UNL A   1      46.761  26.280  36.134  1.00  0.00     0.200 A 
ATOM     93  F   UNL A   1      48.177  28.027  35.413  1.00  0.00    -0.200 F 
ATOM     94  F   UNL A   1      47.741  25.786  36.904  1.00  0.00    -0.200 F 
ENDBRANCH  61  84
ENDBRANCH  35  36
ENDBRANCH  28  30
ENDBRANCH  27  28
ENDBRANCH  26  27
ENDBRANCH   1  26
TORSDOF 15
ENDMDL
MODEL 3
REMARK VINA RESULT:     -12.3      0.449      1.996
REMARK SMILES CC(C)[C@@H](CNC(=O)[C@@H]1CC[C@@H]2CCCC[C@@H]2[NH2+]1)C(=O)OCCOC(=O)c1ccc(-c2c3nc(c(-c4c(F)c(F)c(F)c(F)c4F)c4ccc([nH]4)c(-c4c(F)c(F)c(F)c(F)c4F)c4nc(c(-c5c(F)c(F)c(F)c(F)c5F)c5ccc2[nH]5)C=C4)C=C3)cc1
REMARK SMILES IDX 22 1 21 2 19 3 20 4 4 5 2 6 1 7 3 8 5 9 6 10 7 11 8 13 9 14
REMARK SMILES IDX 10 15 18 16 11 17 17 18 12 21 16 22 13 23 15 24 14 25 23 26
REMARK SMILES IDX 24 27 25 28 26 29 27 30 28 31 89 32 29 33 88 34 30 35 31 36
REMARK SMILES IDX 32 37 82 38 33 39 87 40 81 41 83 42 34 43 86 44 80 45 79 46
REMARK SMILES IDX 35 48 67 49 47 50 66 51 48 52 51 53 65 54 84 55 49 56 50 57
REMARK SMILES IDX 64 59 85 60 52 61 36 62 37 63 45 64 38 65 39 66 43 67 46 68
REMARK SMILES IDX 40 69 41 70 44 71 42 72 68 73 69 74 77 75 70 76 71 77 75 78
REMARK SMILES IDX 78 79 72 80 73 81 76 82 74 83 53 84 54 85 62 86 55 87 56 88
REMARK SMILES IDX 60 89 63 90 57 91 58 92 61 93 59 94
REMARK H PARENT 6 12 18 19 18 20 83 47 51 58
REMARK Flexibility Score: inf
ROOT
ATOM      1  C   UNL A   1      31.303  29.770  25.154  1.00  0.00     0.274 C 
ENDROOT
BRANCH   1   2
ATOM      2  O   UNL A   1      31.861  28.671  24.405  1.00  0.00    -0.462 OA
BRANCH   2   3
ATOM      3  C   UNL A   1      31.112  28.197  23.381  1.00  0.00     0.311 C 
ATOM      4  O   UNL A   1      31.549  27.885  22.278  1.00  0.00    -0.252 OA
BRANCH   3   5
ATOM      5  C   UNL A   1      29.620  28.162  23.674  1.00  0.00     0.121 C 
BRANCH   5   6
ATOM      6  C   UNL A   1      28.714  28.922  22.664  1.00  0.00    -0.001 C 
ATOM      7  C   UNL A   1      27.249  28.934  23.119  1.00  0.00     0.008 C 
ATOM      8  C   UNL A   1      29.170  30.376  22.475  1.00  0.00     0.008 C 
ENDBRANCH   5   6
BRANCH   5   9
ATOM      9  C   UNL A   1      29.258  26.676  23.889  1.00  0.00     0.131 C 
BRANCH   9  10
ATOM     10  N   UNL A   1      30.265  25.998  24.681  1.00  0.00    -0.350 N 
ATOM     11  C   UNL A   1      30.693  24.710  24.539  1.00  0.00     0.278 C 
ATOM     12  H   UNL A   1      30.685  26.523  25.400  1.00  0.00     0.163 HD
ATOM     13  O   UNL A   1      30.926  24.105  25.583  1.00  0.00    -0.268 OA
BRANCH  11  14
ATOM     14  C   UNL A   1      30.941  24.120  23.126  1.00  0.00     0.272 C 
ATOM     15  C   UNL A   1      31.326  22.644  23.135  1.00  0.00     0.076 C 
ATOM     16  N   UNL A   1      31.940  24.927  22.395  1.00  0.00    -0.333 N 
ATOM     17  C   UNL A   1      32.713  22.411  23.715  1.00  0.00     0.016 C 
ATOM     18  C   UNL A   1      33.350  24.702  22.751  1.00  0.00     0.186 C 
ATOM     19  H   UNL A   1      31.729  25.910  22.565  1.00  0.00     0.347 HD
ATOM     20  H   UNL A   1      31.858  24.640  21.419  1.00  0.00     0.347 HD
ATOM     21  C   UNL A   1      33.751  23.229  22.945  1.00  0.00     0.048 C 
ATOM     22  C   UNL A   1      33.914  25.701  23.786  1.00  0.00     0.065 C 
ATOM     23  C   UNL A   1      35.145  23.128  23.568  1.00  0.00     0.010 C 
ATOM     24  C   UNL A   1      34.581  25.144  25.045  1.00  0.00     0.006 C 
ATOM     25  C   UNL A   1      35.219  23.764  24.946  1.00  0.00     0.001 C 
ENDBRANCH  11  14
ENDBRANCH   9  10
ENDBRANCH   5   9
ENDBRANCH   3   5
ENDBRANCH   2   3
ENDBRANCH   1   2
BRANCH   1  26
ATOM     26  C   UNL A   1      31.964  29.940  26.520  1.00  0.00     0.275 C 
BRANCH  26  27
ATOM     27  O   UNL A   1      33.314  30.410  26.372  1.00  0.00    -0.458 OA
BRANCH  27  28
ATOM     28  C   UNL A   1      33.703  31.355  27.250  1.00  0.00     0.338 C 
ATOM     29  O   UNL A   1      33.079  32.339  27.627  1.00  0.00    -0.246 OA
BRANCH  28  30
ATOM     30  C   UNL A   1      35.036  31.029  27.758  1.00  0.00     0.060 A 
ATOM     31  C   UNL A   1      35.340  29.708  28.102  1.00  0.00     0.016 A 
ATOM     32  C   UNL A   1      35.940  32.058  28.009  1.00  0.00     0.016 A 
ATOM     33  C   UNL A   1      36.553  29.404  28.709  1.00  0.00     0.010 A 
ATOM     34  C   UNL A   1      37.156  31.755  28.616  1.00  0.00     0.010 A 
ATOM     35  C   UNL A   1      37.457  30.431  28.987  1.00  0.00    -0.014 A 
BRANCH  35  36
ATOM     36  C   UNL A   1      38.685  30.166  29.759  1.00  0.00     0.031 A 
ATOM     37  C   UNL A   1      39.703  29.230  29.187  1.00  0.00     0.074 A 
ATOM     38  C   UNL A   1      38.854  30.716  30.972  1.00  0.00     0.049 A 
ATOM     39  N   UNL A   1      40.698  28.626  29.779  1.00  0.00    -0.248 NA
ATOM     40  C   UNL A   1      39.575  28.928  27.752  1.00  0.00     0.031 C 
ATOM     41  C   UNL A   1      37.968  31.706  31.582  1.00  0.00     0.029 A 
ATOM     42  N   UNL A   1      39.817  30.490  31.921  1.00  0.00    -0.354 N 
ATOM     43  C   UNL A   1      41.287  27.835  28.803  1.00  0.00     0.074 A 
ATOM     44  C   UNL A   1      40.551  28.049  27.575  1.00  0.00     0.031 C 
ATOM     45  C   UNL A   1      38.409  31.976  32.822  1.00  0.00     0.029 A 
ATOM     46  C   UNL A   1      39.564  31.130  33.108  1.00  0.00     0.049 A 
ATOM     47  H   UNL A   1      40.609  29.925  31.767  1.00  0.00     0.167 HD
ATOM     48  C   UNL A   1      42.338  26.995  28.936  1.00  0.00     0.037 A 
ATOM     49  C   UNL A   1      40.163  30.993  34.306  1.00  0.00     0.037 A 
ATOM     50  C   UNL A   1      43.062  26.808  30.164  1.00  0.00     0.049 A 
ATOM     51  C   UNL A   1      41.288  30.006  34.450  1.00  0.00     0.074 A 
ATOM     52  C   UNL A   1      44.135  25.975  30.421  1.00  0.00     0.029 A 
ATOM     53  N   UNL A   1      42.780  27.480  31.346  1.00  0.00    -0.354 N 
ATOM     54  N   UNL A   1      41.811  29.214  33.545  1.00  0.00    -0.248 NA
ATOM     55  C   UNL A   1      41.894  29.878  35.782  1.00  0.00     0.031 C 
ATOM     56  C   UNL A   1      44.486  26.122  31.767  1.00  0.00     0.029 A 
ATOM     57  C   UNL A   1      43.654  27.073  32.338  1.00  0.00     0.049 A 
ATOM     58  H   UNL A   1      42.065  28.146  31.461  1.00  0.00     0.167 HD
ATOM     59  C   UNL A   1      42.819  28.510  34.189  1.00  0.00     0.074 A 
ATOM     60  C   UNL A   1      42.836  28.971  35.563  1.00  0.00     0.031 C 
ATOM     61  C   UNL A   1      43.655  27.568  33.690  1.00  0.00     0.037 A 
BRANCH  48  62
ATOM     62  C   UNL A   1      42.731  26.184  27.740  1.00  0.00     0.064 A 
ATOM     63  C   UNL A   1      43.741  26.603  26.862  1.00  0.00     0.173 A 
ATOM     64  C   UNL A   1      42.099  24.959  27.479  1.00  0.00     0.173 A 
ATOM     65  F   UNL A   1      44.361  27.777  27.058  1.00  0.00    -0.203 F 
ATOM     66  C   UNL A   1      44.093  25.832  25.758  1.00  0.00     0.198 A 
ATOM     67  C   UNL A   1      42.467  24.180  26.386  1.00  0.00     0.198 A 
ATOM     68  F   UNL A   1      41.124  24.516  28.288  1.00  0.00    -0.203 F 
ATOM     69  F   UNL A   1      45.036  26.268  24.910  1.00  0.00    -0.200 F 
ATOM     70  C   UNL A   1      43.461  24.619  25.524  1.00  0.00     0.200 A 
ATOM     71  F   UNL A   1      41.859  23.007  26.165  1.00  0.00    -0.200 F 
ATOM     72  F   UNL A   1      43.803  23.877  24.462  1.00  0.00    -0.200 F 
ENDBRANCH  48  62
BRANCH  49  73
ATOM     73  C   UNL A   1      39.668  31.773  35.469  1.00  0.00     0.064 A 
ATOM     74  C   UNL A   1      40.197  33.036  35.765  1.00  0.00     0.173 A 
ATOM     75  C   UNL A   1      38.644  31.282  36.292  1.00  0.00     0.173 A 
ATOM     76  F   UNL A   1      41.194  33.535  35.020  1.00  0.00    -0.203 F 
ATOM     77  C   UNL A   1      39.725  33.777  36.846  1.00  0.00     0.198 A 
ATOM     78  C   UNL A   1      38.154  32.035  37.358  1.00  0.00     0.198 A 
ATOM     79  F   UNL A   1      38.106  30.078  36.049  1.00  0.00    -0.203 F 
ATOM     80  F   UNL A   1      40.268  34.969  37.126  1.00  0.00    -0.200 F 
ATOM     81  C   UNL A   1      38.699  33.280  37.636  1.00  0.00     0.200 A 
ATOM     82  F   UNL A   1      37.157  31.556  38.112  1.00  0.00    -0.200 F 
ATOM     83  F   UNL A   1      38.238  33.998  38.669  1.00  0.00    -0.200 F 
ENDBRANCH  49  73
BRANCH  61  84
ATOM     84  C   UNL A   1      44.688  27.010  34.620  1.00  0.00     0.064 A 
ATOM     85  C   UNL A   1      45.926  27.640  34.803  1.00  0.00     0.173 A 
ATOM     86  C   UNL A   1      44.402  25.871  35.388  1.00  0.00     0.173 A 
ATOM     87  F   UNL A   1      46.245  28.724  34.080  1.00  0.00    -0.203 F 
ATOM     88  C   UNL A   1      46.847  27.143  35.719  1.00  0.00     0.198 A 
ATOM     89  C   UNL A   1      45.318  25.388  36.316  1.00  0.00     0.198 A 
ATOM     90  F   UNL A   1      43.226  25.240  35.248  1.00  0.00    -0.203 F 
ATOM     91  F   UNL A   1      48.036  27.745  35.864  1.00  0.00    -0.200 F 
ATOM     92  C   UNL A   1      46.540  26.024  36.479  1.00  0.00     0.200 A 
ATOM     93  F   UNL A   1      45.018  24.312  37.055  1.00  0.00    -0.200 F 
ATOM     94  F   UNL A   1      47.426  25.553  37.369  1.00  0.00    -0.200 F 
ENDBRANCH  61  84
ENDBRANCH  35  36
ENDBRANCH  28  30
ENDBRANCH  27  28
ENDBRANCH  26  27
ENDBRANCH   1  26
TORSDOF 15
ENDMDL
