MODEL 1
REMARK VINA RESULT:     -11.4      0.000      0.000
REMARK SMILES CC(C)[C@H](CO)NS(=O)(=O)c1ccc(Cl)c(C(=O)OCCOC(=O)c2ccc(-c3c4nc(c(-c5c(F)c(F)c(F)c(F)c5F)c5ccc([nH]5)c(-c5c(F)c(F)c(F)c(F)c5F)c5nc(c(-c6c(F)c(F)c(F)c(F)c6F)c6ccc3[nH]6)C=C5)C=C4)cc2)c1
REMARK SMILES IDX 19 1 17 2 18 3 16 4 11 5 12 6 88 7 13 8 14 9 15 10 8 11 9 12
REMARK SMILES IDX 10 13 7 14 4 16 2 17 1 18 3 19 5 20 6 21 20 23 21 24 22 25
REMARK SMILES IDX 23 26 24 27 25 28 26 29 87 30 27 31 86 32 28 33 29 34 30 35
REMARK SMILES IDX 80 36 31 37 85 38 79 39 81 40 32 41 84 42 78 43 77 44 33 46
REMARK SMILES IDX 65 47 45 48 64 49 46 50 49 51 63 52 82 53 47 54 48 55 62 57
REMARK SMILES IDX 83 58 50 59 34 60 35 61 43 62 36 63 37 64 41 65 44 66 38 67
REMARK SMILES IDX 39 68 42 69 40 70 66 71 67 72 75 73 68 74 69 75 73 76 76 77
REMARK SMILES IDX 70 78 71 79 74 80 72 81 51 82 52 83 60 84 53 85 54 86 58 87
REMARK SMILES IDX 61 88 55 89 56 90 59 91 57 92
REMARK H PARENT 7 15 6 22 81 45 49 56
REMARK Flexibility Score: inf
ROOT
ATOM      1  O   UNL A   1      35.277  22.281  24.939  1.00  0.00    -0.458 OA
ENDROOT
BRANCH   1   2
ATOM      2  C   UNL A   1      34.163  22.663  24.273  1.00  0.00     0.339 C 
ATOM      3  O   UNL A   1      33.449  21.966  23.572  1.00  0.00    -0.246 OA
BRANCH   2   4
ATOM      4  C   UNL A   1      33.793  24.044  24.661  1.00  0.00     0.080 A 
ATOM      5  C   UNL A   1      33.371  26.314  23.902  1.00  0.00     0.083 A 
ATOM      6  C   UNL A   1      32.864  26.636  25.163  1.00  0.00     0.023 A 
ATOM      7  C   UNL A   1      33.859  25.029  23.658  1.00  0.00     0.039 A 
ATOM      8  C   UNL A   1      32.892  25.688  26.188  1.00  0.00     0.023 A 
ATOM      9  C   UNL A   1      33.350  24.388  25.943  1.00  0.00     0.055 A 
ATOM     10  Cl  UNL A   1      33.388  23.298  27.282  1.00  0.00    -0.083 Cl
BRANCH   5  11
ATOM     11  S   UNL A   1      33.175  27.463  22.555  1.00  0.00     0.240 S 
ATOM     12  O   UNL A   1      33.913  26.940  21.428  1.00  0.00    -0.207 OA
ATOM     13  O   UNL A   1      33.449  28.784  23.067  1.00  0.00    -0.207 OA
BRANCH  11  14
ATOM     14  N   UNL A   1      31.546  27.468  22.210  1.00  0.00    -0.206 NA
ATOM     15  H   UNL A   1      31.469  27.889  21.284  1.00  0.00     0.141 HD
BRANCH  14  16
ATOM     16  C   UNL A   1      30.500  28.113  23.019  1.00  0.00     0.098 C 
BRANCH  16  17
ATOM     17  C   UNL A   1      29.281  27.199  23.316  1.00  0.00     0.003 C 
ATOM     18  C   UNL A   1      29.431  26.289  24.539  1.00  0.00     0.009 C 
ATOM     19  C   UNL A   1      27.973  27.994  23.411  1.00  0.00     0.009 C 
ENDBRANCH  16  17
BRANCH  16  20
ATOM     20  C   UNL A   1      30.090  29.434  22.304  1.00  0.00     0.176 C 
BRANCH  20  21
ATOM     21  O   UNL A   1      31.124  30.020  21.522  1.00  0.00    -0.395 OA
ATOM     22  H   UNL A   1      30.737  30.654  20.899  1.00  0.00     0.210 HD
ENDBRANCH  20  21
ENDBRANCH  16  20
ENDBRANCH  14  16
ENDBRANCH  11  14
ENDBRANCH   5  11
ENDBRANCH   2   4
ENDBRANCH   1   2
BRANCH   1  23
ATOM     23  C   UNL A   1      35.561  20.869  25.010  1.00  0.00     0.275 C 
BRANCH  23  24
ATOM     24  C   UNL A   1      37.066  20.633  24.905  1.00  0.00     0.275 C 
BRANCH  24  25
ATOM     25  O   UNL A   1      37.760  21.635  25.668  1.00  0.00    -0.458 OA
BRANCH  25  26
ATOM     26  C   UNL A   1      38.985  21.287  26.122  1.00  0.00     0.338 C 
ATOM     27  O   UNL A   1      39.528  20.198  26.067  1.00  0.00    -0.246 OA
BRANCH  26  28
ATOM     28  C   UNL A   1      39.649  22.488  26.645  1.00  0.00     0.060 A 
ATOM     29  C   UNL A   1      39.230  23.725  26.169  1.00  0.00     0.016 A 
ATOM     30  C   UNL A   1      40.741  22.398  27.503  1.00  0.00     0.016 A 
ATOM     31  C   UNL A   1      39.953  24.872  26.480  1.00  0.00     0.010 A 
ATOM     32  C   UNL A   1      41.399  23.570  27.902  1.00  0.00     0.010 A 
ATOM     33  C   UNL A   1      41.028  24.824  27.378  1.00  0.00    -0.014 A 
BRANCH  33  34
ATOM     34  C   UNL A   1      41.750  26.073  27.764  1.00  0.00     0.031 A 
ATOM     35  C   UNL A   1      41.074  27.116  28.617  1.00  0.00     0.074 A 
ATOM     36  C   UNL A   1      43.017  26.288  27.352  1.00  0.00     0.049 A 
ATOM     37  N   UNL A   1      41.428  28.356  28.850  1.00  0.00    -0.248 NA
ATOM     38  C   UNL A   1      39.828  26.714  29.288  1.00  0.00     0.031 C 
ATOM     39  C   UNL A   1      43.832  25.349  26.578  1.00  0.00     0.029 A 
ATOM     40  N   UNL A   1      43.849  27.371  27.529  1.00  0.00    -0.354 N 
ATOM     41  C   UNL A   1      40.422  28.897  29.641  1.00  0.00     0.074 A 
ATOM     42  C   UNL A   1      39.443  27.852  29.851  1.00  0.00     0.031 C 
ATOM     43  C   UNL A   1      45.049  25.874  26.381  1.00  0.00     0.029 A 
ATOM     44  C   UNL A   1      45.068  27.233  26.907  1.00  0.00     0.049 A 
ATOM     45  H   UNL A   1      43.596  28.166  28.050  1.00  0.00     0.167 HD
ATOM     46  C   UNL A   1      40.327  30.155  30.140  1.00  0.00     0.037 A 
ATOM     47  C   UNL A   1      46.067  28.116  26.715  1.00  0.00     0.037 A 
ATOM     48  C   UNL A   1      41.336  31.171  29.982  1.00  0.00     0.049 A 
ATOM     49  C   UNL A   1      45.905  29.523  27.213  1.00  0.00     0.074 A 
ATOM     50  C   UNL A   1      41.342  32.466  30.473  1.00  0.00     0.029 A 
ATOM     51  N   UNL A   1      42.526  31.002  29.291  1.00  0.00    -0.354 N 
ATOM     52  N   UNL A   1      44.921  30.050  27.898  1.00  0.00    -0.248 NA
ATOM     53  C   UNL A   1      46.980  30.469  26.881  1.00  0.00     0.031 C 
ATOM     54  C   UNL A   1      42.515  33.094  30.042  1.00  0.00     0.029 A 
ATOM     55  C   UNL A   1      43.262  32.178  29.321  1.00  0.00     0.049 A 
ATOM     56  H   UNL A   1      42.808  30.170  28.846  1.00  0.00     0.167 HD
ATOM     57  C   UNL A   1      45.254  31.384  28.079  1.00  0.00     0.074 A 
ATOM     58  C   UNL A   1      46.548  31.581  27.459  1.00  0.00     0.031 C 
ATOM     59  C   UNL A   1      44.545  32.361  28.694  1.00  0.00     0.037 A 
BRANCH  46  60
ATOM     60  C   UNL A   1      39.071  30.526  30.877  1.00  0.00     0.064 A 
ATOM     61  C   UNL A   1      38.961  30.412  32.270  1.00  0.00     0.173 A 
ATOM     62  C   UNL A   1      37.982  31.070  30.177  1.00  0.00     0.173 A 
ATOM     63  F   UNL A   1      39.970  29.895  32.986  1.00  0.00    -0.203 F 
ATOM     64  C   UNL A   1      37.801  30.809  32.932  1.00  0.00     0.198 A 
ATOM     65  C   UNL A   1      36.835  31.492  30.844  1.00  0.00     0.198 A 
ATOM     66  F   UNL A   1      38.039  31.213  28.843  1.00  0.00    -0.203 F 
ATOM     67  F   UNL A   1      37.704  30.659  34.260  1.00  0.00    -0.200 F 
ATOM     68  C   UNL A   1      36.743  31.357  32.220  1.00  0.00     0.200 A 
ATOM     69  F   UNL A   1      35.822  32.037  30.155  1.00  0.00    -0.200 F 
ATOM     70  F   UNL A   1      35.634  31.751  32.861  1.00  0.00    -0.200 F 
ENDBRANCH  46  60
BRANCH  47  71
ATOM     71  C   UNL A   1      47.272  27.713  25.941  1.00  0.00     0.064 A 
ATOM     72  C   UNL A   1      47.273  27.735  24.541  1.00  0.00     0.173 A 
ATOM     73  C   UNL A   1      48.449  27.302  26.587  1.00  0.00     0.173 A 
ATOM     74  F   UNL A   1      46.164  28.091  23.876  1.00  0.00    -0.203 F 
ATOM     75  C   UNL A   1      48.402  27.356  23.816  1.00  0.00     0.198 A 
ATOM     76  C   UNL A   1      49.587  26.958  25.863  1.00  0.00     0.198 A 
ATOM     77  F   UNL A   1      48.500  27.255  27.927  1.00  0.00    -0.203 F 
ATOM     78  F   UNL A   1      48.363  27.345  22.477  1.00  0.00    -0.200 F 
ATOM     79  C   UNL A   1      49.561  26.979  24.478  1.00  0.00     0.200 A 
ATOM     80  F   UNL A   1      50.710  26.610  26.508  1.00  0.00    -0.200 F 
ATOM     81  F   UNL A   1      50.650  26.627  23.780  1.00  0.00    -0.200 F 
ENDBRANCH  47  71
BRANCH  59  82
ATOM     82  C   UNL A   1      45.160  33.728  28.734  1.00  0.00     0.064 A 
ATOM     83  C   UNL A   1      44.876  34.685  27.750  1.00  0.00     0.173 A 
ATOM     84  C   UNL A   1      46.016  34.095  29.783  1.00  0.00     0.173 A 
ATOM     85  F   UNL A   1      44.080  34.374  26.716  1.00  0.00    -0.203 F 
ATOM     86  C   UNL A   1      45.442  35.956  27.804  1.00  0.00     0.198 A 
ATOM     87  C   UNL A   1      46.559  35.374  29.849  1.00  0.00     0.198 A 
ATOM     88  F   UNL A   1      46.317  33.216  30.751  1.00  0.00    -0.203 F 
ATOM     89  F   UNL A   1      45.193  36.840  26.829  1.00  0.00    -0.200 F 
ATOM     90  C   UNL A   1      46.278  36.302  28.856  1.00  0.00     0.200 A 
ATOM     91  F   UNL A   1      47.357  35.711  30.871  1.00  0.00    -0.200 F 
ATOM     92  F   UNL A   1      46.817  37.527  28.910  1.00  0.00    -0.200 F 
ENDBRANCH  59  82
ENDBRANCH  33  34
ENDBRANCH  26  28
ENDBRANCH  25  26
ENDBRANCH  24  25
ENDBRANCH  23  24
ENDBRANCH   1  23
TORSDOF 17
ENDMDL
MODEL 2
REMARK VINA RESULT:     -11.1      4.318      9.888
REMARK SMILES CC(C)[C@H](CO)NS(=O)(=O)c1ccc(Cl)c(C(=O)OCCOC(=O)c2ccc(-c3c4nc(c(-c5c(F)c(F)c(F)c(F)c5F)c5ccc([nH]5)c(-c5c(F)c(F)c(F)c(F)c5F)c5nc(c(-c6c(F)c(F)c(F)c(F)c6F)c6ccc3[nH]6)C=C5)C=C4)cc2)c1
REMARK SMILES IDX 19 1 17 2 18 3 16 4 11 5 12 6 88 7 13 8 14 9 15 10 8 11 9 12
REMARK SMILES IDX 10 13 7 14 4 16 2 17 1 18 3 19 5 20 6 21 20 23 21 24 22 25
REMARK SMILES IDX 23 26 24 27 25 28 26 29 87 30 27 31 86 32 28 33 29 34 30 35
REMARK SMILES IDX 80 36 31 37 85 38 79 39 81 40 32 41 84 42 78 43 77 44 33 46
REMARK SMILES IDX 65 47 45 48 64 49 46 50 49 51 63 52 82 53 47 54 48 55 62 57
REMARK SMILES IDX 83 58 50 59 34 60 35 61 43 62 36 63 37 64 41 65 44 66 38 67
REMARK SMILES IDX 39 68 42 69 40 70 66 71 67 72 75 73 68 74 69 75 73 76 76 77
REMARK SMILES IDX 70 78 71 79 74 80 72 81 51 82 52 83 60 84 53 85 54 86 58 87
REMARK SMILES IDX 61 88 55 89 56 90 59 91 57 92
REMARK H PARENT 7 15 6 22 81 45 49 56
REMARK Flexibility Score: inf
ROOT
ATOM      1  O   UNL A   1      32.937  27.599  25.391  1.00  0.00    -0.458 OA
ENDROOT
BRANCH   1   2
ATOM      2  C   UNL A   1      33.483  27.380  24.173  1.00  0.00     0.339 C 
ATOM      3  O   UNL A   1      34.011  28.203  23.444  1.00  0.00    -0.246 OA
BRANCH   2   4
ATOM      4  C   UNL A   1      33.532  25.925  23.898  1.00  0.00     0.080 A 
ATOM      5  C   UNL A   1      33.893  23.704  24.817  1.00  0.00     0.083 A 
ATOM      6  C   UNL A   1      33.417  23.141  23.631  1.00  0.00     0.023 A 
ATOM      7  C   UNL A   1      33.975  25.092  24.943  1.00  0.00     0.039 A 
ATOM      8  C   UNL A   1      33.073  23.966  22.557  1.00  0.00     0.023 A 
ATOM      9  C   UNL A   1      33.122  25.359  22.686  1.00  0.00     0.055 A 
ATOM     10  Cl  UNL A   1      32.720  26.295  21.291  1.00  0.00    -0.083 Cl
BRANCH   5  11
ATOM     11  S   UNL A   1      34.163  22.665  26.238  1.00  0.00     0.240 S 
ATOM     12  O   UNL A   1      33.759  21.325  25.878  1.00  0.00    -0.207 OA
ATOM     13  O   UNL A   1      33.582  23.329  27.380  1.00  0.00    -0.207 OA
BRANCH  11  14
ATOM     14  N   UNL A   1      35.805  22.704  26.511  1.00  0.00    -0.206 NA
ATOM     15  H   UNL A   1      35.919  23.198  27.396  1.00  0.00     0.141 HD
BRANCH  14  16
ATOM     16  C   UNL A   1      36.811  23.286  25.607  1.00  0.00     0.098 C 
BRANCH  16  17
ATOM     17  C   UNL A   1      37.352  22.293  24.544  1.00  0.00     0.003 C 
ATOM     18  C   UNL A   1      37.110  20.813  24.851  1.00  0.00     0.009 C 
ATOM     19  C   UNL A   1      36.849  22.625  23.134  1.00  0.00     0.009 C 
ENDBRANCH  16  17
BRANCH  16  20
ATOM     20  C   UNL A   1      37.945  23.893  26.484  1.00  0.00     0.176 C 
BRANCH  20  21
ATOM     21  O   UNL A   1      39.068  24.359  25.747  1.00  0.00    -0.395 OA
ATOM     22  H   UNL A   1      38.766  24.934  25.027  1.00  0.00     0.210 HD
ENDBRANCH  20  21
ENDBRANCH  16  20
ENDBRANCH  14  16
ENDBRANCH  11  14
ENDBRANCH   5  11
ENDBRANCH   2   4
ENDBRANCH   1   2
BRANCH   1  23
ATOM     23  C   UNL A   1      31.644  28.235  25.438  1.00  0.00     0.275 C 
BRANCH  23  24
ATOM     24  C   UNL A   1      31.809  29.751  25.528  1.00  0.00     0.275 C 
BRANCH  24  25
ATOM     25  O   UNL A   1      33.158  30.060  25.920  1.00  0.00    -0.458 OA
BRANCH  25  26
ATOM     26  C   UNL A   1      33.300  31.102  26.771  1.00  0.00     0.338 C 
ATOM     27  O   UNL A   1      32.576  32.072  26.902  1.00  0.00    -0.246 OA
BRANCH  26  28
ATOM     28  C   UNL A   1      34.466  30.850  27.628  1.00  0.00     0.060 A 
ATOM     29  C   UNL A   1      35.357  31.895  27.841  1.00  0.00     0.016 A 
ATOM     30  C   UNL A   1      34.742  29.579  28.123  1.00  0.00     0.016 A 
ATOM     31  C   UNL A   1      36.571  31.657  28.478  1.00  0.00     0.010 A 
ATOM     32  C   UNL A   1      35.916  29.369  28.860  1.00  0.00     0.010 A 
ATOM     33  C   UNL A   1      36.860  30.401  29.029  1.00  0.00    -0.014 A 
BRANCH  33  34
ATOM     34  C   UNL A   1      38.134  30.176  29.776  1.00  0.00     0.031 A 
ATOM     35  C   UNL A   1      39.241  29.350  29.171  1.00  0.00     0.074 A 
ATOM     36  C   UNL A   1      38.312  30.707  31.003  1.00  0.00     0.049 A 
ATOM     37  N   UNL A   1      40.302  28.837  29.743  1.00  0.00    -0.248 NA
ATOM     38  C   UNL A   1      39.133  29.051  27.735  1.00  0.00     0.031 C 
ATOM     39  C   UNL A   1      37.366  31.582  31.698  1.00  0.00     0.029 A 
ATOM     40  N   UNL A   1      39.358  30.589  31.892  1.00  0.00    -0.354 N 
ATOM     41  C   UNL A   1      40.953  28.108  28.755  1.00  0.00     0.074 A 
ATOM     42  C   UNL A   1      40.170  28.246  27.545  1.00  0.00     0.031 C 
ATOM     43  C   UNL A   1      37.885  31.951  32.876  1.00  0.00     0.029 A 
ATOM     44  C   UNL A   1      39.145  31.248  33.080  1.00  0.00     0.049 A 
ATOM     45  H   UNL A   1      40.178  30.082  31.695  1.00  0.00     0.167 HD
ATOM     46  C   UNL A   1      42.098  27.387  28.855  1.00  0.00     0.037 A 
ATOM     47  C   UNL A   1      39.840  31.237  34.233  1.00  0.00     0.037 A 
ATOM     48  C   UNL A   1      42.907  27.307  30.044  1.00  0.00     0.049 A 
ATOM     49  C   UNL A   1      41.064  30.374  34.341  1.00  0.00     0.074 A 
ATOM     50  C   UNL A   1      44.097  26.625  30.234  1.00  0.00     0.029 A 
ATOM     51  N   UNL A   1      42.617  27.944  31.241  1.00  0.00    -0.354 N 
ATOM     52  N   UNL A   1      41.635  29.631  33.426  1.00  0.00    -0.248 NA
ATOM     53  C   UNL A   1      41.721  30.320  35.655  1.00  0.00     0.031 C 
ATOM     54  C   UNL A   1      44.503  26.813  31.560  1.00  0.00     0.029 A 
ATOM     55  C   UNL A   1      43.592  27.648  32.183  1.00  0.00     0.049 A 
ATOM     56  H   UNL A   1      41.835  28.521  31.400  1.00  0.00     0.167 HD
ATOM     57  C   UNL A   1      42.714  29.022  34.049  1.00  0.00     0.074 A 
ATOM     58  C   UNL A   1      42.739  29.506  35.414  1.00  0.00     0.031 C 
ATOM     59  C   UNL A   1      43.599  28.132  33.539  1.00  0.00     0.037 A 
BRANCH  46  60
ATOM     60  C   UNL A   1      42.535  26.591  27.658  1.00  0.00     0.064 A 
ATOM     61  C   UNL A   1      43.470  27.080  26.736  1.00  0.00     0.173 A 
ATOM     62  C   UNL A   1      42.054  25.285  27.471  1.00  0.00     0.173 A 
ATOM     63  F   UNL A   1      43.958  28.323  26.864  1.00  0.00    -0.203 F 
ATOM     64  C   UNL A   1      43.893  26.300  25.661  1.00  0.00     0.198 A 
ATOM     65  C   UNL A   1      42.498  24.498  26.414  1.00  0.00     0.198 A 
ATOM     66  F   UNL A   1      41.165  24.763  28.332  1.00  0.00    -0.203 F 
ATOM     67  F   UNL A   1      44.762  26.800  24.772  1.00  0.00    -0.200 F 
ATOM     68  C   UNL A   1      43.414  25.007  25.506  1.00  0.00     0.200 A 
ATOM     69  F   UNL A   1      42.047  23.243  26.276  1.00  0.00    -0.200 F 
ATOM     70  F   UNL A   1      43.832  24.254  24.480  1.00  0.00    -0.200 F 
ENDBRANCH  46  60
BRANCH  47  71
ATOM     71  C   UNL A   1      39.344  32.009  35.404  1.00  0.00     0.064 A 
ATOM     72  C   UNL A   1      38.456  31.437  36.323  1.00  0.00     0.173 A 
ATOM     73  C   UNL A   1      39.750  33.334  35.629  1.00  0.00     0.173 A 
ATOM     74  F   UNL A   1      38.014  30.184  36.137  1.00  0.00    -0.203 F 
ATOM     75  C   UNL A   1      37.990  32.159  37.420  1.00  0.00     0.198 A 
ATOM     76  C   UNL A   1      39.312  34.044  36.744  1.00  0.00     0.198 A 
ATOM     77  F   UNL A   1      40.594  33.934  34.775  1.00  0.00    -0.203 F 
ATOM     78  F   UNL A   1      37.108  31.603  38.261  1.00  0.00    -0.200 F 
ATOM     79  C   UNL A   1      38.426  33.459  37.635  1.00  0.00     0.200 A 
ATOM     80  F   UNL A   1      39.751  35.293  36.955  1.00  0.00    -0.200 F 
ATOM     81  F   UNL A   1      37.988  34.149  38.697  1.00  0.00    -0.200 F 
ENDBRANCH  47  71
BRANCH  59  82
ATOM     82  C   UNL A   1      44.674  27.634  34.459  1.00  0.00     0.064 A 
ATOM     83  C   UNL A   1      45.887  28.322  34.604  1.00  0.00     0.173 A 
ATOM     84  C   UNL A   1      44.477  26.475  35.225  1.00  0.00     0.173 A 
ATOM     85  F   UNL A   1      46.129  29.423  33.877  1.00  0.00    -0.203 F 
ATOM     86  C   UNL A   1      46.872  27.858  35.471  1.00  0.00     0.198 A 
ATOM     87  C   UNL A   1      45.453  26.029  36.110  1.00  0.00     0.198 A 
ATOM     88  F   UNL A   1      43.333  25.782  35.123  1.00  0.00    -0.203 F 
ATOM     89  F   UNL A   1      48.041  28.506  35.562  1.00  0.00    -0.200 F 
ATOM     90  C   UNL A   1      46.653  26.716  36.228  1.00  0.00     0.200 A 
ATOM     91  F   UNL A   1      45.236  24.932  36.848  1.00  0.00    -0.200 F 
ATOM     92  F   UNL A   1      47.600  26.274  37.066  1.00  0.00    -0.200 F 
ENDBRANCH  59  82
ENDBRANCH  33  34
ENDBRANCH  26  28
ENDBRANCH  25  26
ENDBRANCH  24  25
ENDBRANCH  23  24
ENDBRANCH   1  23
TORSDOF 17
ENDMDL
MODEL 3
REMARK VINA RESULT:     -11.1      1.212      2.210
REMARK SMILES CC(C)[C@H](CO)NS(=O)(=O)c1ccc(Cl)c(C(=O)OCCOC(=O)c2ccc(-c3c4nc(c(-c5c(F)c(F)c(F)c(F)c5F)c5ccc([nH]5)c(-c5c(F)c(F)c(F)c(F)c5F)c5nc(c(-c6c(F)c(F)c(F)c(F)c6F)c6ccc3[nH]6)C=C5)C=C4)cc2)c1
REMARK SMILES IDX 19 1 17 2 18 3 16 4 11 5 12 6 88 7 13 8 14 9 15 10 8 11 9 12
REMARK SMILES IDX 10 13 7 14 4 16 2 17 1 18 3 19 5 20 6 21 20 23 21 24 22 25
REMARK SMILES IDX 23 26 24 27 25 28 26 29 87 30 27 31 86 32 28 33 29 34 30 35
REMARK SMILES IDX 80 36 31 37 85 38 79 39 81 40 32 41 84 42 78 43 77 44 33 46
REMARK SMILES IDX 65 47 45 48 64 49 46 50 49 51 63 52 82 53 47 54 48 55 62 57
REMARK SMILES IDX 83 58 50 59 34 60 35 61 43 62 36 63 37 64 41 65 44 66 38 67
REMARK SMILES IDX 39 68 42 69 40 70 66 71 67 72 75 73 68 74 69 75 73 76 76 77
REMARK SMILES IDX 70 78 71 79 74 80 72 81 51 82 52 83 60 84 53 85 54 86 58 87
REMARK SMILES IDX 61 88 55 89 56 90 59 91 57 92
REMARK H PARENT 7 15 6 22 81 45 49 56
REMARK Flexibility Score: inf
ROOT
ATOM      1  O   UNL A   1      35.684  23.408  24.262  1.00  0.00    -0.458 OA
ENDROOT
BRANCH   1   2
ATOM      2  C   UNL A   1      34.515  23.565  23.598  1.00  0.00     0.339 C 
ATOM      3  O   UNL A   1      34.308  23.359  22.414  1.00  0.00    -0.246 OA
BRANCH   2   4
ATOM      4  C   UNL A   1      33.425  23.852  24.559  1.00  0.00     0.080 A 
ATOM      5  C   UNL A   1      32.312  25.537  25.911  1.00  0.00     0.083 A 
ATOM      6  C   UNL A   1      31.278  24.636  26.175  1.00  0.00     0.023 A 
ATOM      7  C   UNL A   1      33.396  25.139  25.127  1.00  0.00     0.039 A 
ATOM      8  C   UNL A   1      31.356  23.327  25.694  1.00  0.00     0.023 A 
ATOM      9  C   UNL A   1      32.424  22.929  24.881  1.00  0.00     0.055 A 
ATOM     10  Cl  UNL A   1      32.456  21.279  24.372  1.00  0.00    -0.083 Cl
BRANCH   5  11
ATOM     11  S   UNL A   1      32.129  27.247  26.374  1.00  0.00     0.240 S 
ATOM     12  O   UNL A   1      33.444  27.754  26.692  1.00  0.00    -0.207 OA
ATOM     13  O   UNL A   1      31.056  27.324  27.336  1.00  0.00    -0.207 OA
BRANCH  11  14
ATOM     14  N   UNL A   1      31.542  28.014  25.017  1.00  0.00    -0.206 NA
ATOM     15  H   UNL A   1      30.721  28.531  25.334  1.00  0.00     0.141 HD
BRANCH  14  16
ATOM     16  C   UNL A   1      31.127  27.351  23.770  1.00  0.00     0.098 C 
BRANCH  16  17
ATOM     17  C   UNL A   1      32.120  27.547  22.593  1.00  0.00     0.003 C 
ATOM     18  C   UNL A   1      33.480  28.135  22.979  1.00  0.00     0.009 C 
ATOM     19  C   UNL A   1      32.316  26.260  21.783  1.00  0.00     0.009 C 
ENDBRANCH  16  17
BRANCH  16  20
ATOM     20  C   UNL A   1      29.692  27.845  23.423  1.00  0.00     0.176 C 
BRANCH  20  21
ATOM     21  O   UNL A   1      29.548  29.260  23.408  1.00  0.00    -0.395 OA
ATOM     22  H   UNL A   1      29.572  29.597  24.316  1.00  0.00     0.210 HD
ENDBRANCH  20  21
ENDBRANCH  16  20
ENDBRANCH  14  16
ENDBRANCH  11  14
ENDBRANCH   5  11
ENDBRANCH   2   4
ENDBRANCH   1   2
BRANCH   1  23
ATOM     23  C   UNL A   1      36.682  22.558  23.662  1.00  0.00     0.275 C 
BRANCH  23  24
ATOM     24  C   UNL A   1      36.980  21.374  24.580  1.00  0.00     0.275 C 
BRANCH  24  25
ATOM     25  O   UNL A   1      37.488  21.860  25.835  1.00  0.00    -0.458 OA
BRANCH  25  26
ATOM     26  C   UNL A   1      38.760  21.509  26.131  1.00  0.00     0.338 C 
ATOM     27  O   UNL A   1      39.311  20.440  25.941  1.00  0.00    -0.246 OA
BRANCH  26  28
ATOM     28  C   UNL A   1      39.458  22.687  26.665  1.00  0.00     0.060 A 
ATOM     29  C   UNL A   1      39.061  23.940  26.214  1.00  0.00     0.016 A 
ATOM     30  C   UNL A   1      40.557  22.558  27.508  1.00  0.00     0.016 A 
ATOM     31  C   UNL A   1      39.813  25.066  26.535  1.00  0.00     0.010 A 
ATOM     32  C   UNL A   1      41.246  23.709  27.918  1.00  0.00     0.010 A 
ATOM     33  C   UNL A   1      40.898  24.978  27.419  1.00  0.00    -0.014 A 
BRANCH  33  34
ATOM     34  C   UNL A   1      41.652  26.205  27.816  1.00  0.00     0.031 A 
ATOM     35  C   UNL A   1      40.996  27.269  28.658  1.00  0.00     0.074 A 
ATOM     36  C   UNL A   1      42.932  26.379  27.426  1.00  0.00     0.049 A 
ATOM     37  N   UNL A   1      41.384  28.497  28.896  1.00  0.00    -0.248 NA
ATOM     38  C   UNL A   1      39.727  26.908  29.308  1.00  0.00     0.031 C 
ATOM     39  C   UNL A   1      43.729  25.415  26.665  1.00  0.00     0.029 A 
ATOM     40  N   UNL A   1      43.795  27.436  27.616  1.00  0.00    -0.354 N 
ATOM     41  C   UNL A   1      40.383  29.071  29.670  1.00  0.00     0.074 A 
ATOM     42  C   UNL A   1      39.368  28.057  29.865  1.00  0.00     0.031 C 
ATOM     43  C   UNL A   1      44.965  25.900  26.488  1.00  0.00     0.029 A 
ATOM     44  C   UNL A   1      45.019  27.258  27.014  1.00  0.00     0.049 A 
ATOM     45  H   UNL A   1      43.558  28.239  28.132  1.00  0.00     0.167 HD
ATOM     46  C   UNL A   1      40.319  30.331  30.167  1.00  0.00     0.037 A 
ATOM     47  C   UNL A   1      46.048  28.109  26.838  1.00  0.00     0.037 A 
ATOM     48  C   UNL A   1      41.362  31.315  30.025  1.00  0.00     0.049 A 
ATOM     49  C   UNL A   1      45.923  29.521  27.333  1.00  0.00     0.074 A 
ATOM     50  C   UNL A   1      41.401  32.610  30.517  1.00  0.00     0.029 A 
ATOM     51  N   UNL A   1      42.558  31.108  29.355  1.00  0.00    -0.354 N 
ATOM     52  N   UNL A   1      44.945  30.079  28.002  1.00  0.00    -0.248 NA
ATOM     53  C   UNL A   1      47.032  30.433  27.018  1.00  0.00     0.031 C 
ATOM     54  C   UNL A   1      42.601  33.200  30.105  1.00  0.00     0.029 A 
ATOM     55  C   UNL A   1      43.330  32.260  29.396  1.00  0.00     0.049 A 
ATOM     56  H   UNL A   1      42.821  30.267  28.914  1.00  0.00     0.167 HD
ATOM     57  C   UNL A   1      45.316  31.403  28.187  1.00  0.00     0.074 A 
ATOM     58  C   UNL A   1      46.626  31.558  27.589  1.00  0.00     0.031 C 
ATOM     59  C   UNL A   1      44.628  32.402  28.790  1.00  0.00     0.037 A 
BRANCH  46  60
ATOM     60  C   UNL A   1      39.064  30.743  30.884  1.00  0.00     0.064 A 
ATOM     61  C   UNL A   1      37.945  31.242  30.203  1.00  0.00     0.173 A 
ATOM     62  C   UNL A   1      38.962  30.570  32.274  1.00  0.00     0.173 A 
ATOM     63  F   UNL A   1      37.991  31.431  28.876  1.00  0.00    -0.203 F 
ATOM     64  C   UNL A   1      36.777  31.570  30.889  1.00  0.00     0.198 A 
ATOM     65  C   UNL A   1      37.785  30.872  32.952  1.00  0.00     0.198 A 
ATOM     66  F   UNL A   1      40.000  30.084  32.973  1.00  0.00    -0.203 F 
ATOM     67  F   UNL A   1      35.731  32.078  30.224  1.00  0.00    -0.200 F 
ATOM     68  C   UNL A   1      36.695  31.377  32.261  1.00  0.00     0.200 A 
ATOM     69  F   UNL A   1      37.703  30.668  34.275  1.00  0.00    -0.200 F 
ATOM     70  F   UNL A   1      35.566  31.681  32.916  1.00  0.00    -0.200 F 
ENDBRANCH  46  60
BRANCH  47  71
ATOM     71  C   UNL A   1      47.253  27.668  26.085  1.00  0.00     0.064 A 
ATOM     72  C   UNL A   1      48.380  27.171  26.751  1.00  0.00     0.173 A 
ATOM     73  C   UNL A   1      47.300  27.730  24.683  1.00  0.00     0.173 A 
ATOM     74  F   UNL A   1      48.396  27.119  28.092  1.00  0.00    -0.203 F 
ATOM     75  C   UNL A   1      49.510  26.759  26.047  1.00  0.00     0.198 A 
ATOM     76  C   UNL A   1      48.415  27.285  23.978  1.00  0.00     0.198 A 
ATOM     77  F   UNL A   1      46.251  28.205  23.995  1.00  0.00    -0.203 F 
ATOM     78  F   UNL A   1      50.590  26.328  26.710  1.00  0.00    -0.200 F 
ATOM     79  C   UNL A   1      49.522  26.806  24.661  1.00  0.00     0.200 A 
ATOM     80  F   UNL A   1      48.414  27.318  22.638  1.00  0.00    -0.200 F 
ATOM     81  F   UNL A   1      50.603  26.397  23.983  1.00  0.00    -0.200 F 
ENDBRANCH  47  71
BRANCH  59  82
ATOM     82  C   UNL A   1      45.285  33.749  28.840  1.00  0.00     0.064 A 
ATOM     83  C   UNL A   1      45.047  34.714  27.852  1.00  0.00     0.173 A 
ATOM     84  C   UNL A   1      46.136  34.090  29.903  1.00  0.00     0.173 A 
ATOM     85  F   UNL A   1      44.258  34.428  26.805  1.00  0.00    -0.203 F 
ATOM     86  C   UNL A   1      45.652  35.966  27.914  1.00  0.00     0.198 A 
ATOM     87  C   UNL A   1      46.718  35.351  29.977  1.00  0.00     0.198 A 
ATOM     88  F   UNL A   1      46.394  33.201  30.874  1.00  0.00    -0.203 F 
ATOM     89  F   UNL A   1      45.446  36.858  26.937  1.00  0.00    -0.200 F 
ATOM     90  C   UNL A   1      46.481  36.287  28.980  1.00  0.00     0.200 A 
ATOM     91  F   UNL A   1      47.510  35.663  31.011  1.00  0.00    -0.200 F 
ATOM     92  F   UNL A   1      47.058  37.494  29.042  1.00  0.00    -0.200 F 
ENDBRANCH  59  82
ENDBRANCH  33  34
ENDBRANCH  26  28
ENDBRANCH  25  26
ENDBRANCH  24  25
ENDBRANCH  23  24
ENDBRANCH   1  23
TORSDOF 17
ENDMDL
