MODEL 1
REMARK VINA RESULT:     -12.5      0.000      0.000
REMARK SMILES CN(c1ccccc1)c1nc(OCC(=O)OCCOC(=O)c2ccc(-c3c4nc(c(-c5c(F)c(F)c(F)c(F)c5F)c5ccc([nH]5)c(-c5c(F)c(F)c(F)c(F)c5F)c5nc(c(-c6c(F)c(F)c(F)c(F)c6F)c6ccc3[nH]6)C=C5)C=C4)cc2)cc(-c2ccncc2)n1
REMARK SMILES IDX 17 1 16 2 14 3 15 4 13 5 12 6 11 7 9 8 10 9 93 10 86 11
REMARK SMILES IDX 85 12 2 13 1 14 3 15 4 16 8 17 5 18 7 19 6 20 87 21 88 22
REMARK SMILES IDX 92 23 89 24 91 25 90 26 18 27 19 28 20 29 21 30 22 31 23 32
REMARK SMILES IDX 84 33 24 34 83 35 25 36 26 37 27 38 77 39 28 40 82 41 76 42
REMARK SMILES IDX 78 43 29 44 81 45 75 46 74 47 30 49 62 50 42 51 61 52 43 53
REMARK SMILES IDX 46 54 60 55 79 56 44 57 45 58 59 60 80 61 47 62 31 63 32 64
REMARK SMILES IDX 40 65 33 66 34 67 38 68 41 69 35 70 36 71 39 72 37 73 63 74
REMARK SMILES IDX 64 75 72 76 65 77 66 78 70 79 73 80 67 81 68 82 71 83 69 84
REMARK SMILES IDX 48 85 49 86 57 87 50 88 51 89 55 90 58 91 52 92 53 93 56 94
REMARK SMILES IDX 54 95
REMARK H PARENT 78 48 46 59
REMARK Flexibility Score: inf
ROOT
ATOM      1  C   UNL A   1      32.139  27.570  25.873  1.00  0.00     0.274 C 
ENDROOT
BRANCH   1   2
ATOM      2  O   UNL A   1      31.598  26.685  26.874  1.00  0.00    -0.460 OA
BRANCH   2   3
ATOM      3  C   UNL A   1      31.125  25.496  26.410  1.00  0.00     0.344 C 
ATOM      4  O   UNL A   1      29.963  25.286  26.078  1.00  0.00    -0.248 OA
BRANCH   3   5
ATOM      5  C   UNL A   1      32.209  24.434  26.280  1.00  0.00     0.353 C 
BRANCH   5   6
ATOM      6  O   UNL A   1      31.799  23.195  25.739  1.00  0.00    -0.466 OA
BRANCH   6   7
ATOM      7  C   UNL A   1      32.752  22.259  25.477  1.00  0.00     0.219 A 
ATOM      8  C   UNL A   1      34.909  22.010  24.714  1.00  0.00     0.233 A 
ATOM      9  N   UNL A   1      33.919  22.810  25.136  1.00  0.00    -0.177 NA
ATOM     10  N   UNL A   1      34.784  20.677  24.638  1.00  0.00    -0.212 NA
ATOM     11  C   UNL A   1      33.618  20.138  25.031  1.00  0.00     0.080 A 
ATOM     12  C   UNL A   1      32.553  20.904  25.463  1.00  0.00     0.097 A 
BRANCH   8  13
ATOM     13  N   UNL A   1      36.122  22.608  24.355  1.00  0.00    -0.314 N 
ATOM     14  C   UNL A   1      36.226  22.953  22.945  1.00  0.00     0.153 C 
BRANCH  13  15
ATOM     15  C   UNL A   1      37.237  22.721  25.193  1.00  0.00     0.043 A 
ATOM     16  C   UNL A   1      37.487  23.926  25.879  1.00  0.00     0.026 A 
ATOM     17  C   UNL A   1      38.152  21.676  25.369  1.00  0.00     0.026 A 
ATOM     18  C   UNL A   1      38.591  24.075  26.719  1.00  0.00     0.002 A 
ATOM     19  C   UNL A   1      39.269  21.825  26.198  1.00  0.00     0.002 A 
ATOM     20  C   UNL A   1      39.485  23.023  26.877  1.00  0.00     0.000 A 
ENDBRANCH  13  15
ENDBRANCH   8  13
BRANCH  11  21
ATOM     21  C   UNL A   1      33.554  18.680  24.932  1.00  0.00     0.004 A 
ATOM     22  C   UNL A   1      34.542  17.965  24.250  1.00  0.00     0.030 A 
ATOM     23  C   UNL A   1      32.529  17.953  25.545  1.00  0.00     0.030 A 
ATOM     24  C   UNL A   1      34.435  16.588  24.157  1.00  0.00     0.111 A 
ATOM     25  C   UNL A   1      32.513  16.572  25.408  1.00  0.00     0.111 A 
ATOM     26  N   UNL A   1      33.431  15.876  24.707  1.00  0.00    -0.265 NA
ENDBRANCH  11  21
ENDBRANCH   6   7
ENDBRANCH   5   6
ENDBRANCH   3   5
ENDBRANCH   2   3
ENDBRANCH   1   2
BRANCH   1  27
ATOM     27  C   UNL A   1      31.882  29.033  26.226  1.00  0.00     0.275 C 
BRANCH  27  28
ATOM     28  O   UNL A   1      33.069  29.819  26.013  1.00  0.00    -0.458 OA
BRANCH  28  29
ATOM     29  C   UNL A   1      33.240  30.824  26.902  1.00  0.00     0.338 C 
ATOM     30  O   UNL A   1      32.453  31.721  27.142  1.00  0.00    -0.246 OA
BRANCH  29  31
ATOM     31  C   UNL A   1      34.523  30.707  27.625  1.00  0.00     0.060 A 
ATOM     32  C   UNL A   1      35.346  31.814  27.851  1.00  0.00     0.016 A 
ATOM     33  C   UNL A   1      34.970  29.426  27.955  1.00  0.00     0.016 A 
ATOM     34  C   UNL A   1      36.626  31.634  28.380  1.00  0.00     0.010 A 
ATOM     35  C   UNL A   1      36.223  29.252  28.540  1.00  0.00     0.010 A 
ATOM     36  C   UNL A   1      37.062  30.354  28.759  1.00  0.00    -0.014 A 
BRANCH  36  37
ATOM     37  C   UNL A   1      38.330  30.166  29.505  1.00  0.00     0.031 A 
ATOM     38  C   UNL A   1      39.439  29.311  28.972  1.00  0.00     0.074 A 
ATOM     39  C   UNL A   1      38.433  30.715  30.729  1.00  0.00     0.049 A 
ATOM     40  N   UNL A   1      40.510  28.866  29.578  1.00  0.00    -0.248 NA
ATOM     41  C   UNL A   1      39.328  28.899  27.568  1.00  0.00     0.031 C 
ATOM     42  C   UNL A   1      37.426  31.573  31.353  1.00  0.00     0.029 A 
ATOM     43  N   UNL A   1      39.419  30.610  31.674  1.00  0.00    -0.354 N 
ATOM     44  C   UNL A   1      41.180  28.086  28.643  1.00  0.00     0.074 A 
ATOM     45  C   UNL A   1      40.395  28.123  27.425  1.00  0.00     0.031 C 
ATOM     46  C   UNL A   1      37.842  31.917  32.578  1.00  0.00     0.029 A 
ATOM     47  C   UNL A   1      39.113  31.253  32.847  1.00  0.00     0.049 A 
ATOM     48  H   UNL A   1      40.263  30.126  31.527  1.00  0.00     0.167 HD
ATOM     49  C   UNL A   1      42.341  27.405  28.797  1.00  0.00     0.037 A 
ATOM     50  C   UNL A   1      39.757  31.269  34.027  1.00  0.00     0.037 A 
ATOM     51  C   UNL A   1      43.137  27.417  29.999  1.00  0.00     0.049 A 
ATOM     52  C   UNL A   1      41.026  30.489  34.181  1.00  0.00     0.074 A 
ATOM     53  C   UNL A   1      44.364  26.818  30.231  1.00  0.00     0.029 A 
ATOM     54  N   UNL A   1      42.783  28.065  31.173  1.00  0.00    -0.354 N 
ATOM     55  N   UNL A   1      41.642  29.740  33.302  1.00  0.00    -0.248 NA
ATOM     56  C   UNL A   1      41.681  30.550  35.494  1.00  0.00     0.031 C 
ATOM     57  C   UNL A   1      44.739  27.081  31.554  1.00  0.00     0.029 A 
ATOM     58  C   UNL A   1      43.760  27.869  32.136  1.00  0.00     0.049 A 
ATOM     59  H   UNL A   1      41.960  28.589  31.301  1.00  0.00     0.167 HD
ATOM     60  C   UNL A   1      42.759  29.237  33.951  1.00  0.00     0.074 A 
ATOM     61  C   UNL A   1      42.743  29.780  35.294  1.00  0.00     0.031 C 
ATOM     62  C   UNL A   1      43.712  28.400  33.474  1.00  0.00     0.037 A 
BRANCH  49  63
ATOM     63  C   UNL A   1      42.828  26.574  27.646  1.00  0.00     0.064 A 
ATOM     64  C   UNL A   1      43.640  27.111  26.638  1.00  0.00     0.173 A 
ATOM     65  C   UNL A   1      42.535  25.202  27.592  1.00  0.00     0.173 A 
ATOM     66  F   UNL A   1      43.942  28.418  26.639  1.00  0.00    -0.203 F 
ATOM     67  C   UNL A   1      44.132  26.308  25.612  1.00  0.00     0.198 A 
ATOM     68  C   UNL A   1      43.044  24.399  26.575  1.00  0.00     0.198 A 
ATOM     69  F   UNL A   1      41.767  24.637  28.537  1.00  0.00    -0.203 F 
ATOM     70  F   UNL A   1      44.887  26.848  24.644  1.00  0.00    -0.200 F 
ATOM     71  C   UNL A   1      43.840  24.952  25.584  1.00  0.00     0.200 A 
ATOM     72  F   UNL A   1      42.769  23.087  26.557  1.00  0.00    -0.200 F 
ATOM     73  F   UNL A   1      44.324  24.180  24.601  1.00  0.00    -0.200 F 
ENDBRANCH  49  63
BRANCH  50  74
ATOM     74  C   UNL A   1      39.173  32.041  35.146  1.00  0.00     0.064 A 
ATOM     75  C   UNL A   1      38.427  31.402  36.143  1.00  0.00     0.173 A 
ATOM     76  C   UNL A   1      39.427  33.413  35.289  1.00  0.00     0.173 A 
ATOM     77  F   UNL A   1      38.152  30.094  36.036  1.00  0.00    -0.203 F 
ATOM     78  C   UNL A   1      37.966  32.105  37.252  1.00  0.00     0.198 A 
ATOM     79  C   UNL A   1      38.983  34.110  36.407  1.00  0.00     0.198 A 
ATOM     80  F   UNL A   1      40.147  34.062  34.361  1.00  0.00    -0.203 F 
ATOM     81  F   UNL A   1      37.252  31.473  38.192  1.00  0.00    -0.200 F 
ATOM     82  C   UNL A   1      38.254  33.456  37.389  1.00  0.00     0.200 A 
ATOM     83  F   UNL A   1      39.277  35.411  36.546  1.00  0.00    -0.200 F 
ATOM     84  F   UNL A   1      37.833  34.125  38.471  1.00  0.00    -0.200 F 
ENDBRANCH  50  74
BRANCH  62  85
ATOM     85  C   UNL A   1      44.812  28.027  34.419  1.00  0.00     0.064 A 
ATOM     86  C   UNL A   1      45.966  28.814  34.535  1.00  0.00     0.173 A 
ATOM     87  C   UNL A   1      44.709  26.879  35.216  1.00  0.00     0.173 A 
ATOM     88  F   UNL A   1      46.114  29.910  33.776  1.00  0.00    -0.203 F 
ATOM     89  C   UNL A   1      46.991  28.452  35.406  1.00  0.00     0.198 A 
ATOM     90  C   UNL A   1      45.728  26.529  36.098  1.00  0.00     0.198 A 
ATOM     91  F   UNL A   1      43.623  26.095  35.137  1.00  0.00    -0.203 F 
ATOM     92  F   UNL A   1      48.103  29.196  35.473  1.00  0.00    -0.200 F 
ATOM     93  C   UNL A   1      46.869  27.313  36.187  1.00  0.00     0.200 A 
ATOM     94  F   UNL A   1      45.609  25.430  36.854  1.00  0.00    -0.200 F 
ATOM     95  F   UNL A   1      47.859  26.962  37.020  1.00  0.00    -0.200 F 
ENDBRANCH  62  85
ENDBRANCH  36  37
ENDBRANCH  29  31
ENDBRANCH  28  29
ENDBRANCH  27  28
ENDBRANCH   1  27
TORSDOF 16
ENDMDL
MODEL 2
REMARK VINA RESULT:     -12.4      1.176      3.309
REMARK SMILES CN(c1ccccc1)c1nc(OCC(=O)OCCOC(=O)c2ccc(-c3c4nc(c(-c5c(F)c(F)c(F)c(F)c5F)c5ccc([nH]5)c(-c5c(F)c(F)c(F)c(F)c5F)c5nc(c(-c6c(F)c(F)c(F)c(F)c6F)c6ccc3[nH]6)C=C5)C=C4)cc2)cc(-c2ccncc2)n1
REMARK SMILES IDX 17 1 16 2 14 3 15 4 13 5 12 6 11 7 9 8 10 9 93 10 86 11
REMARK SMILES IDX 85 12 2 13 1 14 3 15 4 16 8 17 5 18 7 19 6 20 87 21 88 22
REMARK SMILES IDX 92 23 89 24 91 25 90 26 18 27 19 28 20 29 21 30 22 31 23 32
REMARK SMILES IDX 84 33 24 34 83 35 25 36 26 37 27 38 77 39 28 40 82 41 76 42
REMARK SMILES IDX 78 43 29 44 81 45 75 46 74 47 30 49 62 50 42 51 61 52 43 53
REMARK SMILES IDX 46 54 60 55 79 56 44 57 45 58 59 60 80 61 47 62 31 63 32 64
REMARK SMILES IDX 40 65 33 66 34 67 38 68 41 69 35 70 36 71 39 72 37 73 63 74
REMARK SMILES IDX 64 75 72 76 65 77 66 78 70 79 73 80 67 81 68 82 71 83 69 84
REMARK SMILES IDX 48 85 49 86 57 87 50 88 51 89 55 90 58 91 52 92 53 93 56 94
REMARK SMILES IDX 54 95
REMARK H PARENT 78 48 46 59
REMARK Flexibility Score: inf
ROOT
ATOM      1  C   UNL A   1      32.001  28.922  24.016  1.00  0.00     0.274 C 
ENDROOT
BRANCH   1   2
ATOM      2  O   UNL A   1      32.608  27.622  24.148  1.00  0.00    -0.460 OA
BRANCH   2   3
ATOM      3  C   UNL A   1      33.128  27.099  23.002  1.00  0.00     0.344 C 
ATOM      4  O   UNL A   1      33.794  27.726  22.186  1.00  0.00    -0.248 OA
BRANCH   3   5
ATOM      5  C   UNL A   1      32.846  25.611  22.847  1.00  0.00     0.353 C 
BRANCH   5   6
ATOM      6  O   UNL A   1      33.910  24.831  22.340  1.00  0.00    -0.466 OA
BRANCH   6   7
ATOM      7  C   UNL A   1      34.462  23.889  23.153  1.00  0.00     0.219 A 
ATOM      8  C   UNL A   1      33.982  21.946  24.290  1.00  0.00     0.233 A 
ATOM      9  N   UNL A   1      33.626  22.876  23.392  1.00  0.00    -0.177 NA
ATOM     10  N   UNL A   1      35.154  21.977  24.942  1.00  0.00    -0.212 NA
ATOM     11  C   UNL A   1      36.002  22.977  24.652  1.00  0.00     0.080 A 
ATOM     12  C   UNL A   1      35.693  23.976  23.749  1.00  0.00     0.097 A 
BRANCH   8  13
ATOM     13  N   UNL A   1      33.089  20.898  24.533  1.00  0.00    -0.314 N 
ATOM     14  C   UNL A   1      32.021  21.224  25.465  1.00  0.00     0.153 C 
BRANCH  13  15
ATOM     15  C   UNL A   1      33.261  19.581  24.089  1.00  0.00     0.043 A 
ATOM     16  C   UNL A   1      34.289  18.782  24.626  1.00  0.00     0.026 A 
ATOM     17  C   UNL A   1      32.454  19.015  23.095  1.00  0.00     0.026 A 
ATOM     18  C   UNL A   1      34.492  17.467  24.203  1.00  0.00     0.002 A 
ATOM     19  C   UNL A   1      32.662  17.702  22.656  1.00  0.00     0.002 A 
ATOM     20  C   UNL A   1      33.677  16.928  23.215  1.00  0.00     0.000 A 
ENDBRANCH  13  15
ENDBRANCH   8  13
BRANCH  11  21
ATOM     21  C   UNL A   1      37.264  22.944  25.391  1.00  0.00     0.004 A 
ATOM     22  C   UNL A   1      37.692  24.052  26.126  1.00  0.00     0.030 A 
ATOM     23  C   UNL A   1      38.063  21.796  25.417  1.00  0.00     0.030 A 
ATOM     24  C   UNL A   1      38.903  23.993  26.794  1.00  0.00     0.111 A 
ATOM     25  C   UNL A   1      39.255  21.827  26.126  1.00  0.00     0.111 A 
ATOM     26  N   UNL A   1      39.705  22.908  26.795  1.00  0.00    -0.265 NA
ENDBRANCH  11  21
ENDBRANCH   6   7
ENDBRANCH   5   6
ENDBRANCH   3   5
ENDBRANCH   2   3
ENDBRANCH   1   2
BRANCH   1  27
ATOM     27  C   UNL A   1      31.948  29.649  25.357  1.00  0.00     0.275 C 
BRANCH  27  28
ATOM     28  O   UNL A   1      33.266  30.074  25.752  1.00  0.00    -0.458 OA
BRANCH  28  29
ATOM     29  C   UNL A   1      33.292  30.862  26.851  1.00  0.00     0.338 C 
ATOM     30  O   UNL A   1      32.392  31.578  27.251  1.00  0.00    -0.246 OA
BRANCH  29  31
ATOM     31  C   UNL A   1      34.569  30.742  27.584  1.00  0.00     0.060 A 
ATOM     32  C   UNL A   1      35.391  31.849  27.820  1.00  0.00     0.016 A 
ATOM     33  C   UNL A   1      35.012  29.460  27.914  1.00  0.00     0.016 A 
ATOM     34  C   UNL A   1      36.666  31.665  28.360  1.00  0.00     0.010 A 
ATOM     35  C   UNL A   1      36.260  29.283  28.509  1.00  0.00     0.010 A 
ATOM     36  C   UNL A   1      37.098  30.384  28.739  1.00  0.00    -0.014 A 
BRANCH  36  37
ATOM     37  C   UNL A   1      38.359  30.193  29.495  1.00  0.00     0.031 A 
ATOM     38  C   UNL A   1      39.474  29.341  28.967  1.00  0.00     0.074 A 
ATOM     39  C   UNL A   1      38.451  30.735  30.723  1.00  0.00     0.049 A 
ATOM     40  N   UNL A   1      40.540  28.894  29.580  1.00  0.00    -0.248 NA
ATOM     41  C   UNL A   1      39.375  28.937  27.561  1.00  0.00     0.031 C 
ATOM     42  C   UNL A   1      37.437  31.589  31.342  1.00  0.00     0.029 A 
ATOM     43  N   UNL A   1      39.428  30.626  31.676  1.00  0.00    -0.354 N 
ATOM     44  C   UNL A   1      41.218  28.119  28.648  1.00  0.00     0.074 A 
ATOM     45  C   UNL A   1      40.445  28.163  27.423  1.00  0.00     0.031 C 
ATOM     46  C   UNL A   1      37.843  31.927  32.573  1.00  0.00     0.029 A 
ATOM     47  C   UNL A   1      39.111  31.262  32.850  1.00  0.00     0.049 A 
ATOM     48  H   UNL A   1      40.274  30.143  31.534  1.00  0.00     0.167 HD
ATOM     49  C   UNL A   1      42.378  27.438  28.808  1.00  0.00     0.037 A 
ATOM     50  C   UNL A   1      39.744  31.271  34.036  1.00  0.00     0.037 A 
ATOM     51  C   UNL A   1      43.163  27.444  30.017  1.00  0.00     0.049 A 
ATOM     52  C   UNL A   1      41.013  30.492  34.197  1.00  0.00     0.074 A 
ATOM     53  C   UNL A   1      44.389  26.845  30.257  1.00  0.00     0.029 A 
ATOM     54  N   UNL A   1      42.799  28.086  31.192  1.00  0.00    -0.354 N 
ATOM     55  N   UNL A   1      41.637  29.748  33.320  1.00  0.00    -0.248 NA
ATOM     56  C   UNL A   1      41.656  30.546  35.516  1.00  0.00     0.031 C 
ATOM     57  C   UNL A   1      44.751  27.101  31.585  1.00  0.00     0.029 A 
ATOM     58  C   UNL A   1      43.767  27.885  32.163  1.00  0.00     0.049 A 
ATOM     59  H   UNL A   1      41.974  28.609  31.316  1.00  0.00     0.167 HD
ATOM     60  C   UNL A   1      42.749  29.242  33.976  1.00  0.00     0.074 A 
ATOM     61  C   UNL A   1      42.720  29.778  35.322  1.00  0.00     0.031 C 
ATOM     62  C   UNL A   1      43.707  28.408  33.503  1.00  0.00     0.037 A 
BRANCH  49  63
ATOM     63  C   UNL A   1      42.876  26.614  27.657  1.00  0.00     0.064 A 
ATOM     64  C   UNL A   1      43.711  27.153  26.669  1.00  0.00     0.173 A 
ATOM     65  C   UNL A   1      42.570  25.246  27.584  1.00  0.00     0.173 A 
ATOM     66  F   UNL A   1      44.026  28.456  26.689  1.00  0.00    -0.203 F 
ATOM     67  C   UNL A   1      44.212  26.354  25.643  1.00  0.00     0.198 A 
ATOM     68  C   UNL A   1      43.088  24.447  26.567  1.00  0.00     0.198 A 
ATOM     69  F   UNL A   1      41.781  24.680  28.510  1.00  0.00    -0.203 F 
ATOM     70  F   UNL A   1      44.989  26.896  24.694  1.00  0.00    -0.200 F 
ATOM     71  C   UNL A   1      43.906  25.002  25.596  1.00  0.00     0.200 A 
ATOM     72  F   UNL A   1      42.800  23.139  26.531  1.00  0.00    -0.200 F 
ATOM     73  F   UNL A   1      44.399  24.235  24.614  1.00  0.00    -0.200 F 
ENDBRANCH  49  63
BRANCH  50  74
ATOM     74  C   UNL A   1      39.150  32.037  35.153  1.00  0.00     0.064 A 
ATOM     75  C   UNL A   1      38.410  31.390  36.149  1.00  0.00     0.173 A 
ATOM     76  C   UNL A   1      39.389  33.412  35.296  1.00  0.00     0.173 A 
ATOM     77  F   UNL A   1      38.151  30.078  36.043  1.00  0.00    -0.203 F 
ATOM     78  C   UNL A   1      37.939  32.088  37.258  1.00  0.00     0.198 A 
ATOM     79  C   UNL A   1      38.934  34.105  36.414  1.00  0.00     0.198 A 
ATOM     80  F   UNL A   1      40.102  34.070  34.370  1.00  0.00    -0.203 F 
ATOM     81  F   UNL A   1      37.231  31.448  38.197  1.00  0.00    -0.200 F 
ATOM     82  C   UNL A   1      38.212  33.442  37.395  1.00  0.00     0.200 A 
ATOM     83  F   UNL A   1      39.214  35.408  36.553  1.00  0.00    -0.200 F 
ATOM     84  F   UNL A   1      37.781  34.107  38.476  1.00  0.00    -0.200 F 
ENDBRANCH  50  74
BRANCH  62  85
ATOM     85  C   UNL A   1      44.798  28.031  34.455  1.00  0.00     0.064 A 
ATOM     86  C   UNL A   1      44.692  26.893  35.266  1.00  0.00     0.173 A 
ATOM     87  C   UNL A   1      45.959  28.810  34.554  1.00  0.00     0.173 A 
ATOM     88  F   UNL A   1      43.590  26.130  35.218  1.00  0.00    -0.203 F 
ATOM     89  C   UNL A   1      45.706  26.558  36.160  1.00  0.00     0.198 A 
ATOM     90  C   UNL A   1      46.978  28.464  35.437  1.00  0.00     0.198 A 
ATOM     91  F   UNL A   1      46.102  29.910  33.799  1.00  0.00    -0.203 F 
ATOM     92  F   UNL A   1      45.570  25.488  36.955  1.00  0.00    -0.200 F 
ATOM     93  C   UNL A   1      46.848  27.341  36.242  1.00  0.00     0.200 A 
ATOM     94  F   UNL A   1      48.082  29.219  35.515  1.00  0.00    -0.200 F 
ATOM     95  F   UNL A   1      47.821  27.021  37.107  1.00  0.00    -0.200 F 
ENDBRANCH  62  85
ENDBRANCH  36  37
ENDBRANCH  29  31
ENDBRANCH  28  29
ENDBRANCH  27  28
ENDBRANCH   1  27
TORSDOF 16
ENDMDL
MODEL 3
REMARK VINA RESULT:     -12.3      0.900      3.095
REMARK SMILES CN(c1ccccc1)c1nc(OCC(=O)OCCOC(=O)c2ccc(-c3c4nc(c(-c5c(F)c(F)c(F)c(F)c5F)c5ccc([nH]5)c(-c5c(F)c(F)c(F)c(F)c5F)c5nc(c(-c6c(F)c(F)c(F)c(F)c6F)c6ccc3[nH]6)C=C5)C=C4)cc2)cc(-c2ccncc2)n1
REMARK SMILES IDX 17 1 16 2 14 3 15 4 13 5 12 6 11 7 9 8 10 9 93 10 86 11
REMARK SMILES IDX 85 12 2 13 1 14 3 15 4 16 8 17 5 18 7 19 6 20 87 21 88 22
REMARK SMILES IDX 92 23 89 24 91 25 90 26 18 27 19 28 20 29 21 30 22 31 23 32
REMARK SMILES IDX 84 33 24 34 83 35 25 36 26 37 27 38 77 39 28 40 82 41 76 42
REMARK SMILES IDX 78 43 29 44 81 45 75 46 74 47 30 49 62 50 42 51 61 52 43 53
REMARK SMILES IDX 46 54 60 55 79 56 44 57 45 58 59 60 80 61 47 62 31 63 32 64
REMARK SMILES IDX 40 65 33 66 34 67 38 68 41 69 35 70 36 71 39 72 37 73 63 74
REMARK SMILES IDX 64 75 72 76 65 77 66 78 70 79 73 80 67 81 68 82 71 83 69 84
REMARK SMILES IDX 48 85 49 86 57 87 50 88 51 89 55 90 58 91 52 92 53 93 56 94
REMARK SMILES IDX 54 95
REMARK H PARENT 78 48 46 59
REMARK Flexibility Score: inf
ROOT
ATOM      1  C   UNL A   1      32.039  28.381  24.544  1.00  0.00     0.274 C 
ENDROOT
BRANCH   1   2
ATOM      2  O   UNL A   1      31.068  27.411  24.982  1.00  0.00    -0.460 OA
BRANCH   2   3
ATOM      3  C   UNL A   1      31.329  26.821  26.181  1.00  0.00     0.344 C 
ATOM      4  O   UNL A   1      30.740  27.070  27.227  1.00  0.00    -0.248 OA
BRANCH   3   5
ATOM      5  C   UNL A   1      32.411  25.752  26.094  1.00  0.00     0.353 C 
BRANCH   5   6
ATOM      6  O   UNL A   1      32.046  24.556  25.436  1.00  0.00    -0.466 OA
BRANCH   6   7
ATOM      7  C   UNL A   1      33.029  23.664  25.130  1.00  0.00     0.219 A 
ATOM      8  C   UNL A   1      33.387  21.575  24.233  1.00  0.00     0.233 A 
ATOM      9  N   UNL A   1      32.558  22.601  24.474  1.00  0.00    -0.177 NA
ATOM     10  N   UNL A   1      34.676  21.580  24.603  1.00  0.00    -0.212 NA
ATOM     11  C   UNL A   1      35.142  22.678  25.220  1.00  0.00     0.080 A 
ATOM     12  C   UNL A   1      34.340  23.765  25.512  1.00  0.00     0.097 A 
BRANCH   8  13
ATOM     13  N   UNL A   1      32.873  20.467  23.551  1.00  0.00    -0.314 N 
ATOM     14  C   UNL A   1      32.083  20.801  22.375  1.00  0.00     0.153 C 
BRANCH  13  15
ATOM     15  C   UNL A   1      32.928  19.147  24.012  1.00  0.00     0.043 A 
ATOM     16  C   UNL A   1      33.256  18.102  23.128  1.00  0.00     0.026 A 
ATOM     17  C   UNL A   1      32.643  18.805  25.339  1.00  0.00     0.026 A 
ATOM     18  C   UNL A   1      33.316  16.773  23.553  1.00  0.00     0.002 A 
ATOM     19  C   UNL A   1      32.686  17.474  25.768  1.00  0.00     0.002 A 
ATOM     20  C   UNL A   1      33.028  16.460  24.876  1.00  0.00     0.000 A 
ENDBRANCH  13  15
ENDBRANCH   8  13
BRANCH  11  21
ATOM     21  C   UNL A   1      36.558  22.620  25.587  1.00  0.00     0.004 A 
ATOM     22  C   UNL A   1      37.306  21.461  25.369  1.00  0.00     0.030 A 
ATOM     23  C   UNL A   1      37.215  23.728  26.131  1.00  0.00     0.030 A 
ATOM     24  C   UNL A   1      38.636  21.434  25.751  1.00  0.00     0.111 A 
ATOM     25  C   UNL A   1      38.555  23.610  26.470  1.00  0.00     0.111 A 
ATOM     26  N   UNL A   1      39.274  22.480  26.315  1.00  0.00    -0.265 NA
ENDBRANCH  11  21
ENDBRANCH   6   7
ENDBRANCH   5   6
ENDBRANCH   3   5
ENDBRANCH   2   3
ENDBRANCH   1   2
BRANCH   1  27
ATOM     27  C   UNL A   1      31.957  29.662  25.370  1.00  0.00     0.275 C 
BRANCH  27  28
ATOM     28  O   UNL A   1      33.275  30.110  25.737  1.00  0.00    -0.458 OA
BRANCH  28  29
ATOM     29  C   UNL A   1      33.310  30.901  26.833  1.00  0.00     0.338 C 
ATOM     30  O   UNL A   1      32.428  31.648  27.217  1.00  0.00    -0.246 OA
BRANCH  29  31
ATOM     31  C   UNL A   1      34.570  30.740  27.588  1.00  0.00     0.060 A 
ATOM     32  C   UNL A   1      35.421  31.820  27.841  1.00  0.00     0.016 A 
ATOM     33  C   UNL A   1      34.968  29.444  27.922  1.00  0.00     0.016 A 
ATOM     34  C   UNL A   1      36.681  31.596  28.402  1.00  0.00     0.010 A 
ATOM     35  C   UNL A   1      36.199  29.227  28.538  1.00  0.00     0.010 A 
ATOM     36  C   UNL A   1      37.067  30.301  28.785  1.00  0.00    -0.014 A 
BRANCH  36  37
ATOM     37  C   UNL A   1      38.308  30.070  29.562  1.00  0.00     0.031 A 
ATOM     38  C   UNL A   1      39.392  29.162  29.065  1.00  0.00     0.074 A 
ATOM     39  C   UNL A   1      38.406  30.629  30.782  1.00  0.00     0.049 A 
ATOM     40  N   UNL A   1      40.429  28.680  29.701  1.00  0.00    -0.248 NA
ATOM     41  C   UNL A   1      39.294  28.736  27.665  1.00  0.00     0.031 C 
ATOM     42  C   UNL A   1      37.423  31.537  31.372  1.00  0.00     0.029 A 
ATOM     43  N   UNL A   1      39.366  30.496  31.751  1.00  0.00    -0.354 N 
ATOM     44  C   UNL A   1      41.085  27.860  28.792  1.00  0.00     0.074 A 
ATOM     45  C   UNL A   1      40.331  27.915  27.556  1.00  0.00     0.031 C 
ATOM     46  C   UNL A   1      37.826  31.880  32.602  1.00  0.00     0.029 A 
ATOM     47  C   UNL A   1      39.061  31.166  32.908  1.00  0.00     0.049 A 
ATOM     48  H   UNL A   1      40.191  29.974  31.628  1.00  0.00     0.167 HD
ATOM     49  C   UNL A   1      42.213  27.133  28.981  1.00  0.00     0.037 A 
ATOM     50  C   UNL A   1      39.678  31.170  34.102  1.00  0.00     0.037 A 
ATOM     51  C   UNL A   1      42.981  27.127  30.200  1.00  0.00     0.049 A 
ATOM     52  C   UNL A   1      40.909  30.340  34.296  1.00  0.00     0.074 A 
ATOM     53  C   UNL A   1      44.176  26.479  30.468  1.00  0.00     0.029 A 
ATOM     54  N   UNL A   1      42.629  27.805  31.358  1.00  0.00    -0.354 N 
ATOM     55  N   UNL A   1      41.513  29.553  33.440  1.00  0.00    -0.248 NA
ATOM     56  C   UNL A   1      41.536  30.390  35.622  1.00  0.00     0.031 C 
ATOM     57  C   UNL A   1      44.532  26.744  31.796  1.00  0.00     0.029 A 
ATOM     58  C   UNL A   1      43.574  27.580  32.346  1.00  0.00     0.049 A 
ATOM     59  H   UNL A   1      41.826  28.365  31.461  1.00  0.00     0.167 HD
ATOM     60  C   UNL A   1      42.592  29.012  34.120  1.00  0.00     0.074 A 
ATOM     61  C   UNL A   1      42.569  29.573  35.456  1.00  0.00     0.031 C 
ATOM     62  C   UNL A   1      43.519  28.129  33.676  1.00  0.00     0.037 A 
BRANCH  49  63
ATOM     63  C   UNL A   1      42.690  26.267  27.852  1.00  0.00     0.064 A 
ATOM     64  C   UNL A   1      42.245  24.947  27.694  1.00  0.00     0.173 A 
ATOM     65  C   UNL A   1      43.548  26.791  26.873  1.00  0.00     0.173 A 
ATOM     66  F   UNL A   1      41.430  24.395  28.605  1.00  0.00    -0.203 F 
ATOM     67  C   UNL A   1      42.652  24.180  26.604  1.00  0.00     0.198 A 
ATOM     68  C   UNL A   1      43.939  26.028  25.775  1.00  0.00     0.198 A 
ATOM     69  F   UNL A   1      43.997  28.052  26.974  1.00  0.00    -0.203 F 
ATOM     70  F   UNL A   1      42.234  22.912  26.486  1.00  0.00    -0.200 F 
ATOM     71  C   UNL A   1      43.492  24.723  25.643  1.00  0.00     0.200 A 
ATOM     72  F   UNL A   1      44.741  26.559  24.842  1.00  0.00    -0.200 F 
ATOM     73  F   UNL A   1      43.873  23.986  24.590  1.00  0.00    -0.200 F 
ENDBRANCH  49  63
BRANCH  50  74
ATOM     74  C   UNL A   1      39.102  31.981  35.198  1.00  0.00     0.064 A 
ATOM     75  C   UNL A   1      38.333  31.382  36.202  1.00  0.00     0.173 A 
ATOM     76  C   UNL A   1      39.388  33.349  35.313  1.00  0.00     0.173 A 
ATOM     77  F   UNL A   1      38.028  30.079  36.122  1.00  0.00    -0.203 F 
ATOM     78  C   UNL A   1      37.878  32.120  37.291  1.00  0.00     0.198 A 
ATOM     79  C   UNL A   1      38.950  34.082  36.412  1.00  0.00     0.198 A 
ATOM     80  F   UNL A   1      40.132  33.961  34.379  1.00  0.00    -0.203 F 
ATOM     81  F   UNL A   1      37.141  31.527  38.238  1.00  0.00    -0.200 F 
ATOM     82  C   UNL A   1      38.197  33.467  37.400  1.00  0.00     0.200 A 
ATOM     83  F   UNL A   1      39.274  35.378  36.524  1.00  0.00    -0.200 F 
ATOM     84  F   UNL A   1      37.782  34.170  38.463  1.00  0.00    -0.200 F 
ENDBRANCH  50  74
BRANCH  62  85
ATOM     85  C   UNL A   1      44.581  27.723  34.650  1.00  0.00     0.064 A 
ATOM     86  C   UNL A   1      45.781  28.439  34.755  1.00  0.00     0.173 A 
ATOM     87  C   UNL A   1      44.394  26.614  35.487  1.00  0.00     0.173 A 
ATOM     88  F   UNL A   1      46.009  29.494  33.959  1.00  0.00    -0.203 F 
ATOM     89  C   UNL A   1      46.769  28.045  35.654  1.00  0.00     0.198 A 
ATOM     90  C   UNL A   1      45.377  26.233  36.396  1.00  0.00     0.198 A 
ATOM     91  F   UNL A   1      43.261  25.899  35.419  1.00  0.00    -0.203 F 
ATOM     92  F   UNL A   1      47.926  28.718  35.712  1.00  0.00    -0.200 F 
ATOM     93  C   UNL A   1      46.565  26.946  36.475  1.00  0.00     0.200 A 
ATOM     94  F   UNL A   1      45.178  25.173  37.190  1.00  0.00    -0.200 F 
ATOM     95  F   UNL A   1      47.519  26.564  37.335  1.00  0.00    -0.200 F 
ENDBRANCH  62  85
ENDBRANCH  36  37
ENDBRANCH  29  31
ENDBRANCH  28  29
ENDBRANCH  27  28
ENDBRANCH   1  27
TORSDOF 16
ENDMDL
