MODEL 1
REMARK VINA RESULT:     -12.1      0.000      0.000
REMARK SMILES Cc1noc(C)c1[C@H](C)NC(=O)c1cccc(C(=O)OCCOC(=O)c2ccc(-c3c4nc(c(-c5c(F)c(F)c(F)c(F)c5F)c5ccc([nH]5)c(-c5c(F)c(F)c(F)c(F)c5F)c5nc(c(-c6c(F)c(F)c(F)c(F)c6F)c6ccc3[nH]6)C=C5)C=C4)cc2)n1
REMARK SMILES IDX 21 1 20 2 18 3 19 4 17 5 13 6 14 7 89 8 15 9 16 10 11 11
REMARK SMILES IDX 10 12 12 14 8 15 9 16 7 17 1 18 2 19 3 20 4 21 5 22 6 23
REMARK SMILES IDX 22 24 23 25 24 26 25 27 26 28 27 29 88 30 28 31 87 32 29 33
REMARK SMILES IDX 30 34 31 35 81 36 32 37 86 38 80 39 82 40 33 41 85 42 79 43
REMARK SMILES IDX 78 44 34 46 66 47 46 48 65 49 47 50 50 51 64 52 83 53 48 54
REMARK SMILES IDX 49 55 63 57 84 58 51 59 35 60 36 61 44 62 37 63 38 64 42 65
REMARK SMILES IDX 45 66 39 67 40 68 43 69 41 70 67 71 68 72 76 73 69 74 70 75
REMARK SMILES IDX 74 76 77 77 71 78 72 79 75 80 73 81 52 82 53 83 61 84 54 85
REMARK SMILES IDX 55 86 59 87 62 88 56 89 57 90 60 91 58 92
REMARK H PARENT 10 13 82 45 50 56
REMARK Flexibility Score: inf
ROOT
ATOM      1  C   UNL A   1      31.442  29.338  25.046  1.00  0.00     0.275 C 
ENDROOT
BRANCH   1   2
ATOM      2  O   UNL A   1      32.661  28.847  24.454  1.00  0.00    -0.457 OA
BRANCH   2   3
ATOM      3  C   UNL A   1      33.097  27.630  24.878  1.00  0.00     0.357 C 
ATOM      4  O   UNL A   1      33.356  27.327  26.031  1.00  0.00    -0.244 OA
BRANCH   3   5
ATOM      5  C   UNL A   1      33.098  26.667  23.730  1.00  0.00     0.149 A 
ATOM      6  C   UNL A   1      33.872  24.639  22.930  1.00  0.00     0.129 A 
ATOM      7  C   UNL A   1      32.973  24.664  21.874  1.00  0.00     0.034 A 
ATOM      8  N   UNL A   1      33.981  25.637  23.835  1.00  0.00    -0.236 NA
ATOM      9  C   UNL A   1      32.144  25.771  21.728  1.00  0.00     0.005 A 
ATOM     10  C   UNL A   1      32.192  26.785  22.681  1.00  0.00     0.036 A 
BRANCH   6  11
ATOM     11  C   UNL A   1      34.633  23.389  23.228  1.00  0.00     0.270 C 
ATOM     12  N   UNL A   1      34.048  22.353  23.914  1.00  0.00    -0.344 N 
ATOM     13  H   UNL A   1      34.665  21.666  24.258  1.00  0.00     0.164 HD
ATOM     14  O   UNL A   1      35.813  23.295  22.901  1.00  0.00    -0.267 OA
BRANCH  12  15
ATOM     15  C   UNL A   1      32.641  22.135  24.200  1.00  0.00     0.115 C 
ATOM     16  C   UNL A   1      32.341  20.649  24.009  1.00  0.00     0.036 C 
BRANCH  15  17
ATOM     17  C   UNL A   1      32.349  22.696  25.564  1.00  0.00     0.040 A 
ATOM     18  C   UNL A   1      30.497  24.514  25.031  1.00  0.00     0.071 C 
ATOM     19  C   UNL A   1      31.398  23.720  25.902  1.00  0.00     0.086 A 
ATOM     20  N   UNL A   1      31.351  23.937  27.219  1.00  0.00    -0.085 NA
ATOM     21  O   UNL A   1      32.276  23.092  27.774  1.00  0.00    -0.361 OA
ATOM     22  C   UNL A   1      32.873  22.357  26.802  1.00  0.00     0.139 A 
ATOM     23  C   UNL A   1      33.894  21.411  27.298  1.00  0.00     0.091 C 
ENDBRANCH  15  17
ENDBRANCH  12  15
ENDBRANCH   6  11
ENDBRANCH   3   5
ENDBRANCH   2   3
ENDBRANCH   1   2
BRANCH   1  24
ATOM     24  C   UNL A   1      31.678  30.662  25.783  1.00  0.00     0.275 C 
BRANCH  24  25
ATOM     25  O   UNL A   1      32.629  30.515  26.857  1.00  0.00    -0.458 OA
BRANCH  25  26
ATOM     26  C   UNL A   1      33.249  31.659  27.234  1.00  0.00     0.338 C 
ATOM     27  O   UNL A   1      32.786  32.787  27.215  1.00  0.00    -0.246 OA
BRANCH  26  28
ATOM     28  C   UNL A   1      34.566  31.343  27.813  1.00  0.00     0.060 A 
ATOM     29  C   UNL A   1      34.775  30.037  28.238  1.00  0.00     0.016 A 
ATOM     30  C   UNL A   1      35.542  32.314  28.037  1.00  0.00     0.016 A 
ATOM     31  C   UNL A   1      35.932  29.687  28.921  1.00  0.00     0.010 A 
ATOM     32  C   UNL A   1      36.727  31.957  28.702  1.00  0.00     0.010 A 
ATOM     33  C   UNL A   1      36.923  30.643  29.165  1.00  0.00    -0.014 A 
BRANCH  33  34
ATOM     34  C   UNL A   1      38.119  30.249  29.954  1.00  0.00     0.031 A 
ATOM     35  C   UNL A   1      39.161  29.352  29.347  1.00  0.00     0.074 A 
ATOM     36  C   UNL A   1      38.310  30.752  31.189  1.00  0.00     0.049 A 
ATOM     37  N   UNL A   1      40.225  28.822  29.899  1.00  0.00    -0.248 NA
ATOM     38  C   UNL A   1      38.980  28.999  27.932  1.00  0.00     0.031 C 
ATOM     39  C   UNL A   1      37.412  31.690  31.864  1.00  0.00     0.029 A 
ATOM     40  N   UNL A   1      39.326  30.555  32.091  1.00  0.00    -0.354 N 
ATOM     41  C   UNL A   1      40.816  28.045  28.912  1.00  0.00     0.074 A 
ATOM     42  C   UNL A   1      39.990  28.165  27.729  1.00  0.00     0.031 C 
ATOM     43  C   UNL A   1      37.928  32.002  33.064  1.00  0.00     0.029 A 
ATOM     44  C   UNL A   1      39.156  31.241  33.268  1.00  0.00     0.049 A 
ATOM     45  H   UNL A   1      40.103  29.977  31.910  1.00  0.00     0.167 HD
ATOM     46  C   UNL A   1      41.945  27.300  28.990  1.00  0.00     0.037 A 
ATOM     47  C   UNL A   1      39.890  31.233  34.397  1.00  0.00     0.037 A 
ATOM     48  C   UNL A   1      42.792  27.225  30.153  1.00  0.00     0.049 A 
ATOM     49  C   UNL A   1      41.120  30.371  34.470  1.00  0.00     0.074 A 
ATOM     50  C   UNL A   1      43.962  26.506  30.324  1.00  0.00     0.029 A 
ATOM     51  N   UNL A   1      42.564  27.905  31.341  1.00  0.00    -0.354 N 
ATOM     52  N   UNL A   1      41.646  29.602  33.549  1.00  0.00    -0.248 NA
ATOM     53  C   UNL A   1      41.852  30.368  35.744  1.00  0.00     0.031 C 
ATOM     54  C   UNL A   1      44.424  26.722  31.627  1.00  0.00     0.029 A 
ATOM     55  C   UNL A   1      43.565  27.609  32.254  1.00  0.00     0.049 A 
ATOM     56  H   UNL A   1      41.805  28.508  31.510  1.00  0.00     0.167 HD
ATOM     57  C   UNL A   1      42.774  29.034  34.124  1.00  0.00     0.074 A 
ATOM     58  C   UNL A   1      42.869  29.563  35.468  1.00  0.00     0.031 C 
ATOM     59  C   UNL A   1      43.647  28.147  33.587  1.00  0.00     0.037 A 
BRANCH  46  60
ATOM     60  C   UNL A   1      42.315  26.474  27.795  1.00  0.00     0.064 A 
ATOM     61  C   UNL A   1      43.259  26.907  26.853  1.00  0.00     0.173 A 
ATOM     62  C   UNL A   1      41.739  25.207  27.613  1.00  0.00     0.173 A 
ATOM     63  F   UNL A   1      43.830  28.115  26.976  1.00  0.00    -0.203 F 
ATOM     64  C   UNL A   1      43.597  26.111  25.761  1.00  0.00     0.198 A 
ATOM     65  C   UNL A   1      42.098  24.402  26.535  1.00  0.00     0.198 A 
ATOM     66  F   UNL A   1      40.836  24.742  28.489  1.00  0.00    -0.203 F 
ATOM     67  F   UNL A   1      44.473  26.560  24.851  1.00  0.00    -0.200 F 
ATOM     68  C   UNL A   1      43.022  24.857  25.607  1.00  0.00     0.200 A 
ATOM     69  F   UNL A   1      41.552  23.187  26.395  1.00  0.00    -0.200 F 
ATOM     70  F   UNL A   1      43.355  24.090  24.560  1.00  0.00    -0.200 F 
ENDBRANCH  46  60
BRANCH  47  71
ATOM     71  C   UNL A   1      39.458  32.047  35.564  1.00  0.00     0.064 A 
ATOM     72  C   UNL A   1      39.956  33.340  35.769  1.00  0.00     0.173 A 
ATOM     73  C   UNL A   1      38.537  31.545  36.495  1.00  0.00     0.173 A 
ATOM     74  F   UNL A   1      40.861  33.853  34.923  1.00  0.00    -0.203 F 
ATOM     75  C   UNL A   1      39.556  34.097  36.868  1.00  0.00     0.198 A 
ATOM     76  C   UNL A   1      38.115  32.314  37.576  1.00  0.00     0.198 A 
ATOM     77  F   UNL A   1      38.035  30.310  36.346  1.00  0.00    -0.203 F 
ATOM     78  F   UNL A   1      40.078  35.316  37.066  1.00  0.00    -0.200 F 
ATOM     79  C   UNL A   1      38.630  33.587  37.767  1.00  0.00     0.200 A 
ATOM     80  F   UNL A   1      37.212  31.821  38.435  1.00  0.00    -0.200 F 
ATOM     81  F   UNL A   1      38.240  34.319  38.818  1.00  0.00    -0.200 F 
ENDBRANCH  47  71
BRANCH  59  82
ATOM     82  C   UNL A   1      44.798  27.715  34.447  1.00  0.00     0.064 A 
ATOM     83  C   UNL A   1      46.001  28.434  34.478  1.00  0.00     0.173 A 
ATOM     84  C   UNL A   1      44.683  26.588  35.275  1.00  0.00     0.173 A 
ATOM     85  F   UNL A   1      46.165  29.509  33.692  1.00  0.00    -0.203 F 
ATOM     86  C   UNL A   1      47.056  28.028  35.290  1.00  0.00     0.198 A 
ATOM     87  C   UNL A   1      45.731  26.199  36.105  1.00  0.00     0.198 A 
ATOM     88  F   UNL A   1      43.550  25.869  35.284  1.00  0.00    -0.203 F 
ATOM     89  F   UNL A   1      48.212  28.705  35.273  1.00  0.00    -0.200 F 
ATOM     90  C   UNL A   1      46.918  26.915  36.107  1.00  0.00     0.200 A 
ATOM     91  F   UNL A   1      45.592  25.130  36.901  1.00  0.00    -0.200 F 
ATOM     92  F   UNL A   1      47.933  26.528  36.892  1.00  0.00    -0.200 F 
ENDBRANCH  59  82
ENDBRANCH  33  34
ENDBRANCH  26  28
ENDBRANCH  25  26
ENDBRANCH  24  25
ENDBRANCH   1  24
TORSDOF 14
ENDMDL
MODEL 2
REMARK VINA RESULT:     -12.0      1.932      3.371
REMARK SMILES Cc1noc(C)c1[C@H](C)NC(=O)c1cccc(C(=O)OCCOC(=O)c2ccc(-c3c4nc(c(-c5c(F)c(F)c(F)c(F)c5F)c5ccc([nH]5)c(-c5c(F)c(F)c(F)c(F)c5F)c5nc(c(-c6c(F)c(F)c(F)c(F)c6F)c6ccc3[nH]6)C=C5)C=C4)cc2)n1
REMARK SMILES IDX 21 1 20 2 18 3 19 4 17 5 13 6 14 7 89 8 15 9 16 10 11 11
REMARK SMILES IDX 10 12 12 14 8 15 9 16 7 17 1 18 2 19 3 20 4 21 5 22 6 23
REMARK SMILES IDX 22 24 23 25 24 26 25 27 26 28 27 29 88 30 28 31 87 32 29 33
REMARK SMILES IDX 30 34 31 35 81 36 32 37 86 38 80 39 82 40 33 41 85 42 79 43
REMARK SMILES IDX 78 44 34 46 66 47 46 48 65 49 47 50 50 51 64 52 83 53 48 54
REMARK SMILES IDX 49 55 63 57 84 58 51 59 35 60 36 61 44 62 37 63 38 64 42 65
REMARK SMILES IDX 45 66 39 67 40 68 43 69 41 70 67 71 68 72 76 73 69 74 70 75
REMARK SMILES IDX 74 76 77 77 71 78 72 79 75 80 73 81 52 82 53 83 61 84 54 85
REMARK SMILES IDX 55 86 59 87 62 88 56 89 57 90 60 91 58 92
REMARK H PARENT 10 13 82 45 50 56
REMARK Flexibility Score: inf
ROOT
ATOM      1  C   UNL A   1      31.804  32.843  26.611  1.00  0.00     0.275 C 
ENDROOT
BRANCH   1   2
ATOM      2  O   UNL A   1      31.553  31.459  26.920  1.00  0.00    -0.457 OA
BRANCH   2   3
ATOM      3  C   UNL A   1      32.508  30.567  26.541  1.00  0.00     0.357 C 
ATOM      4  O   UNL A   1      33.663  30.548  26.934  1.00  0.00    -0.244 OA
BRANCH   3   5
ATOM      5  C   UNL A   1      31.900  29.525  25.652  1.00  0.00     0.149 A 
ATOM      6  C   UNL A   1      31.540  27.264  25.317  1.00  0.00     0.129 A 
ATOM      7  C   UNL A   1      30.603  27.517  24.326  1.00  0.00     0.034 A 
ATOM      8  N   UNL A   1      32.225  28.239  25.956  1.00  0.00    -0.236 NA
ATOM      9  C   UNL A   1      30.354  28.836  23.962  1.00  0.00     0.005 A 
ATOM     10  C   UNL A   1      30.999  29.862  24.647  1.00  0.00     0.036 A 
BRANCH   6  11
ATOM     11  C   UNL A   1      31.687  25.883  25.865  1.00  0.00     0.270 C 
ATOM     12  N   UNL A   1      32.702  25.059  25.441  1.00  0.00    -0.344 N 
ATOM     13  H   UNL A   1      32.606  24.108  25.677  1.00  0.00     0.164 HD
ATOM     14  O   UNL A   1      30.867  25.450  26.671  1.00  0.00    -0.267 OA
BRANCH  12  15
ATOM     15  C   UNL A   1      33.895  25.405  24.690  1.00  0.00     0.115 C 
ATOM     16  C   UNL A   1      35.042  24.528  25.190  1.00  0.00     0.036 C 
BRANCH  15  17
ATOM     17  C   UNL A   1      33.573  25.296  23.225  1.00  0.00     0.040 A 
ATOM     18  C   UNL A   1      33.783  27.813  22.424  1.00  0.00     0.071 C 
ATOM     19  C   UNL A   1      33.548  26.358  22.257  1.00  0.00     0.086 A 
ATOM     20  N   UNL A   1      33.282  25.902  21.029  1.00  0.00    -0.085 NA
ATOM     21  O   UNL A   1      33.101  24.550  21.160  1.00  0.00    -0.361 OA
ATOM     22  C   UNL A   1      33.269  24.184  22.457  1.00  0.00     0.139 A 
ATOM     23  C   UNL A   1      33.092  22.739  22.706  1.00  0.00     0.091 C 
ENDBRANCH  15  17
ENDBRANCH  12  15
ENDBRANCH   6  11
ENDBRANCH   3   5
ENDBRANCH   2   3
ENDBRANCH   1   2
BRANCH   1  24
ATOM     24  C   UNL A   1      32.791  33.463  27.608  1.00  0.00     0.275 C 
BRANCH  24  25
ATOM     25  O   UNL A   1      32.232  34.614  28.271  1.00  0.00    -0.458 OA
BRANCH  25  26
ATOM     26  C   UNL A   1      33.135  35.427  28.869  1.00  0.00     0.338 C 
ATOM     27  O   UNL A   1      33.016  36.620  29.092  1.00  0.00    -0.246 OA
BRANCH  26  28
ATOM     28  C   UNL A   1      34.277  34.633  29.352  1.00  0.00     0.060 A 
ATOM     29  C   UNL A   1      34.091  33.898  30.518  1.00  0.00     0.016 A 
ATOM     30  C   UNL A   1      35.535  34.678  28.750  1.00  0.00     0.016 A 
ATOM     31  C   UNL A   1      35.153  33.235  31.118  1.00  0.00     0.010 A 
ATOM     32  C   UNL A   1      36.604  33.984  29.339  1.00  0.00     0.010 A 
ATOM     33  C   UNL A   1      36.424  33.271  30.540  1.00  0.00    -0.014 A 
BRANCH  33  34
ATOM     34  C   UNL A   1      37.550  32.603  31.242  1.00  0.00     0.031 A 
ATOM     35  C   UNL A   1      38.320  31.506  30.562  1.00  0.00     0.074 A 
ATOM     36  C   UNL A   1      37.931  33.026  32.464  1.00  0.00     0.049 A 
ATOM     37  N   UNL A   1      39.270  30.740  31.038  1.00  0.00    -0.248 NA
ATOM     38  C   UNL A   1      37.970  31.230  29.162  1.00  0.00     0.031 C 
ATOM     39  C   UNL A   1      37.316  34.129  33.202  1.00  0.00     0.029 A 
ATOM     40  N   UNL A   1      38.934  32.588  33.293  1.00  0.00    -0.354 N 
ATOM     41  C   UNL A   1      39.604  29.868  30.011  1.00  0.00     0.074 A 
ATOM     42  C   UNL A   1      38.750  30.194  28.887  1.00  0.00     0.031 C 
ATOM     43  C   UNL A   1      37.966  34.295  34.365  1.00  0.00     0.029 A 
ATOM     44  C   UNL A   1      39.002  33.272  34.481  1.00  0.00     0.049 A 
ATOM     45  H   UNL A   1      39.546  31.853  33.057  1.00  0.00     0.167 HD
ATOM     46  C   UNL A   1      40.538  28.887  30.007  1.00  0.00     0.037 A 
ATOM     47  C   UNL A   1      39.788  33.078  35.557  1.00  0.00     0.037 A 
ATOM     48  C   UNL A   1      41.421  28.601  31.109  1.00  0.00     0.049 A 
ATOM     49  C   UNL A   1      40.793  31.960  35.542  1.00  0.00     0.074 A 
ATOM     50  C   UNL A   1      42.407  27.633  31.197  1.00  0.00     0.029 A 
ATOM     51  N   UNL A   1      41.432  29.292  32.312  1.00  0.00    -0.354 N 
ATOM     52  N   UNL A   1      41.070  31.109  34.584  1.00  0.00    -0.248 NA
ATOM     53  C   UNL A   1      41.588  31.767  36.763  1.00  0.00     0.031 C 
ATOM     54  C   UNL A   1      42.990  27.714  32.466  1.00  0.00     0.029 A 
ATOM     55  C   UNL A   1      42.398  28.760  33.154  1.00  0.00     0.049 A 
ATOM     56  H   UNL A   1      40.841  30.047  32.536  1.00  0.00     0.167 HD
ATOM     57  C   UNL A   1      42.075  30.291  35.079  1.00  0.00     0.074 A 
ATOM     58  C   UNL A   1      42.376  30.759  36.415  1.00  0.00     0.031 C 
ATOM     59  C   UNL A   1      42.688  29.241  34.480  1.00  0.00     0.037 A 
BRANCH  46  60
ATOM     60  C   UNL A   1      40.631  28.021  28.787  1.00  0.00     0.064 A 
ATOM     61  C   UNL A   1      39.897  26.833  28.658  1.00  0.00     0.173 A 
ATOM     62  C   UNL A   1      41.442  28.412  27.710  1.00  0.00     0.173 A 
ATOM     63  F   UNL A   1      39.116  26.410  29.664  1.00  0.00    -0.203 F 
ATOM     64  C   UNL A   1      39.989  26.057  27.506  1.00  0.00     0.198 A 
ATOM     65  C   UNL A   1      41.511  27.647  26.548  1.00  0.00     0.198 A 
ATOM     66  F   UNL A   1      42.159  29.544  27.778  1.00  0.00    -0.203 F 
ATOM     67  F   UNL A   1      39.310  24.904  27.419  1.00  0.00    -0.200 F 
ATOM     68  C   UNL A   1      40.790  26.467  26.450  1.00  0.00     0.200 A 
ATOM     69  F   UNL A   1      42.275  28.053  25.525  1.00  0.00    -0.200 F 
ATOM     70  F   UNL A   1      40.871  25.723  25.338  1.00  0.00    -0.200 F 
ENDBRANCH  46  60
BRANCH  47  71
ATOM     71  C   UNL A   1      39.629  33.945  36.754  1.00  0.00     0.064 A 
ATOM     72  C   UNL A   1      40.278  35.184  36.842  1.00  0.00     0.173 A 
ATOM     73  C   UNL A   1      38.823  33.551  37.833  1.00  0.00     0.173 A 
ATOM     74  F   UNL A   1      41.083  35.591  35.849  1.00  0.00    -0.203 F 
ATOM     75  C   UNL A   1      40.134  35.991  37.968  1.00  0.00     0.198 A 
ATOM     76  C   UNL A   1      38.656  34.372  38.944  1.00  0.00     0.198 A 
ATOM     77  F   UNL A   1      38.185  32.372  37.798  1.00  0.00    -0.203 F 
ATOM     78  F   UNL A   1      40.799  37.153  38.047  1.00  0.00    -0.200 F 
ATOM     79  C   UNL A   1      39.317  35.589  39.015  1.00  0.00     0.200 A 
ATOM     80  F   UNL A   1      37.857  33.984  39.948  1.00  0.00    -0.200 F 
ATOM     81  F   UNL A   1      39.174  36.369  40.094  1.00  0.00    -0.200 F 
ENDBRANCH  47  71
BRANCH  59  82
ATOM     82  C   UNL A   1      43.765  28.543  35.257  1.00  0.00     0.064 A 
ATOM     83  C   UNL A   1      45.113  28.907  35.130  1.00  0.00     0.173 A 
ATOM     84  C   UNL A   1      43.441  27.523  36.164  1.00  0.00     0.173 A 
ATOM     85  F   UNL A   1      45.474  29.866  34.264  1.00  0.00    -0.203 F 
ATOM     86  C   UNL A   1      46.101  28.260  35.867  1.00  0.00     0.198 A 
ATOM     87  C   UNL A   1      44.428  26.895  36.918  1.00  0.00     0.198 A 
ATOM     88  F   UNL A   1      42.165  27.142  36.325  1.00  0.00    -0.203 F 
ATOM     89  F   UNL A   1      47.388  28.594  35.699  1.00  0.00    -0.200 F 
ATOM     90  C   UNL A   1      45.758  27.260  36.765  1.00  0.00     0.200 A 
ATOM     91  F   UNL A   1      44.094  25.936  37.792  1.00  0.00    -0.200 F 
ATOM     92  F   UNL A   1      46.709  26.640  37.476  1.00  0.00    -0.200 F 
ENDBRANCH  59  82
ENDBRANCH  33  34
ENDBRANCH  26  28
ENDBRANCH  25  26
ENDBRANCH  24  25
ENDBRANCH   1  24
TORSDOF 14
ENDMDL
MODEL 3
REMARK VINA RESULT:     -11.9      0.317      7.310
REMARK SMILES Cc1noc(C)c1[C@H](C)NC(=O)c1cccc(C(=O)OCCOC(=O)c2ccc(-c3c4nc(c(-c5c(F)c(F)c(F)c(F)c5F)c5ccc([nH]5)c(-c5c(F)c(F)c(F)c(F)c5F)c5nc(c(-c6c(F)c(F)c(F)c(F)c6F)c6ccc3[nH]6)C=C5)C=C4)cc2)n1
REMARK SMILES IDX 21 1 20 2 18 3 19 4 17 5 13 6 14 7 89 8 15 9 16 10 11 11
REMARK SMILES IDX 10 12 12 14 8 15 9 16 7 17 1 18 2 19 3 20 4 21 5 22 6 23
REMARK SMILES IDX 22 24 23 25 24 26 25 27 26 28 27 29 88 30 28 31 87 32 29 33
REMARK SMILES IDX 30 34 31 35 81 36 32 37 86 38 80 39 82 40 33 41 85 42 79 43
REMARK SMILES IDX 78 44 34 46 66 47 46 48 65 49 47 50 50 51 64 52 83 53 48 54
REMARK SMILES IDX 49 55 63 57 84 58 51 59 35 60 36 61 44 62 37 63 38 64 42 65
REMARK SMILES IDX 45 66 39 67 40 68 43 69 41 70 67 71 68 72 76 73 69 74 70 75
REMARK SMILES IDX 74 76 77 77 71 78 72 79 75 80 73 81 52 82 53 83 61 84 54 85
REMARK SMILES IDX 55 86 59 87 62 88 56 89 57 90 60 91 58 92
REMARK H PARENT 10 13 82 45 50 56
REMARK Flexibility Score: inf
ROOT
ATOM      1  C   UNL A   1      31.402  29.416  25.223  1.00  0.00     0.275 C 
ENDROOT
BRANCH   1   2
ATOM      2  O   UNL A   1      32.600  28.743  24.791  1.00  0.00    -0.457 OA
BRANCH   2   3
ATOM      3  C   UNL A   1      32.731  27.438  25.154  1.00  0.00     0.357 C 
ATOM      4  O   UNL A   1      32.671  27.005  26.294  1.00  0.00    -0.244 OA
BRANCH   3   5
ATOM      5  C   UNL A   1      32.840  26.582  23.929  1.00  0.00     0.149 A 
ATOM      6  C   UNL A   1      33.753  24.670  23.002  1.00  0.00     0.129 A 
ATOM      7  C   UNL A   1      32.911  24.749  21.903  1.00  0.00     0.034 A 
ATOM      8  N   UNL A   1      33.766  25.587  23.994  1.00  0.00    -0.236 NA
ATOM      9  C   UNL A   1      32.037  25.826  21.807  1.00  0.00     0.005 A 
ATOM     10  C   UNL A   1      31.985  26.753  22.844  1.00  0.00     0.036 A 
BRANCH   6  11
ATOM     11  C   UNL A   1      34.558  23.433  23.233  1.00  0.00     0.270 C 
ATOM     12  N   UNL A   1      34.021  22.353  23.891  1.00  0.00    -0.344 N 
ATOM     13  H   UNL A   1      34.667  21.674  24.194  1.00  0.00     0.164 HD
ATOM     14  O   UNL A   1      35.733  23.388  22.876  1.00  0.00    -0.267 OA
BRANCH  12  15
ATOM     15  C   UNL A   1      32.629  22.081  24.199  1.00  0.00     0.115 C 
ATOM     16  C   UNL A   1      32.383  20.586  24.008  1.00  0.00     0.036 C 
BRANCH  15  17
ATOM     17  C   UNL A   1      32.339  22.627  25.570  1.00  0.00     0.040 A 
ATOM     18  C   UNL A   1      30.351  24.311  25.087  1.00  0.00     0.071 C 
ATOM     19  C   UNL A   1      31.330  23.585  25.933  1.00  0.00     0.086 A 
ATOM     20  N   UNL A   1      31.306  23.804  27.250  1.00  0.00    -0.085 NA
ATOM     21  O   UNL A   1      32.303  23.027  27.780  1.00  0.00    -0.361 OA
ATOM     22  C   UNL A   1      32.921  22.330  26.793  1.00  0.00     0.139 A 
ATOM     23  C   UNL A   1      34.018  21.459  27.261  1.00  0.00     0.091 C 
ENDBRANCH  15  17
ENDBRANCH  12  15
ENDBRANCH   6  11
ENDBRANCH   3   5
ENDBRANCH   2   3
ENDBRANCH   1   2
BRANCH   1  24
ATOM     24  C   UNL A   1      31.720  30.803  25.793  1.00  0.00     0.275 C 
BRANCH  24  25
ATOM     25  O   UNL A   1      32.493  30.719  27.007  1.00  0.00    -0.458 OA
BRANCH  25  26
ATOM     26  C   UNL A   1      33.205  31.830  27.312  1.00  0.00     0.338 C 
ATOM     27  O   UNL A   1      32.822  32.987  27.256  1.00  0.00    -0.246 OA
BRANCH  26  28
ATOM     28  C   UNL A   1      34.515  31.447  27.864  1.00  0.00     0.060 A 
ATOM     29  C   UNL A   1      34.691  30.112  28.210  1.00  0.00     0.016 A 
ATOM     30  C   UNL A   1      35.517  32.377  28.140  1.00  0.00     0.016 A 
ATOM     31  C   UNL A   1      35.841  29.692  28.864  1.00  0.00     0.010 A 
ATOM     32  C   UNL A   1      36.695  31.950  28.776  1.00  0.00     0.010 A 
ATOM     33  C   UNL A   1      36.858  30.605  29.159  1.00  0.00    -0.014 A 
BRANCH  33  34
ATOM     34  C   UNL A   1      38.047  30.134  29.916  1.00  0.00     0.031 A 
ATOM     35  C   UNL A   1      38.246  30.552  31.345  1.00  0.00     0.074 A 
ATOM     36  C   UNL A   1      38.912  29.273  29.346  1.00  0.00     0.049 A 
ATOM     37  N   UNL A   1      39.259  30.324  32.144  1.00  0.00    -0.248 NA
ATOM     38  C   UNL A   1      37.164  31.336  31.957  1.00  0.00     0.031 C 
ATOM     39  C   UNL A   1      38.793  28.731  27.992  1.00  0.00     0.029 A 
ATOM     40  N   UNL A   1      40.055  28.692  29.839  1.00  0.00    -0.354 N 
ATOM     41  C   UNL A   1      38.954  30.968  33.335  1.00  0.00     0.074 A 
ATOM     42  C   UNL A   1      37.665  31.602  33.155  1.00  0.00     0.031 C 
ATOM     43  C   UNL A   1      39.809  27.883  27.769  1.00  0.00     0.029 A 
ATOM     44  C   UNL A   1      40.684  27.868  28.938  1.00  0.00     0.049 A 
ATOM     45  H   UNL A   1      40.391  28.851  30.751  1.00  0.00     0.167 HD
ATOM     46  C   UNL A   1      39.685  31.023  34.475  1.00  0.00     0.037 A 
ATOM     47  C   UNL A   1      41.850  27.201  29.031  1.00  0.00     0.037 A 
ATOM     48  C   UNL A   1      40.943  30.347  34.668  1.00  0.00     0.049 A 
ATOM     49  C   UNL A   1      42.659  27.306  30.294  1.00  0.00     0.074 A 
ATOM     50  C   UNL A   1      41.753  30.335  35.790  1.00  0.00     0.029 A 
ATOM     51  N   UNL A   1      41.567  29.553  33.717  1.00  0.00    -0.354 N 
ATOM     52  N   UNL A   1      42.387  27.955  31.399  1.00  0.00    -0.248 NA
ATOM     53  C   UNL A   1      43.945  26.594  30.318  1.00  0.00     0.031 C 
ATOM     54  C   UNL A   1      42.885  29.563  35.506  1.00  0.00     0.029 A 
ATOM     55  C   UNL A   1      42.760  29.059  34.222  1.00  0.00     0.049 A 
ATOM     56  H   UNL A   1      41.215  29.368  32.816  1.00  0.00     0.167 HD
ATOM     57  C   UNL A   1      43.456  27.722  32.253  1.00  0.00     0.074 A 
ATOM     58  C   UNL A   1      44.373  26.853  31.545  1.00  0.00     0.031 C 
ATOM     59  C   UNL A   1      43.660  28.193  33.507  1.00  0.00     0.037 A 
BRANCH  46  60
ATOM     60  C   UNL A   1      39.163  31.873  35.595  1.00  0.00     0.064 A 
ATOM     61  C   UNL A   1      38.319  31.358  36.589  1.00  0.00     0.173 A 
ATOM     62  C   UNL A   1      39.549  33.218  35.693  1.00  0.00     0.173 A 
ATOM     63  F   UNL A   1      37.912  30.081  36.534  1.00  0.00    -0.203 F 
ATOM     64  C   UNL A   1      37.862  32.166  37.628  1.00  0.00     0.198 A 
ATOM     65  C   UNL A   1      39.113  34.016  36.747  1.00  0.00     0.198 A 
ATOM     66  F   UNL A   1      40.362  33.758  34.772  1.00  0.00    -0.203 F 
ATOM     67  F   UNL A   1      37.024  31.665  38.546  1.00  0.00    -0.200 F 
ATOM     68  C   UNL A   1      38.265  33.491  37.710  1.00  0.00     0.200 A 
ATOM     69  F   UNL A   1      39.514  35.292  36.831  1.00  0.00    -0.200 F 
ATOM     70  F   UNL A   1      37.831  34.264  38.715  1.00  0.00    -0.200 F 
ENDBRANCH  46  60
BRANCH  47  71
ATOM     71  C   UNL A   1      42.336  26.399  27.878  1.00  0.00     0.064 A 
ATOM     72  C   UNL A   1      43.241  26.936  26.953  1.00  0.00     0.173 A 
ATOM     73  C   UNL A   1      41.903  25.079  27.679  1.00  0.00     0.173 A 
ATOM     74  F   UNL A   1      43.661  28.203  27.083  1.00  0.00    -0.203 F 
ATOM     75  C   UNL A   1      43.688  26.186  25.867  1.00  0.00     0.198 A 
ATOM     76  C   UNL A   1      42.374  24.320  26.611  1.00  0.00     0.198 A 
ATOM     77  F   UNL A   1      41.033  24.522  28.533  1.00  0.00    -0.203 F 
ATOM     78  F   UNL A   1      44.521  26.735  24.973  1.00  0.00    -0.200 F 
ATOM     79  C   UNL A   1      43.261  24.876  25.701  1.00  0.00     0.200 A 
ATOM     80  F   UNL A   1      41.966  23.053  26.461  1.00  0.00    -0.200 F 
ATOM     81  F   UNL A   1      43.696  24.153  24.661  1.00  0.00    -0.200 F 
ENDBRANCH  47  71
BRANCH  59  82
ATOM     82  C   UNL A   1      44.914  27.755  34.205  1.00  0.00     0.064 A 
ATOM     83  C   UNL A   1      46.097  28.503  34.124  1.00  0.00     0.173 A 
ATOM     84  C   UNL A   1      44.923  26.593  34.991  1.00  0.00     0.173 A 
ATOM     85  F   UNL A   1      46.144  29.613  33.372  1.00  0.00    -0.203 F 
ATOM     86  C   UNL A   1      47.250  28.092  34.787  1.00  0.00     0.198 A 
ATOM     87  C   UNL A   1      46.069  26.198  35.674  1.00  0.00     0.198 A 
ATOM     88  F   UNL A   1      43.814  25.846  35.104  1.00  0.00    -0.203 F 
ATOM     89  F   UNL A   1      48.382  28.798  34.662  1.00  0.00    -0.200 F 
ATOM     90  C   UNL A   1      47.234  26.944  35.566  1.00  0.00     0.200 A 
ATOM     91  F   UNL A   1      46.049  25.094  36.433  1.00  0.00    -0.200 F 
ATOM     92  F   UNL A   1      48.343  26.551  36.207  1.00  0.00    -0.200 F 
ENDBRANCH  59  82
ENDBRANCH  33  34
ENDBRANCH  26  28
ENDBRANCH  25  26
ENDBRANCH  24  25
ENDBRANCH   1  24
TORSDOF 14
ENDMDL
