MODEL 1
REMARK VINA RESULT:     -11.1      0.000      0.000
REMARK SMILES Cc1cccc2c(C(F)(F)F)cc(C(=O)OCCOC(=O)c3ccc(-c4c5nc(c(-c6c(F)c(F)c(F)c(F)c6F)c6ccc([nH]6)c(-c6c(F)c(F)c(F)c(F)c6F)c6nc(c(-c7c(F)c(F)c(F)c(F)c7F)c7ccc4[nH]7)C=C6)C=C5)cc3)nc12
REMARK SMILES IDX 18 1 17 2 16 3 14 4 15 5 13 6 1 7 2 8 3 9 86 10 4 11 6 12
REMARK SMILES IDX 85 13 5 14 7 15 12 16 8 17 9 18 10 19 11 20 19 21 20 22
REMARK SMILES IDX 21 23 22 24 23 25 84 26 24 27 83 28 25 29 26 30 27 31 77 32
REMARK SMILES IDX 28 33 82 34 76 35 78 36 29 37 81 38 75 39 74 40 30 42 62 43
REMARK SMILES IDX 42 44 61 45 43 46 46 47 60 48 79 49 44 50 45 51 59 53 80 54
REMARK SMILES IDX 47 55 31 56 32 57 40 58 33 59 34 60 38 61 41 62 35 63 36 64
REMARK SMILES IDX 39 65 37 66 63 67 64 68 72 69 65 70 66 71 70 72 73 73 67 74
REMARK SMILES IDX 68 75 71 76 69 77 48 78 49 79 57 80 50 81 51 82 55 83 58 84
REMARK SMILES IDX 52 85 53 86 56 87 54 88
REMARK H PARENT 78 41 46 52
REMARK Flexibility Score: inf
ROOT
ATOM      1  C   UNL A   1      32.859  36.459  29.691  1.00  0.00     0.275 C 
ENDROOT
BRANCH   1   2
ATOM      2  C   UNL A   1      33.985  36.033  28.748  1.00  0.00     0.275 C 
BRANCH   2   3
ATOM      3  O   UNL A   1      33.891  34.628  28.431  1.00  0.00    -0.457 OA
BRANCH   3   4
ATOM      4  C   UNL A   1      35.032  33.912  28.589  1.00  0.00     0.357 C 
ATOM      5  O   UNL A   1      36.069  34.303  29.109  1.00  0.00    -0.244 OA
BRANCH   4   6
ATOM      6  C   UNL A   1      34.849  32.499  28.157  1.00  0.00     0.149 A 
ATOM      7  C   UNL A   1      31.196  31.528  26.480  1.00  0.00     0.047 C 
ATOM      8  C   UNL A   1      32.300  30.509  26.604  1.00  0.00    -0.025 A 
ATOM      9  C   UNL A   1      32.094  29.216  26.102  1.00  0.00     0.005 A 
ATOM     10  C   UNL A   1      33.510  30.862  27.212  1.00  0.00     0.075 A 
ATOM     11  C   UNL A   1      33.086  28.256  26.221  1.00  0.00     0.001 A 
ATOM     12  C   UNL A   1      34.540  29.886  27.324  1.00  0.00     0.013 A 
ATOM     13  N   UNL A   1      33.656  32.125  27.656  1.00  0.00    -0.240 NA
ATOM     14  C   UNL A   1      34.289  28.581  26.839  1.00  0.00     0.011 A 
ATOM     15  C   UNL A   1      35.769  30.291  27.897  1.00  0.00     0.067 A 
ATOM     16  C   UNL A   1      35.920  31.633  28.269  1.00  0.00     0.049 A 
BRANCH  15  17
ATOM     17  C   UNL A   1      36.935  29.380  28.207  1.00  0.00     0.417 C 
ATOM     18  F   UNL A   1      38.130  30.038  28.149  1.00  0.00    -0.166 F 
ATOM     19  F   UNL A   1      36.861  28.887  29.475  1.00  0.00    -0.166 F 
ATOM     20  F   UNL A   1      37.082  28.306  27.390  1.00  0.00    -0.166 F 
ENDBRANCH  15  17
ENDBRANCH   4   6
ENDBRANCH   3   4
ENDBRANCH   2   3
ENDBRANCH   1   2
BRANCH   1  21
ATOM     21  O   UNL A   1      32.573  35.395  30.618  1.00  0.00    -0.458 OA
BRANCH  21  22
ATOM     22  C   UNL A   1      32.597  35.727  31.929  1.00  0.00     0.338 C 
ATOM     23  O   UNL A   1      31.802  36.424  32.535  1.00  0.00    -0.246 OA
BRANCH  22  24
ATOM     24  C   UNL A   1      33.753  35.087  32.586  1.00  0.00     0.060 A 
ATOM     25  C   UNL A   1      34.996  35.711  32.554  1.00  0.00     0.016 A 
ATOM     26  C   UNL A   1      33.636  33.803  33.114  1.00  0.00     0.016 A 
ATOM     27  C   UNL A   1      36.144  35.020  32.939  1.00  0.00     0.010 A 
ATOM     28  C   UNL A   1      34.773  33.154  33.611  1.00  0.00     0.010 A 
ATOM     29  C   UNL A   1      36.050  33.733  33.488  1.00  0.00    -0.014 A 
BRANCH  29  30
ATOM     30  C   UNL A   1      37.279  32.979  33.886  1.00  0.00     0.031 A 
ATOM     31  C   UNL A   1      37.864  33.159  35.265  1.00  0.00     0.074 A 
ATOM     32  C   UNL A   1      37.871  32.118  33.034  1.00  0.00     0.049 A 
ATOM     33  N   UNL A   1      39.024  32.767  35.733  1.00  0.00    -0.248 NA
ATOM     34  C   UNL A   1      37.044  33.891  36.242  1.00  0.00     0.031 C 
ATOM     35  C   UNL A   1      37.403  31.797  31.685  1.00  0.00     0.029 A 
ATOM     36  N   UNL A   1      38.999  31.344  33.181  1.00  0.00    -0.354 N 
ATOM     37  C   UNL A   1      39.102  33.268  37.027  1.00  0.00     0.074 A 
ATOM     38  C   UNL A   1      37.870  33.985  37.276  1.00  0.00     0.031 C 
ATOM     39  C   UNL A   1      38.199  30.859  31.151  1.00  0.00     0.029 A 
ATOM     40  C   UNL A   1      39.294  30.583  32.075  1.00  0.00     0.049 A 
ATOM     41  H   UNL A   1      39.542  31.334  34.002  1.00  0.00     0.167 HD
ATOM     42  C   UNL A   1      40.110  33.142  37.924  1.00  0.00     0.037 A 
ATOM     43  C   UNL A   1      40.347  29.787  31.809  1.00  0.00     0.037 A 
ATOM     44  C   UNL A   1      41.300  32.361  37.709  1.00  0.00     0.049 A 
ATOM     45  C   UNL A   1      41.454  29.665  32.818  1.00  0.00     0.074 A 
ATOM     46  C   UNL A   1      42.369  32.161  38.567  1.00  0.00     0.029 A 
ATOM     47  N   UNL A   1      41.565  31.626  36.563  1.00  0.00    -0.354 N 
ATOM     48  N   UNL A   1      41.554  30.211  34.004  1.00  0.00    -0.248 NA
ATOM     49  C   UNL A   1      42.607  28.837  32.438  1.00  0.00     0.031 C 
ATOM     50  C   UNL A   1      43.293  31.325  37.929  1.00  0.00     0.029 A 
ATOM     51  C   UNL A   1      42.782  30.976  36.690  1.00  0.00     0.049 A 
ATOM     52  H   UNL A   1      40.975  31.574  35.776  1.00  0.00     0.167 HD
ATOM     53  C   UNL A   1      42.776  29.795  34.512  1.00  0.00     0.074 A 
ATOM     54  C   UNL A   1      43.371  28.926  33.517  1.00  0.00     0.031 C 
ATOM     55  C   UNL A   1      43.360  30.114  35.693  1.00  0.00     0.037 A 
BRANCH  42  56
ATOM     56  C   UNL A   1      39.991  33.893  39.218  1.00  0.00     0.064 A 
ATOM     57  C   UNL A   1      40.543  35.170  39.393  1.00  0.00     0.173 A 
ATOM     58  C   UNL A   1      39.263  33.341  40.285  1.00  0.00     0.173 A 
ATOM     59  F   UNL A   1      41.258  35.736  38.409  1.00  0.00    -0.203 F 
ATOM     60  C   UNL A   1      40.390  35.858  40.594  1.00  0.00     0.198 A 
ATOM     61  C   UNL A   1      39.089  34.043  41.475  1.00  0.00     0.198 A 
ATOM     62  F   UNL A   1      38.707  32.126  40.167  1.00  0.00    -0.203 F 
ATOM     63  F   UNL A   1      40.958  37.061  40.753  1.00  0.00    -0.200 F 
ATOM     64  C   UNL A   1      39.657  35.298  41.631  1.00  0.00     0.200 A 
ATOM     65  F   UNL A   1      38.368  33.505  42.469  1.00  0.00    -0.200 F 
ATOM     66  F   UNL A   1      39.501  35.966  42.782  1.00  0.00    -0.200 F 
ENDBRANCH  42  56
BRANCH  43  67
ATOM     67  C   UNL A   1      40.428  29.080  30.504  1.00  0.00     0.064 A 
ATOM     68  C   UNL A   1      39.766  27.861  30.301  1.00  0.00     0.173 A 
ATOM     69  C   UNL A   1      41.164  29.609  29.432  1.00  0.00     0.173 A 
ATOM     70  F   UNL A   1      39.075  27.300  31.304  1.00  0.00    -0.203 F 
ATOM     71  C   UNL A   1      39.841  27.197  29.078  1.00  0.00     0.198 A 
ATOM     72  C   UNL A   1      41.213  28.960  28.202  1.00  0.00     0.198 A 
ATOM     73  F   UNL A   1      41.820  30.770  29.577  1.00  0.00    -0.203 F 
ATOM     74  F   UNL A   1      39.231  26.014  28.922  1.00  0.00    -0.200 F 
ATOM     75  C   UNL A   1      40.556  27.751  28.027  1.00  0.00     0.200 A 
ATOM     76  F   UNL A   1      41.893  29.507  27.185  1.00  0.00    -0.200 F 
ATOM     77  F   UNL A   1      40.618  27.118  26.848  1.00  0.00    -0.200 F 
ENDBRANCH  43  67
BRANCH  55  78
ATOM     78  C   UNL A   1      44.699  29.505  35.979  1.00  0.00     0.064 A 
ATOM     79  C   UNL A   1      44.815  28.262  36.619  1.00  0.00     0.173 A 
ATOM     80  C   UNL A   1      45.876  30.157  35.587  1.00  0.00     0.173 A 
ATOM     81  F   UNL A   1      43.716  27.609  37.029  1.00  0.00    -0.203 F 
ATOM     82  C   UNL A   1      46.064  27.705  36.876  1.00  0.00     0.198 A 
ATOM     83  C   UNL A   1      47.123  29.587  35.824  1.00  0.00     0.198 A 
ATOM     84  F   UNL A   1      45.816  31.346  34.967  1.00  0.00    -0.203 F 
ATOM     85  F   UNL A   1      46.154  26.538  37.528  1.00  0.00    -0.200 F 
ATOM     86  C   UNL A   1      47.216  28.365  36.475  1.00  0.00     0.200 A 
ATOM     87  F   UNL A   1      48.235  30.221  35.429  1.00  0.00    -0.200 F 
ATOM     88  F   UNL A   1      48.418  27.827  36.722  1.00  0.00    -0.200 F 
ENDBRANCH  55  78
ENDBRANCH  29  30
ENDBRANCH  22  24
ENDBRANCH  21  22
ENDBRANCH   1  21
TORSDOF 12
ENDMDL
MODEL 2
REMARK VINA RESULT:     -11.1      0.253      1.639
REMARK SMILES Cc1cccc2c(C(F)(F)F)cc(C(=O)OCCOC(=O)c3ccc(-c4c5nc(c(-c6c(F)c(F)c(F)c(F)c6F)c6ccc([nH]6)c(-c6c(F)c(F)c(F)c(F)c6F)c6nc(c(-c7c(F)c(F)c(F)c(F)c7F)c7ccc4[nH]7)C=C6)C=C5)cc3)nc12
REMARK SMILES IDX 18 1 17 2 16 3 14 4 15 5 13 6 1 7 2 8 3 9 86 10 4 11 6 12
REMARK SMILES IDX 85 13 5 14 7 15 12 16 8 17 9 18 10 19 11 20 19 21 20 22
REMARK SMILES IDX 21 23 22 24 23 25 84 26 24 27 83 28 25 29 26 30 27 31 77 32
REMARK SMILES IDX 28 33 82 34 76 35 78 36 29 37 81 38 75 39 74 40 30 42 62 43
REMARK SMILES IDX 42 44 61 45 43 46 46 47 60 48 79 49 44 50 45 51 59 53 80 54
REMARK SMILES IDX 47 55 31 56 32 57 40 58 33 59 34 60 38 61 41 62 35 63 36 64
REMARK SMILES IDX 39 65 37 66 63 67 64 68 72 69 65 70 66 71 70 72 73 73 67 74
REMARK SMILES IDX 68 75 71 76 69 77 48 78 49 79 57 80 50 81 51 82 55 83 58 84
REMARK SMILES IDX 52 85 53 86 56 87 54 88
REMARK H PARENT 78 41 46 52
REMARK Flexibility Score: inf
ROOT
ATOM      1  C   UNL A   1      32.907  36.556  29.953  1.00  0.00     0.275 C 
ENDROOT
BRANCH   1   2
ATOM      2  C   UNL A   1      33.581  35.945  28.725  1.00  0.00     0.275 C 
BRANCH   2   3
ATOM      3  O   UNL A   1      33.429  34.510  28.711  1.00  0.00    -0.457 OA
BRANCH   3   4
ATOM      4  C   UNL A   1      34.549  33.797  28.987  1.00  0.00     0.357 C 
ATOM      5  O   UNL A   1      35.465  34.139  29.723  1.00  0.00    -0.244 OA
BRANCH   4   6
ATOM      6  C   UNL A   1      34.492  32.441  28.373  1.00  0.00     0.149 A 
ATOM      7  C   UNL A   1      31.056  31.491  26.278  1.00  0.00     0.047 C 
ATOM      8  C   UNL A   1      32.211  30.526  26.375  1.00  0.00    -0.025 A 
ATOM      9  C   UNL A   1      32.130  29.297  25.705  1.00  0.00     0.005 A 
ATOM     10  C   UNL A   1      33.343  30.866  27.125  1.00  0.00     0.075 A 
ATOM     11  C   UNL A   1      33.169  28.385  25.794  1.00  0.00     0.001 A 
ATOM     12  C   UNL A   1      34.422  29.940  27.209  1.00  0.00     0.013 A 
ATOM     13  N   UNL A   1      33.371  32.068  27.728  1.00  0.00    -0.240 NA
ATOM     14  C   UNL A   1      34.295  28.695  26.550  1.00  0.00     0.011 A 
ATOM     15  C   UNL A   1      35.572  30.336  27.932  1.00  0.00     0.067 A 
ATOM     16  C   UNL A   1      35.605  31.627  28.474  1.00  0.00     0.049 A 
BRANCH  15  17
ATOM     17  C   UNL A   1      36.765  29.458  28.230  1.00  0.00     0.417 C 
ATOM     18  F   UNL A   1      37.942  30.148  28.150  1.00  0.00    -0.166 F 
ATOM     19  F   UNL A   1      36.723  28.973  29.503  1.00  0.00    -0.166 F 
ATOM     20  F   UNL A   1      36.928  28.383  27.419  1.00  0.00    -0.166 F 
ENDBRANCH  15  17
ENDBRANCH   4   6
ENDBRANCH   3   4
ENDBRANCH   2   3
ENDBRANCH   1   2
BRANCH   1  21
ATOM     21  O   UNL A   1      32.490  35.510  30.851  1.00  0.00    -0.458 OA
BRANCH  21  22
ATOM     22  C   UNL A   1      32.537  35.806  32.170  1.00  0.00     0.338 C 
ATOM     23  O   UNL A   1      31.764  36.501  32.805  1.00  0.00    -0.246 OA
BRANCH  22  24
ATOM     24  C   UNL A   1      33.688  35.125  32.794  1.00  0.00     0.060 A 
ATOM     25  C   UNL A   1      34.912  35.780  32.880  1.00  0.00     0.016 A 
ATOM     26  C   UNL A   1      33.591  33.786  33.169  1.00  0.00     0.016 A 
ATOM     27  C   UNL A   1      36.066  35.079  33.229  1.00  0.00     0.010 A 
ATOM     28  C   UNL A   1      34.729  33.114  33.632  1.00  0.00     0.010 A 
ATOM     29  C   UNL A   1      35.991  33.735  33.625  1.00  0.00    -0.014 A 
BRANCH  29  30
ATOM     30  C   UNL A   1      37.227  32.973  33.982  1.00  0.00     0.031 A 
ATOM     31  C   UNL A   1      37.863  33.153  35.338  1.00  0.00     0.074 A 
ATOM     32  C   UNL A   1      37.781  32.104  33.113  1.00  0.00     0.049 A 
ATOM     33  N   UNL A   1      39.035  32.754  35.766  1.00  0.00    -0.248 NA
ATOM     34  C   UNL A   1      37.084  33.897  36.341  1.00  0.00     0.031 C 
ATOM     35  C   UNL A   1      37.262  31.781  31.783  1.00  0.00     0.029 A 
ATOM     36  N   UNL A   1      38.907  31.320  33.224  1.00  0.00    -0.354 N 
ATOM     37  C   UNL A   1      39.164  33.260  37.054  1.00  0.00     0.074 A 
ATOM     38  C   UNL A   1      37.947  33.988  37.344  1.00  0.00     0.031 C 
ATOM     39  C   UNL A   1      38.031  30.834  31.226  1.00  0.00     0.029 A 
ATOM     40  C   UNL A   1      39.156  30.553  32.111  1.00  0.00     0.049 A 
ATOM     41  H   UNL A   1      39.479  31.310  34.024  1.00  0.00     0.167 HD
ATOM     42  C   UNL A   1      40.202  33.129  37.915  1.00  0.00     0.037 A 
ATOM     43  C   UNL A   1      40.192  29.746  31.811  1.00  0.00     0.037 A 
ATOM     44  C   UNL A   1      41.377  32.337  37.662  1.00  0.00     0.049 A 
ATOM     45  C   UNL A   1      41.334  29.619  32.780  1.00  0.00     0.074 A 
ATOM     46  C   UNL A   1      42.474  32.131  38.482  1.00  0.00     0.029 A 
ATOM     47  N   UNL A   1      41.594  31.595  36.510  1.00  0.00    -0.354 N 
ATOM     48  N   UNL A   1      41.481  30.170  33.960  1.00  0.00    -0.248 NA
ATOM     49  C   UNL A   1      42.466  28.780  32.363  1.00  0.00     0.031 C 
ATOM     50  C   UNL A   1      43.368  31.285  37.815  1.00  0.00     0.029 A 
ATOM     51  C   UNL A   1      42.810  30.935  36.596  1.00  0.00     0.049 A 
ATOM     52  H   UNL A   1      40.977  31.545  35.745  1.00  0.00     0.167 HD
ATOM     53  C   UNL A   1      42.717  29.745  34.425  1.00  0.00     0.074 A 
ATOM     54  C   UNL A   1      43.268  28.867  33.414  1.00  0.00     0.031 C 
ATOM     55  C   UNL A   1      43.345  30.064  35.584  1.00  0.00     0.037 A 
BRANCH  42  56
ATOM     56  C   UNL A   1      40.135  33.887  39.209  1.00  0.00     0.064 A 
ATOM     57  C   UNL A   1      40.704  35.159  39.359  1.00  0.00     0.173 A 
ATOM     58  C   UNL A   1      39.442  33.345  40.304  1.00  0.00     0.173 A 
ATOM     59  F   UNL A   1      41.388  35.715  38.347  1.00  0.00    -0.203 F 
ATOM     60  C   UNL A   1      40.600  35.854  40.562  1.00  0.00     0.198 A 
ATOM     61  C   UNL A   1      39.316  34.053  41.497  1.00  0.00     0.198 A 
ATOM     62  F   UNL A   1      38.872  32.134  40.212  1.00  0.00    -0.203 F 
ATOM     63  F   UNL A   1      41.183  37.052  40.695  1.00  0.00    -0.200 F 
ATOM     64  C   UNL A   1      39.899  35.304  41.627  1.00  0.00     0.200 A 
ATOM     65  F   UNL A   1      38.627  33.526  42.519  1.00  0.00    -0.200 F 
ATOM     66  F   UNL A   1      39.791  35.978  42.779  1.00  0.00    -0.200 F 
ENDBRANCH  42  56
BRANCH  43  67
ATOM     67  C   UNL A   1      40.221  29.034  30.507  1.00  0.00     0.064 A 
ATOM     68  C   UNL A   1      40.891  29.578  29.402  1.00  0.00     0.173 A 
ATOM     69  C   UNL A   1      39.585  27.794  30.338  1.00  0.00     0.173 A 
ATOM     70  F   UNL A   1      41.487  30.774  29.504  1.00  0.00    -0.203 F 
ATOM     71  C   UNL A   1      40.919  28.911  28.178  1.00  0.00     0.198 A 
ATOM     72  C   UNL A   1      39.640  27.115  29.124  1.00  0.00     0.198 A 
ATOM     73  F   UNL A   1      38.927  27.233  31.363  1.00  0.00    -0.203 F 
ATOM     74  F   UNL A   1      41.533  29.471  27.127  1.00  0.00    -0.200 F 
ATOM     75  C   UNL A   1      40.302  27.676  28.043  1.00  0.00     0.200 A 
ATOM     76  F   UNL A   1      39.055  25.915  29.004  1.00  0.00    -0.200 F 
ATOM     77  F   UNL A   1      40.339  27.031  26.870  1.00  0.00    -0.200 F 
ENDBRANCH  43  67
BRANCH  55  78
ATOM     78  C   UNL A   1      44.688  29.445  35.824  1.00  0.00     0.064 A 
ATOM     79  C   UNL A   1      45.869  30.078  35.408  1.00  0.00     0.173 A 
ATOM     80  C   UNL A   1      44.798  28.221  36.498  1.00  0.00     0.173 A 
ATOM     81  F   UNL A   1      45.812  31.242  34.743  1.00  0.00    -0.203 F 
ATOM     82  C   UNL A   1      47.111  29.495  35.640  1.00  0.00     0.198 A 
ATOM     83  C   UNL A   1      46.043  27.652  36.750  1.00  0.00     0.198 A 
ATOM     84  F   UNL A   1      43.697  27.580  36.919  1.00  0.00    -0.203 F 
ATOM     85  F   UNL A   1      48.224  30.094  35.196  1.00  0.00    -0.200 F 
ATOM     86  C   UNL A   1      47.197  28.286  36.314  1.00  0.00     0.200 A 
ATOM     87  F   UNL A   1      46.125  26.487  37.408  1.00  0.00    -0.200 F 
ATOM     88  F   UNL A   1      48.394  27.726  36.537  1.00  0.00    -0.200 F 
ENDBRANCH  55  78
ENDBRANCH  29  30
ENDBRANCH  22  24
ENDBRANCH  21  22
ENDBRANCH   1  21
TORSDOF 12
ENDMDL
MODEL 3
REMARK VINA RESULT:     -10.9      3.822      9.325
REMARK SMILES Cc1cccc2c(C(F)(F)F)cc(C(=O)OCCOC(=O)c3ccc(-c4c5nc(c(-c6c(F)c(F)c(F)c(F)c6F)c6ccc([nH]6)c(-c6c(F)c(F)c(F)c(F)c6F)c6nc(c(-c7c(F)c(F)c(F)c(F)c7F)c7ccc4[nH]7)C=C6)C=C5)cc3)nc12
REMARK SMILES IDX 18 1 17 2 16 3 14 4 15 5 13 6 1 7 2 8 3 9 86 10 4 11 6 12
REMARK SMILES IDX 85 13 5 14 7 15 12 16 8 17 9 18 10 19 11 20 19 21 20 22
REMARK SMILES IDX 21 23 22 24 23 25 84 26 24 27 83 28 25 29 26 30 27 31 77 32
REMARK SMILES IDX 28 33 82 34 76 35 78 36 29 37 81 38 75 39 74 40 30 42 62 43
REMARK SMILES IDX 42 44 61 45 43 46 46 47 60 48 79 49 44 50 45 51 59 53 80 54
REMARK SMILES IDX 47 55 31 56 32 57 40 58 33 59 34 60 38 61 41 62 35 63 36 64
REMARK SMILES IDX 39 65 37 66 63 67 64 68 72 69 65 70 66 71 70 72 73 73 67 74
REMARK SMILES IDX 68 75 71 76 69 77 48 78 49 79 57 80 50 81 51 82 55 83 58 84
REMARK SMILES IDX 52 85 53 86 56 87 54 88
REMARK H PARENT 78 41 46 52
REMARK Flexibility Score: inf
ROOT
ATOM      1  C   UNL A   1      32.101  29.599  25.117  1.00  0.00     0.275 C 
ENDROOT
BRANCH   1   2
ATOM      2  C   UNL A   1      33.275  29.056  24.303  1.00  0.00     0.275 C 
BRANCH   2   3
ATOM      3  O   UNL A   1      33.567  27.690  24.664  1.00  0.00    -0.457 OA
BRANCH   3   4
ATOM      4  C   UNL A   1      33.447  26.779  23.666  1.00  0.00     0.357 C 
ATOM      5  O   UNL A   1      33.456  27.012  22.465  1.00  0.00    -0.244 OA
BRANCH   4   6
ATOM      6  C   UNL A   1      33.425  25.390  24.202  1.00  0.00     0.149 A 
ATOM      7  C   UNL A   1      36.606  22.953  23.180  1.00  0.00     0.047 C 
ATOM      8  C   UNL A   1      35.504  22.469  24.087  1.00  0.00    -0.025 A 
ATOM      9  C   UNL A   1      35.584  21.177  24.626  1.00  0.00     0.005 A 
ATOM     10  C   UNL A   1      34.423  23.307  24.381  1.00  0.00     0.075 A 
ATOM     11  C   UNL A   1      34.574  20.700  25.447  1.00  0.00     0.001 A 
ATOM     12  C   UNL A   1      33.389  22.831  25.236  1.00  0.00     0.013 A 
ATOM     13  N   UNL A   1      34.413  24.544  23.850  1.00  0.00    -0.240 NA
ATOM     14  C   UNL A   1      33.481  21.511  25.736  1.00  0.00     0.011 A 
ATOM     15  C   UNL A   1      32.337  23.723  25.554  1.00  0.00     0.067 A 
ATOM     16  C   UNL A   1      32.400  25.031  25.056  1.00  0.00     0.049 A 
BRANCH  15  17
ATOM     17  C   UNL A   1      31.098  23.371  26.345  1.00  0.00     0.417 C 
ATOM     18  F   UNL A   1      31.395  23.002  27.626  1.00  0.00    -0.166 F 
ATOM     19  F   UNL A   1      30.262  24.441  26.467  1.00  0.00    -0.166 F 
ATOM     20  F   UNL A   1      30.346  22.356  25.849  1.00  0.00    -0.166 F 
ENDBRANCH  15  17
ENDBRANCH   4   6
ENDBRANCH   3   4
ENDBRANCH   2   3
ENDBRANCH   1   2
BRANCH   1  21
ATOM     21  O   UNL A   1      32.467  29.671  26.508  1.00  0.00    -0.458 OA
BRANCH  21  22
ATOM     22  C   UNL A   1      32.980  30.850  26.928  1.00  0.00     0.338 C 
ATOM     23  O   UNL A   1      32.446  31.945  26.902  1.00  0.00    -0.246 OA
BRANCH  22  24
ATOM     24  C   UNL A   1      34.333  30.639  27.477  1.00  0.00     0.060 A 
ATOM     25  C   UNL A   1      34.809  29.344  27.656  1.00  0.00     0.016 A 
ATOM     26  C   UNL A   1      35.076  31.721  27.944  1.00  0.00     0.016 A 
ATOM     27  C   UNL A   1      35.967  29.114  28.399  1.00  0.00     0.010 A 
ATOM     28  C   UNL A   1      36.299  31.494  28.588  1.00  0.00     0.010 A 
ATOM     29  C   UNL A   1      36.740  30.186  28.867  1.00  0.00    -0.014 A 
BRANCH  29  30
ATOM     30  C   UNL A   1      37.971  29.945  29.680  1.00  0.00     0.031 A 
ATOM     31  C   UNL A   1      39.094  29.106  29.123  1.00  0.00     0.074 A 
ATOM     32  C   UNL A   1      38.107  30.485  30.908  1.00  0.00     0.049 A 
ATOM     33  N   UNL A   1      40.141  28.608  29.734  1.00  0.00    -0.248 NA
ATOM     34  C   UNL A   1      39.020  28.766  27.694  1.00  0.00     0.031 C 
ATOM     35  C   UNL A   1      37.136  31.357  31.569  1.00  0.00     0.029 A 
ATOM     36  N   UNL A   1      39.131  30.384  31.823  1.00  0.00    -0.354 N 
ATOM     37  C   UNL A   1      40.806  27.840  28.786  1.00  0.00     0.074 A 
ATOM     38  C   UNL A   1      40.050  27.942  27.556  1.00  0.00     0.031 C 
ATOM     39  C   UNL A   1      37.628  31.753  32.751  1.00  0.00     0.029 A 
ATOM     40  C   UNL A   1      38.904  31.086  32.983  1.00  0.00     0.049 A 
ATOM     41  H   UNL A   1      39.948  29.860  31.661  1.00  0.00     0.167 HD
ATOM     42  C   UNL A   1      41.942  27.114  28.930  1.00  0.00     0.037 A 
ATOM     43  C   UNL A   1      39.616  31.154  34.124  1.00  0.00     0.037 A 
ATOM     44  C   UNL A   1      42.740  27.077  30.128  1.00  0.00     0.049 A 
ATOM     45  C   UNL A   1      40.871  30.338  34.261  1.00  0.00     0.074 A 
ATOM     46  C   UNL A   1      43.915  26.384  30.362  1.00  0.00     0.029 A 
ATOM     47  N   UNL A   1      42.457  27.787  31.285  1.00  0.00    -0.354 N 
ATOM     48  N   UNL A   1      41.444  29.550  33.386  1.00  0.00    -0.248 NA
ATOM     49  C   UNL A   1      41.563  30.402  35.557  1.00  0.00     0.031 C 
ATOM     50  C   UNL A   1      44.331  26.654  31.671  1.00  0.00     0.029 A 
ATOM     51  C   UNL A   1      43.434  27.544  32.238  1.00  0.00     0.049 A 
ATOM     52  H   UNL A   1      41.679  28.376  31.411  1.00  0.00     0.167 HD
ATOM     53  C   UNL A   1      42.560  29.025  34.022  1.00  0.00     0.074 A 
ATOM     54  C   UNL A   1      42.601  29.606  35.347  1.00  0.00     0.031 C 
ATOM     55  C   UNL A   1      43.463  28.130  33.551  1.00  0.00     0.037 A 
BRANCH  42  56
ATOM     56  C   UNL A   1      42.381  26.268  27.771  1.00  0.00     0.064 A 
ATOM     57  C   UNL A   1      41.829  25.004  27.518  1.00  0.00     0.173 A 
ATOM     58  C   UNL A   1      43.338  26.759  26.867  1.00  0.00     0.173 A 
ATOM     59  F   UNL A   1      40.921  24.486  28.358  1.00  0.00    -0.203 F 
ATOM     60  C   UNL A   1      42.233  24.254  26.416  1.00  0.00     0.198 A 
ATOM     61  C   UNL A   1      43.720  26.018  25.752  1.00  0.00     0.198 A 
ATOM     62  F   UNL A   1      43.892  27.965  27.058  1.00  0.00    -0.203 F 
ATOM     63  F   UNL A   1      41.720  23.033  26.215  1.00  0.00    -0.200 F 
ATOM     64  C   UNL A   1      43.171  24.764  25.530  1.00  0.00     0.200 A 
ATOM     65  F   UNL A   1      44.616  26.519  24.890  1.00  0.00    -0.200 F 
ATOM     66  F   UNL A   1      43.550  24.045  24.465  1.00  0.00    -0.200 F 
ENDBRANCH  42  56
BRANCH  43  67
ATOM     67  C   UNL A   1      39.127  31.991  35.251  1.00  0.00     0.064 A 
ATOM     68  C   UNL A   1      38.378  31.429  36.295  1.00  0.00     0.173 A 
ATOM     69  C   UNL A   1      39.401  33.365  35.311  1.00  0.00     0.173 A 
ATOM     70  F   UNL A   1      38.064  30.126  36.267  1.00  0.00    -0.203 F 
ATOM     71  C   UNL A   1      37.919  32.212  37.353  1.00  0.00     0.198 A 
ATOM     72  C   UNL A   1      38.968  34.140  36.384  1.00  0.00     0.198 A 
ATOM     73  F   UNL A   1      40.110  33.952  34.335  1.00  0.00    -0.203 F 
ATOM     74  F   UNL A   1      37.172  31.659  38.318  1.00  0.00    -0.200 F 
ATOM     75  C   UNL A   1      38.222  33.564  37.401  1.00  0.00     0.200 A 
ATOM     76  F   UNL A   1      39.277  35.444  36.434  1.00  0.00    -0.200 F 
ATOM     77  F   UNL A   1      37.790  34.314  38.424  1.00  0.00    -0.200 F 
ENDBRANCH  43  67
BRANCH  55  78
ATOM     78  C   UNL A   1      44.581  27.743  34.471  1.00  0.00     0.064 A 
ATOM     79  C   UNL A   1      45.779  28.471  34.512  1.00  0.00     0.173 A 
ATOM     80  C   UNL A   1      44.444  26.650  35.338  1.00  0.00     0.173 A 
ATOM     81  F   UNL A   1      45.963  29.515  33.688  1.00  0.00    -0.203 F 
ATOM     82  C   UNL A   1      46.810  28.104  35.373  1.00  0.00     0.198 A 
ATOM     83  C   UNL A   1      45.466  26.299  36.215  1.00  0.00     0.198 A 
ATOM     84  F   UNL A   1      43.314  25.925  35.338  1.00  0.00    -0.203 F 
ATOM     85  F   UNL A   1      47.962  28.786  35.366  1.00  0.00    -0.200 F 
ATOM     86  C   UNL A   1      46.650  27.022  36.226  1.00  0.00     0.200 A 
ATOM     87  F   UNL A   1      45.309  25.258  37.044  1.00  0.00    -0.200 F 
ATOM     88  F   UNL A   1      47.643  26.670  37.055  1.00  0.00    -0.200 F 
ENDBRANCH  55  78
ENDBRANCH  29  30
ENDBRANCH  22  24
ENDBRANCH  21  22
ENDBRANCH   1  21
TORSDOF 12
ENDMDL
