MODEL 1
REMARK VINA RESULT:     -11.9      0.000      0.000
REMARK SMILES O=C(OCCOC(=O)[C@@H](CO)N1C(=O)c2c(Cl)c(Cl)c(Cl)c(Cl)c2C1=O)c1ccc(-c2c3nc(c(-c4c(F)c(F)c(F)c(F)c4F)c4ccc([nH]4)c(-c4c(F)c(F)c(F)c(F)c4F)c4nc(c(-c5c(F)c(F)c(F)c(F)c5F)c5ccc2[nH]5)C=C4)C=C3)cc1
REMARK SMILES IDX 4 1 3 2 2 3 1 4 27 5 28 6 89 7 29 8 88 9 30 10 31 11 32 12
REMARK SMILES IDX 82 13 33 14 87 15 81 16 83 17 34 18 86 19 80 20 79 21 35 23
REMARK SMILES IDX 67 24 47 25 66 26 48 27 51 28 65 29 84 30 49 31 50 32 64 34
REMARK SMILES IDX 85 35 52 36 36 37 37 38 45 39 38 40 39 41 43 42 46 43 40 44
REMARK SMILES IDX 41 45 44 46 42 47 68 48 69 49 77 50 70 51 71 52 75 53 78 54
REMARK SMILES IDX 72 55 73 56 76 57 74 58 53 59 54 60 62 61 55 62 56 63 60 64
REMARK SMILES IDX 63 65 57 66 58 67 61 68 59 69 5 70 6 71 7 72 8 73 9 74 10 75
REMARK SMILES IDX 11 76 12 78 13 79 25 80 14 81 15 82 24 83 26 84 16 85 22 86
REMARK SMILES IDX 17 87 18 88 20 89 23 90 19 91 21 92
REMARK H PARENT 83 22 51 33 11 77
REMARK Flexibility Score: inf
ROOT
ATOM      1  C   UNL A   1      31.646  30.751  26.086  1.00  0.00     0.275 C 
ENDROOT
BRANCH   1   2
ATOM      2  O   UNL A   1      32.576  30.712  27.174  1.00  0.00    -0.458 OA
BRANCH   2   3
ATOM      3  C   UNL A   1      33.580  31.571  27.454  1.00  0.00     0.338 C 
ATOM      4  O   UNL A   1      33.382  32.769  27.252  1.00  0.00    -0.246 OA
BRANCH   3   5
ATOM      5  C   UNL A   1      34.943  31.163  27.949  1.00  0.00     0.060 A 
ATOM      6  C   UNL A   1      36.084  31.968  28.070  1.00  0.00     0.016 A 
ATOM      7  C   UNL A   1      35.033  29.845  28.430  1.00  0.00     0.016 A 
ATOM      8  C   UNL A   1      37.231  31.523  28.745  1.00  0.00     0.010 A 
ATOM      9  C   UNL A   1      36.157  29.408  29.132  1.00  0.00     0.010 A 
ATOM     10  C   UNL A   1      37.263  30.253  29.314  1.00  0.00    -0.014 A 
BRANCH  10  11
ATOM     11  C   UNL A   1      38.471  29.744  30.006  1.00  0.00     0.031 A 
ATOM     12  C   UNL A   1      38.774  30.322  31.357  1.00  0.00     0.074 A 
ATOM     13  C   UNL A   1      39.295  28.830  29.452  1.00  0.00     0.049 A 
ATOM     14  N   UNL A   1      39.776  30.082  32.159  1.00  0.00    -0.248 NA
ATOM     15  C   UNL A   1      37.819  31.324  31.866  1.00  0.00     0.031 C 
ATOM     16  C   UNL A   1      39.120  28.177  28.151  1.00  0.00     0.029 A 
ATOM     17  N   UNL A   1      40.474  28.300  29.919  1.00  0.00    -0.354 N 
ATOM     18  C   UNL A   1      39.550  30.883  33.268  1.00  0.00     0.074 A 
ATOM     19  C   UNL A   1      38.411  31.719  32.976  1.00  0.00     0.031 C 
ATOM     20  C   UNL A   1      40.175  27.376  27.908  1.00  0.00     0.029 A 
ATOM     21  C   UNL A   1      41.092  27.444  29.037  1.00  0.00     0.049 A 
ATOM     22  H   UNL A   1      40.844  28.515  30.805  1.00  0.00     0.167 HD
ATOM     23  C   UNL A   1      40.180  30.865  34.464  1.00  0.00     0.037 A 
ATOM     24  C   UNL A   1      42.262  26.788  29.141  1.00  0.00     0.037 A 
ATOM     25  C   UNL A   1      41.316  30.043  34.747  1.00  0.00     0.049 A 
ATOM     26  C   UNL A   1      43.032  26.883  30.430  1.00  0.00     0.074 A 
ATOM     27  C   UNL A   1      42.027  29.922  35.924  1.00  0.00     0.029 A 
ATOM     28  N   UNL A   1      41.923  29.209  33.817  1.00  0.00    -0.354 N 
ATOM     29  N   UNL A   1      42.755  27.568  31.511  1.00  0.00    -0.248 NA
ATOM     30  C   UNL A   1      44.252  26.069  30.526  1.00  0.00     0.031 C 
ATOM     31  C   UNL A   1      43.102  29.058  35.690  1.00  0.00     0.029 A 
ATOM     32  C   UNL A   1      43.023  28.592  34.386  1.00  0.00     0.049 A 
ATOM     33  H   UNL A   1      41.615  29.075  32.892  1.00  0.00     0.167 HD
ATOM     34  C   UNL A   1      43.738  27.236  32.431  1.00  0.00     0.074 A 
ATOM     35  C   UNL A   1      44.620  26.290  31.779  1.00  0.00     0.031 C 
ATOM     36  C   UNL A   1      43.885  27.657  33.711  1.00  0.00     0.037 A 
BRANCH  23  37
ATOM     37  C   UNL A   1      39.612  31.764  35.520  1.00  0.00     0.064 A 
ATOM     38  C   UNL A   1      40.136  33.050  35.740  1.00  0.00     0.173 A 
ATOM     39  C   UNL A   1      38.608  31.306  36.382  1.00  0.00     0.173 A 
ATOM     40  F   UNL A   1      41.120  33.522  34.959  1.00  0.00    -0.203 F 
ATOM     41  C   UNL A   1      39.726  33.815  36.827  1.00  0.00     0.198 A 
ATOM     42  C   UNL A   1      38.172  32.091  37.446  1.00  0.00     0.198 A 
ATOM     43  F   UNL A   1      38.078  30.086  36.218  1.00  0.00    -0.203 F 
ATOM     44  F   UNL A   1      40.315  34.991  37.078  1.00  0.00    -0.200 F 
ATOM     45  C   UNL A   1      38.744  33.334  37.679  1.00  0.00     0.200 A 
ATOM     46  F   UNL A   1      37.221  31.628  38.269  1.00  0.00    -0.200 F 
ATOM     47  F   UNL A   1      38.365  34.058  38.741  1.00  0.00    -0.200 F 
ENDBRANCH  23  37
BRANCH  24  48
ATOM     48  C   UNL A   1      42.806  25.957  28.036  1.00  0.00     0.064 A 
ATOM     49  C   UNL A   1      43.659  26.505  27.066  1.00  0.00     0.173 A 
ATOM     50  C   UNL A   1      42.350  24.647  27.844  1.00  0.00     0.173 A 
ATOM     51  F   UNL A   1      44.086  27.768  27.192  1.00  0.00    -0.203 F 
ATOM     52  C   UNL A   1      44.012  25.780  25.928  1.00  0.00     0.198 A 
ATOM     53  C   UNL A   1      42.692  23.930  26.699  1.00  0.00     0.198 A 
ATOM     54  F   UNL A   1      41.540  24.081  28.748  1.00  0.00    -0.203 F 
ATOM     55  F   UNL A   1      44.792  26.341  24.994  1.00  0.00    -0.200 F 
ATOM     56  C   UNL A   1      43.520  24.497  25.740  1.00  0.00     0.200 A 
ATOM     57  F   UNL A   1      42.213  22.692  26.521  1.00  0.00    -0.200 F 
ATOM     58  F   UNL A   1      43.839  23.810  24.635  1.00  0.00    -0.200 F 
ENDBRANCH  24  48
BRANCH  36  59
ATOM     59  C   UNL A   1      45.011  27.065  34.500  1.00  0.00     0.064 A 
ATOM     60  C   UNL A   1      44.861  25.877  35.228  1.00  0.00     0.173 A 
ATOM     61  C   UNL A   1      46.274  27.678  34.483  1.00  0.00     0.173 A 
ATOM     62  F   UNL A   1      43.667  25.270  35.293  1.00  0.00    -0.203 F 
ATOM     63  C   UNL A   1      45.934  25.332  35.926  1.00  0.00     0.198 A 
ATOM     64  C   UNL A   1      47.352  27.108  35.151  1.00  0.00     0.198 A 
ATOM     65  F   UNL A   1      46.464  28.817  33.802  1.00  0.00    -0.203 F 
ATOM     66  F   UNL A   1      45.759  24.222  36.657  1.00  0.00    -0.200 F 
ATOM     67  C   UNL A   1      47.179  25.939  35.877  1.00  0.00     0.200 A 
ATOM     68  F   UNL A   1      48.557  27.689  35.088  1.00  0.00    -0.200 F 
ATOM     69  F   UNL A   1      48.215  25.403  36.535  1.00  0.00    -0.200 F 
ENDBRANCH  36  59
ENDBRANCH  10  11
ENDBRANCH   3   5
ENDBRANCH   2   3
ENDBRANCH   1   2
BRANCH   1  70
ATOM     70  C   UNL A   1      31.709  29.542  25.145  1.00  0.00     0.274 C 
BRANCH  70  71
ATOM     71  O   UNL A   1      32.986  29.376  24.490  1.00  0.00    -0.460 OA
BRANCH  71  72
ATOM     72  C   UNL A   1      32.991  28.572  23.385  1.00  0.00     0.331 C 
ATOM     73  O   UNL A   1      33.606  28.818  22.352  1.00  0.00    -0.250 OA
BRANCH  72  74
ATOM     74  C   UNL A   1      31.996  27.409  23.483  1.00  0.00     0.229 C 
BRANCH  74  75
ATOM     75  C   UNL A   1      31.120  27.184  22.256  1.00  0.00     0.193 C 
BRANCH  75  76
ATOM     76  O   UNL A   1      30.691  28.430  21.725  1.00  0.00    -0.394 OA
ATOM     77  H   UNL A   1      31.382  29.098  21.867  1.00  0.00     0.210 HD
ENDBRANCH  75  76
ENDBRANCH  74  75
BRANCH  74  78
ATOM     78  N   UNL A   1      32.590  26.167  23.993  1.00  0.00    -0.257 N 
ATOM     79  C   UNL A   1      32.013  25.478  25.023  1.00  0.00     0.264 C 
ATOM     80  C   UNL A   1      33.504  25.388  23.343  1.00  0.00     0.264 C 
ATOM     81  O   UNL A   1      31.059  25.810  25.699  1.00  0.00    -0.268 OA
ATOM     82  C   UNL A   1      32.757  24.226  25.172  1.00  0.00     0.075 A 
ATOM     83  C   UNL A   1      33.725  24.207  24.179  1.00  0.00     0.075 A 
ATOM     84  O   UNL A   1      34.013  25.556  22.257  1.00  0.00    -0.268 OA
ATOM     85  C   UNL A   1      32.660  23.222  26.115  1.00  0.00     0.074 A 
ATOM     86  C   UNL A   1      34.675  23.203  24.100  1.00  0.00     0.074 A 
ATOM     87  Cl  UNL A   1      31.346  23.181  27.232  1.00  0.00    -0.082 Cl
ATOM     88  C   UNL A   1      33.660  22.233  26.111  1.00  0.00     0.080 A 
ATOM     89  C   UNL A   1      34.651  22.208  25.094  1.00  0.00     0.080 A 
ATOM     90  Cl  UNL A   1      35.871  23.216  22.857  1.00  0.00    -0.082 Cl
ATOM     91  Cl  UNL A   1      33.739  21.093  27.421  1.00  0.00    -0.081 Cl
ATOM     92  Cl  UNL A   1      35.832  20.931  25.068  1.00  0.00    -0.081 Cl
ENDBRANCH  74  78
ENDBRANCH  72  74
ENDBRANCH  71  72
ENDBRANCH  70  71
ENDBRANCH   1  70
TORSDOF 14
ENDMDL
MODEL 2
REMARK VINA RESULT:     -11.9      1.413      2.350
REMARK SMILES O=C(OCCOC(=O)[C@@H](CO)N1C(=O)c2c(Cl)c(Cl)c(Cl)c(Cl)c2C1=O)c1ccc(-c2c3nc(c(-c4c(F)c(F)c(F)c(F)c4F)c4ccc([nH]4)c(-c4c(F)c(F)c(F)c(F)c4F)c4nc(c(-c5c(F)c(F)c(F)c(F)c5F)c5ccc2[nH]5)C=C4)C=C3)cc1
REMARK SMILES IDX 4 1 3 2 2 3 1 4 27 5 28 6 89 7 29 8 88 9 30 10 31 11 32 12
REMARK SMILES IDX 82 13 33 14 87 15 81 16 83 17 34 18 86 19 80 20 79 21 35 23
REMARK SMILES IDX 67 24 47 25 66 26 48 27 51 28 65 29 84 30 49 31 50 32 64 34
REMARK SMILES IDX 85 35 52 36 36 37 37 38 45 39 38 40 39 41 43 42 46 43 40 44
REMARK SMILES IDX 41 45 44 46 42 47 68 48 69 49 77 50 70 51 71 52 75 53 78 54
REMARK SMILES IDX 72 55 73 56 76 57 74 58 53 59 54 60 62 61 55 62 56 63 60 64
REMARK SMILES IDX 63 65 57 66 58 67 61 68 59 69 5 70 6 71 7 72 8 73 9 74 10 75
REMARK SMILES IDX 11 76 12 78 13 79 25 80 14 81 15 82 24 83 26 84 16 85 22 86
REMARK SMILES IDX 17 87 18 88 20 89 23 90 19 91 21 92
REMARK H PARENT 83 22 51 33 11 77
REMARK Flexibility Score: inf
ROOT
ATOM      1  C   UNL A   1      31.416  31.959  26.976  1.00  0.00     0.275 C 
ENDROOT
BRANCH   1   2
ATOM      2  O   UNL A   1      32.379  33.012  26.846  1.00  0.00    -0.458 OA
BRANCH   2   3
ATOM      3  C   UNL A   1      33.209  33.514  27.785  1.00  0.00     0.338 C 
ATOM      4  O   UNL A   1      32.894  34.578  28.318  1.00  0.00    -0.246 OA
BRANCH   3   5
ATOM      5  C   UNL A   1      34.519  32.892  28.192  1.00  0.00     0.060 A 
ATOM      6  C   UNL A   1      35.789  33.484  28.174  1.00  0.00     0.016 A 
ATOM      7  C   UNL A   1      34.420  31.602  28.742  1.00  0.00     0.016 A 
ATOM      8  C   UNL A   1      36.896  32.871  28.781  1.00  0.00     0.010 A 
ATOM      9  C   UNL A   1      35.509  31.001  29.376  1.00  0.00     0.010 A 
ATOM     10  C   UNL A   1      36.757  31.642  29.419  1.00  0.00    -0.014 A 
BRANCH  10  11
ATOM     11  C   UNL A   1      37.914  30.957  30.041  1.00  0.00     0.031 A 
ATOM     12  C   UNL A   1      38.257  31.345  31.449  1.00  0.00     0.074 A 
ATOM     13  C   UNL A   1      38.662  30.048  29.380  1.00  0.00     0.049 A 
ATOM     14  N   UNL A   1      39.232  30.931  32.213  1.00  0.00    -0.248 NA
ATOM     15  C   UNL A   1      37.388  32.358  32.076  1.00  0.00     0.031 C 
ATOM     16  C   UNL A   1      38.439  29.568  28.013  1.00  0.00     0.029 A 
ATOM     17  N   UNL A   1      39.790  29.370  29.776  1.00  0.00    -0.354 N 
ATOM     18  C   UNL A   1      39.068  31.612  33.409  1.00  0.00     0.074 A 
ATOM     19  C   UNL A   1      38.005  32.570  33.222  1.00  0.00     0.031 C 
ATOM     20  C   UNL A   1      39.424  28.715  27.673  1.00  0.00     0.029 A 
ATOM     21  C   UNL A   1      40.338  28.574  28.798  1.00  0.00     0.049 A 
ATOM     22  H   UNL A   1      40.172  29.448  30.680  1.00  0.00     0.167 HD
ATOM     23  C   UNL A   1      39.688  31.403  34.591  1.00  0.00     0.037 A 
ATOM     24  C   UNL A   1      41.449  27.814  28.819  1.00  0.00     0.037 A 
ATOM     25  C   UNL A   1      40.750  30.460  34.772  1.00  0.00     0.049 A 
ATOM     26  C   UNL A   1      42.217  27.694  30.106  1.00  0.00     0.074 A 
ATOM     27  C   UNL A   1      41.443  30.144  35.923  1.00  0.00     0.029 A 
ATOM     28  N   UNL A   1      41.289  29.693  33.747  1.00  0.00    -0.354 N 
ATOM     29  N   UNL A   1      41.993  28.269  31.261  1.00  0.00    -0.248 NA
ATOM     30  C   UNL A   1      43.364  26.775  30.101  1.00  0.00     0.031 C 
ATOM     31  C   UNL A   1      42.443  29.226  35.584  1.00  0.00     0.029 A 
ATOM     32  C   UNL A   1      42.331  28.924  34.235  1.00  0.00     0.049 A 
ATOM     33  H   UNL A   1      40.977  29.695  32.814  1.00  0.00     0.167 HD
ATOM     34  C   UNL A   1      42.940  27.750  32.132  1.00  0.00     0.074 A 
ATOM     35  C   UNL A   1      43.743  26.817  31.369  1.00  0.00     0.031 C 
ATOM     36  C   UNL A   1      43.115  28.005  33.451  1.00  0.00     0.037 A 
BRANCH  23  37
ATOM     37  C   UNL A   1      39.192  32.216  35.748  1.00  0.00     0.064 A 
ATOM     38  C   UNL A   1      39.694  33.505  35.999  1.00  0.00     0.173 A 
ATOM     39  C   UNL A   1      38.287  31.672  36.667  1.00  0.00     0.173 A 
ATOM     40  F   UNL A   1      40.587  34.058  35.163  1.00  0.00    -0.203 F 
ATOM     41  C   UNL A   1      39.361  34.189  37.164  1.00  0.00     0.198 A 
ATOM     42  C   UNL A   1      37.926  32.376  37.812  1.00  0.00     0.198 A 
ATOM     43  F   UNL A   1      37.782  30.445  36.476  1.00  0.00    -0.203 F 
ATOM     44  F   UNL A   1      39.935  35.370  37.433  1.00  0.00    -0.200 F 
ATOM     45  C   UNL A   1      38.478  33.623  38.070  1.00  0.00     0.200 A 
ATOM     46  F   UNL A   1      37.069  31.832  38.687  1.00  0.00    -0.200 F 
ATOM     47  F   UNL A   1      38.175  34.270  39.204  1.00  0.00    -0.200 F 
ENDBRANCH  23  37
BRANCH  24  48
ATOM     48  C   UNL A   1      41.927  27.076  27.622  1.00  0.00     0.064 A 
ATOM     49  C   UNL A   1      41.568  25.737  27.402  1.00  0.00     0.173 A 
ATOM     50  C   UNL A   1      42.879  27.648  26.770  1.00  0.00     0.173 A 
ATOM     51  F   UNL A   1      40.690  25.140  28.219  1.00  0.00    -0.203 F 
ATOM     52  C   UNL A   1      42.168  24.990  26.389  1.00  0.00     0.198 A 
ATOM     53  C   UNL A   1      43.488  26.895  25.768  1.00  0.00     0.198 A 
ATOM     54  F   UNL A   1      43.246  28.925  26.938  1.00  0.00    -0.203 F 
ATOM     55  F   UNL A   1      41.841  23.701  26.226  1.00  0.00    -0.200 F 
ATOM     56  C   UNL A   1      43.135  25.566  25.579  1.00  0.00     0.200 A 
ATOM     57  F   UNL A   1      44.423  27.456  24.989  1.00  0.00    -0.200 F 
ATOM     58  F   UNL A   1      43.730  24.841  24.622  1.00  0.00    -0.200 F 
ENDBRANCH  24  48
BRANCH  36  59
ATOM     59  C   UNL A   1      44.184  27.233  34.161  1.00  0.00     0.064 A 
ATOM     60  C   UNL A   1      43.930  25.987  34.751  1.00  0.00     0.173 A 
ATOM     61  C   UNL A   1      45.495  27.732  34.204  1.00  0.00     0.173 A 
ATOM     62  F   UNL A   1      42.687  25.482  34.755  1.00  0.00    -0.203 F 
ATOM     63  C   UNL A   1      44.949  25.276  35.375  1.00  0.00     0.198 A 
ATOM     64  C   UNL A   1      46.518  27.000  34.796  1.00  0.00     0.198 A 
ATOM     65  F   UNL A   1      45.784  28.921  33.656  1.00  0.00    -0.203 F 
ATOM     66  F   UNL A   1      44.677  24.110  35.977  1.00  0.00    -0.200 F 
ATOM     67  C   UNL A   1      46.243  25.776  35.386  1.00  0.00     0.200 A 
ATOM     68  F   UNL A   1      47.769  27.479  34.791  1.00  0.00    -0.200 F 
ATOM     69  F   UNL A   1      47.226  25.081  35.973  1.00  0.00    -0.200 F 
ENDBRANCH  36  59
ENDBRANCH  10  11
ENDBRANCH   3   5
ENDBRANCH   2   3
ENDBRANCH   1   2
BRANCH   1  70
ATOM     70  C   UNL A   1      31.795  30.652  26.270  1.00  0.00     0.274 C 
BRANCH  70  71
ATOM     71  O   UNL A   1      31.129  30.458  25.003  1.00  0.00    -0.460 OA
BRANCH  71  72
ATOM     72  C   UNL A   1      31.567  29.403  24.253  1.00  0.00     0.331 C 
ATOM     73  O   UNL A   1      32.729  29.245  23.892  1.00  0.00    -0.250 OA
BRANCH  72  74
ATOM     74  C   UNL A   1      30.427  28.517  23.738  1.00  0.00     0.229 C 
BRANCH  74  75
ATOM     75  C   UNL A   1      29.824  28.927  22.401  1.00  0.00     0.193 C 
BRANCH  75  76
ATOM     76  O   UNL A   1      30.752  29.712  21.665  1.00  0.00    -0.394 OA
ATOM     77  H   UNL A   1      30.391  30.603  21.535  1.00  0.00     0.210 HD
ENDBRANCH  75  76
ENDBRANCH  74  75
BRANCH  74  78
ATOM     78  N   UNL A   1      30.719  27.079  23.812  1.00  0.00    -0.257 N 
ATOM     79  C   UNL A   1      31.369  26.437  22.796  1.00  0.00     0.264 C 
ATOM     80  C   UNL A   1      30.723  26.317  24.945  1.00  0.00     0.264 C 
ATOM     81  O   UNL A   1      31.686  26.887  21.712  1.00  0.00    -0.268 OA
ATOM     82  C   UNL A   1      31.638  25.072  23.253  1.00  0.00     0.075 A 
ATOM     83  C   UNL A   1      31.171  24.980  24.555  1.00  0.00     0.075 A 
ATOM     84  O   UNL A   1      30.480  26.647  26.085  1.00  0.00    -0.268 OA
ATOM     85  C   UNL A   1      32.173  23.985  22.591  1.00  0.00     0.074 A 
ATOM     86  C   UNL A   1      31.176  23.784  25.253  1.00  0.00     0.074 A 
ATOM     87  Cl  UNL A   1      32.902  24.164  21.038  1.00  0.00    -0.082 Cl
ATOM     88  C   UNL A   1      32.117  22.740  23.243  1.00  0.00     0.080 A 
ATOM     89  C   UNL A   1      31.642  22.641  24.578  1.00  0.00     0.080 A 
ATOM     90  Cl  UNL A   1      30.579  23.703  26.869  1.00  0.00    -0.082 Cl
ATOM     91  Cl  UNL A   1      32.538  21.298  22.368  1.00  0.00    -0.081 Cl
ATOM     92  Cl  UNL A   1      31.652  21.102  25.389  1.00  0.00    -0.081 Cl
ENDBRANCH  74  78
ENDBRANCH  72  74
ENDBRANCH  71  72
ENDBRANCH  70  71
ENDBRANCH   1  70
TORSDOF 14
ENDMDL
MODEL 3
REMARK VINA RESULT:     -11.8      4.524      7.566
REMARK SMILES O=C(OCCOC(=O)[C@@H](CO)N1C(=O)c2c(Cl)c(Cl)c(Cl)c(Cl)c2C1=O)c1ccc(-c2c3nc(c(-c4c(F)c(F)c(F)c(F)c4F)c4ccc([nH]4)c(-c4c(F)c(F)c(F)c(F)c4F)c4nc(c(-c5c(F)c(F)c(F)c(F)c5F)c5ccc2[nH]5)C=C4)C=C3)cc1
REMARK SMILES IDX 4 1 3 2 2 3 1 4 27 5 28 6 89 7 29 8 88 9 30 10 31 11 32 12
REMARK SMILES IDX 82 13 33 14 87 15 81 16 83 17 34 18 86 19 80 20 79 21 35 23
REMARK SMILES IDX 67 24 47 25 66 26 48 27 51 28 65 29 84 30 49 31 50 32 64 34
REMARK SMILES IDX 85 35 52 36 36 37 37 38 45 39 38 40 39 41 43 42 46 43 40 44
REMARK SMILES IDX 41 45 44 46 42 47 68 48 69 49 77 50 70 51 71 52 75 53 78 54
REMARK SMILES IDX 72 55 73 56 76 57 74 58 53 59 54 60 62 61 55 62 56 63 60 64
REMARK SMILES IDX 63 65 57 66 58 67 61 68 59 69 5 70 6 71 7 72 8 73 9 74 10 75
REMARK SMILES IDX 11 76 12 78 13 79 25 80 14 81 15 82 24 83 26 84 16 85 22 86
REMARK SMILES IDX 17 87 18 88 20 89 23 90 19 91 21 92
REMARK H PARENT 83 22 51 33 11 77
REMARK Flexibility Score: inf
ROOT
ATOM      1  C   UNL A   1      34.251  32.859  28.052  1.00  0.00     0.275 C 
ENDROOT
BRANCH   1   2
ATOM      2  O   UNL A   1      33.851  31.493  28.212  1.00  0.00    -0.458 OA
BRANCH   2   3
ATOM      3  C   UNL A   1      34.528  30.373  27.877  1.00  0.00     0.338 C 
ATOM      4  O   UNL A   1      33.945  29.537  27.187  1.00  0.00    -0.246 OA
BRANCH   3   5
ATOM      5  C   UNL A   1      35.928  30.051  28.328  1.00  0.00     0.060 A 
ATOM      6  C   UNL A   1      36.325  29.502  29.556  1.00  0.00     0.016 A 
ATOM      7  C   UNL A   1      36.926  30.238  27.356  1.00  0.00     0.016 A 
ATOM      8  C   UNL A   1      37.636  29.050  29.770  1.00  0.00     0.010 A 
ATOM      9  C   UNL A   1      38.223  29.760  27.551  1.00  0.00     0.010 A 
ATOM     10  C   UNL A   1      38.586  29.141  28.757  1.00  0.00    -0.014 A 
BRANCH  10  11
ATOM     11  C   UNL A   1      39.985  28.701  28.965  1.00  0.00     0.031 A 
ATOM     12  C   UNL A   1      40.916  29.680  29.616  1.00  0.00     0.074 A 
ATOM     13  C   UNL A   1      40.434  27.492  28.564  1.00  0.00     0.049 A 
ATOM     14  N   UNL A   1      42.190  29.567  29.884  1.00  0.00    -0.248 NA
ATOM     15  C   UNL A   1      40.331  30.978  30.002  1.00  0.00     0.031 C 
ATOM     16  C   UNL A   1      39.640  26.437  27.927  1.00  0.00     0.029 A 
ATOM     17  N   UNL A   1      41.696  26.951  28.620  1.00  0.00    -0.354 N 
ATOM     18  C   UNL A   1      42.538  30.764  30.491  1.00  0.00     0.074 A 
ATOM     19  C   UNL A   1      41.394  31.640  30.416  1.00  0.00     0.031 C 
ATOM     20  C   UNL A   1      40.442  25.403  27.611  1.00  0.00     0.029 A 
ATOM     21  C   UNL A   1      41.801  25.712  28.035  1.00  0.00     0.049 A 
ATOM     22  H   UNL A   1      42.458  27.411  29.042  1.00  0.00     0.167 HD
ATOM     23  C   UNL A   1      43.683  31.081  31.134  1.00  0.00     0.037 A 
ATOM     24  C   UNL A   1      42.875  24.917  27.870  1.00  0.00     0.037 A 
ATOM     25  C   UNL A   1      44.821  30.215  31.198  1.00  0.00     0.049 A 
ATOM     26  C   UNL A   1      44.186  25.343  28.473  1.00  0.00     0.074 A 
ATOM     27  C   UNL A   1      46.029  30.415  31.836  1.00  0.00     0.029 A 
ATOM     28  N   UNL A   1      44.891  28.978  30.570  1.00  0.00    -0.354 N 
ATOM     29  N   UNL A   1      44.479  26.435  29.132  1.00  0.00    -0.248 NA
ATOM     30  C   UNL A   1      45.302  24.394  28.350  1.00  0.00     0.031 C 
ATOM     31  C   UNL A   1      46.854  29.324  31.545  1.00  0.00     0.029 A 
ATOM     32  C   UNL A   1      46.138  28.416  30.779  1.00  0.00     0.049 A 
ATOM     33  H   UNL A   1      44.163  28.563  30.054  1.00  0.00     0.167 HD
ATOM     34  C   UNL A   1      45.796  26.289  29.541  1.00  0.00     0.074 A 
ATOM     35  C   UNL A   1      46.245  25.002  29.052  1.00  0.00     0.031 C 
ATOM     36  C   UNL A   1      46.559  27.134  30.277  1.00  0.00     0.037 A 
BRANCH  23  37
ATOM     37  C   UNL A   1      43.708  32.416  31.813  1.00  0.00     0.064 A 
ATOM     38  C   UNL A   1      43.200  32.581  33.114  1.00  0.00     0.173 A 
ATOM     39  C   UNL A   1      44.147  33.557  31.130  1.00  0.00     0.173 A 
ATOM     40  F   UNL A   1      42.739  31.522  33.799  1.00  0.00    -0.203 F 
ATOM     41  C   UNL A   1      43.066  33.846  33.677  1.00  0.00     0.198 A 
ATOM     42  C   UNL A   1      44.047  34.817  31.712  1.00  0.00     0.198 A 
ATOM     43  F   UNL A   1      44.636  33.455  29.886  1.00  0.00    -0.203 F 
ATOM     44  F   UNL A   1      42.481  33.986  34.874  1.00  0.00    -0.200 F 
ATOM     45  C   UNL A   1      43.490  34.963  32.975  1.00  0.00     0.200 A 
ATOM     46  F   UNL A   1      44.460  35.898  31.036  1.00  0.00    -0.200 F 
ATOM     47  F   UNL A   1      43.339  36.185  33.505  1.00  0.00    -0.200 F 
ENDBRANCH  23  37
BRANCH  24  48
ATOM     48  C   UNL A   1      42.804  23.629  27.135  1.00  0.00     0.064 A 
ATOM     49  C   UNL A   1      42.391  22.449  27.773  1.00  0.00     0.173 A 
ATOM     50  C   UNL A   1      43.302  23.529  25.831  1.00  0.00     0.173 A 
ATOM     51  F   UNL A   1      41.945  22.496  29.035  1.00  0.00    -0.203 F 
ATOM     52  C   UNL A   1      42.508  21.212  27.140  1.00  0.00     0.198 A 
ATOM     53  C   UNL A   1      43.432  22.290  25.206  1.00  0.00     0.198 A 
ATOM     54  F   UNL A   1      43.701  24.630  25.180  1.00  0.00    -0.203 F 
ATOM     55  F   UNL A   1      42.148  20.094  27.786  1.00  0.00    -0.200 F 
ATOM     56  C   UNL A   1      43.038  21.132  25.862  1.00  0.00     0.200 A 
ATOM     57  F   UNL A   1      43.947  22.217  23.971  1.00  0.00    -0.200 F 
ATOM     58  F   UNL A   1      43.174  19.940  25.263  1.00  0.00    -0.200 F 
ENDBRANCH  24  48
BRANCH  36  59
ATOM     59  C   UNL A   1      47.938  26.673  30.634  1.00  0.00     0.064 A 
ATOM     60  C   UNL A   1      48.185  25.876  31.760  1.00  0.00     0.173 A 
ATOM     61  C   UNL A   1      49.021  26.999  29.802  1.00  0.00     0.173 A 
ATOM     62  F   UNL A   1      47.185  25.561  32.596  1.00  0.00    -0.203 F 
ATOM     63  C   UNL A   1      49.472  25.435  32.050  1.00  0.00     0.198 A 
ATOM     64  C   UNL A   1      50.298  26.524  30.075  1.00  0.00     0.198 A 
ATOM     65  F   UNL A   1      48.833  27.761  28.715  1.00  0.00    -0.203 F 
ATOM     66  F   UNL A   1      49.697  24.715  33.158  1.00  0.00    -0.200 F 
ATOM     67  C   UNL A   1      50.524  25.748  31.202  1.00  0.00     0.200 A 
ATOM     68  F   UNL A   1      51.309  26.815  29.245  1.00  0.00    -0.200 F 
ATOM     69  F   UNL A   1      51.759  25.307  31.474  1.00  0.00    -0.200 F 
ENDBRANCH  36  59
ENDBRANCH  10  11
ENDBRANCH   3   5
ENDBRANCH   2   3
ENDBRANCH   1   2
BRANCH   1  70
ATOM     70  C   UNL A   1      33.972  33.756  29.264  1.00  0.00     0.274 C 
BRANCH  70  71
ATOM     71  O   UNL A   1      34.362  33.172  30.526  1.00  0.00    -0.460 OA
BRANCH  71  72
ATOM     72  C   UNL A   1      35.494  33.683  31.096  1.00  0.00     0.331 C 
ATOM     73  O   UNL A   1      36.513  33.971  30.475  1.00  0.00    -0.250 OA
BRANCH  72  74
ATOM     74  C   UNL A   1      35.445  33.692  32.628  1.00  0.00     0.229 C 
BRANCH  74  75
ATOM     75  C   UNL A   1      34.112  33.289  33.248  1.00  0.00     0.193 C 
BRANCH  75  76
ATOM     76  O   UNL A   1      33.127  34.275  32.976  1.00  0.00    -0.394 OA
ATOM     77  H   UNL A   1      32.244  33.881  33.055  1.00  0.00     0.210 HD
ENDBRANCH  75  76
ENDBRANCH  74  75
BRANCH  74  78
ATOM     78  N   UNL A   1      36.590  33.023  33.258  1.00  0.00    -0.257 N 
ATOM     79  C   UNL A   1      37.247  33.590  34.314  1.00  0.00     0.264 C 
ATOM     80  C   UNL A   1      36.911  31.701  33.143  1.00  0.00     0.264 C 
ATOM     81  O   UNL A   1      37.075  34.694  34.793  1.00  0.00    -0.268 OA
ATOM     82  C   UNL A   1      38.217  32.605  34.795  1.00  0.00     0.075 A 
ATOM     83  C   UNL A   1      38.058  31.465  34.021  1.00  0.00     0.075 A 
ATOM     84  O   UNL A   1      36.350  30.833  32.510  1.00  0.00    -0.268 OA
ATOM     85  C   UNL A   1      39.197  32.698  35.764  1.00  0.00     0.074 A 
ATOM     86  C   UNL A   1      38.896  30.370  34.147  1.00  0.00     0.074 A 
ATOM     87  Cl  UNL A   1      39.267  34.055  36.825  1.00  0.00    -0.082 Cl
ATOM     88  C   UNL A   1      40.115  31.635  35.858  1.00  0.00     0.080 A 
ATOM     89  C   UNL A   1      39.953  30.465  35.070  1.00  0.00     0.080 A 
ATOM     90  Cl  UNL A   1      38.674  28.972  33.161  1.00  0.00    -0.082 Cl
ATOM     91  Cl  UNL A   1      41.514  31.804  36.875  1.00  0.00    -0.081 Cl
ATOM     92  Cl  UNL A   1      41.058  29.134  35.259  1.00  0.00    -0.081 Cl
ENDBRANCH  74  78
ENDBRANCH  72  74
ENDBRANCH  71  72
ENDBRANCH  70  71
ENDBRANCH   1  70
TORSDOF 14
ENDMDL
