MODEL 1
REMARK VINA RESULT:     -12.8      0.000      0.000
REMARK SMILES C[C@H](NC(=O)c1cccc(NC(=O)c2ccccc2C(=O)OCCOC(=O)c2ccc(-c3c4nc(c(-c5c(F)c(F)c(F)c(F)c5F)c5ccc([nH]5)c(-c5c(F)c(F)c(F)c(F)c5F)c5nc(c(-c6c(F)c(F)c(F)c(F)c6F)c6ccc3[nH]6)C=C5)C=C4)cc2)c1)c1ccccc1
REMARK SMILES IDX 22 1 20 2 21 3 19 4 14 5 15 6 16 7 18 8 17 9 12 10 11 11
REMARK SMILES IDX 13 13 10 14 6 15 7 16 91 17 8 18 9 19 4 20 3 21 5 23 2 24
REMARK SMILES IDX 1 25 92 26 93 27 97 28 94 29 96 30 95 31 23 32 24 33 25 34
REMARK SMILES IDX 26 35 27 36 28 37 29 38 90 39 30 40 89 41 31 42 32 43 33 44
REMARK SMILES IDX 83 45 34 46 88 47 82 48 84 49 35 50 87 51 81 52 80 53 36 55
REMARK SMILES IDX 68 56 48 57 67 58 49 59 52 60 66 61 85 62 50 63 51 64 65 66
REMARK SMILES IDX 86 67 53 68 37 69 38 70 46 71 39 72 40 73 44 74 47 75 41 76
REMARK SMILES IDX 42 77 45 78 43 79 69 80 70 81 78 82 71 83 72 84 76 85 79 86
REMARK SMILES IDX 73 87 74 88 77 89 75 90 54 91 55 92 63 93 56 94 57 95 61 96
REMARK SMILES IDX 64 97 58 98 59 99 62 100 60 101
REMARK H PARENT 11 12 3 22 84 54 52 65
REMARK Flexibility Score: inf
ROOT
ATOM      1  O   UNL A   1      36.311  23.707  24.293  1.00  0.00    -0.458 OA
ENDROOT
BRANCH   1   2
ATOM      2  C   UNL A   1      34.997  24.020  24.355  1.00  0.00     0.339 C 
ATOM      3  O   UNL A   1      34.394  24.801  23.639  1.00  0.00    -0.246 OA
BRANCH   2   4
ATOM      4  C   UNL A   1      34.323  23.262  25.416  1.00  0.00     0.072 A 
ATOM      5  C   UNL A   1      33.240  22.413  25.164  1.00  0.00     0.054 A 
ATOM      6  C   UNL A   1      32.691  21.669  26.221  1.00  0.00     0.015 A 
ATOM      7  C   UNL A   1      33.243  21.740  27.502  1.00  0.00     0.001 A 
ATOM      8  C   UNL A   1      34.868  23.334  26.707  1.00  0.00     0.016 A 
ATOM      9  C   UNL A   1      34.331  22.574  27.746  1.00  0.00     0.001 A 
BRANCH   5  10
ATOM     10  C   UNL A   1      32.544  22.335  23.866  1.00  0.00     0.256 C 
ATOM     11  N   UNL A   1      31.488  23.137  23.513  1.00  0.00    -0.322 N 
ATOM     12  H   UNL A   1      30.995  22.805  22.728  1.00  0.00     0.170 HD
ATOM     13  O   UNL A   1      32.911  21.458  23.082  1.00  0.00    -0.269 OA
BRANCH  11  14
ATOM     14  C   UNL A   1      30.961  24.329  24.034  1.00  0.00     0.042 A 
ATOM     15  C   UNL A   1      30.568  26.695  23.649  1.00  0.00     0.041 A 
ATOM     16  C   UNL A   1      29.906  26.790  24.874  1.00  0.00     0.014 A 
ATOM     17  C   UNL A   1      31.133  25.480  23.253  1.00  0.00     0.040 A 
ATOM     18  C   UNL A   1      29.784  25.661  25.682  1.00  0.00     0.003 A 
ATOM     19  C   UNL A   1      30.312  24.435  25.266  1.00  0.00     0.026 A 
BRANCH  15  20
ATOM     20  C   UNL A   1      30.732  27.921  22.841  1.00  0.00     0.251 C 
ATOM     21  N   UNL A   1      31.823  28.736  22.991  1.00  0.00    -0.346 N 
ATOM     22  H   UNL A   1      31.744  29.620  22.566  1.00  0.00     0.164 HD
ATOM     23  O   UNL A   1      29.880  28.199  22.001  1.00  0.00    -0.269 OA
BRANCH  21  24
ATOM     24  C   UNL A   1      33.086  28.497  23.685  1.00  0.00     0.109 C 
ATOM     25  C   UNL A   1      34.252  28.952  22.803  1.00  0.00     0.036 C 
BRANCH  24  26
ATOM     26  C   UNL A   1      33.162  29.147  25.063  1.00  0.00    -0.026 A 
ATOM     27  C   UNL A   1      34.241  28.819  25.906  1.00  0.00     0.006 A 
ATOM     28  C   UNL A   1      32.225  30.077  25.540  1.00  0.00     0.006 A 
ATOM     29  C   UNL A   1      34.377  29.390  27.175  1.00  0.00     0.000 A 
ATOM     30  C   UNL A   1      32.359  30.649  26.810  1.00  0.00     0.000 A 
ATOM     31  C   UNL A   1      33.434  30.307  27.626  1.00  0.00     0.000 A 
ENDBRANCH  24  26
ENDBRANCH  21  24
ENDBRANCH  15  20
ENDBRANCH  11  14
ENDBRANCH   5  10
ENDBRANCH   2   4
ENDBRANCH   1   2
BRANCH   1  32
ATOM     32  C   UNL A   1      36.614  22.571  23.463  1.00  0.00     0.275 C 
BRANCH  32  33
ATOM     33  C   UNL A   1      37.221  21.408  24.246  1.00  0.00     0.275 C 
BRANCH  33  34
ATOM     34  O   UNL A   1      37.507  21.794  25.604  1.00  0.00    -0.458 OA
BRANCH  34  35
ATOM     35  C   UNL A   1      38.788  21.623  25.994  1.00  0.00     0.338 C 
ATOM     36  O   UNL A   1      39.509  20.661  25.788  1.00  0.00    -0.246 OA
BRANCH  35  37
ATOM     37  C   UNL A   1      39.264  22.797  26.742  1.00  0.00     0.060 A 
ATOM     38  C   UNL A   1      38.690  24.044  26.495  1.00  0.00     0.016 A 
ATOM     39  C   UNL A   1      40.420  22.692  27.515  1.00  0.00     0.016 A 
ATOM     40  C   UNL A   1      39.324  25.204  26.935  1.00  0.00     0.010 A 
ATOM     41  C   UNL A   1      41.025  23.853  28.007  1.00  0.00     0.010 A 
ATOM     42  C   UNL A   1      40.511  25.119  27.673  1.00  0.00    -0.014 A 
BRANCH  42  43
ATOM     43  C   UNL A   1      41.289  26.346  27.980  1.00  0.00     0.031 A 
ATOM     44  C   UNL A   1      40.656  27.428  28.809  1.00  0.00     0.074 A 
ATOM     45  C   UNL A   1      42.560  26.486  27.563  1.00  0.00     0.049 A 
ATOM     46  N   UNL A   1      41.066  28.651  29.029  1.00  0.00    -0.248 NA
ATOM     47  C   UNL A   1      39.388  27.091  29.475  1.00  0.00     0.031 C 
ATOM     48  C   UNL A   1      43.323  25.487  26.818  1.00  0.00     0.029 A 
ATOM     49  N   UNL A   1      43.435  27.532  27.718  1.00  0.00    -0.354 N 
ATOM     50  C   UNL A   1      40.071  29.250  29.791  1.00  0.00     0.074 A 
ATOM     51  C   UNL A   1      39.055  28.248  30.028  1.00  0.00     0.031 C 
ATOM     52  C   UNL A   1      44.562  25.957  26.601  1.00  0.00     0.029 A 
ATOM     53  C   UNL A   1      44.657  27.314  27.134  1.00  0.00     0.049 A 
ATOM     54  H   UNL A   1      43.207  28.358  28.202  1.00  0.00     0.167 HD
ATOM     55  C   UNL A   1      40.007  30.526  30.235  1.00  0.00     0.037 A 
ATOM     56  C   UNL A   1      45.719  28.131  27.012  1.00  0.00     0.037 A 
ATOM     57  C   UNL A   1      41.047  31.502  30.060  1.00  0.00     0.049 A 
ATOM     58  C   UNL A   1      45.641  29.536  27.538  1.00  0.00     0.074 A 
ATOM     59  C   UNL A   1      41.069  32.828  30.455  1.00  0.00     0.029 A 
ATOM     60  N   UNL A   1      42.267  31.242  29.456  1.00  0.00    -0.354 N 
ATOM     61  N   UNL A   1      44.649  30.131  28.154  1.00  0.00    -0.248 NA
ATOM     62  C   UNL A   1      46.817  30.391  27.323  1.00  0.00     0.031 C 
ATOM     63  C   UNL A   1      42.306  33.372  30.087  1.00  0.00     0.029 A 
ATOM     64  C   UNL A   1      43.055  32.381  29.475  1.00  0.00     0.049 A 
ATOM     65  H   UNL A   1      42.535  30.376  29.072  1.00  0.00     0.167 HD
ATOM     66  C   UNL A   1      45.069  31.434  28.380  1.00  0.00     0.074 A 
ATOM     67  C   UNL A   1      46.419  31.536  27.865  1.00  0.00     0.031 C 
ATOM     68  C   UNL A   1      44.390  32.459  28.946  1.00  0.00     0.037 A 
BRANCH  55  69
ATOM     69  C   UNL A   1      38.743  30.950  30.912  1.00  0.00     0.064 A 
ATOM     70  C   UNL A   1      37.630  31.399  30.190  1.00  0.00     0.173 A 
ATOM     71  C   UNL A   1      38.647  30.894  32.311  1.00  0.00     0.173 A 
ATOM     72  F   UNL A   1      37.686  31.489  28.853  1.00  0.00    -0.203 F 
ATOM     73  C   UNL A   1      36.466  31.790  30.847  1.00  0.00     0.198 A 
ATOM     74  C   UNL A   1      37.477  31.272  32.963  1.00  0.00     0.198 A 
ATOM     75  F   UNL A   1      39.690  30.475  33.044  1.00  0.00    -0.203 F 
ATOM     76  F   UNL A   1      35.422  32.245  30.141  1.00  0.00    -0.200 F 
ATOM     77  C   UNL A   1      36.389  31.723  32.231  1.00  0.00     0.200 A 
ATOM     78  F   UNL A   1      37.405  31.206  34.300  1.00  0.00    -0.200 F 
ATOM     79  F   UNL A   1      35.268  32.102  32.860  1.00  0.00    -0.200 F 
ENDBRANCH  55  69
BRANCH  56  80
ATOM     80  C   UNL A   1      46.934  27.644  26.315  1.00  0.00     0.064 A 
ATOM     81  C   UNL A   1      47.043  27.727  24.921  1.00  0.00     0.173 A 
ATOM     82  C   UNL A   1      48.017  27.118  27.032  1.00  0.00     0.173 A 
ATOM     83  F   UNL A   1      46.020  28.203  24.196  1.00  0.00    -0.203 F 
ATOM     84  C   UNL A   1      48.198  27.302  24.268  1.00  0.00     0.198 A 
ATOM     85  C   UNL A   1      49.177  26.709  26.378  1.00  0.00     0.198 A 
ATOM     86  F   UNL A   1      47.953  27.018  28.367  1.00  0.00    -0.203 F 
ATOM     87  F   UNL A   1      48.275  27.374  22.932  1.00  0.00    -0.200 F 
ATOM     88  C   UNL A   1      49.266  26.802  24.998  1.00  0.00     0.200 A 
ATOM     89  F   UNL A   1      50.210  26.233  27.087  1.00  0.00    -0.200 F 
ATOM     90  F   UNL A   1      50.381  26.403  24.369  1.00  0.00    -0.200 F 
ENDBRANCH  56  80
BRANCH  68  91
ATOM     91  C   UNL A   1      45.086  33.779  29.018  1.00  0.00     0.064 A 
ATOM     92  C   UNL A   1      44.946  34.721  27.989  1.00  0.00     0.173 A 
ATOM     93  C   UNL A   1      45.856  34.127  30.137  1.00  0.00     0.173 A 
ATOM     94  F   UNL A   1      44.228  34.424  26.896  1.00  0.00    -0.203 F 
ATOM     95  C   UNL A   1      45.561  35.967  28.075  1.00  0.00     0.198 A 
ATOM     96  C   UNL A   1      46.461  35.377  30.223  1.00  0.00     0.198 A 
ATOM     97  F   UNL A   1      46.015  33.254  31.143  1.00  0.00    -0.203 F 
ATOM     98  F   UNL A   1      45.431  36.847  27.073  1.00  0.00    -0.200 F 
ATOM     99  C   UNL A   1      46.314  36.294  29.193  1.00  0.00     0.200 A 
ATOM    100  F   UNL A   1      47.188  35.694  31.303  1.00  0.00    -0.200 F 
ATOM    101  F   UNL A   1      46.904  37.495  29.275  1.00  0.00    -0.200 F 
ENDBRANCH  68  91
ENDBRANCH  42  43
ENDBRANCH  35  37
ENDBRANCH  34  35
ENDBRANCH  33  34
ENDBRANCH  32  33
ENDBRANCH   1  32
TORSDOF 16
ENDMDL
MODEL 2
REMARK VINA RESULT:     -12.8      1.327      2.516
REMARK SMILES C[C@H](NC(=O)c1cccc(NC(=O)c2ccccc2C(=O)OCCOC(=O)c2ccc(-c3c4nc(c(-c5c(F)c(F)c(F)c(F)c5F)c5ccc([nH]5)c(-c5c(F)c(F)c(F)c(F)c5F)c5nc(c(-c6c(F)c(F)c(F)c(F)c6F)c6ccc3[nH]6)C=C5)C=C4)cc2)c1)c1ccccc1
REMARK SMILES IDX 22 1 20 2 21 3 19 4 14 5 15 6 16 7 18 8 17 9 12 10 11 11
REMARK SMILES IDX 13 13 10 14 6 15 7 16 91 17 8 18 9 19 4 20 3 21 5 23 2 24
REMARK SMILES IDX 1 25 92 26 93 27 97 28 94 29 96 30 95 31 23 32 24 33 25 34
REMARK SMILES IDX 26 35 27 36 28 37 29 38 90 39 30 40 89 41 31 42 32 43 33 44
REMARK SMILES IDX 83 45 34 46 88 47 82 48 84 49 35 50 87 51 81 52 80 53 36 55
REMARK SMILES IDX 68 56 48 57 67 58 49 59 52 60 66 61 85 62 50 63 51 64 65 66
REMARK SMILES IDX 86 67 53 68 37 69 38 70 46 71 39 72 40 73 44 74 47 75 41 76
REMARK SMILES IDX 42 77 45 78 43 79 69 80 70 81 78 82 71 83 72 84 76 85 79 86
REMARK SMILES IDX 73 87 74 88 77 89 75 90 54 91 55 92 63 93 56 94 57 95 61 96
REMARK SMILES IDX 64 97 58 98 59 99 62 100 60 101
REMARK H PARENT 11 12 3 22 84 54 52 65
REMARK Flexibility Score: inf
ROOT
ATOM      1  O   UNL A   1      35.762  21.252  25.825  1.00  0.00    -0.458 OA
ENDROOT
BRANCH   1   2
ATOM      2  C   UNL A   1      34.418  21.327  25.944  1.00  0.00     0.339 C 
ATOM      3  O   UNL A   1      33.758  21.133  26.951  1.00  0.00    -0.246 OA
BRANCH   2   4
ATOM      4  C   UNL A   1      33.796  21.715  24.672  1.00  0.00     0.072 A 
ATOM      5  C   UNL A   1      34.187  22.852  23.958  1.00  0.00     0.054 A 
ATOM      6  C   UNL A   1      33.590  23.120  22.715  1.00  0.00     0.015 A 
ATOM      7  C   UNL A   1      32.649  22.241  22.174  1.00  0.00     0.001 A 
ATOM      8  C   UNL A   1      32.843  20.840  24.127  1.00  0.00     0.016 A 
ATOM      9  C   UNL A   1      32.273  21.102  22.881  1.00  0.00     0.001 A 
BRANCH   5  10
ATOM     10  C   UNL A   1      35.111  23.874  24.484  1.00  0.00     0.256 C 
ATOM     11  N   UNL A   1      34.704  25.035  25.092  1.00  0.00    -0.322 N 
ATOM     12  H   UNL A   1      35.421  25.704  25.169  1.00  0.00     0.170 HD
ATOM     13  O   UNL A   1      36.316  23.684  24.315  1.00  0.00    -0.269 OA
BRANCH  11  14
ATOM     14  C   UNL A   1      33.481  25.471  25.627  1.00  0.00     0.042 A 
ATOM     15  C   UNL A   1      32.064  27.382  26.116  1.00  0.00     0.041 A 
ATOM     16  C   UNL A   1      31.067  26.529  26.590  1.00  0.00     0.014 A 
ATOM     17  C   UNL A   1      33.283  26.857  25.679  1.00  0.00     0.040 A 
ATOM     18  C   UNL A   1      31.282  25.151  26.596  1.00  0.00     0.003 A 
ATOM     19  C   UNL A   1      32.486  24.624  26.119  1.00  0.00     0.026 A 
BRANCH  15  20
ATOM     20  C   UNL A   1      31.829  28.840  26.175  1.00  0.00     0.251 C 
ATOM     21  N   UNL A   1      31.253  29.514  25.130  1.00  0.00    -0.346 N 
ATOM     22  H   UNL A   1      31.326  30.494  25.178  1.00  0.00     0.164 HD
ATOM     23  O   UNL A   1      32.137  29.452  27.194  1.00  0.00    -0.269 OA
BRANCH  21  24
ATOM     24  C   UNL A   1      30.548  29.005  23.957  1.00  0.00     0.109 C 
ATOM     25  C   UNL A   1      29.976  30.174  23.152  1.00  0.00     0.036 C 
BRANCH  24  26
ATOM     26  C   UNL A   1      31.402  28.102  23.072  1.00  0.00    -0.026 A 
ATOM     27  C   UNL A   1      32.681  28.548  22.687  1.00  0.00     0.006 A 
ATOM     28  C   UNL A   1      30.995  26.834  22.627  1.00  0.00     0.006 A 
ATOM     29  C   UNL A   1      33.519  27.763  21.890  1.00  0.00     0.000 A 
ATOM     30  C   UNL A   1      31.833  26.048  21.828  1.00  0.00     0.000 A 
ATOM     31  C   UNL A   1      33.093  26.511  21.460  1.00  0.00     0.000 A 
ENDBRANCH  24  26
ENDBRANCH  21  24
ENDBRANCH  15  20
ENDBRANCH  11  14
ENDBRANCH   5  10
ENDBRANCH   2   4
ENDBRANCH   1   2
BRANCH   1  32
ATOM     32  C   UNL A   1      36.230  20.147  25.031  1.00  0.00     0.275 C 
BRANCH  32  33
ATOM     33  C   UNL A   1      37.728  20.219  24.736  1.00  0.00     0.275 C 
BRANCH  33  34
ATOM     34  O   UNL A   1      38.311  21.401  25.316  1.00  0.00    -0.458 OA
BRANCH  34  35
ATOM     35  C   UNL A   1      39.377  21.186  26.116  1.00  0.00     0.338 C 
ATOM     36  O   UNL A   1      39.981  20.141  26.288  1.00  0.00    -0.246 OA
BRANCH  35  37
ATOM     37  C   UNL A   1      39.767  22.425  26.805  1.00  0.00     0.060 A 
ATOM     38  C   UNL A   1      39.208  23.638  26.401  1.00  0.00     0.016 A 
ATOM     39  C   UNL A   1      40.845  22.405  27.690  1.00  0.00     0.016 A 
ATOM     40  C   UNL A   1      39.786  24.841  26.800  1.00  0.00     0.010 A 
ATOM     41  C   UNL A   1      41.388  23.613  28.138  1.00  0.00     0.010 A 
ATOM     42  C   UNL A   1      40.897  24.837  27.653  1.00  0.00    -0.014 A 
BRANCH  42  43
ATOM     43  C   UNL A   1      41.631  26.099  27.928  1.00  0.00     0.031 A 
ATOM     44  C   UNL A   1      40.975  27.162  28.765  1.00  0.00     0.074 A 
ATOM     45  C   UNL A   1      42.884  26.288  27.476  1.00  0.00     0.049 A 
ATOM     46  N   UNL A   1      41.338  28.403  28.964  1.00  0.00    -0.248 NA
ATOM     47  C   UNL A   1      39.740  26.778  29.467  1.00  0.00     0.031 C 
ATOM     48  C   UNL A   1      43.668  25.315  26.719  1.00  0.00     0.029 A 
ATOM     49  N   UNL A   1      43.717  27.372  27.599  1.00  0.00    -0.354 N 
ATOM     50  C   UNL A   1      40.340  28.966  29.747  1.00  0.00     0.074 A 
ATOM     51  C   UNL A   1      39.373  27.926  30.020  1.00  0.00     0.031 C 
ATOM     52  C   UNL A   1      44.880  25.835  26.465  1.00  0.00     0.029 A 
ATOM     53  C   UNL A   1      44.931  27.200  26.984  1.00  0.00     0.049 A 
ATOM     54  H   UNL A   1      43.468  28.192  28.082  1.00  0.00     0.167 HD
ATOM     55  C   UNL A   1      40.234  30.243  30.182  1.00  0.00     0.037 A 
ATOM     56  C   UNL A   1      45.955  28.059  26.827  1.00  0.00     0.037 A 
ATOM     57  C   UNL A   1      41.227  31.260  29.971  1.00  0.00     0.049 A 
ATOM     58  C   UNL A   1      45.831  29.464  27.343  1.00  0.00     0.074 A 
ATOM     59  C   UNL A   1      41.203  32.589  30.354  1.00  0.00     0.029 A 
ATOM     60  N   UNL A   1      42.440  31.046  29.337  1.00  0.00    -0.354 N 
ATOM     61  N   UNL A   1      44.832  30.023  27.980  1.00  0.00    -0.248 NA
ATOM     62  C   UNL A   1      46.963  30.366  27.090  1.00  0.00     0.031 C 
ATOM     63  C   UNL A   1      42.406  33.182  29.949  1.00  0.00     0.029 A 
ATOM     64  C   UNL A   1      43.179  32.217  29.325  1.00  0.00     0.049 A 
ATOM     65  H   UNL A   1      42.734  30.188  28.953  1.00  0.00     0.167 HD
ATOM     66  C   UNL A   1      45.202  31.344  28.184  1.00  0.00     0.074 A 
ATOM     67  C   UNL A   1      46.533  31.498  27.632  1.00  0.00     0.031 C 
ATOM     68  C   UNL A   1      44.496  32.346  28.760  1.00  0.00     0.037 A 
BRANCH  55  69
ATOM     69  C   UNL A   1      38.971  30.620  30.890  1.00  0.00     0.064 A 
ATOM     70  C   UNL A   1      37.830  31.041  30.195  1.00  0.00     0.173 A 
ATOM     71  C   UNL A   1      38.905  30.547  32.289  1.00  0.00     0.173 A 
ATOM     72  F   UNL A   1      37.856  31.147  28.858  1.00  0.00    -0.203 F 
ATOM     73  C   UNL A   1      36.668  31.388  30.879  1.00  0.00     0.198 A 
ATOM     74  C   UNL A   1      37.738  30.880  32.969  1.00  0.00     0.198 A 
ATOM     75  F   UNL A   1      39.976  30.153  32.996  1.00  0.00    -0.203 F 
ATOM     76  F   UNL A   1      35.596  31.818  30.200  1.00  0.00    -0.200 F 
ATOM     77  C   UNL A   1      36.622  31.304  32.264  1.00  0.00     0.200 A 
ATOM     78  F   UNL A   1      37.695  30.799  34.306  1.00  0.00    -0.200 F 
ATOM     79  F   UNL A   1      35.503  31.641  32.920  1.00  0.00    -0.200 F 
ENDBRANCH  55  69
BRANCH  56  80
ATOM     80  C   UNL A   1      47.170  27.617  26.102  1.00  0.00     0.064 A 
ATOM     81  C   UNL A   1      48.269  27.095  26.796  1.00  0.00     0.173 A 
ATOM     82  C   UNL A   1      47.241  27.680  24.704  1.00  0.00     0.173 A 
ATOM     83  F   UNL A   1      48.250  27.040  28.135  1.00  0.00    -0.203 F 
ATOM     84  C   UNL A   1      49.398  26.648  26.113  1.00  0.00     0.198 A 
ATOM     85  C   UNL A   1      48.364  27.216  24.022  1.00  0.00     0.198 A 
ATOM     86  F   UNL A   1      46.213  28.175  24.001  1.00  0.00    -0.203 F 
ATOM     87  F   UNL A   1      50.445  26.168  26.797  1.00  0.00    -0.200 F 
ATOM     88  C   UNL A   1      49.441  26.701  24.728  1.00  0.00     0.200 A 
ATOM     89  F   UNL A   1      48.399  27.262  22.683  1.00  0.00    -0.200 F 
ATOM     90  F   UNL A   1      50.523  26.260  24.071  1.00  0.00    -0.200 F 
ENDBRANCH  56  80
BRANCH  68  91
ATOM     91  C   UNL A   1      45.137  33.695  28.802  1.00  0.00     0.064 A 
ATOM     92  C   UNL A   1      44.909  34.630  27.783  1.00  0.00     0.173 A 
ATOM     93  C   UNL A   1      45.943  34.075  29.885  1.00  0.00     0.173 A 
ATOM     94  F   UNL A   1      44.154  34.302  26.724  1.00  0.00    -0.203 F 
ATOM     95  C   UNL A   1      45.473  35.901  27.843  1.00  0.00     0.198 A 
ATOM     96  C   UNL A   1      46.497  35.350  29.945  1.00  0.00     0.198 A 
ATOM     97  F   UNL A   1      46.186  33.210  30.880  1.00  0.00    -0.203 F 
ATOM     98  F   UNL A   1      45.258  36.775  26.850  1.00  0.00    -0.200 F 
ATOM     99  C   UNL A   1      46.263  36.260  28.925  1.00  0.00     0.200 A 
ATOM    100  F   UNL A   1      47.260  35.698  30.991  1.00  0.00    -0.200 F 
ATOM    101  F   UNL A   1      46.804  37.485  28.982  1.00  0.00    -0.200 F 
ENDBRANCH  68  91
ENDBRANCH  42  43
ENDBRANCH  35  37
ENDBRANCH  34  35
ENDBRANCH  33  34
ENDBRANCH  32  33
ENDBRANCH   1  32
TORSDOF 16
ENDMDL
MODEL 3
REMARK VINA RESULT:     -12.5      4.630     10.065
REMARK SMILES C[C@H](NC(=O)c1cccc(NC(=O)c2ccccc2C(=O)OCCOC(=O)c2ccc(-c3c4nc(c(-c5c(F)c(F)c(F)c(F)c5F)c5ccc([nH]5)c(-c5c(F)c(F)c(F)c(F)c5F)c5nc(c(-c6c(F)c(F)c(F)c(F)c6F)c6ccc3[nH]6)C=C5)C=C4)cc2)c1)c1ccccc1
REMARK SMILES IDX 22 1 20 2 21 3 19 4 14 5 15 6 16 7 18 8 17 9 12 10 11 11
REMARK SMILES IDX 13 13 10 14 6 15 7 16 91 17 8 18 9 19 4 20 3 21 5 23 2 24
REMARK SMILES IDX 1 25 92 26 93 27 97 28 94 29 96 30 95 31 23 32 24 33 25 34
REMARK SMILES IDX 26 35 27 36 28 37 29 38 90 39 30 40 89 41 31 42 32 43 33 44
REMARK SMILES IDX 83 45 34 46 88 47 82 48 84 49 35 50 87 51 81 52 80 53 36 55
REMARK SMILES IDX 68 56 48 57 67 58 49 59 52 60 66 61 85 62 50 63 51 64 65 66
REMARK SMILES IDX 86 67 53 68 37 69 38 70 46 71 39 72 40 73 44 74 47 75 41 76
REMARK SMILES IDX 42 77 45 78 43 79 69 80 70 81 78 82 71 83 72 84 76 85 79 86
REMARK SMILES IDX 73 87 74 88 77 89 75 90 54 91 55 92 63 93 56 94 57 95 61 96
REMARK SMILES IDX 64 97 58 98 59 99 62 100 60 101
REMARK H PARENT 11 12 3 22 84 54 52 65
REMARK Flexibility Score: inf
ROOT
ATOM      1  O   UNL A   1      33.329  30.101  26.007  1.00  0.00    -0.458 OA
ENDROOT
BRANCH   1   2
ATOM      2  C   UNL A   1      32.354  29.172  25.896  1.00  0.00     0.339 C 
ATOM      3  O   UNL A   1      32.026  28.348  26.732  1.00  0.00    -0.246 OA
BRANCH   2   4
ATOM      4  C   UNL A   1      31.669  29.278  24.601  1.00  0.00     0.072 A 
ATOM      5  C   UNL A   1      32.123  28.622  23.452  1.00  0.00     0.054 A 
ATOM      6  C   UNL A   1      31.375  28.718  22.267  1.00  0.00     0.015 A 
ATOM      7  C   UNL A   1      30.169  29.423  22.242  1.00  0.00     0.001 A 
ATOM      8  C   UNL A   1      30.461  29.992  24.567  1.00  0.00     0.016 A 
ATOM      9  C   UNL A   1      29.713  30.062  23.392  1.00  0.00     0.001 A 
BRANCH   5  10
ATOM     10  C   UNL A   1      33.418  27.923  23.365  1.00  0.00     0.256 C 
ATOM     11  N   UNL A   1      33.592  26.593  23.655  1.00  0.00    -0.322 N 
ATOM     12  H   UNL A   1      34.536  26.343  23.775  1.00  0.00     0.170 HD
ATOM     13  O   UNL A   1      34.403  28.598  23.061  1.00  0.00    -0.269 OA
BRANCH  11  14
ATOM     14  C   UNL A   1      32.709  25.513  23.816  1.00  0.00     0.042 A 
ATOM     15  C   UNL A   1      31.844  23.829  25.337  1.00  0.00     0.041 A 
ATOM     16  C   UNL A   1      30.962  23.384  24.351  1.00  0.00     0.014 A 
ATOM     17  C   UNL A   1      32.745  24.860  25.055  1.00  0.00     0.040 A 
ATOM     18  C   UNL A   1      30.964  23.992  23.097  1.00  0.00     0.003 A 
ATOM     19  C   UNL A   1      31.836  25.052  22.829  1.00  0.00     0.026 A 
BRANCH  15  20
ATOM     20  C   UNL A   1      31.859  23.127  26.637  1.00  0.00     0.251 C 
ATOM     21  N   UNL A   1      32.447  21.897  26.778  1.00  0.00    -0.346 N 
ATOM     22  H   UNL A   1      32.230  21.426  27.614  1.00  0.00     0.164 HD
ATOM     23  O   UNL A   1      31.352  23.671  27.614  1.00  0.00    -0.269 OA
BRANCH  21  24
ATOM     24  C   UNL A   1      33.348  21.178  25.882  1.00  0.00     0.109 C 
ATOM     25  C   UNL A   1      32.549  20.579  24.721  1.00  0.00     0.036 C 
BRANCH  24  26
ATOM     26  C   UNL A   1      34.505  22.027  25.364  1.00  0.00    -0.026 A 
ATOM     27  C   UNL A   1      35.358  22.648  26.296  1.00  0.00     0.006 A 
ATOM     28  C   UNL A   1      34.786  22.214  24.001  1.00  0.00     0.006 A 
ATOM     29  C   UNL A   1      36.444  23.426  25.887  1.00  0.00     0.000 A 
ATOM     30  C   UNL A   1      35.873  22.994  23.590  1.00  0.00     0.000 A 
ATOM     31  C   UNL A   1      36.701  23.599  24.531  1.00  0.00     0.000 A 
ENDBRANCH  24  26
ENDBRANCH  21  24
ENDBRANCH  15  20
ENDBRANCH  11  14
ENDBRANCH   5  10
ENDBRANCH   2   4
ENDBRANCH   1   2
BRANCH   1  32
ATOM     32  C   UNL A   1      33.384  30.759  27.286  1.00  0.00     0.275 C 
BRANCH  32  33
ATOM     33  C   UNL A   1      32.625  32.086  27.304  1.00  0.00     0.275 C 
BRANCH  33  34
ATOM     34  O   UNL A   1      33.536  33.201  27.319  1.00  0.00    -0.458 OA
BRANCH  34  35
ATOM     35  C   UNL A   1      33.366  34.072  28.336  1.00  0.00     0.338 C 
ATOM     36  O   UNL A   1      32.470  34.887  28.478  1.00  0.00    -0.246 OA
BRANCH  35  37
ATOM     37  C   UNL A   1      34.442  33.927  29.328  1.00  0.00     0.060 A 
ATOM     38  C   UNL A   1      35.721  34.392  29.023  1.00  0.00     0.016 A 
ATOM     39  C   UNL A   1      34.229  33.137  30.458  1.00  0.00     0.016 A 
ATOM     40  C   UNL A   1      36.812  33.987  29.787  1.00  0.00     0.010 A 
ATOM     41  C   UNL A   1      35.316  32.779  31.260  1.00  0.00     0.010 A 
ATOM     42  C   UNL A   1      36.622  33.155  30.898  1.00  0.00    -0.014 A 
BRANCH  42  43
ATOM     43  C   UNL A   1      37.791  32.568  31.600  1.00  0.00     0.031 A 
ATOM     44  C   UNL A   1      38.577  31.475  30.930  1.00  0.00     0.074 A 
ATOM     45  C   UNL A   1      38.181  33.024  32.804  1.00  0.00     0.049 A 
ATOM     46  N   UNL A   1      39.496  30.689  31.429  1.00  0.00    -0.248 NA
ATOM     47  C   UNL A   1      38.284  31.230  29.509  1.00  0.00     0.031 C 
ATOM     48  C   UNL A   1      37.560  34.126  33.535  1.00  0.00     0.029 A 
ATOM     49  N   UNL A   1      39.204  32.612  33.620  1.00  0.00    -0.354 N 
ATOM     50  C   UNL A   1      39.833  29.810  30.409  1.00  0.00     0.074 A 
ATOM     51  C   UNL A   1      39.049  30.179  29.251  1.00  0.00     0.031 C 
ATOM     52  C   UNL A   1      38.230  34.322  34.682  1.00  0.00     0.029 A 
ATOM     53  C   UNL A   1      39.284  33.316  34.795  1.00  0.00     0.049 A 
ATOM     54  H   UNL A   1      39.821  31.882  33.385  1.00  0.00     0.167 HD
ATOM     55  C   UNL A   1      40.706  28.776  30.444  1.00  0.00     0.037 A 
ATOM     56  C   UNL A   1      40.093  33.145  35.857  1.00  0.00     0.037 A 
ATOM     57  C   UNL A   1      41.536  28.450  31.572  1.00  0.00     0.049 A 
ATOM     58  C   UNL A   1      41.077  32.010  35.866  1.00  0.00     0.074 A 
ATOM     59  C   UNL A   1      42.437  27.411  31.714  1.00  0.00     0.029 A 
ATOM     60  N   UNL A   1      41.581  29.186  32.745  1.00  0.00    -0.354 N 
ATOM     61  N   UNL A   1      41.306  31.110  34.942  1.00  0.00    -0.248 NA
ATOM     62  C   UNL A   1      41.891  31.848  37.080  1.00  0.00     0.031 C 
ATOM     63  C   UNL A   1      43.029  27.516  32.979  1.00  0.00     0.029 A 
ATOM     64  C   UNL A   1      42.502  28.628  33.616  1.00  0.00     0.049 A 
ATOM     65  H   UNL A   1      41.040  29.987  32.932  1.00  0.00     0.167 HD
ATOM     66  C   UNL A   1      42.270  30.263  35.468  1.00  0.00     0.074 A 
ATOM     67  C   UNL A   1      42.610  30.774  36.780  1.00  0.00     0.031 C 
ATOM     68  C   UNL A   1      42.813  29.150  34.919  1.00  0.00     0.037 A 
BRANCH  55  69
ATOM     69  C   UNL A   1      40.767  27.892  29.239  1.00  0.00     0.064 A 
ATOM     70  C   UNL A   1      41.718  28.082  28.229  1.00  0.00     0.173 A 
ATOM     71  C   UNL A   1      39.858  26.832  29.104  1.00  0.00     0.173 A 
ATOM     72  F   UNL A   1      42.592  29.097  28.307  1.00  0.00    -0.203 F 
ATOM     73  C   UNL A   1      41.750  27.245  27.116  1.00  0.00     0.198 A 
ATOM     74  C   UNL A   1      39.902  25.989  27.998  1.00  0.00     0.198 A 
ATOM     75  F   UNL A   1      38.926  26.616  30.045  1.00  0.00    -0.203 F 
ATOM     76  F   UNL A   1      42.649  27.460  26.145  1.00  0.00    -0.200 F 
ATOM     77  C   UNL A   1      40.846  26.198  27.004  1.00  0.00     0.200 A 
ATOM     78  F   UNL A   1      39.028  24.979  27.891  1.00  0.00    -0.200 F 
ATOM     79  F   UNL A   1      40.878  25.396  25.931  1.00  0.00    -0.200 F 
ENDBRANCH  55  69
BRANCH  56  80
ATOM     80  C   UNL A   1      39.964  34.053  37.021  1.00  0.00     0.064 A 
ATOM     81  C   UNL A   1      40.680  35.256  37.076  1.00  0.00     0.173 A 
ATOM     82  C   UNL A   1      39.102  33.750  38.084  1.00  0.00     0.173 A 
ATOM     83  F   UNL A   1      41.534  35.572  36.091  1.00  0.00    -0.203 F 
ATOM     84  C   UNL A   1      40.535  36.126  38.153  1.00  0.00     0.198 A 
ATOM     85  C   UNL A   1      38.944  34.630  39.152  1.00  0.00     0.198 A 
ATOM     86  F   UNL A   1      38.400  32.608  38.073  1.00  0.00    -0.203 F 
ATOM     87  F   UNL A   1      41.242  37.264  38.194  1.00  0.00    -0.200 F 
ATOM     88  C   UNL A   1      39.661  35.816  39.186  1.00  0.00     0.200 A 
ATOM     89  F   UNL A   1      38.094  34.330  40.144  1.00  0.00    -0.200 F 
ATOM     90  F   UNL A   1      39.513  36.660  40.217  1.00  0.00    -0.200 F 
ENDBRANCH  56  80
BRANCH  68  91
ATOM     91  C   UNL A   1      43.810  28.401  35.744  1.00  0.00     0.064 A 
ATOM     92  C   UNL A   1      43.398  27.394  36.627  1.00  0.00     0.173 A 
ATOM     93  C   UNL A   1      45.183  28.655  35.619  1.00  0.00     0.173 A 
ATOM     94  F   UNL A   1      42.093  27.127  36.785  1.00  0.00    -0.203 F 
ATOM     95  C   UNL A   1      44.329  26.668  37.365  1.00  0.00     0.198 A 
ATOM     96  C   UNL A   1      46.111  27.922  36.352  1.00  0.00     0.198 A 
ATOM     97  F   UNL A   1      45.618  29.611  34.785  1.00  0.00    -0.203 F 
ATOM     98  F   UNL A   1      43.916  25.721  38.218  1.00  0.00    -0.200 F 
ATOM     99  C   UNL A   1      45.684  26.931  37.223  1.00  0.00     0.200 A 
ATOM    100  F   UNL A   1      47.420  28.174  36.215  1.00  0.00    -0.200 F 
ATOM    101  F   UNL A   1      46.580  26.230  37.933  1.00  0.00    -0.200 F 
ENDBRANCH  68  91
ENDBRANCH  42  43
ENDBRANCH  35  37
ENDBRANCH  34  35
ENDBRANCH  33  34
ENDBRANCH  32  33
ENDBRANCH   1  32
TORSDOF 16
ENDMDL
