MODEL 1
REMARK VINA RESULT:     -11.4      0.000      0.000
REMARK SMILES CCCCCCNC(=O)Nc1cccc(-c2ccc([C@@H](C)C(=O)OCCOC(=O)c3ccc(-c4c5nc(c(-c6c(F)c(F)c(F)c(F)c6F)c6ccc([nH]6)c(-c6c(F)c(F)c(F)c(F)c6F)c6nc(c(-c7c(F)c(F)c(F)c(F)c7F)c7ccc4[nH]7)C=C6)C=C5)cc3)cc2F)c1
REMARK SMILES IDX 20 1 21 2 19 3 16 4 17 5 94 6 18 7 93 8 95 9 15 10 11 11
REMARK SMILES IDX 12 12 96 13 13 14 14 15 10 16 7 17 8 18 9 20 6 22 5 23 4 24
REMARK SMILES IDX 3 25 2 26 1 27 22 28 23 29 24 30 25 31 26 32 27 33 28 34
REMARK SMILES IDX 29 35 30 36 31 37 92 38 32 39 91 40 33 41 34 42 35 43 85 44
REMARK SMILES IDX 36 45 90 46 84 47 86 48 37 49 89 50 83 51 82 52 38 54 70 55
REMARK SMILES IDX 50 56 69 57 51 58 54 59 68 60 87 61 52 62 53 63 67 65 88 66
REMARK SMILES IDX 55 67 39 68 40 69 48 70 41 71 42 72 46 73 49 74 43 75 44 76
REMARK SMILES IDX 47 77 45 78 71 79 72 80 80 81 73 82 74 83 78 84 81 85 75 86
REMARK SMILES IDX 76 87 79 88 77 89 56 90 57 91 65 92 58 93 59 94 63 95 66 96
REMARK SMILES IDX 60 97 61 98 64 99 62 100
REMARK H PARENT 7 19 10 21 86 53 54 64
REMARK Flexibility Score: inf
ROOT
ATOM      1  C   UNL A   1      40.667  22.770  26.866  1.00  0.00     0.126 C 
ATOM      2  C   UNL A   1      40.789  22.489  28.363  1.00  0.00     0.025 C 
ENDROOT
BRANCH   1   3
ATOM      3  C   UNL A   1      39.222  22.746  26.392  1.00  0.00    -0.031 A 
ATOM      4  C   UNL A   1      36.584  22.708  25.314  1.00  0.00     0.018 A 
ATOM      5  C   UNL A   1      37.080  23.835  25.990  1.00  0.00     0.012 A 
ATOM      6  C   UNL A   1      37.423  21.593  25.225  1.00  0.00     0.131 A 
ATOM      7  C   UNL A   1      38.376  23.855  26.523  1.00  0.00     0.005 A 
ATOM      8  C   UNL A   1      38.718  21.607  25.746  1.00  0.00     0.044 A 
ATOM      9  F   UNL A   1      37.008  20.480  24.600  1.00  0.00    -0.206 F 
BRANCH   4  10
ATOM     10  C   UNL A   1      35.234  22.718  24.729  1.00  0.00    -0.013 A 
ATOM     11  C   UNL A   1      32.811  22.596  25.001  1.00  0.00     0.043 A 
ATOM     12  C   UNL A   1      32.637  22.843  23.640  1.00  0.00     0.026 A 
ATOM     13  C   UNL A   1      34.103  22.462  25.519  1.00  0.00     0.035 A 
ATOM     14  C   UNL A   1      33.747  23.076  22.830  1.00  0.00     0.003 A 
ATOM     15  C   UNL A   1      35.033  23.034  23.376  1.00  0.00     0.009 A 
BRANCH  11  16
ATOM     16  N   UNL A   1      31.667  22.521  25.811  1.00  0.00    -0.308 N 
ATOM     17  N   UNL A   1      31.417  24.709  26.679  1.00  0.00    -0.338 N 
ATOM     18  C   UNL A   1      31.200  23.373  26.757  1.00  0.00     0.319 C 
ATOM     19  H   UNL A   1      31.208  25.214  27.498  1.00  0.00     0.165 HD
ATOM     20  O   UNL A   1      30.472  22.947  27.656  1.00  0.00    -0.249 OA
ATOM     21  H   UNL A   1      31.114  21.719  25.669  1.00  0.00     0.171 HD
BRANCH  17  22
ATOM     22  C   UNL A   1      31.910  25.508  25.570  1.00  0.00     0.117 C 
BRANCH  22  23
ATOM     23  C   UNL A   1      33.293  26.105  25.806  1.00  0.00     0.021 C 
BRANCH  23  24
ATOM     24  C   UNL A   1      34.079  26.482  24.549  1.00  0.00     0.002 C 
BRANCH  24  25
ATOM     25  C   UNL A   1      33.300  27.232  23.463  1.00  0.00    -0.000 C 
BRANCH  25  26
ATOM     26  C   UNL A   1      33.223  26.550  22.096  1.00  0.00    -0.003 C 
ATOM     27  C   UNL A   1      31.819  26.121  21.700  1.00  0.00     0.004 C 
ENDBRANCH  25  26
ENDBRANCH  24  25
ENDBRANCH  23  24
ENDBRANCH  22  23
ENDBRANCH  17  22
ENDBRANCH  11  16
ENDBRANCH   4  10
ENDBRANCH   1   3
BRANCH   1  28
ATOM     28  C   UNL A   1      41.660  21.908  26.101  1.00  0.00     0.313 C 
ATOM     29  O   UNL A   1      42.100  22.251  25.007  1.00  0.00    -0.252 OA
BRANCH  28  30
ATOM     30  O   UNL A   1      42.044  20.782  26.758  1.00  0.00    -0.462 OA
BRANCH  30  31
ATOM     31  C   UNL A   1      41.790  19.534  26.081  1.00  0.00     0.274 C 
BRANCH  31  32
ATOM     32  C   UNL A   1      43.077  18.861  25.601  1.00  0.00     0.275 C 
BRANCH  32  33
ATOM     33  O   UNL A   1      43.575  19.456  24.390  1.00  0.00    -0.458 OA
BRANCH  33  34
ATOM     34  C   UNL A   1      44.914  19.645  24.355  1.00  0.00     0.338 C 
ATOM     35  O   UNL A   1      45.771  18.860  23.993  1.00  0.00    -0.246 OA
BRANCH  34  36
ATOM     36  C   UNL A   1      45.213  21.035  24.723  1.00  0.00     0.060 A 
ATOM     37  C   UNL A   1      45.484  21.314  26.063  1.00  0.00     0.016 A 
ATOM     38  C   UNL A   1      45.140  22.063  23.783  1.00  0.00     0.016 A 
ATOM     39  C   UNL A   1      45.667  22.628  26.480  1.00  0.00     0.010 A 
ATOM     40  C   UNL A   1      45.340  23.383  24.199  1.00  0.00     0.010 A 
ATOM     41  C   UNL A   1      45.589  23.673  25.552  1.00  0.00    -0.014 A 
BRANCH  41  42
ATOM     42  C   UNL A   1      45.724  25.073  26.022  1.00  0.00     0.031 A 
ATOM     43  C   UNL A   1      47.050  25.769  25.926  1.00  0.00     0.074 A 
ATOM     44  C   UNL A   1      44.647  25.726  26.496  1.00  0.00     0.049 A 
ATOM     45  N   UNL A   1      47.387  26.968  26.328  1.00  0.00    -0.248 NA
ATOM     46  C   UNL A   1      48.145  25.017  25.291  1.00  0.00     0.031 C 
ATOM     47  C   UNL A   1      43.301  25.165  26.598  1.00  0.00     0.029 A 
ATOM     48  N   UNL A   1      44.517  27.004  26.975  1.00  0.00    -0.354 N 
ATOM     49  C   UNL A   1      48.730  27.111  26.010  1.00  0.00     0.074 A 
ATOM     50  C   UNL A   1      49.154  25.869  25.397  1.00  0.00     0.031 C 
ATOM     51  C   UNL A   1      42.477  26.097  27.106  1.00  0.00     0.029 A 
ATOM     52  C   UNL A   1      43.246  27.303  27.401  1.00  0.00     0.049 A 
ATOM     53  H   UNL A   1      45.262  27.646  27.010  1.00  0.00     0.167 HD
ATOM     54  C   UNL A   1      49.532  28.183  26.206  1.00  0.00     0.037 A 
ATOM     55  C   UNL A   1      42.765  28.417  27.983  1.00  0.00     0.037 A 
ATOM     56  C   UNL A   1      49.105  29.422  26.800  1.00  0.00     0.049 A 
ATOM     57  C   UNL A   1      43.688  29.580  28.225  1.00  0.00     0.074 A 
ATOM     58  C   UNL A   1      49.846  30.563  27.049  1.00  0.00     0.029 A 
ATOM     59  N   UNL A   1      47.813  29.681  27.235  1.00  0.00    -0.354 N 
ATOM     60  N   UNL A   1      44.961  29.698  27.935  1.00  0.00    -0.248 NA
ATOM     61  C   UNL A   1      43.109  30.762  28.877  1.00  0.00     0.031 C 
ATOM     62  C   UNL A   1      49.011  31.504  27.661  1.00  0.00     0.029 A 
ATOM     63  C   UNL A   1      47.739  30.962  27.760  1.00  0.00     0.049 A 
ATOM     64  H   UNL A   1      47.061  29.050  27.179  1.00  0.00     0.167 HD
ATOM     65  C   UNL A   1      45.331  30.969  28.352  1.00  0.00     0.074 A 
ATOM     66  C   UNL A   1      44.143  31.591  28.900  1.00  0.00     0.031 C 
ATOM     67  C   UNL A   1      46.546  31.565  28.294  1.00  0.00     0.037 A 
BRANCH  54  68
ATOM     68  C   UNL A   1      50.967  28.058  25.788  1.00  0.00     0.064 A 
ATOM     69  C   UNL A   1      51.366  28.269  24.460  1.00  0.00     0.173 A 
ATOM     70  C   UNL A   1      51.959  27.768  26.736  1.00  0.00     0.173 A 
ATOM     71  F   UNL A   1      50.452  28.538  23.516  1.00  0.00    -0.203 F 
ATOM     72  C   UNL A   1      52.705  28.176  24.094  1.00  0.00     0.198 A 
ATOM     73  C   UNL A   1      53.300  27.698  26.370  1.00  0.00     0.198 A 
ATOM     74  F   UNL A   1      51.628  27.563  28.020  1.00  0.00    -0.203 F 
ATOM     75  F   UNL A   1      53.062  28.351  22.813  1.00  0.00    -0.200 F 
ATOM     76  C   UNL A   1      53.672  27.898  25.049  1.00  0.00     0.200 A 
ATOM     77  F   UNL A   1      54.234  27.439  27.297  1.00  0.00    -0.200 F 
ATOM     78  F   UNL A   1      54.963  27.820  24.696  1.00  0.00    -0.200 F 
ENDBRANCH  54  68
BRANCH  55  79
ATOM     79  C   UNL A   1      41.339  28.479  28.397  1.00  0.00     0.064 A 
ATOM     80  C   UNL A   1      40.936  28.048  29.668  1.00  0.00     0.173 A 
ATOM     81  C   UNL A   1      40.353  28.964  27.527  1.00  0.00     0.173 A 
ATOM     82  F   UNL A   1      41.840  27.552  30.525  1.00  0.00    -0.203 F 
ATOM     83  C   UNL A   1      39.596  28.085  30.046  1.00  0.00     0.198 A 
ATOM     84  C   UNL A   1      39.017  29.025  27.916  1.00  0.00     0.198 A 
ATOM     85  F   UNL A   1      40.689  29.388  26.299  1.00  0.00    -0.203 F 
ATOM     86  F   UNL A   1      39.229  27.626  31.251  1.00  0.00    -0.200 F 
ATOM     87  C   UNL A   1      38.639  28.579  29.173  1.00  0.00     0.200 A 
ATOM     88  F   UNL A   1      38.098  29.513  27.073  1.00  0.00    -0.200 F 
ATOM     89  F   UNL A   1      37.350  28.616  29.539  1.00  0.00    -0.200 F 
ENDBRANCH  55  79
BRANCH  67  90
ATOM     90  C   UNL A   1      46.646  32.969  28.811  1.00  0.00     0.064 A 
ATOM     91  C   UNL A   1      46.403  34.072  27.981  1.00  0.00     0.173 A 
ATOM     92  C   UNL A   1      46.951  33.210  30.159  1.00  0.00     0.173 A 
ATOM     93  F   UNL A   1      46.122  33.892  26.682  1.00  0.00    -0.203 F 
ATOM     94  C   UNL A   1      46.482  35.370  28.479  1.00  0.00     0.198 A 
ATOM     95  C   UNL A   1      47.006  34.508  30.658  1.00  0.00     0.198 A 
ATOM     96  F   UNL A   1      47.188  32.185  30.991  1.00  0.00    -0.203 F 
ATOM     97  F   UNL A   1      46.284  36.413  27.660  1.00  0.00    -0.200 F 
ATOM     98  C   UNL A   1      46.777  35.586  29.817  1.00  0.00     0.200 A 
ATOM     99  F   UNL A   1      47.284  34.716  31.952  1.00  0.00    -0.200 F 
ATOM    100  F   UNL A   1      46.848  36.836  30.294  1.00  0.00    -0.200 F 
ENDBRANCH  67  90
ENDBRANCH  41  42
ENDBRANCH  34  36
ENDBRANCH  33  34
ENDBRANCH  32  33
ENDBRANCH  31  32
ENDBRANCH  30  31
ENDBRANCH  28  30
ENDBRANCH   1  28
TORSDOF 19
ENDMDL
MODEL 2
REMARK VINA RESULT:     -11.2      7.059     12.339
REMARK SMILES CCCCCCNC(=O)Nc1cccc(-c2ccc([C@@H](C)C(=O)OCCOC(=O)c3ccc(-c4c5nc(c(-c6c(F)c(F)c(F)c(F)c6F)c6ccc([nH]6)c(-c6c(F)c(F)c(F)c(F)c6F)c6nc(c(-c7c(F)c(F)c(F)c(F)c7F)c7ccc4[nH]7)C=C6)C=C5)cc3)cc2F)c1
REMARK SMILES IDX 20 1 21 2 19 3 16 4 17 5 94 6 18 7 93 8 95 9 15 10 11 11
REMARK SMILES IDX 12 12 96 13 13 14 14 15 10 16 7 17 8 18 9 20 6 22 5 23 4 24
REMARK SMILES IDX 3 25 2 26 1 27 22 28 23 29 24 30 25 31 26 32 27 33 28 34
REMARK SMILES IDX 29 35 30 36 31 37 92 38 32 39 91 40 33 41 34 42 35 43 85 44
REMARK SMILES IDX 36 45 90 46 84 47 86 48 37 49 89 50 83 51 82 52 38 54 70 55
REMARK SMILES IDX 50 56 69 57 51 58 54 59 68 60 87 61 52 62 53 63 67 65 88 66
REMARK SMILES IDX 55 67 39 68 40 69 48 70 41 71 42 72 46 73 49 74 43 75 44 76
REMARK SMILES IDX 47 77 45 78 71 79 72 80 80 81 73 82 74 83 78 84 81 85 75 86
REMARK SMILES IDX 76 87 79 88 77 89 56 90 57 91 65 92 58 93 59 94 63 95 66 96
REMARK SMILES IDX 60 97 61 98 64 99 62 100
REMARK H PARENT 7 19 10 21 86 53 54 64
REMARK Flexibility Score: inf
ROOT
ATOM      1  C   UNL A   1      35.413  31.763  28.380  1.00  0.00     0.126 C 
ATOM      2  C   UNL A   1      36.891  31.564  28.050  1.00  0.00     0.025 C 
ENDROOT
BRANCH   1   3
ATOM      3  C   UNL A   1      34.520  30.779  27.639  1.00  0.00    -0.031 A 
ATOM      4  C   UNL A   1      32.739  28.916  26.422  1.00  0.00     0.018 A 
ATOM      5  C   UNL A   1      34.067  28.568  26.721  1.00  0.00     0.012 A 
ATOM      6  C   UNL A   1      32.339  30.225  26.709  1.00  0.00     0.131 A 
ATOM      7  C   UNL A   1      34.945  29.483  27.318  1.00  0.00     0.005 A 
ATOM      8  C   UNL A   1      33.204  31.141  27.311  1.00  0.00     0.044 A 
ATOM      9  F   UNL A   1      31.087  30.626  26.440  1.00  0.00    -0.206 F 
BRANCH   4  10
ATOM     10  C   UNL A   1      31.821  27.932  25.829  1.00  0.00    -0.013 A 
ATOM     11  C   UNL A   1      30.643  25.797  25.954  1.00  0.00     0.043 A 
ATOM     12  C   UNL A   1      29.981  26.083  24.760  1.00  0.00     0.026 A 
ATOM     13  C   UNL A   1      31.609  26.685  26.438  1.00  0.00     0.035 A 
ATOM     14  C   UNL A   1      30.194  27.304  24.125  1.00  0.00     0.003 A 
ATOM     15  C   UNL A   1      31.092  28.228  24.667  1.00  0.00     0.009 A 
BRANCH  11  16
ATOM     16  N   UNL A   1      30.287  24.627  26.643  1.00  0.00    -0.308 N 
ATOM     17  N   UNL A   1      31.613  22.935  25.653  1.00  0.00    -0.338 N 
ATOM     18  C   UNL A   1      30.513  23.324  26.343  1.00  0.00     0.319 C 
ATOM     19  H   UNL A   1      31.592  22.008  25.322  1.00  0.00     0.165 HD
ATOM     20  O   UNL A   1      29.762  22.456  26.791  1.00  0.00    -0.249 OA
ATOM     21  H   UNL A   1      29.793  24.777  27.481  1.00  0.00     0.171 HD
BRANCH  17  22
ATOM     22  C   UNL A   1      32.820  23.678  25.329  1.00  0.00     0.117 C 
BRANCH  22  23
ATOM     23  C   UNL A   1      33.408  23.336  23.964  1.00  0.00     0.021 C 
BRANCH  23  24
ATOM     24  C   UNL A   1      34.192  24.456  23.278  1.00  0.00     0.002 C 
BRANCH  24  25
ATOM     25  C   UNL A   1      33.687  25.883  23.520  1.00  0.00    -0.000 C 
BRANCH  25  26
ATOM     26  C   UNL A   1      33.395  26.715  22.270  1.00  0.00    -0.003 C 
ATOM     27  C   UNL A   1      33.982  28.117  22.312  1.00  0.00     0.004 C 
ENDBRANCH  25  26
ENDBRANCH  24  25
ENDBRANCH  23  24
ENDBRANCH  22  23
ENDBRANCH  17  22
ENDBRANCH  11  16
ENDBRANCH   4  10
ENDBRANCH   1   3
BRANCH   1  28
ATOM     28  C   UNL A   1      35.058  33.238  28.268  1.00  0.00     0.313 C 
ATOM     29  O   UNL A   1      35.426  33.918  27.313  1.00  0.00    -0.252 OA
BRANCH  28  30
ATOM     30  O   UNL A   1      34.267  33.700  29.272  1.00  0.00    -0.462 OA
BRANCH  30  31
ATOM     31  C   UNL A   1      33.235  34.632  28.891  1.00  0.00     0.274 C 
BRANCH  31  32
ATOM     32  C   UNL A   1      33.023  35.726  29.938  1.00  0.00     0.275 C 
BRANCH  32  33
ATOM     33  O   UNL A   1      32.343  35.228  31.104  1.00  0.00    -0.458 OA
BRANCH  33  34
ATOM     34  C   UNL A   1      32.740  35.778  32.275  1.00  0.00     0.338 C 
ATOM     35  O   UNL A   1      32.196  36.665  32.908  1.00  0.00    -0.246 OA
BRANCH  34  36
ATOM     36  C   UNL A   1      33.917  35.053  32.772  1.00  0.00     0.060 A 
ATOM     37  C   UNL A   1      35.162  35.673  32.665  1.00  0.00     0.016 A 
ATOM     38  C   UNL A   1      33.810  33.748  33.254  1.00  0.00     0.016 A 
ATOM     39  C   UNL A   1      36.317  34.987  33.022  1.00  0.00     0.010 A 
ATOM     40  C   UNL A   1      34.971  33.063  33.628  1.00  0.00     0.010 A 
ATOM     41  C   UNL A   1      36.231  33.673  33.499  1.00  0.00    -0.014 A 
BRANCH  41  42
ATOM     42  C   UNL A   1      37.475  32.933  33.816  1.00  0.00     0.031 A 
ATOM     43  C   UNL A   1      38.193  33.196  35.107  1.00  0.00     0.074 A 
ATOM     44  C   UNL A   1      37.933  31.999  32.963  1.00  0.00     0.049 A 
ATOM     45  N   UNL A   1      39.320  32.694  35.546  1.00  0.00    -0.248 NA
ATOM     46  C   UNL A   1      37.561  34.152  36.031  1.00  0.00     0.031 C 
ATOM     47  C   UNL A   1      37.298  31.629  31.699  1.00  0.00     0.029 A 
ATOM     48  N   UNL A   1      39.038  31.189  33.034  1.00  0.00    -0.354 N 
ATOM     49  C   UNL A   1      39.538  33.280  36.786  1.00  0.00     0.074 A 
ATOM     50  C   UNL A   1      38.437  34.190  37.023  1.00  0.00     0.031 C 
ATOM     51  C   UNL A   1      38.021  30.661  31.113  1.00  0.00     0.029 A 
ATOM     52  C   UNL A   1      39.191  30.373  31.940  1.00  0.00     0.049 A 
ATOM     53  H   UNL A   1      39.662  31.192  33.795  1.00  0.00     0.167 HD
ATOM     54  C   UNL A   1      40.561  33.070  37.647  1.00  0.00     0.037 A 
ATOM     55  C   UNL A   1      40.174  29.508  31.632  1.00  0.00     0.037 A 
ATOM     56  C   UNL A   1      41.645  32.152  37.415  1.00  0.00     0.049 A 
ATOM     57  C   UNL A   1      41.320  29.323  32.590  1.00  0.00     0.074 A 
ATOM     58  C   UNL A   1      42.733  31.877  38.225  1.00  0.00     0.029 A 
ATOM     59  N   UNL A   1      41.774  31.355  36.287  1.00  0.00    -0.354 N 
ATOM     60  N   UNL A   1      41.525  29.894  33.752  1.00  0.00    -0.248 NA
ATOM     61  C   UNL A   1      42.371  28.377  32.192  1.00  0.00     0.031 C 
ATOM     62  C   UNL A   1      43.536  30.933  37.575  1.00  0.00     0.029 A 
ATOM     63  C   UNL A   1      42.929  30.594  36.376  1.00  0.00     0.049 A 
ATOM     64  H   UNL A   1      41.140  31.333  35.536  1.00  0.00     0.167 HD
ATOM     65  C   UNL A   1      42.716  29.366  34.232  1.00  0.00     0.074 A 
ATOM     66  C   UNL A   1      43.179  28.415  33.243  1.00  0.00     0.031 C 
ATOM     67  C   UNL A   1      43.370  29.648  35.384  1.00  0.00     0.037 A 
BRANCH  54  68
ATOM     68  C   UNL A   1      40.566  33.863  38.919  1.00  0.00     0.064 A 
ATOM     69  C   UNL A   1      39.886  33.420  40.063  1.00  0.00     0.173 A 
ATOM     70  C   UNL A   1      41.296  35.058  39.007  1.00  0.00     0.173 A 
ATOM     71  F   UNL A   1      39.166  32.289  40.024  1.00  0.00    -0.203 F 
ATOM     72  C   UNL A   1      39.924  34.155  41.245  1.00  0.00     0.198 A 
ATOM     73  C   UNL A   1      41.349  35.778  40.197  1.00  0.00     0.198 A 
ATOM     74  F   UNL A   1      41.966  35.520  37.941  1.00  0.00    -0.203 F 
ATOM     75  F   UNL A   1      39.242  33.730  42.318  1.00  0.00    -0.200 F 
ATOM     76  C   UNL A   1      40.660  35.328  41.313  1.00  0.00     0.200 A 
ATOM     77  F   UNL A   1      42.070  36.906  40.264  1.00  0.00    -0.200 F 
ATOM     78  F   UNL A   1      40.704  36.029  42.456  1.00  0.00    -0.200 F 
ENDBRANCH  54  68
BRANCH  55  79
ATOM     79  C   UNL A   1      40.130  28.763  30.347  1.00  0.00     0.064 A 
ATOM     80  C   UNL A   1      40.691  29.300  29.180  1.00  0.00     0.173 A 
ATOM     81  C   UNL A   1      39.519  27.504  30.261  1.00  0.00     0.173 A 
ATOM     82  F   UNL A   1      41.263  30.512  29.210  1.00  0.00    -0.203 F 
ATOM     83  C   UNL A   1      40.628  28.611  27.971  1.00  0.00     0.198 A 
ATOM     84  C   UNL A   1      39.481  26.804  29.057  1.00  0.00     0.198 A 
ATOM     85  F   UNL A   1      38.967  26.948  31.349  1.00  0.00    -0.203 F 
ATOM     86  F   UNL A   1      41.134  29.164  26.861  1.00  0.00    -0.200 F 
ATOM     87  C   UNL A   1      40.030  27.361  27.912  1.00  0.00     0.200 A 
ATOM     88  F   UNL A   1      38.910  25.594  29.007  1.00  0.00    -0.200 F 
ATOM     89  F   UNL A   1      39.972  26.698  26.749  1.00  0.00    -0.200 F 
ENDBRANCH  55  79
BRANCH  67  90
ATOM     90  C   UNL A   1      44.642  28.901  35.649  1.00  0.00     0.064 A 
ATOM     91  C   UNL A   1      45.883  29.400  35.229  1.00  0.00     0.173 A 
ATOM     92  C   UNL A   1      44.622  27.694  36.363  1.00  0.00     0.173 A 
ATOM     93  F   UNL A   1      45.950  30.543  34.530  1.00  0.00    -0.203 F 
ATOM     94  C   UNL A   1      47.060  28.706  35.498  1.00  0.00     0.198 A 
ATOM     95  C   UNL A   1      45.803  27.015  36.650  1.00  0.00     0.198 A 
ATOM     96  F   UNL A   1      43.459  27.179  36.788  1.00  0.00    -0.203 F 
ATOM     97  F   UNL A   1      48.232  29.180  35.054  1.00  0.00    -0.200 F 
ATOM     98  C   UNL A   1      47.019  27.517  36.213  1.00  0.00     0.200 A 
ATOM     99  F   UNL A   1      45.763  25.871  37.347  1.00  0.00    -0.200 F 
ATOM    100  F   UNL A   1      48.153  26.853  36.473  1.00  0.00    -0.200 F 
ENDBRANCH  67  90
ENDBRANCH  41  42
ENDBRANCH  34  36
ENDBRANCH  33  34
ENDBRANCH  32  33
ENDBRANCH  31  32
ENDBRANCH  30  31
ENDBRANCH  28  30
ENDBRANCH   1  28
TORSDOF 19
ENDMDL
MODEL 3
REMARK VINA RESULT:     -11.1      7.137     12.442
REMARK SMILES CCCCCCNC(=O)Nc1cccc(-c2ccc([C@@H](C)C(=O)OCCOC(=O)c3ccc(-c4c5nc(c(-c6c(F)c(F)c(F)c(F)c6F)c6ccc([nH]6)c(-c6c(F)c(F)c(F)c(F)c6F)c6nc(c(-c7c(F)c(F)c(F)c(F)c7F)c7ccc4[nH]7)C=C6)C=C5)cc3)cc2F)c1
REMARK SMILES IDX 20 1 21 2 19 3 16 4 17 5 94 6 18 7 93 8 95 9 15 10 11 11
REMARK SMILES IDX 12 12 96 13 13 14 14 15 10 16 7 17 8 18 9 20 6 22 5 23 4 24
REMARK SMILES IDX 3 25 2 26 1 27 22 28 23 29 24 30 25 31 26 32 27 33 28 34
REMARK SMILES IDX 29 35 30 36 31 37 92 38 32 39 91 40 33 41 34 42 35 43 85 44
REMARK SMILES IDX 36 45 90 46 84 47 86 48 37 49 89 50 83 51 82 52 38 54 70 55
REMARK SMILES IDX 50 56 69 57 51 58 54 59 68 60 87 61 52 62 53 63 67 65 88 66
REMARK SMILES IDX 55 67 39 68 40 69 48 70 41 71 42 72 46 73 49 74 43 75 44 76
REMARK SMILES IDX 47 77 45 78 71 79 72 80 80 81 73 82 74 83 78 84 81 85 75 86
REMARK SMILES IDX 76 87 79 88 77 89 56 90 57 91 65 92 58 93 59 94 63 95 66 96
REMARK SMILES IDX 60 97 61 98 64 99 62 100
REMARK H PARENT 7 19 10 21 86 53 54 64
REMARK Flexibility Score: inf
ROOT
ATOM      1  C   UNL A   1      35.590  32.933  28.704  1.00  0.00     0.126 C 
ATOM      2  C   UNL A   1      37.112  33.058  28.648  1.00  0.00     0.025 C 
ENDROOT
BRANCH   1   3
ATOM      3  C   UNL A   1      35.085  31.714  27.947  1.00  0.00    -0.031 A 
ATOM      4  C   UNL A   1      34.033  29.379  26.695  1.00  0.00     0.018 A 
ATOM      5  C   UNL A   1      35.388  29.467  27.056  1.00  0.00     0.012 A 
ATOM      6  C   UNL A   1      33.231  30.499  26.939  1.00  0.00     0.131 A 
ATOM      7  C   UNL A   1      35.907  30.615  27.670  1.00  0.00     0.005 A 
ATOM      8  C   UNL A   1      33.738  31.643  27.558  1.00  0.00     0.044 A 
ATOM      9  F   UNL A   1      31.930  30.485  26.611  1.00  0.00    -0.206 F 
BRANCH   4  10
ATOM     10  C   UNL A   1      33.497  28.153  26.084  1.00  0.00    -0.013 A 
ATOM     11  C   UNL A   1      33.276  26.675  24.154  1.00  0.00     0.043 A 
ATOM     12  C   UNL A   1      32.569  25.755  24.928  1.00  0.00     0.026 A 
ATOM     13  C   UNL A   1      33.668  27.894  24.715  1.00  0.00     0.035 A 
ATOM     14  C   UNL A   1      32.366  26.002  26.285  1.00  0.00     0.003 A 
ATOM     15  C   UNL A   1      32.845  27.183  26.861  1.00  0.00     0.009 A 
BRANCH  11  16
ATOM     16  N   UNL A   1      33.594  26.320  22.834  1.00  0.00    -0.308 N 
ATOM     17  N   UNL A   1      31.641  26.836  21.601  1.00  0.00    -0.338 N 
ATOM     18  C   UNL A   1      32.795  26.142  21.753  1.00  0.00     0.319 C 
ATOM     19  H   UNL A   1      31.043  26.503  20.892  1.00  0.00     0.165 HD
ATOM     20  O   UNL A   1      33.167  25.412  20.833  1.00  0.00    -0.249 OA
ATOM     21  H   UNL A   1      34.553  26.179  22.664  1.00  0.00     0.171 HD
BRANCH  17  22
ATOM     22  C   UNL A   1      31.151  27.998  22.324  1.00  0.00     0.117 C 
BRANCH  22  23
ATOM     23  C   UNL A   1      29.812  27.774  23.019  1.00  0.00     0.021 C 
BRANCH  23  24
ATOM     24  C   UNL A   1      28.790  28.902  22.873  1.00  0.00     0.002 C 
BRANCH  24  25
ATOM     25  C   UNL A   1      29.198  30.264  23.445  1.00  0.00    -0.000 C 
BRANCH  25  26
ATOM     26  C   UNL A   1      28.144  31.371  23.367  1.00  0.00    -0.003 C 
ATOM     27  C   UNL A   1      28.712  32.740  23.029  1.00  0.00     0.004 C 
ENDBRANCH  25  26
ENDBRANCH  24  25
ENDBRANCH  23  24
ENDBRANCH  22  23
ENDBRANCH  17  22
ENDBRANCH  11  16
ENDBRANCH   4  10
ENDBRANCH   1   3
BRANCH   1  28
ATOM     28  C   UNL A   1      34.953  34.272  28.364  1.00  0.00     0.313 C 
ATOM     29  O   UNL A   1      34.861  34.663  27.203  1.00  0.00    -0.252 OA
BRANCH  28  30
ATOM     30  O   UNL A   1      34.458  34.944  29.436  1.00  0.00    -0.462 OA
BRANCH  30  31
ATOM     31  C   UNL A   1      33.035  35.174  29.441  1.00  0.00     0.274 C 
BRANCH  31  32
ATOM     32  C   UNL A   1      32.661  36.488  30.128  1.00  0.00     0.275 C 
BRANCH  32  33
ATOM     33  O   UNL A   1      33.211  36.577  31.454  1.00  0.00    -0.458 OA
BRANCH  33  34
ATOM     34  C   UNL A   1      32.826  35.593  32.299  1.00  0.00     0.338 C 
ATOM     35  O   UNL A   1      31.692  35.246  32.577  1.00  0.00    -0.246 OA
BRANCH  34  36
ATOM     36  C   UNL A   1      34.016  34.881  32.781  1.00  0.00     0.060 A 
ATOM     37  C   UNL A   1      35.257  35.501  32.630  1.00  0.00     0.016 A 
ATOM     38  C   UNL A   1      33.926  33.586  33.294  1.00  0.00     0.016 A 
ATOM     39  C   UNL A   1      36.423  34.824  32.972  1.00  0.00     0.010 A 
ATOM     40  C   UNL A   1      35.096  32.911  33.652  1.00  0.00     0.010 A 
ATOM     41  C   UNL A   1      36.352  33.521  33.479  1.00  0.00    -0.014 A 
BRANCH  41  42
ATOM     42  C   UNL A   1      37.605  32.790  33.780  1.00  0.00     0.031 A 
ATOM     43  C   UNL A   1      38.337  33.058  35.062  1.00  0.00     0.074 A 
ATOM     44  C   UNL A   1      38.060  31.859  32.921  1.00  0.00     0.049 A 
ATOM     45  N   UNL A   1      39.473  32.564  35.487  1.00  0.00    -0.248 NA
ATOM     46  C   UNL A   1      37.709  34.008  35.994  1.00  0.00     0.031 C 
ATOM     47  C   UNL A   1      37.411  31.486  31.665  1.00  0.00     0.029 A 
ATOM     48  N   UNL A   1      39.171  31.058  32.977  1.00  0.00    -0.354 N 
ATOM     49  C   UNL A   1      39.702  33.150  36.724  1.00  0.00     0.074 A 
ATOM     50  C   UNL A   1      38.598  34.052  36.976  1.00  0.00     0.031 C 
ATOM     51  C   UNL A   1      38.134  30.523  31.069  1.00  0.00     0.029 A 
ATOM     52  C   UNL A   1      39.317  30.243  31.881  1.00  0.00     0.049 A 
ATOM     53  H   UNL A   1      39.805  31.065  33.731  1.00  0.00     0.167 HD
ATOM     54  C   UNL A   1      40.737  32.948  37.572  1.00  0.00     0.037 A 
ATOM     55  C   UNL A   1      40.302  29.386  31.561  1.00  0.00     0.037 A 
ATOM     56  C   UNL A   1      41.825  32.038  37.327  1.00  0.00     0.049 A 
ATOM     57  C   UNL A   1      41.461  29.209  32.504  1.00  0.00     0.074 A 
ATOM     58  C   UNL A   1      42.925  31.771  38.123  1.00  0.00     0.029 A 
ATOM     59  N   UNL A   1      41.947  31.243  36.196  1.00  0.00    -0.354 N 
ATOM     60  N   UNL A   1      41.676  29.781  33.664  1.00  0.00    -0.248 NA
ATOM     61  C   UNL A   1      42.514  28.271  32.093  1.00  0.00     0.031 C 
ATOM     62  C   UNL A   1      43.727  30.834  37.462  1.00  0.00     0.029 A 
ATOM     63  C   UNL A   1      43.108  30.490  36.271  1.00  0.00     0.049 A 
ATOM     64  H   UNL A   1      41.303  31.216  35.453  1.00  0.00     0.167 HD
ATOM     65  C   UNL A   1      42.877  29.262  34.128  1.00  0.00     0.074 A 
ATOM     66  C   UNL A   1      43.335  28.315  33.133  1.00  0.00     0.031 C 
ATOM     67  C   UNL A   1      43.543  29.548  35.273  1.00  0.00     0.037 A 
BRANCH  54  68
ATOM     68  C   UNL A   1      40.752  33.740  38.845  1.00  0.00     0.064 A 
ATOM     69  C   UNL A   1      40.045  33.320  39.980  1.00  0.00     0.173 A 
ATOM     70  C   UNL A   1      41.519  34.911  38.942  1.00  0.00     0.173 A 
ATOM     71  F   UNL A   1      39.289  32.213  39.932  1.00  0.00    -0.203 F 
ATOM     72  C   UNL A   1      40.091  34.053  41.163  1.00  0.00     0.198 A 
ATOM     73  C   UNL A   1      41.581  35.629  40.133  1.00  0.00     0.198 A 
ATOM     74  F   UNL A   1      42.217  35.351  37.885  1.00  0.00    -0.203 F 
ATOM     75  F   UNL A   1      39.383  33.650  42.227  1.00  0.00    -0.200 F 
ATOM     76  C   UNL A   1      40.864  35.202  41.241  1.00  0.00     0.200 A 
ATOM     77  F   UNL A   1      42.337  36.734  40.209  1.00  0.00    -0.200 F 
ATOM     78  F   UNL A   1      40.916  35.901  42.384  1.00  0.00    -0.200 F 
ENDBRANCH  54  68
BRANCH  55  79
ATOM     79  C   UNL A   1      40.248  28.642  30.276  1.00  0.00     0.064 A 
ATOM     80  C   UNL A   1      40.878  29.136  29.126  1.00  0.00     0.173 A 
ATOM     81  C   UNL A   1      39.558  27.425  30.173  1.00  0.00     0.173 A 
ATOM     82  F   UNL A   1      41.528  30.308  29.171  1.00  0.00    -0.203 F 
ATOM     83  C   UNL A   1      40.807  28.448  27.917  1.00  0.00     0.198 A 
ATOM     84  C   UNL A   1      39.510  26.726  28.969  1.00  0.00     0.198 A 
ATOM     85  F   UNL A   1      38.937  26.911  31.245  1.00  0.00    -0.203 F 
ATOM     86  F   UNL A   1      41.381  28.963  26.821  1.00  0.00    -0.200 F 
ATOM     87  C   UNL A   1      40.128  27.241  27.841  1.00  0.00     0.200 A 
ATOM     88  F   UNL A   1      38.861  25.555  28.903  1.00  0.00    -0.200 F 
ATOM     89  F   UNL A   1      40.062  26.580  26.677  1.00  0.00    -0.200 F 
ENDBRANCH  55  79
BRANCH  67  90
ATOM     90  C   UNL A   1      44.824  28.811  35.522  1.00  0.00     0.064 A 
ATOM     91  C   UNL A   1      46.057  29.324  35.094  1.00  0.00     0.173 A 
ATOM     92  C   UNL A   1      44.822  27.599  36.227  1.00  0.00     0.173 A 
ATOM     93  F   UNL A   1      46.108  30.472  34.402  1.00  0.00    -0.203 F 
ATOM     94  C   UNL A   1      47.242  28.638  35.348  1.00  0.00     0.198 A 
ATOM     95  C   UNL A   1      46.010  26.928  36.499  1.00  0.00     0.198 A 
ATOM     96  F   UNL A   1      43.667  27.071  36.659  1.00  0.00    -0.203 F 
ATOM     97  F   UNL A   1      48.406  29.125  34.897  1.00  0.00    -0.200 F 
ATOM     98  C   UNL A   1      47.218  27.444  36.055  1.00  0.00     0.200 A 
ATOM     99  F   UNL A   1      45.987  25.779  37.188  1.00  0.00    -0.200 F 
ATOM    100  F   UNL A   1      48.360  26.788  36.301  1.00  0.00    -0.200 F 
ENDBRANCH  67  90
ENDBRANCH  41  42
ENDBRANCH  34  36
ENDBRANCH  33  34
ENDBRANCH  32  33
ENDBRANCH  31  32
ENDBRANCH  30  31
ENDBRANCH  28  30
ENDBRANCH   1  28
TORSDOF 19
ENDMDL
