MODEL 1
REMARK VINA RESULT:     -11.1      0.000      0.000
REMARK SMILES CC(C)CC[C@@H](C(=O)OCCOC(=O)c1ccc(-c2c3nc(c(-c4c(F)c(F)c(F)c(F)c4F)c4ccc([nH]4)c(-c4c(F)c(F)c(F)c(F)c4F)c4nc(c(-c5c(F)c(F)c(F)c(F)c5F)c5ccc2[nH]5)C=C4)C=C3)cc1)c1ccc(Br)cc1
REMARK SMILES IDX 10 1 9 2 7 3 8 4 6 5 5 6 4 7 2 8 1 9 3 10 78 11 79 12 84 13
REMARK SMILES IDX 80 14 83 15 81 16 82 17 11 18 12 19 13 20 14 21 15 22 16 23
REMARK SMILES IDX 77 24 17 25 76 26 18 27 19 28 20 29 70 30 21 31 75 32 69 33
REMARK SMILES IDX 71 34 22 35 74 36 68 37 67 38 23 40 55 41 35 42 54 43 36 44
REMARK SMILES IDX 39 45 53 46 72 47 37 48 38 49 52 51 73 52 40 53 24 54 25 55
REMARK SMILES IDX 33 56 26 57 27 58 31 59 34 60 28 61 29 62 32 63 30 64 56 65
REMARK SMILES IDX 57 66 65 67 58 68 59 69 63 70 66 71 60 72 61 73 64 74 62 75
REMARK SMILES IDX 41 76 42 77 50 78 43 79 44 80 48 81 51 82 45 83 46 84 49 85
REMARK SMILES IDX 47 86
REMARK H PARENT 71 39 39 50
REMARK Flexibility Score: inf
ROOT
ATOM      1  C   UNL A   1      31.789  28.306  27.547  1.00  0.00     0.274 C 
ENDROOT
BRANCH   1   2
ATOM      2  O   UNL A   1      32.593  27.424  26.738  1.00  0.00    -0.462 OA
BRANCH   2   3
ATOM      3  C   UNL A   1      31.991  26.331  26.206  1.00  0.00     0.313 C 
ATOM      4  O   UNL A   1      31.425  25.475  26.879  1.00  0.00    -0.252 OA
BRANCH   3   5
ATOM      5  C   UNL A   1      32.146  26.247  24.674  1.00  0.00     0.129 C 
BRANCH   5   6
ATOM      6  C   UNL A   1      33.604  26.363  24.157  1.00  0.00     0.020 C 
BRANCH   6   7
ATOM      7  C   UNL A   1      33.956  25.650  22.839  1.00  0.00     0.004 C 
BRANCH   7   8
ATOM      8  C   UNL A   1      32.813  24.885  22.154  1.00  0.00    -0.017 C 
ATOM      9  C   UNL A   1      32.496  25.457  20.772  1.00  0.00     0.007 C 
ATOM     10  C   UNL A   1      33.179  23.403  22.038  1.00  0.00     0.007 C 
ENDBRANCH   7   8
ENDBRANCH   6   7
ENDBRANCH   5   6
BRANCH   5  11
ATOM     11  C   UNL A   1      31.181  27.216  23.960  1.00  0.00    -0.034 A 
ATOM     12  C   UNL A   1      31.595  28.426  23.375  1.00  0.00     0.006 A 
ATOM     13  C   UNL A   1      29.812  26.891  23.895  1.00  0.00     0.006 A 
ATOM     14  C   UNL A   1      30.676  29.275  22.748  1.00  0.00     0.016 A 
ATOM     15  C   UNL A   1      28.890  27.747  23.284  1.00  0.00     0.016 A 
ATOM     16  C   UNL A   1      29.328  28.936  22.712  1.00  0.00     0.017 A 
ATOM     17  Br  UNL A   1      28.082  30.118  21.924  1.00  0.00    -0.051 Br
ENDBRANCH   5  11
ENDBRANCH   3   5
ENDBRANCH   2   3
ENDBRANCH   1   2
BRANCH   1  18
ATOM     18  C   UNL A   1      31.759  29.694  26.918  1.00  0.00     0.275 C 
BRANCH  18  19
ATOM     19  O   UNL A   1      33.100  30.080  26.576  1.00  0.00    -0.458 OA
BRANCH  19  20
ATOM     20  C   UNL A   1      33.556  31.208  27.165  1.00  0.00     0.338 C 
ATOM     21  O   UNL A   1      32.995  32.283  27.272  1.00  0.00    -0.246 OA
BRANCH  20  22
ATOM     22  C   UNL A   1      34.887  30.939  27.723  1.00  0.00     0.060 A 
ATOM     23  C   UNL A   1      35.226  29.636  28.080  1.00  0.00     0.016 A 
ATOM     24  C   UNL A   1      35.755  31.996  27.994  1.00  0.00     0.016 A 
ATOM     25  C   UNL A   1      36.402  29.392  28.782  1.00  0.00     0.010 A 
ATOM     26  C   UNL A   1      36.972  31.733  28.629  1.00  0.00     0.010 A 
ATOM     27  C   UNL A   1      37.294  30.434  29.064  1.00  0.00    -0.014 A 
BRANCH  27  28
ATOM     28  C   UNL A   1      38.524  30.195  29.868  1.00  0.00     0.031 A 
ATOM     29  C   UNL A   1      39.627  29.349  29.295  1.00  0.00     0.074 A 
ATOM     30  C   UNL A   1      38.675  30.728  31.096  1.00  0.00     0.049 A 
ATOM     31  N   UNL A   1      40.627  28.763  29.900  1.00  0.00    -0.248 NA
ATOM     32  C   UNL A   1      39.591  29.124  27.840  1.00  0.00     0.031 C 
ATOM     33  C   UNL A   1      37.746  31.650  31.748  1.00  0.00     0.029 A 
ATOM     34  N   UNL A   1      39.679  30.564  32.019  1.00  0.00    -0.354 N 
ATOM     35  C   UNL A   1      41.293  28.041  28.918  1.00  0.00     0.074 A 
ATOM     36  C   UNL A   1      40.598  28.278  27.672  1.00  0.00     0.031 C 
ATOM     37  C   UNL A   1      38.237  31.994  32.949  1.00  0.00     0.029 A 
ATOM     38  C   UNL A   1      39.460  31.238  33.195  1.00  0.00     0.049 A 
ATOM     39  H   UNL A   1      40.481  30.015  31.853  1.00  0.00     0.167 HD
ATOM     40  C   UNL A   1      42.379  27.243  29.055  1.00  0.00     0.037 A 
ATOM     41  C   UNL A   1      40.133  31.206  34.361  1.00  0.00     0.037 A 
ATOM     42  C   UNL A   1      43.101  27.064  30.287  1.00  0.00     0.049 A 
ATOM     43  C   UNL A   1      41.313  30.285  34.503  1.00  0.00     0.074 A 
ATOM     44  C   UNL A   1      44.183  26.241  30.547  1.00  0.00     0.029 A 
ATOM     45  N   UNL A   1      42.832  27.754  31.459  1.00  0.00    -0.354 N 
ATOM     46  N   UNL A   1      41.854  29.490  33.613  1.00  0.00    -0.248 NA
ATOM     47  C   UNL A   1      41.955  30.230  35.825  1.00  0.00     0.031 C 
ATOM     48  C   UNL A   1      44.560  26.423  31.882  1.00  0.00     0.029 A 
ATOM     49  C   UNL A   1      43.733  27.383  32.443  1.00  0.00     0.049 A 
ATOM     50  H   UNL A   1      42.107  28.409  31.575  1.00  0.00     0.167 HD
ATOM     51  C   UNL A   1      42.906  28.855  34.258  1.00  0.00     0.074 A 
ATOM     52  C   UNL A   1      42.937  29.366  35.612  1.00  0.00     0.031 C 
ATOM     53  C   UNL A   1      43.763  27.924  33.775  1.00  0.00     0.037 A 
BRANCH  40  54
ATOM     54  C   UNL A   1      42.829  26.469  27.853  1.00  0.00     0.064 A 
ATOM     55  C   UNL A   1      42.300  25.209  27.540  1.00  0.00     0.173 A 
ATOM     56  C   UNL A   1      43.777  27.020  26.977  1.00  0.00     0.173 A 
ATOM     57  F   UNL A   1      41.404  24.632  28.355  1.00  0.00    -0.203 F 
ATOM     58  C   UNL A   1      42.716  24.522  26.403  1.00  0.00     0.198 A 
ATOM     59  C   UNL A   1      44.173  26.341  25.829  1.00  0.00     0.198 A 
ATOM     60  F   UNL A   1      44.312  28.224  27.230  1.00  0.00    -0.203 F 
ATOM     61  F   UNL A   1      42.225  23.302  26.141  1.00  0.00    -0.200 F 
ATOM     62  C   UNL A   1      43.646  25.091  25.544  1.00  0.00     0.200 A 
ATOM     63  F   UNL A   1      45.064  26.897  24.996  1.00  0.00    -0.200 F 
ATOM     64  F   UNL A   1      44.038  24.431  24.446  1.00  0.00    -0.200 F 
ENDBRANCH  40  54
BRANCH  41  65
ATOM     65  C   UNL A   1      39.671  32.030  35.508  1.00  0.00     0.064 A 
ATOM     66  C   UNL A   1      38.689  31.551  36.387  1.00  0.00     0.173 A 
ATOM     67  C   UNL A   1      40.190  33.312  35.745  1.00  0.00     0.173 A 
ATOM     68  F   UNL A   1      38.139  30.346  36.183  1.00  0.00    -0.203 F 
ATOM     69  C   UNL A   1      38.239  32.326  37.453  1.00  0.00     0.198 A 
ATOM     70  C   UNL A   1      39.762  34.073  36.829  1.00  0.00     0.198 A 
ATOM     71  F   UNL A   1      41.127  33.819  34.930  1.00  0.00    -0.203 F 
ATOM     72  F   UNL A   1      37.269  31.864  38.253  1.00  0.00    -0.200 F 
ATOM     73  C   UNL A   1      38.781  33.583  37.678  1.00  0.00     0.200 A 
ATOM     74  F   UNL A   1      40.296  35.282  37.049  1.00  0.00    -0.200 F 
ATOM     75  F   UNL A   1      38.351  34.326  38.708  1.00  0.00    -0.200 F 
ENDBRANCH  41  65
BRANCH  53  76
ATOM     76  C   UNL A   1      44.836  27.436  34.698  1.00  0.00     0.064 A 
ATOM     77  C   UNL A   1      44.652  26.303  35.502  1.00  0.00     0.173 A 
ATOM     78  C   UNL A   1      46.079  28.086  34.741  1.00  0.00     0.173 A 
ATOM     79  F   UNL A   1      43.475  25.660  35.503  1.00  0.00    -0.203 F 
ATOM     80  C   UNL A   1      45.673  25.845  36.331  1.00  0.00     0.198 A 
ATOM     81  C   UNL A   1      47.103  27.613  35.557  1.00  0.00     0.198 A 
ATOM     82  F   UNL A   1      46.301  29.172  33.986  1.00  0.00    -0.203 F 
ATOM     83  F   UNL A   1      45.468  24.779  37.116  1.00  0.00    -0.200 F 
ATOM     84  C   UNL A   1      46.898  26.497  36.353  1.00  0.00     0.200 A 
ATOM     85  F   UNL A   1      48.288  28.239  35.572  1.00  0.00    -0.200 F 
ATOM     86  F   UNL A   1      47.880  26.049  37.147  1.00  0.00    -0.200 F 
ENDBRANCH  53  76
ENDBRANCH  27  28
ENDBRANCH  20  22
ENDBRANCH  19  20
ENDBRANCH  18  19
ENDBRANCH   1  18
TORSDOF 15
ENDMDL
MODEL 2
REMARK VINA RESULT:     -11.1      4.272      9.713
REMARK SMILES CC(C)CC[C@@H](C(=O)OCCOC(=O)c1ccc(-c2c3nc(c(-c4c(F)c(F)c(F)c(F)c4F)c4ccc([nH]4)c(-c4c(F)c(F)c(F)c(F)c4F)c4nc(c(-c5c(F)c(F)c(F)c(F)c5F)c5ccc2[nH]5)C=C4)C=C3)cc1)c1ccc(Br)cc1
REMARK SMILES IDX 10 1 9 2 7 3 8 4 6 5 5 6 4 7 2 8 1 9 3 10 78 11 79 12 84 13
REMARK SMILES IDX 80 14 83 15 81 16 82 17 11 18 12 19 13 20 14 21 15 22 16 23
REMARK SMILES IDX 77 24 17 25 76 26 18 27 19 28 20 29 70 30 21 31 75 32 69 33
REMARK SMILES IDX 71 34 22 35 74 36 68 37 67 38 23 40 55 41 35 42 54 43 36 44
REMARK SMILES IDX 39 45 53 46 72 47 37 48 38 49 52 51 73 52 40 53 24 54 25 55
REMARK SMILES IDX 33 56 26 57 27 58 31 59 34 60 28 61 29 62 32 63 30 64 56 65
REMARK SMILES IDX 57 66 65 67 58 68 59 69 63 70 66 71 60 72 61 73 64 74 62 75
REMARK SMILES IDX 41 76 42 77 50 78 43 79 44 80 48 81 51 82 45 83 46 84 49 85
REMARK SMILES IDX 47 86
REMARK H PARENT 71 39 39 50
REMARK Flexibility Score: inf
ROOT
ATOM      1  C   UNL A   1      33.903  34.122  29.189  1.00  0.00     0.274 C 
ENDROOT
BRANCH   1   2
ATOM      2  O   UNL A   1      34.027  33.350  30.399  1.00  0.00    -0.462 OA
BRANCH   2   3
ATOM      3  C   UNL A   1      34.817  33.845  31.386  1.00  0.00     0.313 C 
ATOM      4  O   UNL A   1      34.638  34.939  31.912  1.00  0.00    -0.252 OA
BRANCH   3   5
ATOM      5  C   UNL A   1      35.997  32.914  31.734  1.00  0.00     0.129 C 
BRANCH   5   6
ATOM      6  C   UNL A   1      36.121  32.551  33.237  1.00  0.00     0.020 C 
BRANCH   6   7
ATOM      7  C   UNL A   1      37.234  31.570  33.647  1.00  0.00     0.004 C 
BRANCH   7   8
ATOM      8  C   UNL A   1      37.827  31.764  35.051  1.00  0.00    -0.017 C 
ATOM      9  C   UNL A   1      39.330  31.487  35.076  1.00  0.00     0.007 C 
ATOM     10  C   UNL A   1      37.547  33.187  35.539  1.00  0.00     0.007 C 
ENDBRANCH   7   8
ENDBRANCH   6   7
ENDBRANCH   5   6
BRANCH   5  11
ATOM     11  C   UNL A   1      37.318  33.440  31.136  1.00  0.00    -0.034 A 
ATOM     12  C   UNL A   1      38.294  34.112  31.893  1.00  0.00     0.006 A 
ATOM     13  C   UNL A   1      37.567  33.254  29.762  1.00  0.00     0.006 A 
ATOM     14  C   UNL A   1      39.473  34.578  31.299  1.00  0.00     0.016 A 
ATOM     15  C   UNL A   1      38.735  33.735  29.164  1.00  0.00     0.016 A 
ATOM     16  C   UNL A   1      39.684  34.395  29.937  1.00  0.00     0.017 A 
ATOM     17  Br  UNL A   1      41.246  35.085  29.127  1.00  0.00    -0.051 Br
ENDBRANCH   5  11
ENDBRANCH   3   5
ENDBRANCH   2   3
ENDBRANCH   1   2
BRANCH   1  18
ATOM     18  C   UNL A   1      33.728  33.185  27.999  1.00  0.00     0.275 C 
BRANCH  18  19
ATOM     19  O   UNL A   1      34.890  32.345  27.892  1.00  0.00    -0.458 OA
BRANCH  19  20
ATOM     20  C   UNL A   1      34.652  31.016  27.833  1.00  0.00     0.338 C 
ATOM     21  O   UNL A   1      33.620  30.447  27.529  1.00  0.00    -0.246 OA
BRANCH  20  22
ATOM     22  C   UNL A   1      35.891  30.304  28.174  1.00  0.00     0.060 A 
ATOM     23  C   UNL A   1      36.025  29.740  29.440  1.00  0.00     0.016 A 
ATOM     24  C   UNL A   1      36.957  30.294  27.277  1.00  0.00     0.016 A 
ATOM     25  C   UNL A   1      37.255  29.230  29.846  1.00  0.00     0.010 A 
ATOM     26  C   UNL A   1      38.167  29.709  27.662  1.00  0.00     0.010 A 
ATOM     27  C   UNL A   1      38.342  29.204  28.963  1.00  0.00    -0.014 A 
BRANCH  27  28
ATOM     28  C   UNL A   1      39.678  28.719  29.406  1.00  0.00     0.031 A 
ATOM     29  C   UNL A   1      40.479  29.546  30.373  1.00  0.00     0.074 A 
ATOM     30  C   UNL A   1      40.183  27.550  28.967  1.00  0.00     0.049 A 
ATOM     31  N   UNL A   1      41.755  29.492  30.659  1.00  0.00    -0.248 NA
ATOM     32  C   UNL A   1      39.743  30.587  31.112  1.00  0.00     0.031 C 
ATOM     33  C   UNL A   1      39.491  26.588  28.111  1.00  0.00     0.029 A 
ATOM     34  N   UNL A   1      41.411  26.973  29.185  1.00  0.00    -0.354 N 
ATOM     35  C   UNL A   1      41.988  30.532  31.548  1.00  0.00     0.074 A 
ATOM     36  C   UNL A   1      40.720  31.191  31.774  1.00  0.00     0.031 C 
ATOM     37  C   UNL A   1      40.288  25.529  27.902  1.00  0.00     0.029 A 
ATOM     38  C   UNL A   1      41.585  25.784  28.521  1.00  0.00     0.049 A 
ATOM     39  H   UNL A   1      42.101  27.375  29.762  1.00  0.00     0.167 HD
ATOM     40  C   UNL A   1      43.161  30.907  32.112  1.00  0.00     0.037 A 
ATOM     41  C   UNL A   1      42.680  25.013  28.378  1.00  0.00     0.037 A 
ATOM     42  C   UNL A   1      44.405  30.207  31.930  1.00  0.00     0.049 A 
ATOM     43  C   UNL A   1      43.981  25.467  28.979  1.00  0.00     0.074 A 
ATOM     44  C   UNL A   1      45.661  30.529  32.413  1.00  0.00     0.029 A 
ATOM     45  N   UNL A   1      44.539  29.015  31.234  1.00  0.00    -0.354 N 
ATOM     46  N   UNL A   1      44.233  26.532  29.700  1.00  0.00    -0.248 NA
ATOM     47  C   UNL A   1      45.160  24.628  28.717  1.00  0.00     0.031 C 
ATOM     48  C   UNL A   1      46.558  29.539  31.998  1.00  0.00     0.029 A 
ATOM     49  C   UNL A   1      45.853  28.583  31.284  1.00  0.00     0.049 A 
ATOM     50  H   UNL A   1      43.807  28.545  30.773  1.00  0.00     0.167 HD
ATOM     51  C   UNL A   1      45.589  26.484  29.991  1.00  0.00     0.074 A 
ATOM     52  C   UNL A   1      46.107  25.278  29.380  1.00  0.00     0.031 C 
ATOM     53  C   UNL A   1      46.340  27.366  30.692  1.00  0.00     0.037 A 
BRANCH  40  54
ATOM     54  C   UNL A   1      43.167  32.154  32.943  1.00  0.00     0.064 A 
ATOM     55  C   UNL A   1      43.293  33.427  32.372  1.00  0.00     0.173 A 
ATOM     56  C   UNL A   1      43.002  32.071  34.334  1.00  0.00     0.173 A 
ATOM     57  F   UNL A   1      43.471  33.559  31.049  1.00  0.00    -0.203 F 
ATOM     58  C   UNL A   1      43.268  34.572  33.165  1.00  0.00     0.198 A 
ATOM     59  C   UNL A   1      42.954  33.218  35.121  1.00  0.00     0.198 A 
ATOM     60  F   UNL A   1      42.874  30.876  34.930  1.00  0.00    -0.203 F 
ATOM     61  F   UNL A   1      43.427  35.778  32.603  1.00  0.00    -0.200 F 
ATOM     62  C   UNL A   1      43.091  34.467  34.537  1.00  0.00     0.200 A 
ATOM     63  F   UNL A   1      42.772  33.114  36.445  1.00  0.00    -0.200 F 
ATOM     64  F   UNL A   1      43.060  35.571  35.297  1.00  0.00    -0.200 F 
ENDBRANCH  40  54
BRANCH  41  65
ATOM     65  C   UNL A   1      42.608  23.761  27.580  1.00  0.00     0.064 A 
ATOM     66  C   UNL A   1      42.205  22.556  28.173  1.00  0.00     0.173 A 
ATOM     67  C   UNL A   1      42.947  23.739  26.220  1.00  0.00     0.173 A 
ATOM     68  F   UNL A   1      41.903  22.520  29.478  1.00  0.00    -0.203 F 
ATOM     69  C   UNL A   1      42.153  21.375  27.435  1.00  0.00     0.198 A 
ATOM     70  C   UNL A   1      42.864  22.565  25.476  1.00  0.00     0.198 A 
ATOM     71  F   UNL A   1      43.345  24.864  25.607  1.00  0.00    -0.203 F 
ATOM     72  F   UNL A   1      41.806  20.228  28.034  1.00  0.00    -0.200 F 
ATOM     73  C   UNL A   1      42.474  21.382  26.086  1.00  0.00     0.200 A 
ATOM     74  F   UNL A   1      43.166  22.578  24.171  1.00  0.00    -0.200 F 
ATOM     75  F   UNL A   1      42.418  20.247  25.376  1.00  0.00    -0.200 F 
ENDBRANCH  41  65
BRANCH  53  76
ATOM     76  C   UNL A   1      47.789  27.035  30.880  1.00  0.00     0.064 A 
ATOM     77  C   UNL A   1      48.217  26.176  31.902  1.00  0.00     0.173 A 
ATOM     78  C   UNL A   1      48.750  27.546  29.997  1.00  0.00     0.173 A 
ATOM     79  F   UNL A   1      47.333  25.676  32.778  1.00  0.00    -0.203 F 
ATOM     80  C   UNL A   1      49.564  25.853  32.042  1.00  0.00     0.198 A 
ATOM     81  C   UNL A   1      50.094  27.205  30.129  1.00  0.00     0.198 A 
ATOM     82  F   UNL A   1      48.386  28.368  29.001  1.00  0.00    -0.203 F 
ATOM     83  F   UNL A   1      49.959  25.057  33.045  1.00  0.00    -0.200 F 
ATOM     84  C   UNL A   1      50.499  26.363  31.153  1.00  0.00     0.200 A 
ATOM     85  F   UNL A   1      50.995  27.692  29.264  1.00  0.00    -0.200 F 
ATOM     86  F   UNL A   1      51.794  26.045  31.287  1.00  0.00    -0.200 F 
ENDBRANCH  53  76
ENDBRANCH  27  28
ENDBRANCH  20  22
ENDBRANCH  19  20
ENDBRANCH  18  19
ENDBRANCH   1  18
TORSDOF 15
ENDMDL
MODEL 3
REMARK VINA RESULT:     -11.1      0.594      2.236
REMARK SMILES CC(C)CC[C@@H](C(=O)OCCOC(=O)c1ccc(-c2c3nc(c(-c4c(F)c(F)c(F)c(F)c4F)c4ccc([nH]4)c(-c4c(F)c(F)c(F)c(F)c4F)c4nc(c(-c5c(F)c(F)c(F)c(F)c5F)c5ccc2[nH]5)C=C4)C=C3)cc1)c1ccc(Br)cc1
REMARK SMILES IDX 10 1 9 2 7 3 8 4 6 5 5 6 4 7 2 8 1 9 3 10 78 11 79 12 84 13
REMARK SMILES IDX 80 14 83 15 81 16 82 17 11 18 12 19 13 20 14 21 15 22 16 23
REMARK SMILES IDX 77 24 17 25 76 26 18 27 19 28 20 29 70 30 21 31 75 32 69 33
REMARK SMILES IDX 71 34 22 35 74 36 68 37 67 38 23 40 55 41 35 42 54 43 36 44
REMARK SMILES IDX 39 45 53 46 72 47 37 48 38 49 52 51 73 52 40 53 24 54 25 55
REMARK SMILES IDX 33 56 26 57 27 58 31 59 34 60 28 61 29 62 32 63 30 64 56 65
REMARK SMILES IDX 57 66 65 67 58 68 59 69 63 70 66 71 60 72 61 73 64 74 62 75
REMARK SMILES IDX 41 76 42 77 50 78 43 79 44 80 48 81 51 82 45 83 46 84 49 85
REMARK SMILES IDX 47 86
REMARK H PARENT 71 39 39 50
REMARK Flexibility Score: inf
ROOT
ATOM      1  C   UNL A   1      31.695  28.404  26.574  1.00  0.00     0.274 C 
ENDROOT
BRANCH   1   2
ATOM      2  O   UNL A   1      31.457  27.646  25.372  1.00  0.00    -0.462 OA
BRANCH   2   3
ATOM      3  C   UNL A   1      30.593  26.603  25.443  1.00  0.00     0.313 C 
ATOM      4  O   UNL A   1      30.404  25.949  26.464  1.00  0.00    -0.252 OA
BRANCH   3   5
ATOM      5  C   UNL A   1      29.919  26.288  24.092  1.00  0.00     0.129 C 
BRANCH   5   6
ATOM      6  C   UNL A   1      30.727  25.345  23.162  1.00  0.00     0.020 C 
BRANCH   6   7
ATOM      7  C   UNL A   1      32.205  25.092  23.508  1.00  0.00     0.004 C 
BRANCH   7   8
ATOM      8  C   UNL A   1      33.149  24.849  22.320  1.00  0.00    -0.017 C 
ATOM      9  C   UNL A   1      33.237  23.366  21.958  1.00  0.00     0.007 C 
ATOM     10  C   UNL A   1      32.676  25.658  21.110  1.00  0.00     0.007 C 
ENDBRANCH   7   8
ENDBRANCH   6   7
ENDBRANCH   5   6
BRANCH   5  11
ATOM     11  C   UNL A   1      29.463  27.578  23.381  1.00  0.00    -0.034 A 
ATOM     12  C   UNL A   1      28.135  28.038  23.392  1.00  0.00     0.006 A 
ATOM     13  C   UNL A   1      30.414  28.339  22.671  1.00  0.00     0.006 A 
ATOM     14  C   UNL A   1      27.771  29.212  22.722  1.00  0.00     0.016 A 
ATOM     15  C   UNL A   1      30.049  29.502  21.986  1.00  0.00     0.016 A 
ATOM     16  C   UNL A   1      28.728  29.934  22.016  1.00  0.00     0.017 A 
ATOM     17  Br  UNL A   1      28.219  31.481  21.057  1.00  0.00    -0.051 Br
ENDBRANCH   5  11
ENDBRANCH   3   5
ENDBRANCH   2   3
ENDBRANCH   1   2
BRANCH   1  18
ATOM     18  C   UNL A   1      31.741  29.891  26.242  1.00  0.00     0.275 C 
BRANCH  18  19
ATOM     19  O   UNL A   1      33.112  30.322  26.217  1.00  0.00    -0.458 OA
BRANCH  19  20
ATOM     20  C   UNL A   1      33.434  31.309  27.081  1.00  0.00     0.338 C 
ATOM     21  O   UNL A   1      32.768  32.275  27.406  1.00  0.00    -0.246 OA
BRANCH  20  22
ATOM     22  C   UNL A   1      34.765  31.029  27.636  1.00  0.00     0.060 A 
ATOM     23  C   UNL A   1      35.101  29.720  27.972  1.00  0.00     0.016 A 
ATOM     24  C   UNL A   1      35.634  32.080  27.924  1.00  0.00     0.016 A 
ATOM     25  C   UNL A   1      36.276  29.463  28.671  1.00  0.00     0.010 A 
ATOM     26  C   UNL A   1      36.850  31.806  28.556  1.00  0.00     0.010 A 
ATOM     27  C   UNL A   1      37.169  30.499  28.970  1.00  0.00    -0.014 A 
BRANCH  27  28
ATOM     28  C   UNL A   1      38.398  30.246  29.772  1.00  0.00     0.031 A 
ATOM     29  C   UNL A   1      39.498  29.402  29.188  1.00  0.00     0.074 A 
ATOM     30  C   UNL A   1      38.552  30.763  31.005  1.00  0.00     0.049 A 
ATOM     31  N   UNL A   1      40.496  28.804  29.787  1.00  0.00    -0.248 NA
ATOM     32  C   UNL A   1      39.461  29.194  27.731  1.00  0.00     0.031 C 
ATOM     33  C   UNL A   1      37.627  31.681  31.668  1.00  0.00     0.029 A 
ATOM     34  N   UNL A   1      39.555  30.584  31.927  1.00  0.00    -0.354 N 
ATOM     35  C   UNL A   1      41.159  28.091  28.796  1.00  0.00     0.074 A 
ATOM     36  C   UNL A   1      40.464  28.346  27.553  1.00  0.00     0.031 C 
ATOM     37  C   UNL A   1      38.118  32.009  32.873  1.00  0.00     0.029 A 
ATOM     38  C   UNL A   1      39.338  31.245  33.111  1.00  0.00     0.049 A 
ATOM     39  H   UNL A   1      40.354  30.034  31.755  1.00  0.00     0.167 HD
ATOM     40  C   UNL A   1      42.241  27.287  28.923  1.00  0.00     0.037 A 
ATOM     41  C   UNL A   1      40.011  31.196  34.277  1.00  0.00     0.037 A 
ATOM     42  C   UNL A   1      42.962  27.091  30.153  1.00  0.00     0.049 A 
ATOM     43  C   UNL A   1      41.187  30.269  34.407  1.00  0.00     0.074 A 
ATOM     44  C   UNL A   1      44.040  26.260  30.404  1.00  0.00     0.029 A 
ATOM     45  N   UNL A   1      42.696  27.767  31.334  1.00  0.00    -0.354 N 
ATOM     46  N   UNL A   1      41.725  29.482  33.508  1.00  0.00    -0.248 NA
ATOM     47  C   UNL A   1      41.829  30.196  35.729  1.00  0.00     0.031 C 
ATOM     48  C   UNL A   1      44.418  26.424  31.741  1.00  0.00     0.029 A 
ATOM     49  C   UNL A   1      43.595  27.381  32.313  1.00  0.00     0.049 A 
ATOM     50  H   UNL A   1      41.974  28.425  31.457  1.00  0.00     0.167 HD
ATOM     51  C   UNL A   1      42.774  28.835  34.146  1.00  0.00     0.074 A 
ATOM     52  C   UNL A   1      42.808  29.330  35.506  1.00  0.00     0.031 C 
ATOM     53  C   UNL A   1      43.627  27.906  33.652  1.00  0.00     0.037 A 
BRANCH  40  54
ATOM     54  C   UNL A   1      42.688  26.525  27.712  1.00  0.00     0.064 A 
ATOM     55  C   UNL A   1      43.650  27.032  26.829  1.00  0.00     0.173 A 
ATOM     56  C   UNL A   1      42.170  25.246  27.458  1.00  0.00     0.173 A 
ATOM     57  F   UNL A   1      44.162  28.258  27.019  1.00  0.00    -0.203 F 
ATOM     58  C   UNL A   1      44.067  26.292  25.725  1.00  0.00     0.198 A 
ATOM     59  C   UNL A   1      42.606  24.499  26.367  1.00  0.00     0.198 A 
ATOM     60  F   UNL A   1      41.248  24.714  28.274  1.00  0.00    -0.203 F 
ATOM     61  F   UNL A   1      44.962  26.810  24.872  1.00  0.00    -0.200 F 
ATOM     62  C   UNL A   1      43.551  25.024  25.499  1.00  0.00     0.200 A 
ATOM     63  F   UNL A   1      42.113  23.270  26.158  1.00  0.00    -0.200 F 
ATOM     64  F   UNL A   1      43.960  24.311  24.441  1.00  0.00    -0.200 F 
ENDBRANCH  40  54
BRANCH  41  65
ATOM     65  C   UNL A   1      39.552  32.009  35.433  1.00  0.00     0.064 A 
ATOM     66  C   UNL A   1      40.070  33.292  35.658  1.00  0.00     0.173 A 
ATOM     67  C   UNL A   1      38.599  31.521  36.339  1.00  0.00     0.173 A 
ATOM     68  F   UNL A   1      41.008  33.789  34.839  1.00  0.00    -0.203 F 
ATOM     69  C   UNL A   1      39.657  34.052  36.751  1.00  0.00     0.198 A 
ATOM     70  C   UNL A   1      38.164  32.293  37.413  1.00  0.00     0.198 A 
ATOM     71  F   UNL A   1      38.078  30.296  36.171  1.00  0.00    -0.203 F 
ATOM     72  F   UNL A   1      40.199  35.258  36.970  1.00  0.00    -0.200 F 
ATOM     73  C   UNL A   1      38.699  33.555  37.623  1.00  0.00     0.200 A 
ATOM     74  F   UNL A   1      37.231  31.814  38.246  1.00  0.00    -0.200 F 
ATOM     75  F   UNL A   1      38.299  34.289  38.671  1.00  0.00    -0.200 F 
ENDBRANCH  41  65
BRANCH  53  76
ATOM     76  C   UNL A   1      44.698  27.403  34.569  1.00  0.00     0.064 A 
ATOM     77  C   UNL A   1      45.935  28.054  34.678  1.00  0.00     0.173 A 
ATOM     78  C   UNL A   1      44.464  26.284  35.382  1.00  0.00     0.173 A 
ATOM     79  F   UNL A   1      46.207  29.119  33.910  1.00  0.00    -0.203 F 
ATOM     80  C   UNL A   1      46.907  27.591  35.560  1.00  0.00     0.198 A 
ATOM     81  C   UNL A   1      45.432  25.836  36.276  1.00  0.00     0.198 A 
ATOM     82  F   UNL A   1      43.293  25.632  35.314  1.00  0.00    -0.203 F 
ATOM     83  F   UNL A   1      48.096  28.206  35.627  1.00  0.00    -0.200 F 
ATOM     84  C   UNL A   1      46.653  26.487  36.362  1.00  0.00     0.200 A 
ATOM     85  F   UNL A   1      45.182  24.774  37.055  1.00  0.00    -0.200 F 
ATOM     86  F   UNL A   1      47.589  26.048  37.214  1.00  0.00    -0.200 F 
ENDBRANCH  53  76
ENDBRANCH  27  28
ENDBRANCH  20  22
ENDBRANCH  19  20
ENDBRANCH  18  19
ENDBRANCH   1  18
TORSDOF 15
ENDMDL
