MODEL 1
REMARK VINA RESULT:     -14.1      0.000      0.000
REMARK SMILES Cc1cnn(C2(C(=O)OCCOC(=O)c3ccc(-c4c5nc(c(-c6c(F)c(F)c(F)c(F)c6F)c6ccc([nH]6)c(-c6c(F)c(F)c(F)c(F)c6F)c6nc(c(-c7c(F)c(F)c(F)c(F)c7F)c7ccc4[nH]7)C=C6)C=C5)cc3)CCN(C(=O)c3cc4ccccc4[nH]3)CC2)c1
REMARK SMILES IDX 11 1 10 2 9 3 7 4 8 5 6 6 78 7 93 8 79 9 92 10 80 11 81 12
REMARK SMILES IDX 82 13 5 14 1 15 2 16 3 17 94 18 4 19 83 20 84 21 91 22 85 23
REMARK SMILES IDX 90 24 86 26 89 27 87 28 88 29 12 30 13 31 14 32 15 33 16 34
REMARK SMILES IDX 77 35 17 36 76 37 18 38 19 39 20 40 70 41 21 42 75 43 69 44
REMARK SMILES IDX 71 45 22 46 74 47 68 48 67 49 23 51 55 52 35 53 54 54 36 55
REMARK SMILES IDX 39 56 53 57 72 58 37 59 38 60 52 62 73 63 40 64 24 65 25 66
REMARK SMILES IDX 33 67 26 68 27 69 31 70 34 71 28 72 29 73 32 74 30 75 56 76
REMARK SMILES IDX 57 77 65 78 58 79 59 80 63 81 66 82 60 83 61 84 64 85 62 86
REMARK SMILES IDX 41 87 42 88 50 89 43 90 44 91 48 92 51 93 45 94 46 95 49 96
REMARK SMILES IDX 47 97
REMARK H PARENT 91 25 71 50 39 61
REMARK Flexibility Score: inf
ROOT
ATOM      1  C   UNL A   1      38.510  21.139  25.698  1.00  0.00     0.275 C 
ENDROOT
BRANCH   1   2
ATOM      2  C   UNL A   1      37.394  21.268  24.666  1.00  0.00     0.274 C 
BRANCH   2   3
ATOM      3  O   UNL A   1      37.041  22.655  24.493  1.00  0.00    -0.460 OA
BRANCH   3   4
ATOM      4  C   UNL A   1      36.065  22.953  23.581  1.00  0.00     0.334 C 
ATOM      5  O   UNL A   1      36.294  22.953  22.376  1.00  0.00    -0.249 OA
BRANCH   4   6
ATOM      6  C   UNL A   1      34.746  23.448  24.262  1.00  0.00     0.163 C 
ATOM      7  C   UNL A   1      35.035  24.344  25.502  1.00  0.00     0.064 C 
ATOM      8  C   UNL A   1      34.078  24.269  23.137  1.00  0.00     0.064 C 
ATOM      9  C   UNL A   1      33.987  25.378  25.867  1.00  0.00     0.123 C 
ATOM     10  C   UNL A   1      32.955  25.167  23.617  1.00  0.00     0.123 C 
ATOM     11  N   UNL A   1      33.396  26.019  24.715  1.00  0.00    -0.337 N 
ATOM     12  C   UNL A   1      33.124  27.391  24.792  1.00  0.00     0.270 C 
ATOM     13  O   UNL A   1      33.786  28.163  25.450  1.00  0.00    -0.267 OA
BRANCH   6  14
ATOM     14  N   UNL A   1      33.849  22.307  24.605  1.00  0.00    -0.255 N 
ATOM     15  C   UNL A   1      32.528  19.005  23.765  1.00  0.00     0.048 C 
ATOM     16  C   UNL A   1      32.986  20.280  24.360  1.00  0.00    -0.013 A 
ATOM     17  C   UNL A   1      33.393  20.531  25.681  1.00  0.00     0.138 A 
ATOM     18  C   UNL A   1      33.158  21.496  23.731  1.00  0.00     0.113 A 
ATOM     19  N   UNL A   1      33.834  21.779  25.848  1.00  0.00    -0.180 NA
ENDBRANCH   6  14
BRANCH  12  20
ATOM     20  C   UNL A   1      31.969  27.806  24.031  1.00  0.00     0.105 A 
ATOM     21  C   UNL A   1      31.886  28.772  23.046  1.00  0.00     0.042 A 
ATOM     22  N   UNL A   1      30.713  27.279  24.190  1.00  0.00    -0.351 N 
ATOM     23  C   UNL A   1      30.517  28.987  22.768  1.00  0.00     0.000 A 
ATOM     24  C   UNL A   1      29.797  28.051  23.510  1.00  0.00     0.046 A 
ATOM     25  H   UNL A   1      30.499  26.471  24.710  1.00  0.00     0.167 HD
ATOM     26  C   UNL A   1      29.825  29.919  21.976  1.00  0.00     0.010 A 
ATOM     27  C   UNL A   1      28.400  28.003  23.501  1.00  0.00     0.026 A 
ATOM     28  C   UNL A   1      28.430  29.896  21.970  1.00  0.00     0.001 A 
ATOM     29  C   UNL A   1      27.731  28.952  22.721  1.00  0.00     0.002 A 
ENDBRANCH  12  20
ENDBRANCH   4   6
ENDBRANCH   3   4
ENDBRANCH   2   3
ENDBRANCH   1   2
BRANCH   1  30
ATOM     30  O   UNL A   1      38.812  22.410  26.284  1.00  0.00    -0.458 OA
BRANCH  30  31
ATOM     31  C   UNL A   1      39.972  22.415  26.974  1.00  0.00     0.338 C 
ATOM     32  O   UNL A   1      40.403  21.522  27.685  1.00  0.00    -0.246 OA
BRANCH  31  33
ATOM     33  C   UNL A   1      40.604  23.729  26.971  1.00  0.00     0.060 A 
ATOM     34  C   UNL A   1      41.674  23.906  27.854  1.00  0.00     0.016 A 
ATOM     35  C   UNL A   1      39.894  24.802  26.428  1.00  0.00     0.016 A 
ATOM     36  C   UNL A   1      41.909  25.164  28.358  1.00  0.00     0.010 A 
ATOM     37  C   UNL A   1      40.134  26.061  26.927  1.00  0.00     0.010 A 
ATOM     38  C   UNL A   1      41.072  26.206  27.954  1.00  0.00    -0.014 A 
BRANCH  38  39
ATOM     39  C   UNL A   1      41.204  27.471  28.651  1.00  0.00     0.031 A 
ATOM     40  C   UNL A   1      42.377  28.281  28.246  1.00  0.00     0.074 A 
ATOM     41  C   UNL A   1      40.242  27.896  29.491  1.00  0.00     0.049 A 
ATOM     42  N   UNL A   1      43.275  28.843  28.987  1.00  0.00    -0.248 NA
ATOM     43  C   UNL A   1      42.620  28.412  26.797  1.00  0.00     0.031 C 
ATOM     44  C   UNL A   1      38.924  27.287  29.717  1.00  0.00     0.029 A 
ATOM     45  N   UNL A   1      40.181  29.046  30.216  1.00  0.00    -0.354 N 
ATOM     46  C   UNL A   1      44.104  29.533  28.107  1.00  0.00     0.074 A 
ATOM     47  C   UNL A   1      43.735  29.138  26.775  1.00  0.00     0.031 C 
ATOM     48  C   UNL A   1      38.119  28.190  30.314  1.00  0.00     0.029 A 
ATOM     49  C   UNL A   1      38.900  29.374  30.624  1.00  0.00     0.049 A 
ATOM     50  H   UNL A   1      40.972  29.591  30.431  1.00  0.00     0.167 HD
ATOM     51  C   UNL A   1      44.878  30.570  28.516  1.00  0.00     0.037 A 
ATOM     52  C   UNL A   1      38.491  30.582  31.075  1.00  0.00     0.037 A 
ATOM     53  C   UNL A   1      45.125  30.538  29.929  1.00  0.00     0.049 A 
ATOM     54  C   UNL A   1      39.688  31.339  31.511  1.00  0.00     0.074 A 
ATOM     55  C   UNL A   1      45.843  29.729  30.783  1.00  0.00     0.029 A 
ATOM     56  N   UNL A   1      44.300  31.302  30.710  1.00  0.00    -0.354 N 
ATOM     57  N   UNL A   1      40.438  31.008  32.525  1.00  0.00    -0.248 NA
ATOM     58  C   UNL A   1      40.268  32.320  30.603  1.00  0.00     0.031 C 
ATOM     59  C   UNL A   1      45.164  29.794  32.036  1.00  0.00     0.029 A 
ATOM     60  C   UNL A   1      44.065  30.642  31.887  1.00  0.00     0.049 A 
ATOM     61  H   UNL A   1      43.935  32.183  30.465  1.00  0.00     0.167 HD
ATOM     62  C   UNL A   1      41.713  31.416  32.167  1.00  0.00     0.074 A 
ATOM     63  C   UNL A   1      41.517  32.355  31.073  1.00  0.00     0.031 C 
ATOM     64  C   UNL A   1      42.811  30.732  32.601  1.00  0.00     0.037 A 
BRANCH  51  65
ATOM     65  C   UNL A   1      45.056  31.821  27.695  1.00  0.00     0.064 A 
ATOM     66  C   UNL A   1      46.295  32.082  27.083  1.00  0.00     0.173 A 
ATOM     67  C   UNL A   1      44.153  32.907  27.745  1.00  0.00     0.173 A 
ATOM     68  F   UNL A   1      47.239  31.131  27.022  1.00  0.00    -0.203 F 
ATOM     69  C   UNL A   1      46.620  33.351  26.598  1.00  0.00     0.198 A 
ATOM     70  C   UNL A   1      44.461  34.156  27.212  1.00  0.00     0.198 A 
ATOM     71  F   UNL A   1      42.994  32.836  28.412  1.00  0.00    -0.203 F 
ATOM     72  F   UNL A   1      47.851  33.588  26.125  1.00  0.00    -0.200 F 
ATOM     73  C   UNL A   1      45.704  34.387  26.663  1.00  0.00     0.200 A 
ATOM     74  F   UNL A   1      43.568  35.153  27.309  1.00  0.00    -0.200 F 
ATOM     75  F   UNL A   1      46.034  35.617  26.249  1.00  0.00    -0.200 F 
ENDBRANCH  51  65
BRANCH  52  76
ATOM     76  C   UNL A   1      37.186  31.222  30.799  1.00  0.00     0.064 A 
ATOM     77  C   UNL A   1      36.303  31.546  31.837  1.00  0.00     0.173 A 
ATOM     78  C   UNL A   1      36.891  31.759  29.529  1.00  0.00     0.173 A 
ATOM     79  F   UNL A   1      36.543  31.116  33.085  1.00  0.00    -0.203 F 
ATOM     80  C   UNL A   1      35.193  32.370  31.620  1.00  0.00     0.198 A 
ATOM     81  C   UNL A   1      35.779  32.570  29.310  1.00  0.00     0.198 A 
ATOM     82  F   UNL A   1      37.728  31.583  28.495  1.00  0.00    -0.203 F 
ATOM     83  F   UNL A   1      34.401  32.707  32.646  1.00  0.00    -0.200 F 
ATOM     84  C   UNL A   1      34.936  32.886  30.359  1.00  0.00     0.200 A 
ATOM     85  F   UNL A   1      35.565  33.090  28.094  1.00  0.00    -0.200 F 
ATOM     86  F   UNL A   1      33.906  33.719  30.163  1.00  0.00    -0.200 F 
ENDBRANCH  52  76
BRANCH  64  87
ATOM     87  C   UNL A   1      42.618  29.817  33.774  1.00  0.00     0.064 A 
ATOM     88  C   UNL A   1      42.175  28.489  33.664  1.00  0.00     0.173 A 
ATOM     89  C   UNL A   1      42.990  30.272  35.045  1.00  0.00     0.173 A 
ATOM     90  F   UNL A   1      41.902  27.952  32.469  1.00  0.00    -0.203 F 
ATOM     91  C   UNL A   1      42.052  27.673  34.788  1.00  0.00     0.198 A 
ATOM     92  C   UNL A   1      42.903  29.444  36.160  1.00  0.00     0.198 A 
ATOM     93  F   UNL A   1      43.479  31.513  35.198  1.00  0.00    -0.203 F 
ATOM     94  F   UNL A   1      41.603  26.417  34.660  1.00  0.00    -0.200 F 
ATOM     95  C   UNL A   1      42.420  28.151  36.034  1.00  0.00     0.200 A 
ATOM     96  F   UNL A   1      43.309  29.892  37.357  1.00  0.00    -0.200 F 
ATOM     97  F   UNL A   1      42.335  27.357  37.111  1.00  0.00    -0.200 F 
ENDBRANCH  64  87
ENDBRANCH  38  39
ENDBRANCH  31  33
ENDBRANCH  30  31
ENDBRANCH   1  30
TORSDOF 13
ENDMDL
MODEL 2
REMARK VINA RESULT:     -14.0      2.724      8.753
REMARK SMILES Cc1cnn(C2(C(=O)OCCOC(=O)c3ccc(-c4c5nc(c(-c6c(F)c(F)c(F)c(F)c6F)c6ccc([nH]6)c(-c6c(F)c(F)c(F)c(F)c6F)c6nc(c(-c7c(F)c(F)c(F)c(F)c7F)c7ccc4[nH]7)C=C6)C=C5)cc3)CCN(C(=O)c3cc4ccccc4[nH]3)CC2)c1
REMARK SMILES IDX 11 1 10 2 9 3 7 4 8 5 6 6 78 7 93 8 79 9 92 10 80 11 81 12
REMARK SMILES IDX 82 13 5 14 1 15 2 16 3 17 94 18 4 19 83 20 84 21 91 22 85 23
REMARK SMILES IDX 90 24 86 26 89 27 87 28 88 29 12 30 13 31 14 32 15 33 16 34
REMARK SMILES IDX 77 35 17 36 76 37 18 38 19 39 20 40 70 41 21 42 75 43 69 44
REMARK SMILES IDX 71 45 22 46 74 47 68 48 67 49 23 51 55 52 35 53 54 54 36 55
REMARK SMILES IDX 39 56 53 57 72 58 37 59 38 60 52 62 73 63 40 64 24 65 25 66
REMARK SMILES IDX 33 67 26 68 27 69 31 70 34 71 28 72 29 73 32 74 30 75 56 76
REMARK SMILES IDX 57 77 65 78 58 79 59 80 63 81 66 82 60 83 61 84 64 85 62 86
REMARK SMILES IDX 41 87 42 88 50 89 43 90 44 91 48 92 51 93 45 94 46 95 49 96
REMARK SMILES IDX 47 97
REMARK H PARENT 91 25 71 50 39 61
REMARK Flexibility Score: inf
ROOT
ATOM      1  C   UNL A   1      33.233  31.337  27.276  1.00  0.00     0.275 C 
ENDROOT
BRANCH   1   2
ATOM      2  C   UNL A   1      32.257  30.252  26.834  1.00  0.00     0.274 C 
BRANCH   2   3
ATOM      3  O   UNL A   1      32.746  28.956  27.235  1.00  0.00    -0.460 OA
BRANCH   3   4
ATOM      4  C   UNL A   1      31.904  27.887  27.093  1.00  0.00     0.334 C 
ATOM      5  O   UNL A   1      31.032  27.645  27.921  1.00  0.00    -0.249 OA
BRANCH   4   6
ATOM      6  C   UNL A   1      32.307  26.966  25.894  1.00  0.00     0.163 C 
ATOM      7  C   UNL A   1      33.853  26.892  25.715  1.00  0.00     0.064 C 
ATOM      8  C   UNL A   1      31.740  25.594  26.323  1.00  0.00     0.064 C 
ATOM      9  C   UNL A   1      34.416  25.632  25.087  1.00  0.00     0.123 C 
ATOM     10  C   UNL A   1      32.289  24.428  25.525  1.00  0.00     0.123 C 
ATOM     11  N   UNL A   1      33.747  24.430  25.525  1.00  0.00    -0.337 N 
ATOM     12  C   UNL A   1      34.525  23.288  25.755  1.00  0.00     0.270 C 
ATOM     13  O   UNL A   1      35.671  23.335  26.143  1.00  0.00    -0.267 OA
BRANCH   6  14
ATOM     14  N   UNL A   1      31.628  27.381  24.634  1.00  0.00    -0.255 N 
ATOM     15  C   UNL A   1      28.617  28.602  22.961  1.00  0.00     0.048 C 
ATOM     16  C   UNL A   1      29.967  28.208  23.420  1.00  0.00    -0.013 A 
ATOM     17  C   UNL A   1      31.203  28.796  23.105  1.00  0.00     0.138 A 
ATOM     18  C   UNL A   1      30.303  27.200  24.301  1.00  0.00     0.113 A 
ATOM     19  N   UNL A   1      32.215  28.240  23.773  1.00  0.00    -0.180 NA
ENDBRANCH   6  14
BRANCH  12  20
ATOM     20  C   UNL A   1      33.847  22.046  25.473  1.00  0.00     0.105 A 
ATOM     21  C   UNL A   1      33.621  20.973  26.316  1.00  0.00     0.042 A 
ATOM     22  N   UNL A   1      33.306  21.725  24.254  1.00  0.00    -0.351 N 
ATOM     23  C   UNL A   1      33.137  19.903  25.531  1.00  0.00     0.000 A 
ATOM     24  C   UNL A   1      32.963  20.390  24.236  1.00  0.00     0.046 A 
ATOM     25  H   UNL A   1      33.180  22.353  23.507  1.00  0.00     0.167 HD
ATOM     26  C   UNL A   1      32.865  18.551  25.801  1.00  0.00     0.010 A 
ATOM     27  C   UNL A   1      32.527  19.581  23.183  1.00  0.00     0.026 A 
ATOM     28  C   UNL A   1      32.446  17.725  24.757  1.00  0.00     0.001 A 
ATOM     29  C   UNL A   1      32.280  18.234  23.470  1.00  0.00     0.002 A 
ENDBRANCH  12  20
ENDBRANCH   4   6
ENDBRANCH   3   4
ENDBRANCH   2   3
ENDBRANCH   1   2
BRANCH   1  30
ATOM     30  O   UNL A   1      34.523  30.779  27.558  1.00  0.00    -0.458 OA
BRANCH  30  31
ATOM     31  C   UNL A   1      35.405  31.689  28.022  1.00  0.00     0.338 C 
ATOM     32  O   UNL A   1      35.543  32.837  27.634  1.00  0.00    -0.246 OA
BRANCH  31  33
ATOM     33  C   UNL A   1      36.378  31.093  28.929  1.00  0.00     0.060 A 
ATOM     34  C   UNL A   1      37.459  31.900  29.300  1.00  0.00     0.016 A 
ATOM     35  C   UNL A   1      36.407  29.701  29.045  1.00  0.00     0.016 A 
ATOM     36  C   UNL A   1      38.657  31.296  29.602  1.00  0.00     0.010 A 
ATOM     37  C   UNL A   1      37.604  29.098  29.354  1.00  0.00     0.010 A 
ATOM     38  C   UNL A   1      38.733  29.903  29.532  1.00  0.00    -0.014 A 
BRANCH  38  39
ATOM     39  C   UNL A   1      40.048  29.304  29.649  1.00  0.00     0.031 A 
ATOM     40  C   UNL A   1      40.568  29.218  31.034  1.00  0.00     0.074 A 
ATOM     41  C   UNL A   1      40.652  28.760  28.576  1.00  0.00     0.049 A 
ATOM     42  N   UNL A   1      41.718  29.586  31.498  1.00  0.00    -0.248 NA
ATOM     43  C   UNL A   1      39.633  28.720  32.060  1.00  0.00     0.031 C 
ATOM     44  C   UNL A   1      40.076  28.549  27.241  1.00  0.00     0.029 A 
ATOM     45  N   UNL A   1      41.864  28.147  28.492  1.00  0.00    -0.354 N 
ATOM     46  C   UNL A   1      41.712  29.217  32.840  1.00  0.00     0.074 A 
ATOM     47  C   UNL A   1      40.372  28.806  33.163  1.00  0.00     0.031 C 
ATOM     48  C   UNL A   1      40.830  27.651  26.573  1.00  0.00     0.029 A 
ATOM     49  C   UNL A   1      41.995  27.333  27.380  1.00  0.00     0.049 A 
ATOM     50  H   UNL A   1      42.579  28.271  29.157  1.00  0.00     0.167 HD
ATOM     51  C   UNL A   1      42.861  29.042  33.540  1.00  0.00     0.037 A 
ATOM     52  C   UNL A   1      42.936  26.380  27.196  1.00  0.00     0.037 A 
ATOM     53  C   UNL A   1      43.970  29.729  32.943  1.00  0.00     0.049 A 
ATOM     54  C   UNL A   1      44.061  26.659  28.119  1.00  0.00     0.074 A 
ATOM     55  C   UNL A   1      44.332  31.047  32.774  1.00  0.00     0.029 A 
ATOM     56  N   UNL A   1      44.772  28.991  32.116  1.00  0.00    -0.354 N 
ATOM     57  N   UNL A   1      44.838  27.702  28.038  1.00  0.00    -0.248 NA
ATOM     58  C   UNL A   1      44.135  25.925  29.376  1.00  0.00     0.031 C 
ATOM     59  C   UNL A   1      45.112  31.082  31.580  1.00  0.00     0.029 A 
ATOM     60  C   UNL A   1      45.190  29.781  31.078  1.00  0.00     0.049 A 
ATOM     61  H   UNL A   1      45.010  28.044  32.245  1.00  0.00     0.167 HD
ATOM     62  C   UNL A   1      45.183  27.988  29.349  1.00  0.00     0.074 A 
ATOM     63  C   UNL A   1      44.869  26.778  30.095  1.00  0.00     0.031 C 
ATOM     64  C   UNL A   1      45.415  29.273  29.744  1.00  0.00     0.037 A 
BRANCH  51  65
ATOM     65  C   UNL A   1      43.046  27.915  34.522  1.00  0.00     0.064 A 
ATOM     66  C   UNL A   1      43.343  28.204  35.867  1.00  0.00     0.173 A 
ATOM     67  C   UNL A   1      43.241  26.573  34.125  1.00  0.00     0.173 A 
ATOM     68  F   UNL A   1      43.233  29.456  36.334  1.00  0.00    -0.203 F 
ATOM     69  C   UNL A   1      43.842  27.229  36.734  1.00  0.00     0.198 A 
ATOM     70  C   UNL A   1      43.687  25.591  35.006  1.00  0.00     0.198 A 
ATOM     71  F   UNL A   1      43.122  26.187  32.848  1.00  0.00    -0.203 F 
ATOM     72  F   UNL A   1      44.220  27.570  37.972  1.00  0.00    -0.200 F 
ATOM     73  C   UNL A   1      44.014  25.924  36.303  1.00  0.00     0.200 A 
ATOM     74  F   UNL A   1      43.871  24.340  34.562  1.00  0.00    -0.200 F 
ATOM     75  F   UNL A   1      44.544  25.002  37.117  1.00  0.00    -0.200 F 
ENDBRANCH  51  65
BRANCH  52  76
ATOM     76  C   UNL A   1      42.736  25.068  26.540  1.00  0.00     0.064 A 
ATOM     77  C   UNL A   1      43.509  24.683  25.436  1.00  0.00     0.173 A 
ATOM     78  C   UNL A   1      41.951  24.064  27.142  1.00  0.00     0.173 A 
ATOM     79  F   UNL A   1      44.321  25.569  24.841  1.00  0.00    -0.203 F 
ATOM     80  C   UNL A   1      43.506  23.364  24.970  1.00  0.00     0.198 A 
ATOM     81  C   UNL A   1      41.939  22.753  26.670  1.00  0.00     0.198 A 
ATOM     82  F   UNL A   1      41.250  24.314  28.259  1.00  0.00    -0.203 F 
ATOM     83  F   UNL A   1      44.302  23.015  23.950  1.00  0.00    -0.200 F 
ATOM     84  C   UNL A   1      42.727  22.400  25.591  1.00  0.00     0.200 A 
ATOM     85  F   UNL A   1      41.209  21.825  27.303  1.00  0.00    -0.200 F 
ATOM     86  F   UNL A   1      42.768  21.126  25.179  1.00  0.00    -0.200 F 
ENDBRANCH  52  76
BRANCH  64  87
ATOM     87  C   UNL A   1      45.690  30.275  28.662  1.00  0.00     0.064 A 
ATOM     88  C   UNL A   1      44.688  31.003  27.999  1.00  0.00     0.173 A 
ATOM     89  C   UNL A   1      47.022  30.578  28.353  1.00  0.00     0.173 A 
ATOM     90  F   UNL A   1      43.398  30.842  28.316  1.00  0.00    -0.203 F 
ATOM     91  C   UNL A   1      45.007  31.950  27.027  1.00  0.00     0.198 A 
ATOM     92  C   UNL A   1      47.339  31.551  27.411  1.00  0.00     0.198 A 
ATOM     93  F   UNL A   1      48.020  29.956  29.001  1.00  0.00    -0.203 F 
ATOM     94  F   UNL A   1      44.032  32.614  26.391  1.00  0.00    -0.200 F 
ATOM     95  C   UNL A   1      46.333  32.225  26.737  1.00  0.00     0.200 A 
ATOM     96  F   UNL A   1      48.623  31.851  27.169  1.00  0.00    -0.200 F 
ATOM     97  F   UNL A   1      46.643  33.159  25.827  1.00  0.00    -0.200 F 
ENDBRANCH  64  87
ENDBRANCH  38  39
ENDBRANCH  31  33
ENDBRANCH  30  31
ENDBRANCH   1  30
TORSDOF 13
ENDMDL
MODEL 3
REMARK VINA RESULT:     -13.5      2.779      8.796
REMARK SMILES Cc1cnn(C2(C(=O)OCCOC(=O)c3ccc(-c4c5nc(c(-c6c(F)c(F)c(F)c(F)c6F)c6ccc([nH]6)c(-c6c(F)c(F)c(F)c(F)c6F)c6nc(c(-c7c(F)c(F)c(F)c(F)c7F)c7ccc4[nH]7)C=C6)C=C5)cc3)CCN(C(=O)c3cc4ccccc4[nH]3)CC2)c1
REMARK SMILES IDX 11 1 10 2 9 3 7 4 8 5 6 6 78 7 93 8 79 9 92 10 80 11 81 12
REMARK SMILES IDX 82 13 5 14 1 15 2 16 3 17 94 18 4 19 83 20 84 21 91 22 85 23
REMARK SMILES IDX 90 24 86 26 89 27 87 28 88 29 12 30 13 31 14 32 15 33 16 34
REMARK SMILES IDX 77 35 17 36 76 37 18 38 19 39 20 40 70 41 21 42 75 43 69 44
REMARK SMILES IDX 71 45 22 46 74 47 68 48 67 49 23 51 55 52 35 53 54 54 36 55
REMARK SMILES IDX 39 56 53 57 72 58 37 59 38 60 52 62 73 63 40 64 24 65 25 66
REMARK SMILES IDX 33 67 26 68 27 69 31 70 34 71 28 72 29 73 32 74 30 75 56 76
REMARK SMILES IDX 57 77 65 78 58 79 59 80 63 81 66 82 60 83 61 84 64 85 62 86
REMARK SMILES IDX 41 87 42 88 50 89 43 90 44 91 48 92 51 93 45 94 46 95 49 96
REMARK SMILES IDX 47 97
REMARK H PARENT 91 25 71 50 39 61
REMARK Flexibility Score: inf
ROOT
ATOM      1  C   UNL A   1      33.691  30.513  26.842  1.00  0.00     0.275 C 
ENDROOT
BRANCH   1   2
ATOM      2  C   UNL A   1      32.232  30.351  27.254  1.00  0.00     0.274 C 
BRANCH   2   3
ATOM      3  O   UNL A   1      31.582  29.388  26.400  1.00  0.00    -0.460 OA
BRANCH   3   4
ATOM      4  C   UNL A   1      31.616  28.075  26.782  1.00  0.00     0.334 C 
ATOM      5  O   UNL A   1      31.445  27.743  27.950  1.00  0.00    -0.249 OA
BRANCH   4   6
ATOM      6  C   UNL A   1      32.063  27.128  25.618  1.00  0.00     0.163 C 
ATOM      7  C   UNL A   1      33.613  27.086  25.469  1.00  0.00     0.064 C 
ATOM      8  C   UNL A   1      31.519  25.757  26.077  1.00  0.00     0.064 C 
ATOM      9  C   UNL A   1      34.217  25.822  24.889  1.00  0.00     0.123 C 
ATOM     10  C   UNL A   1      32.110  24.581  25.325  1.00  0.00     0.123 C 
ATOM     11  N   UNL A   1      33.568  24.618  25.351  1.00  0.00    -0.337 N 
ATOM     12  C   UNL A   1      34.368  23.503  25.629  1.00  0.00     0.270 C 
ATOM     13  O   UNL A   1      35.505  23.587  26.035  1.00  0.00    -0.267 OA
BRANCH   6  14
ATOM     14  N   UNL A   1      31.397  27.491  24.334  1.00  0.00    -0.255 N 
ATOM     15  C   UNL A   1      28.526  28.942  22.601  1.00  0.00     0.048 C 
ATOM     16  C   UNL A   1      29.823  28.408  23.071  1.00  0.00    -0.013 A 
ATOM     17  C   UNL A   1      31.117  28.764  22.656  1.00  0.00     0.138 A 
ATOM     18  C   UNL A   1      30.047  27.471  24.059  1.00  0.00     0.113 A 
ATOM     19  N   UNL A   1      32.065  28.146  23.361  1.00  0.00    -0.180 NA
ENDBRANCH   6  14
BRANCH  12  20
ATOM     20  C   UNL A   1      33.724  22.236  25.371  1.00  0.00     0.105 A 
ATOM     21  C   UNL A   1      33.532  21.174  26.234  1.00  0.00     0.042 A 
ATOM     22  N   UNL A   1      33.189  21.878  24.161  1.00  0.00    -0.351 N 
ATOM     23  C   UNL A   1      33.076  20.075  25.470  1.00  0.00     0.000 A 
ATOM     24  C   UNL A   1      32.883  20.535  24.168  1.00  0.00     0.046 A 
ATOM     25  H   UNL A   1      33.043  22.489  23.402  1.00  0.00     0.167 HD
ATOM     26  C   UNL A   1      32.843  18.722  25.766  1.00  0.00     0.010 A 
ATOM     27  C   UNL A   1      32.467  19.694  23.131  1.00  0.00     0.026 A 
ATOM     28  C   UNL A   1      32.444  17.865  24.739  1.00  0.00     0.001 A 
ATOM     29  C   UNL A   1      32.259  18.347  23.444  1.00  0.00     0.002 A 
ENDBRANCH  12  20
ENDBRANCH   4   6
ENDBRANCH   3   4
ENDBRANCH   2   3
ENDBRANCH   1   2
BRANCH   1  30
ATOM     30  O   UNL A   1      34.567  30.194  27.930  1.00  0.00    -0.458 OA
BRANCH  30  31
ATOM     31  C   UNL A   1      35.429  31.190  28.227  1.00  0.00     0.338 C 
ATOM     32  O   UNL A   1      35.474  32.295  27.712  1.00  0.00    -0.246 OA
BRANCH  31  33
ATOM     33  C   UNL A   1      36.496  30.742  29.113  1.00  0.00     0.060 A 
ATOM     34  C   UNL A   1      37.573  31.619  29.282  1.00  0.00     0.016 A 
ATOM     35  C   UNL A   1      36.587  29.378  29.402  1.00  0.00     0.016 A 
ATOM     36  C   UNL A   1      38.814  31.091  29.551  1.00  0.00     0.010 A 
ATOM     37  C   UNL A   1      37.827  28.852  29.678  1.00  0.00     0.010 A 
ATOM     38  C   UNL A   1      38.936  29.703  29.653  1.00  0.00    -0.014 A 
BRANCH  38  39
ATOM     39  C   UNL A   1      40.278  29.159  29.728  1.00  0.00     0.031 A 
ATOM     40  C   UNL A   1      40.818  29.034  31.102  1.00  0.00     0.074 A 
ATOM     41  C   UNL A   1      40.892  28.692  28.624  1.00  0.00     0.049 A 
ATOM     42  N   UNL A   1      41.956  29.431  31.570  1.00  0.00    -0.248 NA
ATOM     43  C   UNL A   1      39.919  28.448  32.114  1.00  0.00     0.031 C 
ATOM     44  C   UNL A   1      40.310  28.517  27.288  1.00  0.00     0.029 A 
ATOM     45  N   UNL A   1      42.129  28.139  28.500  1.00  0.00    -0.354 N 
ATOM     46  C   UNL A   1      41.983  29.002  32.894  1.00  0.00     0.074 A 
ATOM     47  C   UNL A   1      40.668  28.516  33.212  1.00  0.00     0.031 C 
ATOM     48  C   UNL A   1      41.094  27.684  26.571  1.00  0.00     0.029 A 
ATOM     49  C   UNL A   1      42.283  27.383  27.350  1.00  0.00     0.049 A 
ATOM     50  H   UNL A   1      42.846  28.264  29.162  1.00  0.00     0.167 HD
ATOM     51  C   UNL A   1      43.148  28.846  33.573  1.00  0.00     0.037 A 
ATOM     52  C   UNL A   1      43.262  26.482  27.112  1.00  0.00     0.037 A 
ATOM     53  C   UNL A   1      44.218  29.609  32.997  1.00  0.00     0.049 A 
ATOM     54  C   UNL A   1      44.385  26.769  28.036  1.00  0.00     0.074 A 
ATOM     55  C   UNL A   1      44.519  30.949  32.885  1.00  0.00     0.029 A 
ATOM     56  N   UNL A   1      45.041  28.946  32.128  1.00  0.00    -0.354 N 
ATOM     57  N   UNL A   1      45.114  27.849  27.995  1.00  0.00    -0.248 NA
ATOM     58  C   UNL A   1      44.508  25.984  29.257  1.00  0.00     0.031 C 
ATOM     59  C   UNL A   1      45.281  31.073  31.686  1.00  0.00     0.029 A 
ATOM     60  C   UNL A   1      45.411  29.802  31.124  1.00  0.00     0.049 A 
ATOM     61  H   UNL A   1      45.323  28.007  32.212  1.00  0.00     0.167 HD
ATOM     62  C   UNL A   1      45.462  28.090  29.314  1.00  0.00     0.074 A 
ATOM     63  C   UNL A   1      45.212  26.835  30.007  1.00  0.00     0.031 C 
ATOM     64  C   UNL A   1      45.642  29.365  29.765  1.00  0.00     0.037 A 
BRANCH  51  65
ATOM     65  C   UNL A   1      43.395  27.686  34.501  1.00  0.00     0.064 A 
ATOM     66  C   UNL A   1      43.500  26.385  33.977  1.00  0.00     0.173 A 
ATOM     67  C   UNL A   1      43.228  27.773  35.902  1.00  0.00     0.173 A 
ATOM     68  F   UNL A   1      43.618  26.190  32.655  1.00  0.00    -0.203 F 
ATOM     69  C   UNL A   1      43.399  25.255  34.792  1.00  0.00     0.198 A 
ATOM     70  C   UNL A   1      43.183  26.646  36.718  1.00  0.00     0.198 A 
ATOM     71  F   UNL A   1      42.986  28.938  36.516  1.00  0.00    -0.203 F 
ATOM     72  F   UNL A   1      43.390  24.034  34.241  1.00  0.00    -0.200 F 
ATOM     73  C   UNL A   1      43.240  25.386  36.162  1.00  0.00     0.200 A 
ATOM     74  F   UNL A   1      43.002  26.795  38.038  1.00  0.00    -0.200 F 
ATOM     75  F   UNL A   1      43.089  24.305  36.937  1.00  0.00    -0.200 F 
ENDBRANCH  51  65
BRANCH  52  76
ATOM     76  C   UNL A   1      43.112  25.195  26.399  1.00  0.00     0.064 A 
ATOM     77  C   UNL A   1      43.906  24.885  25.286  1.00  0.00     0.173 A 
ATOM     78  C   UNL A   1      42.360  24.138  26.951  1.00  0.00     0.173 A 
ATOM     79  F   UNL A   1      44.690  25.823  24.736  1.00  0.00    -0.203 F 
ATOM     80  C   UNL A   1      43.953  23.588  24.763  1.00  0.00     0.198 A 
ATOM     81  C   UNL A   1      42.397  22.849  26.422  1.00  0.00     0.198 A 
ATOM     82  F   UNL A   1      41.643  24.315  28.072  1.00  0.00    -0.203 F 
ATOM     83  F   UNL A   1      44.766  23.312  23.735  1.00  0.00    -0.200 F 
ATOM     84  C   UNL A   1      43.204  22.571  25.336  1.00  0.00     0.200 A 
ATOM     85  F   UNL A   1      41.696  21.869  27.009  1.00  0.00    -0.200 F 
ATOM     86  F   UNL A   1      43.292  21.318  24.869  1.00  0.00    -0.200 F 
ENDBRANCH  52  76
BRANCH  64  87
ATOM     87  C   UNL A   1      45.858  30.426  28.728  1.00  0.00     0.064 A 
ATOM     88  C   UNL A   1      47.116  30.754  28.195  1.00  0.00     0.173 A 
ATOM     89  C   UNL A   1      44.738  31.067  28.183  1.00  0.00     0.173 A 
ATOM     90  F   UNL A   1      48.219  30.108  28.591  1.00  0.00    -0.203 F 
ATOM     91  C   UNL A   1      47.249  31.724  27.203  1.00  0.00     0.198 A 
ATOM     92  C   UNL A   1      44.870  32.008  27.167  1.00  0.00     0.198 A 
ATOM     93  F   UNL A   1      43.506  30.748  28.613  1.00  0.00    -0.203 F 
ATOM     94  F   UNL A   1      48.463  32.037  26.728  1.00  0.00    -0.200 F 
ATOM     95  C   UNL A   1      46.125  32.347  26.688  1.00  0.00     0.200 A 
ATOM     96  F   UNL A   1      43.776  32.571  26.634  1.00  0.00    -0.200 F 
ATOM     97  F   UNL A   1      46.248  33.256  25.710  1.00  0.00    -0.200 F 
ENDBRANCH  64  87
ENDBRANCH  38  39
ENDBRANCH  31  33
ENDBRANCH  30  31
ENDBRANCH   1  30
TORSDOF 13
ENDMDL
