MODEL 1
REMARK VINA RESULT:     -13.2      0.000      0.000
REMARK SMILES COc1ccc([C@@H]2Nc3c(C(=O)OCCOC(=O)c4ccc(-c5c6nc(c(-c7c(F)c(F)c(F)c(F)c7F)c7ccc([nH]7)c(-c7c(F)c(F)c(F)c(F)c7F)c7nc(c(-c8c(F)c(F)c(F)c(F)c8F)c8ccc5[nH]8)C=C7)C=C6)cc4)cccc3[C@@H]3[C@H]4CC[C@H](C4)[C@H]32)cc1[N+](=O)[O-]
REMARK SMILES IDX 14 1 13 2 11 3 12 4 10 5 7 6 8 7 92 8 9 9 86 11 90 12 85 13
REMARK SMILES IDX 87 14 89 15 91 16 82 17 84 18 88 19 83 20 6 21 3 22 4 23
REMARK SMILES IDX 94 24 5 25 93 26 2 27 1 28 95 29 96 30 97 31 15 32 16 33
REMARK SMILES IDX 17 34 18 35 19 36 20 37 81 38 21 39 80 40 22 41 23 42 24 43
REMARK SMILES IDX 74 44 25 45 79 46 73 47 75 48 26 49 78 50 72 51 71 52 27 54
REMARK SMILES IDX 59 55 39 56 58 57 40 58 43 59 57 60 76 61 41 62 42 63 56 65
REMARK SMILES IDX 77 66 44 67 28 68 29 69 37 70 30 71 31 72 35 73 38 74 32 75
REMARK SMILES IDX 33 76 36 77 34 78 60 79 61 80 69 81 62 82 63 83 67 84 70 85
REMARK SMILES IDX 64 86 65 87 68 88 66 89 45 90 46 91 54 92 47 93 48 94 52 95
REMARK SMILES IDX 55 96 49 97 50 98 53 99 51 100
REMARK H PARENT 8 10 75 53 43 64
REMARK Flexibility Score: inf
ROOT
ATOM      1  C   UNL A   1      42.222  20.004  25.766  1.00  0.00     0.275 C 
ENDROOT
BRANCH   1   2
ATOM      2  O   UNL A   1      41.054  20.582  26.388  1.00  0.00    -0.458 OA
BRANCH   2   3
ATOM      3  C   UNL A   1      39.860  20.342  25.786  1.00  0.00     0.340 C 
ATOM      4  O   UNL A   1      39.445  19.270  25.377  1.00  0.00    -0.246 OA
BRANCH   3   5
ATOM      5  C   UNL A   1      39.015  21.544  25.939  1.00  0.00     0.083 A 
ATOM      6  C   UNL A   1      35.676  20.874  24.297  1.00  0.00     0.114 C 
ATOM      7  N   UNL A   1      37.117  20.736  24.596  1.00  0.00    -0.377 N 
ATOM      8  C   UNL A   1      35.155  22.055  25.111  1.00  0.00     0.027 C 
ATOM      9  C   UNL A   1      37.842  21.777  25.211  1.00  0.00     0.053 A 
ATOM     10  H   UNL A   1      37.581  19.900  24.359  1.00  0.00     0.161 HD
ATOM     11  C   UNL A   1      35.947  23.278  24.620  1.00  0.00     0.030 C 
ATOM     12  C   UNL A   1      33.719  22.570  25.208  1.00  0.00    -0.005 C 
ATOM     13  C   UNL A   1      37.258  23.082  25.324  1.00  0.00    -0.020 A 
ATOM     14  C   UNL A   1      34.935  24.423  24.859  1.00  0.00    -0.003 C 
ATOM     15  C   UNL A   1      33.184  23.077  23.868  1.00  0.00     0.004 C 
ATOM     16  C   UNL A   1      34.014  23.887  25.958  1.00  0.00     0.008 C 
ATOM     17  C   UNL A   1      39.466  22.495  26.870  1.00  0.00     0.018 A 
ATOM     18  C   UNL A   1      37.817  24.078  26.128  1.00  0.00     0.006 A 
ATOM     19  C   UNL A   1      33.948  24.399  23.666  1.00  0.00     0.004 C 
ATOM     20  C   UNL A   1      38.897  23.765  26.939  1.00  0.00     0.001 A 
BRANCH   6  21
ATOM     21  C   UNL A   1      34.894  19.623  24.652  1.00  0.00    -0.018 A 
ATOM     22  C   UNL A   1      33.530  17.155  24.865  1.00  0.00     0.196 A 
ATOM     23  C   UNL A   1      32.830  18.324  24.557  1.00  0.00     0.054 A 
ATOM     24  C   UNL A   1      34.905  17.230  25.089  1.00  0.00     0.311 A 
ATOM     25  C   UNL A   1      33.503  19.549  24.468  1.00  0.00     0.010 A 
ATOM     26  C   UNL A   1      35.588  18.454  25.001  1.00  0.00     0.095 A 
BRANCH  22  27
ATOM     27  O   UNL A   1      32.831  15.983  24.806  1.00  0.00    -0.490 OA
ATOM     28  C   UNL A   1      32.188  15.689  26.044  1.00  0.00     0.278 C 
ENDBRANCH  22  27
BRANCH  24  29
ATOM     29  N   UNL A   1      35.689  16.040  25.375  1.00  0.00     0.066 N 
ATOM     30  O   UNL A   1      35.311  14.985  24.844  1.00  0.00    -0.258 OA
ATOM     31  O   UNL A   1      36.653  16.142  26.144  1.00  0.00    -0.258 OA
ENDBRANCH  24  29
ENDBRANCH   6  21
ENDBRANCH   3   5
ENDBRANCH   2   3
ENDBRANCH   1   2
BRANCH   1  32
ATOM     32  C   UNL A   1      43.286  21.087  25.572  1.00  0.00     0.275 C 
BRANCH  32  33
ATOM     33  O   UNL A   1      42.653  22.286  25.084  1.00  0.00    -0.458 OA
BRANCH  33  34
ATOM     34  C   UNL A   1      43.406  23.412  25.122  1.00  0.00     0.338 C 
ATOM     35  O   UNL A   1      44.366  23.692  24.427  1.00  0.00    -0.246 OA
BRANCH  34  36
ATOM     36  C   UNL A   1      42.868  24.310  26.163  1.00  0.00     0.060 A 
ATOM     37  C   UNL A   1      42.842  25.679  25.918  1.00  0.00     0.016 A 
ATOM     38  C   UNL A   1      42.477  23.824  27.408  1.00  0.00     0.016 A 
ATOM     39  C   UNL A   1      42.460  26.578  26.913  1.00  0.00     0.010 A 
ATOM     40  C   UNL A   1      42.035  24.720  28.394  1.00  0.00     0.010 A 
ATOM     41  C   UNL A   1      42.046  26.111  28.168  1.00  0.00    -0.014 A 
BRANCH  41  42
ATOM     42  C   UNL A   1      41.694  27.081  29.246  1.00  0.00     0.031 A 
ATOM     43  C   UNL A   1      42.548  27.190  30.484  1.00  0.00     0.074 A 
ATOM     44  C   UNL A   1      40.633  27.904  29.110  1.00  0.00     0.049 A 
ATOM     45  N   UNL A   1      42.364  27.914  31.561  1.00  0.00    -0.248 NA
ATOM     46  C   UNL A   1      43.767  26.370  30.518  1.00  0.00     0.031 C 
ATOM     47  C   UNL A   1      39.732  27.940  27.959  1.00  0.00     0.029 A 
ATOM     48  N   UNL A   1      40.141  28.879  29.947  1.00  0.00    -0.354 N 
ATOM     49  C   UNL A   1      43.417  27.606  32.414  1.00  0.00     0.074 A 
ATOM     50  C   UNL A   1      44.230  26.619  31.735  1.00  0.00     0.031 C 
ATOM     51  C   UNL A   1      38.822  28.910  28.144  1.00  0.00     0.029 A 
ATOM     52  C   UNL A   1      39.031  29.521  29.453  1.00  0.00     0.049 A 
ATOM     53  H   UNL A   1      40.545  29.097  30.818  1.00  0.00     0.167 HD
ATOM     54  C   UNL A   1      43.689  28.102  33.645  1.00  0.00     0.037 A 
ATOM     55  C   UNL A   1      38.253  30.477  29.997  1.00  0.00     0.037 A 
ATOM     56  C   UNL A   1      42.914  29.118  34.311  1.00  0.00     0.049 A 
ATOM     57  C   UNL A   1      38.564  30.997  31.375  1.00  0.00     0.074 A 
ATOM     58  C   UNL A   1      43.132  29.696  35.552  1.00  0.00     0.029 A 
ATOM     59  N   UNL A   1      41.780  29.719  33.788  1.00  0.00    -0.354 N 
ATOM     60  N   UNL A   1      39.548  30.677  32.178  1.00  0.00    -0.248 NA
ATOM     61  C   UNL A   1      37.646  32.006  31.925  1.00  0.00     0.031 C 
ATOM     62  C   UNL A   1      42.107  30.619  35.794  1.00  0.00     0.029 A 
ATOM     63  C   UNL A   1      41.278  30.649  34.686  1.00  0.00     0.049 A 
ATOM     64  H   UNL A   1      41.388  29.515  32.908  1.00  0.00     0.167 HD
ATOM     65  C   UNL A   1      39.375  31.448  33.319  1.00  0.00     0.074 A 
ATOM     66  C   UNL A   1      38.208  32.274  33.094  1.00  0.00     0.031 C 
ATOM     67  C   UNL A   1      40.112  31.463  34.457  1.00  0.00     0.037 A 
BRANCH  54  68
ATOM     68  C   UNL A   1      44.870  27.532  34.378  1.00  0.00     0.064 A 
ATOM     69  C   UNL A   1      44.754  26.411  35.213  1.00  0.00     0.173 A 
ATOM     70  C   UNL A   1      46.145  28.094  34.205  1.00  0.00     0.173 A 
ATOM     71  F   UNL A   1      43.556  25.846  35.420  1.00  0.00    -0.203 F 
ATOM     72  C   UNL A   1      45.867  25.889  35.868  1.00  0.00     0.198 A 
ATOM     73  C   UNL A   1      47.260  27.552  34.839  1.00  0.00     0.198 A 
ATOM     74  F   UNL A   1      46.312  29.161  33.411  1.00  0.00    -0.203 F 
ATOM     75  F   UNL A   1      45.725  24.845  36.695  1.00  0.00    -0.200 F 
ATOM     76  C   UNL A   1      47.118  26.455  35.675  1.00  0.00     0.200 A 
ATOM     77  F   UNL A   1      48.470  28.092  34.641  1.00  0.00    -0.200 F 
ATOM     78  F   UNL A   1      48.190  25.946  36.301  1.00  0.00    -0.200 F 
ENDBRANCH  54  68
BRANCH  55  79
ATOM     79  C   UNL A   1      37.079  30.996  29.245  1.00  0.00     0.064 A 
ATOM     80  C   UNL A   1      35.942  30.201  29.042  1.00  0.00     0.173 A 
ATOM     81  C   UNL A   1      37.078  32.289  28.702  1.00  0.00     0.173 A 
ATOM     82  F   UNL A   1      35.908  28.947  29.515  1.00  0.00    -0.203 F 
ATOM     83  C   UNL A   1      34.853  30.677  28.314  1.00  0.00     0.198 A 
ATOM     84  C   UNL A   1      35.976  32.775  28.002  1.00  0.00     0.198 A 
ATOM     85  F   UNL A   1      38.144  33.086  28.863  1.00  0.00    -0.203 F 
ATOM     86  F   UNL A   1      33.798  29.882  28.096  1.00  0.00    -0.200 F 
ATOM     87  C   UNL A   1      34.868  31.966  27.802  1.00  0.00     0.200 A 
ATOM     88  F   UNL A   1      35.992  34.024  27.518  1.00  0.00    -0.200 F 
ATOM     89  F   UNL A   1      33.818  32.425  27.107  1.00  0.00    -0.200 F 
ENDBRANCH  55  79
BRANCH  67  90
ATOM     90  C   UNL A   1      39.686  32.416  35.536  1.00  0.00     0.064 A 
ATOM     91  C   UNL A   1      40.198  33.720  35.607  1.00  0.00     0.173 A 
ATOM     92  C   UNL A   1      38.752  32.024  36.506  1.00  0.00     0.173 A 
ATOM     93  F   UNL A   1      41.107  34.138  34.713  1.00  0.00    -0.203 F 
ATOM     94  C   UNL A   1      39.816  34.585  36.629  1.00  0.00     0.198 A 
ATOM     95  C   UNL A   1      38.350  32.901  37.511  1.00  0.00     0.198 A 
ATOM     96  F   UNL A   1      38.227  30.790  36.481  1.00  0.00    -0.203 F 
ATOM     97  F   UNL A   1      40.362  35.807  36.710  1.00  0.00    -0.200 F 
ATOM     98  C   UNL A   1      38.890  34.177  37.578  1.00  0.00     0.200 A 
ATOM     99  F   UNL A   1      37.448  32.509  38.421  1.00  0.00    -0.200 F 
ATOM    100  F   UNL A   1      38.527  35.009  38.563  1.00  0.00    -0.200 F 
ENDBRANCH  67  90
ENDBRANCH  41  42
ENDBRANCH  34  36
ENDBRANCH  33  34
ENDBRANCH  32  33
ENDBRANCH   1  32
TORSDOF 14
ENDMDL
MODEL 2
REMARK VINA RESULT:     -13.2      3.386      7.911
REMARK SMILES COc1ccc([C@@H]2Nc3c(C(=O)OCCOC(=O)c4ccc(-c5c6nc(c(-c7c(F)c(F)c(F)c(F)c7F)c7ccc([nH]7)c(-c7c(F)c(F)c(F)c(F)c7F)c7nc(c(-c8c(F)c(F)c(F)c(F)c8F)c8ccc5[nH]8)C=C7)C=C6)cc4)cccc3[C@@H]3[C@H]4CC[C@H](C4)[C@H]32)cc1[N+](=O)[O-]
REMARK SMILES IDX 14 1 13 2 11 3 12 4 10 5 7 6 8 7 92 8 9 9 86 11 90 12 85 13
REMARK SMILES IDX 87 14 89 15 91 16 82 17 84 18 88 19 83 20 6 21 3 22 4 23
REMARK SMILES IDX 94 24 5 25 93 26 2 27 1 28 95 29 96 30 97 31 15 32 16 33
REMARK SMILES IDX 17 34 18 35 19 36 20 37 81 38 21 39 80 40 22 41 23 42 24 43
REMARK SMILES IDX 74 44 25 45 79 46 73 47 75 48 26 49 78 50 72 51 71 52 27 54
REMARK SMILES IDX 59 55 39 56 58 57 40 58 43 59 57 60 76 61 41 62 42 63 56 65
REMARK SMILES IDX 77 66 44 67 28 68 29 69 37 70 30 71 31 72 35 73 38 74 32 75
REMARK SMILES IDX 33 76 36 77 34 78 60 79 61 80 69 81 62 82 63 83 67 84 70 85
REMARK SMILES IDX 64 86 65 87 68 88 66 89 45 90 46 91 54 92 47 93 48 94 52 95
REMARK SMILES IDX 55 96 49 97 50 98 53 99 51 100
REMARK H PARENT 8 10 75 53 43 64
REMARK Flexibility Score: inf
ROOT
ATOM      1  C   UNL A   1      32.901  28.641  23.491  1.00  0.00     0.275 C 
ENDROOT
BRANCH   1   2
ATOM      2  O   UNL A   1      33.555  27.354  23.525  1.00  0.00    -0.458 OA
BRANCH   2   3
ATOM      3  C   UNL A   1      33.275  26.501  22.506  1.00  0.00     0.340 C 
ATOM      4  O   UNL A   1      33.714  26.546  21.367  1.00  0.00    -0.246 OA
BRANCH   3   5
ATOM      5  C   UNL A   1      32.553  25.337  23.060  1.00  0.00     0.083 A 
ATOM      6  C   UNL A   1      35.045  22.556  23.652  1.00  0.00     0.114 C 
ATOM      7  N   UNL A   1      34.468  23.791  23.079  1.00  0.00    -0.377 N 
ATOM      8  C   UNL A   1      33.987  21.942  24.564  1.00  0.00     0.027 C 
ATOM      9  C   UNL A   1      33.082  24.043  23.124  1.00  0.00     0.053 A 
ATOM     10  H   UNL A   1      35.065  24.451  22.657  1.00  0.00     0.161 HD
ATOM     11  C   UNL A   1      32.788  21.629  23.655  1.00  0.00     0.030 C 
ATOM     12  C   UNL A   1      34.110  20.696  25.441  1.00  0.00    -0.005 C 
ATOM     13  C   UNL A   1      32.178  22.991  23.492  1.00  0.00    -0.020 A 
ATOM     14  C   UNL A   1      32.153  20.418  24.378  1.00  0.00    -0.003 C 
ATOM     15  C   UNL A   1      34.347  19.424  24.626  1.00  0.00     0.004 C 
ATOM     16  C   UNL A   1      32.621  20.559  25.829  1.00  0.00     0.008 C 
ATOM     17  C   UNL A   1      31.251  25.589  23.524  1.00  0.00     0.018 A 
ATOM     18  C   UNL A   1      30.836  23.237  23.788  1.00  0.00     0.006 A 
ATOM     19  C   UNL A   1      32.978  19.174  23.965  1.00  0.00     0.004 C 
ATOM     20  C   UNL A   1      30.386  24.547  23.849  1.00  0.00     0.001 A 
BRANCH   6  21
ATOM     21  C   UNL A   1      36.310  22.828  24.444  1.00  0.00    -0.018 A 
ATOM     22  C   UNL A   1      38.449  23.101  26.273  1.00  0.00     0.196 A 
ATOM     23  C   UNL A   1      37.511  24.125  26.127  1.00  0.00     0.054 A 
ATOM     24  C   UNL A   1      38.328  21.956  25.486  1.00  0.00     0.311 A 
ATOM     25  C   UNL A   1      36.461  23.997  25.209  1.00  0.00     0.010 A 
ATOM     26  C   UNL A   1      37.278  21.819  24.564  1.00  0.00     0.095 A 
BRANCH  22  27
ATOM     27  O   UNL A   1      39.365  23.242  27.277  1.00  0.00    -0.490 OA
ATOM     28  C   UNL A   1      39.289  24.530  27.884  1.00  0.00     0.278 C 
ENDBRANCH  22  27
BRANCH  24  29
ATOM     29  N   UNL A   1      39.253  20.843  25.624  1.00  0.00     0.066 N 
ATOM     30  O   UNL A   1      38.806  19.714  25.372  1.00  0.00    -0.258 OA
ATOM     31  O   UNL A   1      40.403  21.081  26.011  1.00  0.00    -0.258 OA
ENDBRANCH  24  29
ENDBRANCH   6  21
ENDBRANCH   3   5
ENDBRANCH   2   3
ENDBRANCH   1   2
BRANCH   1  32
ATOM     32  C   UNL A   1      32.546  29.071  24.917  1.00  0.00     0.275 C 
BRANCH  32  33
ATOM     33  O   UNL A   1      33.475  30.085  25.348  1.00  0.00    -0.458 OA
BRANCH  33  34
ATOM     34  C   UNL A   1      33.346  30.501  26.631  1.00  0.00     0.338 C 
ATOM     35  O   UNL A   1      32.341  30.903  27.188  1.00  0.00    -0.246 OA
BRANCH  34  36
ATOM     36  C   UNL A   1      34.655  30.380  27.304  1.00  0.00     0.060 A 
ATOM     37  C   UNL A   1      35.134  29.112  27.612  1.00  0.00     0.016 A 
ATOM     38  C   UNL A   1      35.365  31.505  27.716  1.00  0.00     0.016 A 
ATOM     39  C   UNL A   1      36.302  28.948  28.356  1.00  0.00     0.010 A 
ATOM     40  C   UNL A   1      36.572  31.346  28.414  1.00  0.00     0.010 A 
ATOM     41  C   UNL A   1      37.042  30.065  28.767  1.00  0.00    -0.014 A 
BRANCH  41  42
ATOM     42  C   UNL A   1      38.259  29.884  29.612  1.00  0.00     0.031 A 
ATOM     43  C   UNL A   1      39.454  29.135  29.080  1.00  0.00     0.074 A 
ATOM     44  C   UNL A   1      38.325  30.425  30.847  1.00  0.00     0.049 A 
ATOM     45  N   UNL A   1      40.570  28.809  29.685  1.00  0.00    -0.248 NA
ATOM     46  C   UNL A   1      39.382  28.688  27.681  1.00  0.00     0.031 C 
ATOM     47  C   UNL A   1      37.264  31.202  31.488  1.00  0.00     0.029 A 
ATOM     48  N   UNL A   1      39.335  30.411  31.780  1.00  0.00    -0.354 N 
ATOM     49  C   UNL A   1      41.311  28.085  28.759  1.00  0.00     0.074 A 
ATOM     50  C   UNL A   1      40.513  28.008  27.553  1.00  0.00     0.031 C 
ATOM     51  C   UNL A   1      37.691  31.621  32.690  1.00  0.00     0.029 A 
ATOM     52  C   UNL A   1      39.029  31.089  32.935  1.00  0.00     0.049 A 
ATOM     53  H   UNL A   1      40.197  29.958  31.635  1.00  0.00     0.167 HD
ATOM     54  C   UNL A   1      42.544  27.539  28.894  1.00  0.00     0.037 A 
ATOM     55  C   UNL A   1      39.731  31.247  34.075  1.00  0.00     0.037 A 
ATOM     56  C   UNL A   1      43.366  27.649  30.072  1.00  0.00     0.049 A 
ATOM     57  C   UNL A   1      41.090  30.614  34.207  1.00  0.00     0.074 A 
ATOM     58  C   UNL A   1      44.639  27.146  30.287  1.00  0.00     0.029 A 
ATOM     59  N   UNL A   1      43.004  28.318  31.231  1.00  0.00    -0.354 N 
ATOM     60  N   UNL A   1      41.765  29.911  33.332  1.00  0.00    -0.248 NA
ATOM     61  C   UNL A   1      41.779  30.789  35.495  1.00  0.00     0.031 C 
ATOM     62  C   UNL A   1      45.031  27.479  31.589  1.00  0.00     0.029 A 
ATOM     63  C   UNL A   1      44.022  28.227  32.169  1.00  0.00     0.049 A 
ATOM     64  H   UNL A   1      42.150  28.788  31.368  1.00  0.00     0.167 HD
ATOM     65  C   UNL A   1      42.957  29.570  33.956  1.00  0.00     0.074 A 
ATOM     66  C   UNL A   1      42.927  30.167  35.274  1.00  0.00     0.031 C 
ATOM     67  C   UNL A   1      43.982  28.819  33.481  1.00  0.00     0.037 A 
BRANCH  54  68
ATOM     68  C   UNL A   1      43.080  26.741  27.740  1.00  0.00     0.064 A 
ATOM     69  C   UNL A   1      43.793  27.341  26.692  1.00  0.00     0.173 A 
ATOM     70  C   UNL A   1      42.910  25.348  27.707  1.00  0.00     0.173 A 
ATOM     71  F   UNL A   1      43.971  28.669  26.671  1.00  0.00    -0.203 F 
ATOM     72  C   UNL A   1      44.296  26.578  25.641  1.00  0.00     0.198 A 
ATOM     73  C   UNL A   1      43.439  24.585  26.670  1.00  0.00     0.198 A 
ATOM     74  F   UNL A   1      42.242  24.724  28.689  1.00  0.00    -0.203 F 
ATOM     75  F   UNL A   1      44.937  27.177  24.628  1.00  0.00    -0.200 F 
ATOM     76  C   UNL A   1      44.125  25.201  25.634  1.00  0.00     0.200 A 
ATOM     77  F   UNL A   1      43.284  23.255  26.671  1.00  0.00    -0.200 F 
ATOM     78  F   UNL A   1      44.617  24.468  24.625  1.00  0.00    -0.200 F 
ENDBRANCH  54  68
BRANCH  55  79
ATOM     79  C   UNL A   1      39.151  32.025  35.201  1.00  0.00     0.064 A 
ATOM     80  C   UNL A   1      38.392  31.397  36.199  1.00  0.00     0.173 A 
ATOM     81  C   UNL A   1      39.331  33.413  35.295  1.00  0.00     0.173 A 
ATOM     82  F   UNL A   1      38.165  30.077  36.137  1.00  0.00    -0.203 F 
ATOM     83  C   UNL A   1      37.825  32.130  37.240  1.00  0.00     0.198 A 
ATOM     84  C   UNL A   1      38.790  34.140  36.353  1.00  0.00     0.198 A 
ATOM     85  F   UNL A   1      40.043  34.062  34.362  1.00  0.00    -0.203 F 
ATOM     86  F   UNL A   1      37.067  31.513  38.155  1.00  0.00    -0.200 F 
ATOM     87  C   UNL A   1      38.032  33.499  37.321  1.00  0.00     0.200 A 
ATOM     88  F   UNL A   1      39.001  35.461  36.432  1.00  0.00    -0.200 F 
ATOM     89  F   UNL A   1      37.492  34.203  38.325  1.00  0.00    -0.200 F 
ENDBRANCH  55  79
BRANCH  67  90
ATOM     90  C   UNL A   1      45.161  28.619  34.389  1.00  0.00     0.064 A 
ATOM     91  C   UNL A   1      45.234  27.529  35.269  1.00  0.00     0.173 A 
ATOM     92  C   UNL A   1      46.232  29.525  34.376  1.00  0.00     0.173 A 
ATOM     93  F   UNL A   1      44.227  26.644  35.331  1.00  0.00    -0.203 F 
ATOM     94  C   UNL A   1      46.320  27.371  36.126  1.00  0.00     0.198 A 
ATOM     95  C   UNL A   1      47.331  29.348  35.215  1.00  0.00     0.198 A 
ATOM     96  F   UNL A   1      46.216  30.582  33.551  1.00  0.00    -0.203 F 
ATOM     97  F   UNL A   1      46.341  26.352  36.997  1.00  0.00    -0.200 F 
ATOM     98  C   UNL A   1      47.369  28.278  36.096  1.00  0.00     0.200 A 
ATOM     99  F   UNL A   1      48.348  30.220  35.178  1.00  0.00    -0.200 F 
ATOM    100  F   UNL A   1      48.411  28.127  36.923  1.00  0.00    -0.200 F 
ENDBRANCH  67  90
ENDBRANCH  41  42
ENDBRANCH  34  36
ENDBRANCH  33  34
ENDBRANCH  32  33
ENDBRANCH   1  32
TORSDOF 14
ENDMDL
MODEL 3
REMARK VINA RESULT:     -13.1      3.404      8.042
REMARK SMILES COc1ccc([C@@H]2Nc3c(C(=O)OCCOC(=O)c4ccc(-c5c6nc(c(-c7c(F)c(F)c(F)c(F)c7F)c7ccc([nH]7)c(-c7c(F)c(F)c(F)c(F)c7F)c7nc(c(-c8c(F)c(F)c(F)c(F)c8F)c8ccc5[nH]8)C=C7)C=C6)cc4)cccc3[C@@H]3[C@H]4CC[C@H](C4)[C@H]32)cc1[N+](=O)[O-]
REMARK SMILES IDX 14 1 13 2 11 3 12 4 10 5 7 6 8 7 92 8 9 9 86 11 90 12 85 13
REMARK SMILES IDX 87 14 89 15 91 16 82 17 84 18 88 19 83 20 6 21 3 22 4 23
REMARK SMILES IDX 94 24 5 25 93 26 2 27 1 28 95 29 96 30 97 31 15 32 16 33
REMARK SMILES IDX 17 34 18 35 19 36 20 37 81 38 21 39 80 40 22 41 23 42 24 43
REMARK SMILES IDX 74 44 25 45 79 46 73 47 75 48 26 49 78 50 72 51 71 52 27 54
REMARK SMILES IDX 59 55 39 56 58 57 40 58 43 59 57 60 76 61 41 62 42 63 56 65
REMARK SMILES IDX 77 66 44 67 28 68 29 69 37 70 30 71 31 72 35 73 38 74 32 75
REMARK SMILES IDX 33 76 36 77 34 78 60 79 61 80 69 81 62 82 63 83 67 84 70 85
REMARK SMILES IDX 64 86 65 87 68 88 66 89 45 90 46 91 54 92 47 93 48 94 52 95
REMARK SMILES IDX 55 96 49 97 50 98 53 99 51 100
REMARK H PARENT 8 10 75 53 43 64
REMARK Flexibility Score: inf
ROOT
ATOM      1  C   UNL A   1      32.101  27.925  25.321  1.00  0.00     0.275 C 
ENDROOT
BRANCH   1   2
ATOM      2  O   UNL A   1      32.443  26.847  26.219  1.00  0.00    -0.458 OA
BRANCH   2   3
ATOM      3  C   UNL A   1      33.294  25.903  25.742  1.00  0.00     0.340 C 
ATOM      4  O   UNL A   1      34.488  26.033  25.521  1.00  0.00    -0.246 OA
BRANCH   3   5
ATOM      5  C   UNL A   1      32.605  24.596  25.780  1.00  0.00     0.083 A 
ATOM      6  C   UNL A   1      35.009  21.941  24.570  1.00  0.00     0.114 C 
ATOM      7  N   UNL A   1      34.418  23.284  24.756  1.00  0.00    -0.377 N 
ATOM      8  C   UNL A   1      34.071  20.937  25.232  1.00  0.00     0.027 C 
ATOM      9  C   UNL A   1      33.069  23.445  25.133  1.00  0.00     0.053 A 
ATOM     10  H   UNL A   1      34.977  24.081  24.612  1.00  0.00     0.161 HD
ATOM     11  C   UNL A   1      32.733  21.065  24.486  1.00  0.00     0.030 C 
ATOM     12  C   UNL A   1      34.260  19.426  25.375  1.00  0.00    -0.005 C 
ATOM     13  C   UNL A   1      32.178  22.322  25.091  1.00  0.00    -0.020 A 
ATOM     14  C   UNL A   1      32.154  19.639  24.632  1.00  0.00    -0.003 C 
ATOM     15  C   UNL A   1      34.304  18.708  24.026  1.00  0.00     0.004 C 
ATOM     16  C   UNL A   1      32.842  19.080  25.880  1.00  0.00     0.008 C 
ATOM     17  C   UNL A   1      31.403  24.559  26.506  1.00  0.00     0.018 A 
ATOM     18  C   UNL A   1      30.910  22.359  25.677  1.00  0.00     0.006 A 
ATOM     19  C   UNL A   1      32.841  18.768  23.551  1.00  0.00     0.004 C 
ATOM     20  C   UNL A   1      30.544  23.466  26.426  1.00  0.00     0.001 A 
BRANCH   6  21
ATOM     21  C   UNL A   1      36.392  21.834  25.185  1.00  0.00    -0.018 A 
ATOM     22  C   UNL A   1      39.121  21.835  25.927  1.00  0.00     0.196 A 
ATOM     23  C   UNL A   1      38.546  20.699  25.355  1.00  0.00     0.054 A 
ATOM     24  C   UNL A   1      38.322  22.958  26.149  1.00  0.00     0.311 A 
ATOM     25  C   UNL A   1      37.191  20.692  25.003  1.00  0.00     0.010 A 
ATOM     26  C   UNL A   1      36.962  22.960  25.798  1.00  0.00     0.095 A 
BRANCH  22  27
ATOM     27  O   UNL A   1      40.473  21.812  26.122  1.00  0.00    -0.490 OA
ATOM     28  C   UNL A   1      40.906  20.567  26.666  1.00  0.00     0.278 C 
ENDBRANCH  22  27
BRANCH  24  29
ATOM     29  N   UNL A   1      38.876  24.180  26.705  1.00  0.00     0.066 N 
ATOM     30  O   UNL A   1      39.607  24.849  25.959  1.00  0.00    -0.258 OA
ATOM     31  O   UNL A   1      38.618  24.460  27.882  1.00  0.00    -0.258 OA
ENDBRANCH  24  29
ENDBRANCH   6  21
ENDBRANCH   3   5
ENDBRANCH   2   3
ENDBRANCH   1   2
BRANCH   1  32
ATOM     32  C   UNL A   1      31.910  29.216  26.122  1.00  0.00     0.275 C 
BRANCH  32  33
ATOM     33  O   UNL A   1      33.071  30.052  25.951  1.00  0.00    -0.458 OA
BRANCH  33  34
ATOM     34  C   UNL A   1      33.260  31.006  26.895  1.00  0.00     0.338 C 
ATOM     35  O   UNL A   1      32.504  31.908  27.208  1.00  0.00    -0.246 OA
BRANCH  34  36
ATOM     36  C   UNL A   1      34.568  30.781  27.543  1.00  0.00     0.060 A 
ATOM     37  C   UNL A   1      34.870  29.510  28.020  1.00  0.00     0.016 A 
ATOM     38  C   UNL A   1      35.455  31.831  27.767  1.00  0.00     0.016 A 
ATOM     39  C   UNL A   1      36.036  29.276  28.747  1.00  0.00     0.010 A 
ATOM     40  C   UNL A   1      36.659  31.589  28.447  1.00  0.00     0.010 A 
ATOM     41  C   UNL A   1      36.952  30.314  28.969  1.00  0.00    -0.014 A 
BRANCH  41  42
ATOM     42  C   UNL A   1      38.170  30.069  29.798  1.00  0.00     0.031 A 
ATOM     43  C   UNL A   1      39.336  29.298  29.233  1.00  0.00     0.074 A 
ATOM     44  C   UNL A   1      38.262  30.571  31.047  1.00  0.00     0.049 A 
ATOM     45  N   UNL A   1      40.445  28.919  29.818  1.00  0.00    -0.248 NA
ATOM     46  C   UNL A   1      39.238  28.896  27.822  1.00  0.00     0.031 C 
ATOM     47  C   UNL A   1      37.233  31.362  31.720  1.00  0.00     0.029 A 
ATOM     48  N   UNL A   1      39.279  30.497  31.970  1.00  0.00    -0.354 N 
ATOM     49  C   UNL A   1      41.155  28.199  28.864  1.00  0.00     0.074 A 
ATOM     50  C   UNL A   1      40.345  28.184  27.664  1.00  0.00     0.031 C 
ATOM     51  C   UNL A   1      37.683  31.731  32.930  1.00  0.00     0.029 A 
ATOM     52  C   UNL A   1      39.005  31.150  33.147  1.00  0.00     0.049 A 
ATOM     53  H   UNL A   1      40.126  30.021  31.804  1.00  0.00     0.167 HD
ATOM     54  C   UNL A   1      42.371  27.611  28.973  1.00  0.00     0.037 A 
ATOM     55  C   UNL A   1      39.720  31.252  34.285  1.00  0.00     0.037 A 
ATOM     56  C   UNL A   1      43.206  27.660  30.146  1.00  0.00     0.049 A 
ATOM     57  C   UNL A   1      41.060  30.572  34.386  1.00  0.00     0.074 A 
ATOM     58  C   UNL A   1      44.464  27.111  30.334  1.00  0.00     0.029 A 
ATOM     59  N   UNL A   1      42.875  28.306  31.327  1.00  0.00    -0.354 N 
ATOM     60  N   UNL A   1      41.705  29.875  33.485  1.00  0.00    -0.248 NA
ATOM     61  C   UNL A   1      41.764  30.688  35.672  1.00  0.00     0.031 C 
ATOM     62  C   UNL A   1      44.877  27.392  31.642  1.00  0.00     0.029 A 
ATOM     63  C   UNL A   1      43.897  28.155  32.252  1.00  0.00     0.049 A 
ATOM     64  H   UNL A   1      42.038  28.799  31.485  1.00  0.00     0.167 HD
ATOM     65  C   UNL A   1      42.891  29.477  34.088  1.00  0.00     0.074 A 
ATOM     66  C   UNL A   1      42.891  30.036  35.423  1.00  0.00     0.031 C 
ATOM     67  C   UNL A   1      43.887  28.709  33.582  1.00  0.00     0.037 A 
BRANCH  54  68
ATOM     68  C   UNL A   1      42.871  26.831  27.791  1.00  0.00     0.064 A 
ATOM     69  C   UNL A   1      43.668  27.419  26.797  1.00  0.00     0.173 A 
ATOM     70  C   UNL A   1      42.582  25.462  27.675  1.00  0.00     0.173 A 
ATOM     71  F   UNL A   1      43.961  28.726  26.855  1.00  0.00    -0.203 F 
ATOM     72  C   UNL A   1      44.135  26.672  25.719  1.00  0.00     0.198 A 
ATOM     73  C   UNL A   1      43.075  24.711  26.612  1.00  0.00     0.198 A 
ATOM     74  F   UNL A   1      41.832  24.849  28.603  1.00  0.00    -0.203 F 
ATOM     75  F   UNL A   1      44.858  27.264  24.759  1.00  0.00    -0.200 F 
ATOM     76  C   UNL A   1      43.844  25.318  25.631  1.00  0.00     0.200 A 
ATOM     77  F   UNL A   1      42.804  23.402  26.535  1.00  0.00    -0.200 F 
ATOM     78  F   UNL A   1      44.303  24.599  24.597  1.00  0.00    -0.200 F 
ENDBRANCH  54  68
BRANCH  55  79
ATOM     79  C   UNL A   1      39.175  32.015  35.439  1.00  0.00     0.064 A 
ATOM     80  C   UNL A   1      39.440  33.384  35.590  1.00  0.00     0.173 A 
ATOM     81  C   UNL A   1      38.392  31.389  36.420  1.00  0.00     0.173 A 
ATOM     82  F   UNL A   1      40.209  34.020  34.695  1.00  0.00    -0.203 F 
ATOM     83  C   UNL A   1      38.951  34.093  36.686  1.00  0.00     0.198 A 
ATOM     84  C   UNL A   1      37.878  32.107  37.498  1.00  0.00     0.198 A 
ATOM     85  F   UNL A   1      38.116  30.080  36.324  1.00  0.00    -0.203 F 
ATOM     86  F   UNL A   1      39.256  35.390  36.830  1.00  0.00    -0.200 F 
ATOM     87  C   UNL A   1      38.165  33.457  37.633  1.00  0.00     0.200 A 
ATOM     88  F   UNL A   1      37.111  31.489  38.405  1.00  0.00    -0.200 F 
ATOM     89  F   UNL A   1      37.690  34.141  38.683  1.00  0.00    -0.200 F 
ENDBRANCH  55  79
BRANCH  67  90
ATOM     90  C   UNL A   1      45.066  28.445  34.472  1.00  0.00     0.064 A 
ATOM     91  C   UNL A   1      46.187  29.289  34.476  1.00  0.00     0.173 A 
ATOM     92  C   UNL A   1      45.075  27.340  35.336  1.00  0.00     0.173 A 
ATOM     93  F   UNL A   1      46.235  30.350  33.656  1.00  0.00    -0.203 F 
ATOM     94  C   UNL A   1      47.286  29.017  35.286  1.00  0.00     0.198 A 
ATOM     95  C   UNL A   1      46.164  27.086  36.166  1.00  0.00     0.198 A 
ATOM     96  F   UNL A   1      44.026  26.503  35.376  1.00  0.00    -0.203 F 
ATOM     97  F   UNL A   1      48.369  29.806  35.230  1.00  0.00    -0.200 F 
ATOM     98  C   UNL A   1      47.273  27.918  36.133  1.00  0.00     0.200 A 
ATOM     99  F   UNL A   1      46.146  26.031  36.991  1.00  0.00    -0.200 F 
ATOM    100  F   UNL A   1      48.333  27.656  36.909  1.00  0.00    -0.200 F 
ENDBRANCH  67  90
ENDBRANCH  41  42
ENDBRANCH  34  36
ENDBRANCH  33  34
ENDBRANCH  32  33
ENDBRANCH   1  32
TORSDOF 14
ENDMDL
