MODEL 1
REMARK VINA RESULT:     -12.5      0.000      0.000
REMARK SMILES C[C@@H](C(=O)OCCOC(=O)c1ccc(-c2c3nc(c(-c4c(F)c(F)c(F)c(F)c4F)c4ccc([nH]4)c(-c4c(F)c(F)c(F)c(F)c4F)c4nc(c(-c5c(F)c(F)c(F)c(F)c5F)c5ccc2[nH]5)C=C4)C=C3)cc1)c1ccc(-c2cccc(OC(=O)NCCCc3ccccc3)c2)c(F)c1
REMARK SMILES IDX 1 1 2 2 3 3 4 4 5 5 6 6 7 7 8 8 9 9 10 10 11 11 12 12 73 13
REMARK SMILES IDX 13 14 72 15 14 16 15 17 16 18 66 19 17 20 71 21 65 22 67 23
REMARK SMILES IDX 18 24 70 25 64 26 63 27 19 29 51 30 31 31 50 32 32 33 35 34
REMARK SMILES IDX 49 35 68 36 33 37 34 38 48 40 69 41 36 42 20 43 21 44 29 45
REMARK SMILES IDX 22 46 23 47 27 48 30 49 24 50 25 51 28 52 26 53 52 54 53 55
REMARK SMILES IDX 61 56 54 57 55 58 59 59 62 60 56 61 57 62 60 63 58 64 37 65
REMARK SMILES IDX 38 66 46 67 39 68 40 69 44 70 47 71 41 72 42 73 45 74 43 75
REMARK SMILES IDX 74 76 75 77 99 78 76 79 97 80 77 81 98 82 78 83 79 84 96 85
REMARK SMILES IDX 80 86 82 87 81 88 83 89 84 90 85 91 86 92 87 94 88 95 89 96
REMARK SMILES IDX 90 97 91 98 95 99 92 100 94 101 93 102
REMARK H PARENT 67 28 35 39 86 93
REMARK Flexibility Score: inf
ROOT
ATOM      1  C   UNL A   1      41.569  22.061  28.371  1.00  0.00     0.025 C 
ATOM      2  C   UNL A   1      41.332  22.175  26.854  1.00  0.00     0.126 C 
ENDROOT
BRANCH   2   3
ATOM      3  C   UNL A   1      41.940  20.969  26.108  1.00  0.00     0.313 C 
ATOM      4  O   UNL A   1      41.676  19.801  26.374  1.00  0.00    -0.252 OA
BRANCH   3   5
ATOM      5  O   UNL A   1      42.790  21.337  25.109  1.00  0.00    -0.462 OA
BRANCH   5   6
ATOM      6  C   UNL A   1      44.099  21.807  25.491  1.00  0.00     0.274 C 
BRANCH   6   7
ATOM      7  C   UNL A   1      44.628  22.760  24.422  1.00  0.00     0.275 C 
BRANCH   7   8
ATOM      8  O   UNL A   1      43.903  24.004  24.496  1.00  0.00    -0.458 OA
BRANCH   8   9
ATOM      9  C   UNL A   1      44.584  25.054  25.010  1.00  0.00     0.338 C 
ATOM     10  O   UNL A   1      45.697  25.446  24.704  1.00  0.00    -0.246 OA
BRANCH   9  11
ATOM     11  C   UNL A   1      43.735  25.764  25.984  1.00  0.00     0.060 A 
ATOM     12  C   UNL A   1      44.042  27.085  26.265  1.00  0.00     0.016 A 
ATOM     13  C   UNL A   1      42.779  25.094  26.750  1.00  0.00     0.016 A 
ATOM     14  C   UNL A   1      43.473  27.697  27.379  1.00  0.00     0.010 A 
ATOM     15  C   UNL A   1      42.129  25.763  27.806  1.00  0.00     0.010 A 
ATOM     16  C   UNL A   1      42.499  27.071  28.167  1.00  0.00    -0.014 A 
BRANCH  16  17
ATOM     17  C   UNL A   1      41.988  27.772  29.395  1.00  0.00     0.031 A 
ATOM     18  C   UNL A   1      40.669  28.512  29.361  1.00  0.00     0.074 A 
ATOM     19  C   UNL A   1      42.596  27.630  30.596  1.00  0.00     0.049 A 
ATOM     20  N   UNL A   1      40.118  29.281  30.271  1.00  0.00    -0.248 NA
ATOM     21  C   UNL A   1      39.846  28.343  28.154  1.00  0.00     0.031 C 
ATOM     22  C   UNL A   1      43.782  26.812  30.858  1.00  0.00     0.029 A 
ATOM     23  N   UNL A   1      42.263  28.115  31.843  1.00  0.00    -0.354 N 
ATOM     24  C   UNL A   1      38.927  29.740  29.718  1.00  0.00     0.074 A 
ATOM     25  C   UNL A   1      38.822  29.147  28.403  1.00  0.00     0.031 C 
ATOM     26  C   UNL A   1      43.997  26.750  32.179  1.00  0.00     0.029 A 
ATOM     27  C   UNL A   1      43.082  27.662  32.851  1.00  0.00     0.049 A 
ATOM     28  H   UNL A   1      41.508  28.728  31.997  1.00  0.00     0.167 HD
ATOM     29  C   UNL A   1      38.012  30.583  30.256  1.00  0.00     0.037 A 
ATOM     30  C   UNL A   1      43.144  27.985  34.160  1.00  0.00     0.037 A 
ATOM     31  C   UNL A   1      38.075  31.112  31.595  1.00  0.00     0.049 A 
ATOM     32  C   UNL A   1      42.200  29.026  34.697  1.00  0.00     0.074 A 
ATOM     33  C   UNL A   1      37.224  32.016  32.208  1.00  0.00     0.029 A 
ATOM     34  N   UNL A   1      39.030  30.764  32.539  1.00  0.00    -0.354 N 
ATOM     35  N   UNL A   1      41.162  29.579  34.122  1.00  0.00    -0.248 NA
ATOM     36  C   UNL A   1      42.464  29.520  36.057  1.00  0.00     0.031 C 
ATOM     37  C   UNL A   1      37.695  32.257  33.502  1.00  0.00     0.029 A 
ATOM     38  C   UNL A   1      38.801  31.453  33.721  1.00  0.00     0.049 A 
ATOM     39  H   UNL A   1      39.762  30.123  32.392  1.00  0.00     0.167 HD
ATOM     40  C   UNL A   1      40.645  30.477  35.048  1.00  0.00     0.074 A 
ATOM     41  C   UNL A   1      41.461  30.366  36.239  1.00  0.00     0.031 C 
ATOM     42  C   UNL A   1      39.600  31.327  34.913  1.00  0.00     0.037 A 
BRANCH  29  43
ATOM     43  C   UNL A   1      36.899  31.062  29.365  1.00  0.00     0.064 A 
ATOM     44  C   UNL A   1      36.885  32.340  28.790  1.00  0.00     0.173 A 
ATOM     45  C   UNL A   1      35.837  30.195  29.060  1.00  0.00     0.173 A 
ATOM     46  F   UNL A   1      37.869  33.211  29.058  1.00  0.00    -0.203 F 
ATOM     47  C   UNL A   1      35.835  32.742  27.967  1.00  0.00     0.198 A 
ATOM     48  C   UNL A   1      34.806  30.588  28.211  1.00  0.00     0.198 A 
ATOM     49  F   UNL A   1      35.806  28.956  29.575  1.00  0.00    -0.203 F 
ATOM     50  F   UNL A   1      35.814  33.986  27.468  1.00  0.00    -0.200 F 
ATOM     51  C   UNL A   1      34.800  31.865  27.673  1.00  0.00     0.200 A 
ATOM     52  F   UNL A   1      33.818  29.731  27.917  1.00  0.00    -0.200 F 
ATOM     53  F   UNL A   1      33.794  32.251  26.877  1.00  0.00    -0.200 F 
ENDBRANCH  29  43
BRANCH  30  54
ATOM     54  C   UNL A   1      44.209  27.411  35.034  1.00  0.00     0.064 A 
ATOM     55  C   UNL A   1      45.478  28.002  35.127  1.00  0.00     0.173 A 
ATOM     56  C   UNL A   1      44.000  26.219  35.747  1.00  0.00     0.173 A 
ATOM     57  F   UNL A   1      45.754  29.114  34.431  1.00  0.00    -0.203 F 
ATOM     58  C   UNL A   1      46.493  27.415  35.884  1.00  0.00     0.198 A 
ATOM     59  C   UNL A   1      44.999  25.659  36.539  1.00  0.00     0.198 A 
ATOM     60  F   UNL A   1      42.817  25.589  35.676  1.00  0.00    -0.203 F 
ATOM     61  F   UNL A   1      47.717  27.962  35.894  1.00  0.00    -0.200 F 
ATOM     62  C   UNL A   1      46.249  26.250  36.596  1.00  0.00     0.200 A 
ATOM     63  F   UNL A   1      44.752  24.540  37.233  1.00  0.00    -0.200 F 
ATOM     64  F   UNL A   1      47.227  25.685  37.318  1.00  0.00    -0.200 F 
ENDBRANCH  30  54
BRANCH  42  65
ATOM     65  C   UNL A   1      39.237  32.174  36.099  1.00  0.00     0.064 A 
ATOM     66  C   UNL A   1      39.769  33.459  36.283  1.00  0.00     0.173 A 
ATOM     67  C   UNL A   1      38.315  31.705  37.050  1.00  0.00     0.173 A 
ATOM     68  F   UNL A   1      40.667  33.949  35.415  1.00  0.00    -0.203 F 
ATOM     69  C   UNL A   1      39.411  34.233  37.386  1.00  0.00     0.198 A 
ATOM     70  C   UNL A   1      37.934  32.495  38.131  1.00  0.00     0.198 A 
ATOM     71  F   UNL A   1      37.775  30.484  36.922  1.00  0.00    -0.203 F 
ATOM     72  F   UNL A   1      39.973  35.436  37.567  1.00  0.00    -0.200 F 
ATOM     73  C   UNL A   1      38.488  33.754  38.302  1.00  0.00     0.200 A 
ATOM     74  F   UNL A   1      37.030  32.035  39.008  1.00  0.00    -0.200 F 
ATOM     75  F   UNL A   1      38.138  34.504  39.357  1.00  0.00    -0.200 F 
ENDBRANCH  42  65
ENDBRANCH  16  17
ENDBRANCH   9  11
ENDBRANCH   8   9
ENDBRANCH   7   8
ENDBRANCH   6   7
ENDBRANCH   5   6
ENDBRANCH   3   5
ENDBRANCH   2   3
BRANCH   2  76
ATOM     76  C   UNL A   1      39.855  22.452  26.551  1.00  0.00    -0.031 A 
ATOM     77  C   UNL A   1      39.227  23.649  26.904  1.00  0.00     0.005 A 
ATOM     78  C   UNL A   1      39.056  21.485  25.906  1.00  0.00     0.044 A 
ATOM     79  C   UNL A   1      37.930  23.933  26.479  1.00  0.00     0.012 A 
ATOM     80  C   UNL A   1      37.766  21.787  25.457  1.00  0.00     0.131 A 
ATOM     81  C   UNL A   1      37.211  23.042  25.673  1.00  0.00     0.018 A 
ATOM     82  F   UNL A   1      37.069  20.835  24.819  1.00  0.00    -0.206 F 
BRANCH  81  83
ATOM     83  C   UNL A   1      35.915  23.469  25.152  1.00  0.00    -0.012 A 
ATOM     84  C   UNL A   1      35.676  23.659  23.782  1.00  0.00     0.009 A 
ATOM     85  C   UNL A   1      34.927  23.844  26.066  1.00  0.00     0.056 A 
ATOM     86  C   UNL A   1      34.490  24.260  23.346  1.00  0.00     0.004 A 
ATOM     87  C   UNL A   1      33.764  24.462  25.631  1.00  0.00     0.133 A 
ATOM     88  C   UNL A   1      33.538  24.679  24.273  1.00  0.00     0.047 A 
BRANCH  87  89
ATOM     89  O   UNL A   1      32.725  24.838  26.502  1.00  0.00    -0.410 OA
BRANCH  89  90
ATOM     90  C   UNL A   1      31.648  24.025  26.828  1.00  0.00     0.412 C 
ATOM     91  O   UNL A   1      31.691  22.932  27.386  1.00  0.00    -0.224 OA
ATOM     92  N   UNL A   1      30.455  24.568  26.462  1.00  0.00    -0.321 N 
ATOM     93  H   UNL A   1      29.655  24.001  26.537  1.00  0.00     0.167 HD
BRANCH  92  94
ATOM     94  C   UNL A   1      30.276  25.912  25.971  1.00  0.00     0.120 C 
BRANCH  94  95
ATOM     95  C   UNL A   1      29.682  25.998  24.569  1.00  0.00     0.026 C 
BRANCH  95  96
ATOM     96  C   UNL A   1      29.965  27.250  23.733  1.00  0.00     0.037 C 
BRANCH  96  97
ATOM     97  C   UNL A   1      31.381  27.722  23.500  1.00  0.00    -0.048 A 
ATOM     98  C   UNL A   1      32.184  27.347  22.418  1.00  0.00     0.004 A 
ATOM     99  C   UNL A   1      31.957  28.544  24.486  1.00  0.00     0.004 A 
ATOM    100  C   UNL A   1      33.515  27.767  22.326  1.00  0.00     0.000 A 
ATOM    101  C   UNL A   1      33.281  28.975  24.390  1.00  0.00     0.000 A 
ATOM    102  C   UNL A   1      34.064  28.580  23.310  1.00  0.00     0.000 A 
ENDBRANCH  96  97
ENDBRANCH  95  96
ENDBRANCH  94  95
ENDBRANCH  92  94
ENDBRANCH  89  90
ENDBRANCH  87  89
ENDBRANCH  81  83
ENDBRANCH   2  76
TORSDOF 19
ENDMDL
MODEL 2
REMARK VINA RESULT:     -12.4      0.714      7.015
REMARK SMILES C[C@@H](C(=O)OCCOC(=O)c1ccc(-c2c3nc(c(-c4c(F)c(F)c(F)c(F)c4F)c4ccc([nH]4)c(-c4c(F)c(F)c(F)c(F)c4F)c4nc(c(-c5c(F)c(F)c(F)c(F)c5F)c5ccc2[nH]5)C=C4)C=C3)cc1)c1ccc(-c2cccc(OC(=O)NCCCc3ccccc3)c2)c(F)c1
REMARK SMILES IDX 1 1 2 2 3 3 4 4 5 5 6 6 7 7 8 8 9 9 10 10 11 11 12 12 73 13
REMARK SMILES IDX 13 14 72 15 14 16 15 17 16 18 66 19 17 20 71 21 65 22 67 23
REMARK SMILES IDX 18 24 70 25 64 26 63 27 19 29 51 30 31 31 50 32 32 33 35 34
REMARK SMILES IDX 49 35 68 36 33 37 34 38 48 40 69 41 36 42 20 43 21 44 29 45
REMARK SMILES IDX 22 46 23 47 27 48 30 49 24 50 25 51 28 52 26 53 52 54 53 55
REMARK SMILES IDX 61 56 54 57 55 58 59 59 62 60 56 61 57 62 60 63 58 64 37 65
REMARK SMILES IDX 38 66 46 67 39 68 40 69 44 70 47 71 41 72 42 73 45 74 43 75
REMARK SMILES IDX 74 76 75 77 99 78 76 79 97 80 77 81 98 82 78 83 79 84 96 85
REMARK SMILES IDX 80 86 82 87 81 88 83 89 84 90 85 91 86 92 87 94 88 95 89 96
REMARK SMILES IDX 90 97 91 98 95 99 92 100 94 101 93 102
REMARK H PARENT 67 28 35 39 86 93
REMARK Flexibility Score: inf
ROOT
ATOM      1  C   UNL A   1      41.551  22.219  28.354  1.00  0.00     0.025 C 
ATOM      2  C   UNL A   1      41.310  22.180  26.834  1.00  0.00     0.126 C 
ENDROOT
BRANCH   2   3
ATOM      3  C   UNL A   1      41.918  20.906  26.210  1.00  0.00     0.313 C 
ATOM      4  O   UNL A   1      41.660  19.771  26.594  1.00  0.00    -0.252 OA
BRANCH   3   5
ATOM      5  O   UNL A   1      42.762  21.174  25.174  1.00  0.00    -0.462 OA
BRANCH   5   6
ATOM      6  C   UNL A   1      44.016  21.815  25.488  1.00  0.00     0.274 C 
BRANCH   6   7
ATOM      7  C   UNL A   1      44.352  22.832  24.401  1.00  0.00     0.275 C 
BRANCH   7   8
ATOM      8  O   UNL A   1      43.569  24.024  24.610  1.00  0.00    -0.458 OA
BRANCH   8   9
ATOM      9  C   UNL A   1      44.252  25.111  25.039  1.00  0.00     0.338 C 
ATOM     10  O   UNL A   1      45.354  25.490  24.683  1.00  0.00    -0.246 OA
BRANCH   9  11
ATOM     11  C   UNL A   1      43.418  25.877  25.982  1.00  0.00     0.060 A 
ATOM     12  C   UNL A   1      43.681  27.229  26.125  1.00  0.00     0.016 A 
ATOM     13  C   UNL A   1      42.523  25.248  26.850  1.00  0.00     0.016 A 
ATOM     14  C   UNL A   1      43.137  27.921  27.203  1.00  0.00     0.010 A 
ATOM     15  C   UNL A   1      41.894  25.988  27.870  1.00  0.00     0.010 A 
ATOM     16  C   UNL A   1      42.225  27.337  28.091  1.00  0.00    -0.014 A 
BRANCH  16  17
ATOM     17  C   UNL A   1      41.740  28.131  29.272  1.00  0.00     0.031 A 
ATOM     18  C   UNL A   1      42.592  28.251  30.516  1.00  0.00     0.074 A 
ATOM     19  C   UNL A   1      40.620  28.889  29.204  1.00  0.00     0.049 A 
ATOM     20  N   UNL A   1      42.301  28.781  31.681  1.00  0.00    -0.248 NA
ATOM     21  C   UNL A   1      43.964  27.729  30.432  1.00  0.00     0.031 C 
ATOM     22  C   UNL A   1      39.763  29.036  28.026  1.00  0.00     0.029 A 
ATOM     23  N   UNL A   1      40.043  29.736  30.126  1.00  0.00    -0.354 N 
ATOM     24  C   UNL A   1      43.422  28.592  32.482  1.00  0.00     0.074 A 
ATOM     25  C   UNL A   1      44.409  27.918  31.667  1.00  0.00     0.031 C 
ATOM     26  C   UNL A   1      38.861  30.001  28.250  1.00  0.00     0.029 A 
ATOM     27  C   UNL A   1      38.951  30.419  29.642  1.00  0.00     0.049 A 
ATOM     28  H   UNL A   1      40.382  29.844  31.043  1.00  0.00     0.167 HD
ATOM     29  C   UNL A   1      43.607  28.942  33.779  1.00  0.00     0.037 A 
ATOM     30  C   UNL A   1      38.073  31.241  30.255  1.00  0.00     0.037 A 
ATOM     31  C   UNL A   1      42.657  29.683  34.569  1.00  0.00     0.049 A 
ATOM     32  C   UNL A   1      38.229  31.502  31.728  1.00  0.00     0.074 A 
ATOM     33  C   UNL A   1      42.732  30.035  35.907  1.00  0.00     0.029 A 
ATOM     34  N   UNL A   1      41.468  30.210  34.088  1.00  0.00    -0.354 N 
ATOM     35  N   UNL A   1      39.218  31.189  32.526  1.00  0.00    -0.248 NA
ATOM     36  C   UNL A   1      37.119  32.198  32.397  1.00  0.00     0.031 C 
ATOM     37  C   UNL A   1      41.565  30.726  36.247  1.00  0.00     0.029 A 
ATOM     38  C   UNL A   1      40.792  30.865  35.107  1.00  0.00     0.049 A 
ATOM     39  H   UNL A   1      41.150  30.132  33.159  1.00  0.00     0.167 HD
ATOM     40  C   UNL A   1      38.857  31.654  33.784  1.00  0.00     0.074 A 
ATOM     41  C   UNL A   1      37.573  32.307  33.636  1.00  0.00     0.031 C 
ATOM     42  C   UNL A   1      39.524  31.533  34.956  1.00  0.00     0.037 A 
BRANCH  29  43
ATOM     43  C   UNL A   1      44.854  28.452  34.461  1.00  0.00     0.064 A 
ATOM     44  C   UNL A   1      44.927  27.210  35.106  1.00  0.00     0.173 A 
ATOM     45  C   UNL A   1      46.013  29.245  34.434  1.00  0.00     0.173 A 
ATOM     46  F   UNL A   1      43.847  26.419  35.172  1.00  0.00    -0.203 F 
ATOM     47  C   UNL A   1      46.106  26.793  35.723  1.00  0.00     0.198 A 
ATOM     48  C   UNL A   1      47.198  28.812  35.022  1.00  0.00     0.198 A 
ATOM     49  F   UNL A   1      46.002  30.439  33.820  1.00  0.00    -0.203 F 
ATOM     50  F   UNL A   1      46.141  25.625  36.378  1.00  0.00    -0.200 F 
ATOM     51  C   UNL A   1      47.240  27.591  35.675  1.00  0.00     0.200 A 
ATOM     52  F   UNL A   1      48.296  29.577  34.958  1.00  0.00    -0.200 F 
ATOM     53  F   UNL A   1      48.374  27.185  36.264  1.00  0.00    -0.200 F 
ENDBRANCH  29  43
BRANCH  30  54
ATOM     54  C   UNL A   1      36.898  31.784  29.512  1.00  0.00     0.064 A 
ATOM     55  C   UNL A   1      36.784  33.151  29.220  1.00  0.00     0.173 A 
ATOM     56  C   UNL A   1      35.829  30.954  29.134  1.00  0.00     0.173 A 
ATOM     57  F   UNL A   1      37.748  34.002  29.600  1.00  0.00    -0.203 F 
ATOM     58  C   UNL A   1      35.646  33.664  28.597  1.00  0.00     0.198 A 
ATOM     59  C   UNL A   1      34.715  31.459  28.469  1.00  0.00     0.198 A 
ATOM     60  F   UNL A   1      35.865  29.641  29.411  1.00  0.00    -0.203 F 
ATOM     61  F   UNL A   1      35.532  34.985  28.399  1.00  0.00    -0.200 F 
ATOM     62  C   UNL A   1      34.617  32.816  28.213  1.00  0.00     0.200 A 
ATOM     63  F   UNL A   1      33.731  30.631  28.093  1.00  0.00    -0.200 F 
ATOM     64  F   UNL A   1      33.522  33.310  27.620  1.00  0.00    -0.200 F 
ENDBRANCH  30  54
BRANCH  42  65
ATOM     65  C   UNL A   1      38.909  32.164  36.173  1.00  0.00     0.064 A 
ATOM     66  C   UNL A   1      38.091  31.437  37.051  1.00  0.00     0.173 A 
ATOM     67  C   UNL A   1      39.170  33.509  36.483  1.00  0.00     0.173 A 
ATOM     68  F   UNL A   1      37.795  30.154  36.793  1.00  0.00    -0.203 F 
ATOM     69  C   UNL A   1      37.538  32.039  38.180  1.00  0.00     0.198 A 
ATOM     70  C   UNL A   1      38.644  34.095  37.630  1.00  0.00     0.198 A 
ATOM     71  F   UNL A   1      39.946  34.249  35.678  1.00  0.00    -0.203 F 
ATOM     72  F   UNL A   1      36.717  31.339  38.975  1.00  0.00    -0.200 F 
ATOM     73  C   UNL A   1      37.822  33.363  38.473  1.00  0.00     0.200 A 
ATOM     74  F   UNL A   1      38.932  35.373  37.919  1.00  0.00    -0.200 F 
ATOM     75  F   UNL A   1      37.297  33.938  39.564  1.00  0.00    -0.200 F 
ENDBRANCH  42  65
ENDBRANCH  16  17
ENDBRANCH   9  11
ENDBRANCH   8   9
ENDBRANCH   7   8
ENDBRANCH   6   7
ENDBRANCH   5   6
ENDBRANCH   3   5
ENDBRANCH   2   3
BRANCH   2  76
ATOM     76  C   UNL A   1      39.832  22.423  26.509  1.00  0.00    -0.031 A 
ATOM     77  C   UNL A   1      39.165  23.595  26.877  1.00  0.00     0.005 A 
ATOM     78  C   UNL A   1      39.073  21.450  25.827  1.00  0.00     0.044 A 
ATOM     79  C   UNL A   1      37.868  23.853  26.433  1.00  0.00     0.012 A 
ATOM     80  C   UNL A   1      37.784  21.727  25.360  1.00  0.00     0.131 A 
ATOM     81  C   UNL A   1      37.190  22.962  25.593  1.00  0.00     0.018 A 
ATOM     82  F   UNL A   1      37.125  20.772  24.687  1.00  0.00    -0.206 F 
BRANCH  81  83
ATOM     83  C   UNL A   1      35.892  23.365  25.058  1.00  0.00    -0.012 A 
ATOM     84  C   UNL A   1      35.641  23.465  23.680  1.00  0.00     0.009 A 
ATOM     85  C   UNL A   1      34.917  23.809  25.953  1.00  0.00     0.056 A 
ATOM     86  C   UNL A   1      34.456  24.046  23.216  1.00  0.00     0.004 A 
ATOM     87  C   UNL A   1      33.755  24.408  25.489  1.00  0.00     0.133 A 
ATOM     88  C   UNL A   1      33.517  24.536  24.122  1.00  0.00     0.047 A 
BRANCH  87  89
ATOM     89  O   UNL A   1      32.728  24.852  26.343  1.00  0.00    -0.410 OA
BRANCH  89  90
ATOM     90  C   UNL A   1      31.738  24.029  26.864  1.00  0.00     0.412 C 
ATOM     91  O   UNL A   1      31.899  22.996  27.507  1.00  0.00    -0.224 OA
ATOM     92  N   UNL A   1      30.485  24.487  26.593  1.00  0.00    -0.321 N 
ATOM     93  H   UNL A   1      29.728  23.897  26.812  1.00  0.00     0.167 HD
BRANCH  92  94
ATOM     94  C   UNL A   1      30.184  25.771  26.010  1.00  0.00     0.120 C 
BRANCH  94  95
ATOM     95  C   UNL A   1      30.036  25.754  24.492  1.00  0.00     0.026 C 
BRANCH  95  96
ATOM     96  C   UNL A   1      30.189  27.076  23.730  1.00  0.00     0.037 C 
BRANCH  96  97
ATOM     97  C   UNL A   1      31.557  27.641  23.427  1.00  0.00    -0.048 A 
ATOM     98  C   UNL A   1      32.338  27.298  22.319  1.00  0.00     0.004 A 
ATOM     99  C   UNL A   1      32.112  28.526  24.369  1.00  0.00     0.004 A 
ATOM    100  C   UNL A   1      33.630  27.809  22.161  1.00  0.00     0.000 A 
ATOM    101  C   UNL A   1      33.396  29.047  24.207  1.00  0.00     0.000 A 
ATOM    102  C   UNL A   1      34.160  28.683  23.103  1.00  0.00     0.000 A 
ENDBRANCH  96  97
ENDBRANCH  95  96
ENDBRANCH  94  95
ENDBRANCH  92  94
ENDBRANCH  89  90
ENDBRANCH  87  89
ENDBRANCH  81  83
ENDBRANCH   2  76
TORSDOF 19
ENDMDL
MODEL 3
REMARK VINA RESULT:     -12.3      1.954      7.506
REMARK SMILES C[C@@H](C(=O)OCCOC(=O)c1ccc(-c2c3nc(c(-c4c(F)c(F)c(F)c(F)c4F)c4ccc([nH]4)c(-c4c(F)c(F)c(F)c(F)c4F)c4nc(c(-c5c(F)c(F)c(F)c(F)c5F)c5ccc2[nH]5)C=C4)C=C3)cc1)c1ccc(-c2cccc(OC(=O)NCCCc3ccccc3)c2)c(F)c1
REMARK SMILES IDX 1 1 2 2 3 3 4 4 5 5 6 6 7 7 8 8 9 9 10 10 11 11 12 12 73 13
REMARK SMILES IDX 13 14 72 15 14 16 15 17 16 18 66 19 17 20 71 21 65 22 67 23
REMARK SMILES IDX 18 24 70 25 64 26 63 27 19 29 51 30 31 31 50 32 32 33 35 34
REMARK SMILES IDX 49 35 68 36 33 37 34 38 48 40 69 41 36 42 20 43 21 44 29 45
REMARK SMILES IDX 22 46 23 47 27 48 30 49 24 50 25 51 28 52 26 53 52 54 53 55
REMARK SMILES IDX 61 56 54 57 55 58 59 59 62 60 56 61 57 62 60 63 58 64 37 65
REMARK SMILES IDX 38 66 46 67 39 68 40 69 44 70 47 71 41 72 42 73 45 74 43 75
REMARK SMILES IDX 74 76 75 77 99 78 76 79 97 80 77 81 98 82 78 83 79 84 96 85
REMARK SMILES IDX 80 86 82 87 81 88 83 89 84 90 85 91 86 92 87 94 88 95 89 96
REMARK SMILES IDX 90 97 91 98 95 99 92 100 94 101 93 102
REMARK H PARENT 67 28 35 39 86 93
REMARK Flexibility Score: inf
ROOT
ATOM      1  C   UNL A   1      41.668  21.865  28.362  1.00  0.00     0.025 C 
ATOM      2  C   UNL A   1      41.483  21.844  26.833  1.00  0.00     0.126 C 
ENDROOT
BRANCH   2   3
ATOM      3  C   UNL A   1      42.114  20.577  26.218  1.00  0.00     0.313 C 
ATOM      4  O   UNL A   1      41.847  19.438  26.583  1.00  0.00    -0.252 OA
BRANCH   3   5
ATOM      5  O   UNL A   1      42.990  20.857  25.212  1.00  0.00    -0.462 OA
BRANCH   5   6
ATOM      6  C   UNL A   1      44.090  21.741  25.516  1.00  0.00     0.274 C 
BRANCH   6   7
ATOM      7  C   UNL A   1      44.304  22.703  24.350  1.00  0.00     0.275 C 
BRANCH   7   8
ATOM      8  O   UNL A   1      43.544  23.905  24.583  1.00  0.00    -0.458 OA
BRANCH   8   9
ATOM      9  C   UNL A   1      44.246  24.968  25.041  1.00  0.00     0.338 C 
ATOM     10  O   UNL A   1      45.359  25.331  24.703  1.00  0.00    -0.246 OA
BRANCH   9  11
ATOM     11  C   UNL A   1      43.420  25.732  25.993  1.00  0.00     0.060 A 
ATOM     12  C   UNL A   1      43.640  27.096  26.089  1.00  0.00     0.016 A 
ATOM     13  C   UNL A   1      42.581  25.097  26.912  1.00  0.00     0.016 A 
ATOM     14  C   UNL A   1      43.111  27.800  27.168  1.00  0.00     0.010 A 
ATOM     15  C   UNL A   1      41.963  25.845  27.933  1.00  0.00     0.010 A 
ATOM     16  C   UNL A   1      42.254  27.210  28.105  1.00  0.00    -0.014 A 
BRANCH  16  17
ATOM     17  C   UNL A   1      41.784  28.020  29.281  1.00  0.00     0.031 A 
ATOM     18  C   UNL A   1      42.644  28.142  30.519  1.00  0.00     0.074 A 
ATOM     19  C   UNL A   1      40.673  28.790  29.211  1.00  0.00     0.049 A 
ATOM     20  N   UNL A   1      42.365  28.687  31.680  1.00  0.00    -0.248 NA
ATOM     21  C   UNL A   1      44.010  27.603  30.433  1.00  0.00     0.031 C 
ATOM     22  C   UNL A   1      39.812  28.937  28.036  1.00  0.00     0.029 A 
ATOM     23  N   UNL A   1      40.110  29.653  30.128  1.00  0.00    -0.354 N 
ATOM     24  C   UNL A   1      43.488  28.492  32.478  1.00  0.00     0.074 A 
ATOM     25  C   UNL A   1      44.463  27.799  31.663  1.00  0.00     0.031 C 
ATOM     26  C   UNL A   1      38.921  29.914  28.256  1.00  0.00     0.029 A 
ATOM     27  C   UNL A   1      39.023  30.344  29.644  1.00  0.00     0.049 A 
ATOM     28  H   UNL A   1      40.456  29.765  31.043  1.00  0.00     0.167 HD
ATOM     29  C   UNL A   1      43.684  28.852  33.770  1.00  0.00     0.037 A 
ATOM     30  C   UNL A   1      38.159  31.182  30.253  1.00  0.00     0.037 A 
ATOM     31  C   UNL A   1      42.747  29.611  34.558  1.00  0.00     0.049 A 
ATOM     32  C   UNL A   1      38.325  31.455  31.723  1.00  0.00     0.074 A 
ATOM     33  C   UNL A   1      42.833  29.975  35.892  1.00  0.00     0.029 A 
ATOM     34  N   UNL A   1      41.561  30.148  34.078  1.00  0.00    -0.354 N 
ATOM     35  N   UNL A   1      39.315  31.138  32.519  1.00  0.00    -0.248 NA
ATOM     36  C   UNL A   1      37.227  32.170  32.391  1.00  0.00     0.031 C 
ATOM     37  C   UNL A   1      41.676  30.683  36.232  1.00  0.00     0.029 A 
ATOM     38  C   UNL A   1      40.898  30.820  35.094  1.00  0.00     0.049 A 
ATOM     39  H   UNL A   1      41.238  30.064  33.152  1.00  0.00     0.167 HD
ATOM     40  C   UNL A   1      38.966  31.619  33.774  1.00  0.00     0.074 A 
ATOM     41  C   UNL A   1      37.689  32.285  33.627  1.00  0.00     0.031 C 
ATOM     42  C   UNL A   1      39.638  31.501  34.944  1.00  0.00     0.037 A 
BRANCH  29  43
ATOM     43  C   UNL A   1      44.929  28.354  34.451  1.00  0.00     0.064 A 
ATOM     44  C   UNL A   1      46.101  29.118  34.541  1.00  0.00     0.173 A 
ATOM     45  C   UNL A   1      44.925  27.086  35.055  1.00  0.00     0.173 A 
ATOM     46  F   UNL A   1      46.162  30.330  33.972  1.00  0.00    -0.203 F 
ATOM     47  C   UNL A   1      47.231  28.618  35.186  1.00  0.00     0.198 A 
ATOM     48  C   UNL A   1      46.045  26.603  35.727  1.00  0.00     0.198 A 
ATOM     49  F   UNL A   1      43.825  26.318  35.008  1.00  0.00    -0.203 F 
ATOM     50  F   UNL A   1      48.358  29.342  35.217  1.00  0.00    -0.200 F 
ATOM     51  C   UNL A   1      47.200  27.365  35.782  1.00  0.00     0.200 A 
ATOM     52  F   UNL A   1      46.005  25.400  36.317  1.00  0.00    -0.200 F 
ATOM     53  F   UNL A   1      48.287  26.889  36.406  1.00  0.00    -0.200 F 
ENDBRANCH  29  43
BRANCH  30  54
ATOM     54  C   UNL A   1      36.986  31.732  29.512  1.00  0.00     0.064 A 
ATOM     55  C   UNL A   1      36.900  33.092  29.181  1.00  0.00     0.173 A 
ATOM     56  C   UNL A   1      35.893  30.917  29.173  1.00  0.00     0.173 A 
ATOM     57  F   UNL A   1      37.890  33.930  29.522  1.00  0.00    -0.203 F 
ATOM     58  C   UNL A   1      35.766  33.614  28.559  1.00  0.00     0.198 A 
ATOM     59  C   UNL A   1      34.781  31.429  28.509  1.00  0.00     0.198 A 
ATOM     60  F   UNL A   1      35.901  29.612  29.487  1.00  0.00    -0.203 F 
ATOM     61  F   UNL A   1      35.680  34.931  28.324  1.00  0.00    -0.200 F 
ATOM     62  C   UNL A   1      34.712  32.780  28.215  1.00  0.00     0.200 A 
ATOM     63  F   UNL A   1      33.772  30.615  28.171  1.00  0.00    -0.200 F 
ATOM     64  F   UNL A   1      33.620  33.284  27.622  1.00  0.00    -0.200 F 
ENDBRANCH  30  54
BRANCH  42  65
ATOM     65  C   UNL A   1      39.036  32.150  36.158  1.00  0.00     0.064 A 
ATOM     66  C   UNL A   1      39.290  33.490  36.485  1.00  0.00     0.173 A 
ATOM     67  C   UNL A   1      38.162  31.428  36.988  1.00  0.00     0.173 A 
ATOM     68  F   UNL A   1      40.131  34.220  35.736  1.00  0.00    -0.203 F 
ATOM     69  C   UNL A   1      38.714  34.075  37.611  1.00  0.00     0.198 A 
ATOM     70  C   UNL A   1      37.562  32.027  38.091  1.00  0.00     0.198 A 
ATOM     71  F   UNL A   1      37.884  30.143  36.720  1.00  0.00    -0.203 F 
ATOM     72  F   UNL A   1      39.014  35.341  37.932  1.00  0.00    -0.200 F 
ATOM     73  C   UNL A   1      37.844  33.347  38.406  1.00  0.00     0.200 A 
ATOM     74  F   UNL A   1      36.709  31.324  38.851  1.00  0.00    -0.200 F 
ATOM     75  F   UNL A   1      37.283  33.914  39.484  1.00  0.00    -0.200 F 
ENDBRANCH  42  65
ENDBRANCH  16  17
ENDBRANCH   9  11
ENDBRANCH   8   9
ENDBRANCH   7   8
ENDBRANCH   6   7
ENDBRANCH   5   6
ENDBRANCH   3   5
ENDBRANCH   2   3
BRANCH   2  76
ATOM     76  C   UNL A   1      40.017  22.090  26.457  1.00  0.00    -0.031 A 
ATOM     77  C   UNL A   1      39.355  23.283  26.759  1.00  0.00     0.005 A 
ATOM     78  C   UNL A   1      39.266  21.100  25.793  1.00  0.00     0.044 A 
ATOM     79  C   UNL A   1      38.074  23.538  26.268  1.00  0.00     0.012 A 
ATOM     80  C   UNL A   1      37.994  21.372  25.279  1.00  0.00     0.131 A 
ATOM     81  C   UNL A   1      37.409  22.622  25.446  1.00  0.00     0.018 A 
ATOM     82  F   UNL A   1      37.343  20.398  24.626  1.00  0.00    -0.206 F 
BRANCH  81  83
ATOM     83  C   UNL A   1      36.132  23.017  24.858  1.00  0.00    -0.012 A 
ATOM     84  C   UNL A   1      36.008  23.417  23.518  1.00  0.00     0.009 A 
ATOM     85  C   UNL A   1      35.027  23.145  25.702  1.00  0.00     0.056 A 
ATOM     86  C   UNL A   1      34.814  23.978  23.052  1.00  0.00     0.004 A 
ATOM     87  C   UNL A   1      33.854  23.726  25.244  1.00  0.00     0.133 A 
ATOM     88  C   UNL A   1      33.739  24.151  23.922  1.00  0.00     0.047 A 
BRANCH  87  89
ATOM     89  O   UNL A   1      32.702  23.858  26.042  1.00  0.00    -0.410 OA
BRANCH  89  90
ATOM     90  C   UNL A   1      32.223  22.867  26.889  1.00  0.00     0.412 C 
ATOM     91  O   UNL A   1      32.249  22.869  28.116  1.00  0.00    -0.224 OA
ATOM     92  N   UNL A   1      31.679  21.820  26.211  1.00  0.00    -0.321 N 
ATOM     93  H   UNL A   1      31.436  21.020  26.729  1.00  0.00     0.167 HD
BRANCH  92  94
ATOM     94  C   UNL A   1      31.434  21.795  24.790  1.00  0.00     0.120 C 
BRANCH  94  95
ATOM     95  C   UNL A   1      32.226  20.735  24.031  1.00  0.00     0.026 C 
BRANCH  95  96
ATOM     96  C   UNL A   1      33.279  19.927  24.796  1.00  0.00     0.037 C 
BRANCH  96  97
ATOM     97  C   UNL A   1      33.261  18.416  24.775  1.00  0.00    -0.048 A 
ATOM     98  C   UNL A   1      32.711  17.606  25.774  1.00  0.00     0.004 A 
ATOM     99  C   UNL A   1      33.909  17.779  23.701  1.00  0.00     0.004 A 
ATOM    100  C   UNL A   1      32.814  16.213  25.712  1.00  0.00     0.000 A 
ATOM    101  C   UNL A   1      34.001  16.388  23.630  1.00  0.00     0.000 A 
ATOM    102  C   UNL A   1      33.458  15.603  24.641  1.00  0.00     0.000 A 
ENDBRANCH  96  97
ENDBRANCH  95  96
ENDBRANCH  94  95
ENDBRANCH  92  94
ENDBRANCH  89  90
ENDBRANCH  87  89
ENDBRANCH  81  83
ENDBRANCH   2  76
TORSDOF 19
ENDMDL
