MODEL 1
REMARK VINA RESULT:     -10.7      0.000      0.000
REMARK SMILES COCCS(=O)(=O)Cc1ccc(C(=O)OCCOC(=O)c2ccc(-c3c4nc(c(-c5c(F)c(F)c(F)c(F)c5F)c5ccc([nH]5)c(-c5c(F)c(F)c(F)c(F)c5F)c5nc(c(-c6c(F)c(F)c(F)c(F)c6F)c6ccc3[nH]6)C=C5)C=C4)cc2)cn1
REMARK SMILES IDX 15 1 13 2 14 3 12 4 9 5 10 6 85 7 11 8 84 9 8 10 5 11 6 12
REMARK SMILES IDX 7 13 4 14 3 15 2 16 1 17 16 18 17 19 18 20 19 21 20 22 21 23
REMARK SMILES IDX 22 24 83 25 23 26 82 27 24 28 25 29 26 30 76 31 27 32 81 33
REMARK SMILES IDX 75 34 77 35 28 36 80 37 74 38 73 39 29 41 61 42 41 43 60 44
REMARK SMILES IDX 42 45 45 46 59 47 78 48 43 49 44 50 58 52 79 53 46 54 30 55
REMARK SMILES IDX 31 56 39 57 32 58 33 59 37 60 40 61 34 62 35 63 38 64 36 65
REMARK SMILES IDX 62 66 63 67 71 68 64 69 65 70 69 71 72 72 66 73 67 74 70 75
REMARK SMILES IDX 68 76 47 77 48 78 56 79 49 80 50 81 54 82 57 83 51 84 52 85
REMARK SMILES IDX 55 86 53 87
REMARK H PARENT 77 40 45 51
REMARK Flexibility Score: inf
ROOT
ATOM      1  O   UNL A   1      31.402  28.223  25.897  1.00  0.00    -0.458 OA
ENDROOT
BRANCH   1   2
ATOM      2  C   UNL A   1      31.119  27.029  25.327  1.00  0.00     0.339 C 
ATOM      3  O   UNL A   1      30.158  26.774  24.615  1.00  0.00    -0.246 OA
BRANCH   2   4
ATOM      4  C   UNL A   1      32.204  26.054  25.564  1.00  0.00     0.078 A 
ATOM      5  C   UNL A   1      34.014  23.995  25.973  1.00  0.00     0.055 A 
ATOM      6  C   UNL A   1      34.442  25.183  25.375  1.00  0.00     0.026 A 
ATOM      7  N   UNL A   1      32.756  23.865  26.432  1.00  0.00    -0.259 NA
ATOM      8  C   UNL A   1      33.524  26.220  25.158  1.00  0.00     0.019 A 
ATOM      9  C   UNL A   1      31.885  24.880  26.224  1.00  0.00     0.127 A 
BRANCH   5  10
ATOM     10  C   UNL A   1      34.975  22.892  26.297  1.00  0.00     0.193 C 
BRANCH  10  11
ATOM     11  S   UNL A   1      34.755  21.453  25.265  1.00  0.00     0.158 S 
ATOM     12  O   UNL A   1      36.009  20.716  25.335  1.00  0.00    -0.228 OA
ATOM     13  O   UNL A   1      34.311  21.928  23.963  1.00  0.00    -0.228 OA
BRANCH  11  14
ATOM     14  C   UNL A   1      33.477  20.363  25.882  1.00  0.00     0.165 C 
BRANCH  14  15
ATOM     15  C   UNL A   1      32.344  20.077  24.913  1.00  0.00     0.176 C 
BRANCH  15  16
ATOM     16  O   UNL A   1      32.154  18.686  24.657  1.00  0.00    -0.384 OA
ATOM     17  C   UNL A   1      32.780  17.827  25.596  1.00  0.00     0.194 C 
ENDBRANCH  15  16
ENDBRANCH  14  15
ENDBRANCH  11  14
ENDBRANCH  10  11
ENDBRANCH   5  10
ENDBRANCH   2   4
ENDBRANCH   1   2
BRANCH   1  18
ATOM     18  C   UNL A   1      31.432  29.357  25.006  1.00  0.00     0.275 C 
BRANCH  18  19
ATOM     19  C   UNL A   1      31.622  30.664  25.777  1.00  0.00     0.275 C 
BRANCH  19  20
ATOM     20  O   UNL A   1      32.574  30.497  26.848  1.00  0.00    -0.458 OA
BRANCH  20  21
ATOM     21  C   UNL A   1      33.208  31.626  27.237  1.00  0.00     0.338 C 
ATOM     22  O   UNL A   1      32.767  32.760  27.252  1.00  0.00    -0.246 OA
BRANCH  21  23
ATOM     23  C   UNL A   1      34.539  31.293  27.768  1.00  0.00     0.060 A 
ATOM     24  C   UNL A   1      34.769  29.975  28.151  1.00  0.00     0.016 A 
ATOM     25  C   UNL A   1      35.482  32.279  28.046  1.00  0.00     0.016 A 
ATOM     26  C   UNL A   1      35.904  29.643  28.883  1.00  0.00     0.010 A 
ATOM     27  C   UNL A   1      36.667  31.927  28.710  1.00  0.00     0.010 A 
ATOM     28  C   UNL A   1      36.877  30.611  29.166  1.00  0.00    -0.014 A 
BRANCH  28  29
ATOM     29  C   UNL A   1      38.082  30.245  29.965  1.00  0.00     0.031 A 
ATOM     30  C   UNL A   1      39.131  29.330  29.388  1.00  0.00     0.074 A 
ATOM     31  C   UNL A   1      38.259  30.754  31.201  1.00  0.00     0.049 A 
ATOM     32  N   UNL A   1      40.172  28.786  29.972  1.00  0.00    -0.248 NA
ATOM     33  C   UNL A   1      38.987  28.971  27.970  1.00  0.00     0.031 C 
ATOM     34  C   UNL A   1      37.352  31.690  31.868  1.00  0.00     0.029 A 
ATOM     35  N   UNL A   1      39.266  30.564  32.116  1.00  0.00    -0.354 N 
ATOM     36  C   UNL A   1      40.772  27.983  29.010  1.00  0.00     0.074 A 
ATOM     37  C   UNL A   1      39.977  28.103  27.807  1.00  0.00     0.031 C 
ATOM     38  C   UNL A   1      37.860  32.020  33.064  1.00  0.00     0.029 A 
ATOM     39  C   UNL A   1      39.079  31.253  33.291  1.00  0.00     0.049 A 
ATOM     40  H   UNL A   1      40.047  29.989  31.947  1.00  0.00     0.167 HD
ATOM     41  C   UNL A   1      41.886  27.219  29.122  1.00  0.00     0.037 A 
ATOM     42  C   UNL A   1      39.782  31.239  34.440  1.00  0.00     0.037 A 
ATOM     43  C   UNL A   1      42.707  27.142  30.304  1.00  0.00     0.049 A 
ATOM     44  C   UNL A   1      40.989  30.350  34.552  1.00  0.00     0.074 A 
ATOM     45  C   UNL A   1      43.868  26.415  30.504  1.00  0.00     0.029 A 
ATOM     46  N   UNL A   1      42.459  27.828  31.484  1.00  0.00    -0.354 N 
ATOM     47  N   UNL A   1      41.525  29.565  33.650  1.00  0.00    -0.248 NA
ATOM     48  C   UNL A   1      41.679  30.333  35.850  1.00  0.00     0.031 C 
ATOM     49  C   UNL A   1      44.296  26.623  31.819  1.00  0.00     0.029 A 
ATOM     50  C   UNL A   1      43.433  27.524  32.423  1.00  0.00     0.049 A 
ATOM     51  H   UNL A   1      41.702  28.440  31.634  1.00  0.00     0.167 HD
ATOM     52  C   UNL A   1      42.620  28.972  34.263  1.00  0.00     0.074 A 
ATOM     53  C   UNL A   1      42.686  29.506  35.607  1.00  0.00     0.031 C 
ATOM     54  C   UNL A   1      43.489  28.063  33.757  1.00  0.00     0.037 A 
BRANCH  41  55
ATOM     55  C   UNL A   1      42.271  26.369  27.942  1.00  0.00     0.064 A 
ATOM     56  C   UNL A   1      41.692  25.113  27.707  1.00  0.00     0.173 A 
ATOM     57  C   UNL A   1      43.207  26.843  27.009  1.00  0.00     0.173 A 
ATOM     58  F   UNL A   1      40.800  24.608  28.571  1.00  0.00    -0.203 F 
ATOM     59  C   UNL A   1      42.059  24.351  26.599  1.00  0.00     0.198 A 
ATOM     60  C   UNL A   1      43.548  26.093  25.887  1.00  0.00     0.198 A 
ATOM     61  F   UNL A   1      43.784  28.042  27.179  1.00  0.00    -0.203 F 
ATOM     62  F   UNL A   1      41.530  23.133  26.420  1.00  0.00    -0.200 F 
ATOM     63  C   UNL A   1      42.980  24.844  25.687  1.00  0.00     0.200 A 
ATOM     64  F   UNL A   1      44.426  26.580  24.999  1.00  0.00    -0.200 F 
ATOM     65  F   UNL A   1      43.326  24.114  24.618  1.00  0.00    -0.200 F 
ENDBRANCH  41  55
BRANCH  42  66
ATOM     66  C   UNL A   1      39.333  32.066  35.592  1.00  0.00     0.064 A 
ATOM     67  C   UNL A   1      38.450  31.553  36.551  1.00  0.00     0.173 A 
ATOM     68  C   UNL A   1      39.778  33.387  35.757  1.00  0.00     0.173 A 
ATOM     69  F   UNL A   1      37.973  30.306  36.423  1.00  0.00    -0.203 F 
ATOM     70  C   UNL A   1      38.023  32.331  37.625  1.00  0.00     0.198 A 
ATOM     71  C   UNL A   1      39.377  34.152  36.850  1.00  0.00     0.198 A 
ATOM     72  F   UNL A   1      40.621  33.928  34.865  1.00  0.00    -0.203 F 
ATOM     73  F   UNL A   1      37.143  31.831  38.505  1.00  0.00    -0.200 F 
ATOM     74  C   UNL A   1      38.493  33.626  37.778  1.00  0.00     0.200 A 
ATOM     75  F   UNL A   1      39.848  35.398  37.000  1.00  0.00    -0.200 F 
ATOM     76  F   UNL A   1      38.089  34.371  38.817  1.00  0.00    -0.200 F 
ENDBRANCH  42  66
BRANCH  54  77
ATOM     77  C   UNL A   1      44.606  27.612  34.654  1.00  0.00     0.064 A 
ATOM     78  C   UNL A   1      45.825  28.303  34.715  1.00  0.00     0.173 A 
ATOM     79  C   UNL A   1      44.444  26.492  35.481  1.00  0.00     0.173 A 
ATOM     80  F   UNL A   1      46.037  29.371  33.930  1.00  0.00    -0.203 F 
ATOM     81  C   UNL A   1      46.851  27.872  35.553  1.00  0.00     0.198 A 
ATOM     82  C   UNL A   1      45.459  26.080  36.339  1.00  0.00     0.198 A 
ATOM     83  F   UNL A   1      43.295  25.799  35.464  1.00  0.00    -0.203 F 
ATOM     84  F   UNL A   1      48.025  28.517  35.557  1.00  0.00    -0.200 F 
ATOM     85  C   UNL A   1      46.664  26.766  36.368  1.00  0.00     0.200 A 
ATOM     86  F   UNL A   1      45.274  25.019  37.136  1.00  0.00    -0.200 F 
ATOM     87  F   UNL A   1      47.651  26.355  37.177  1.00  0.00    -0.200 F 
ENDBRANCH  54  77
ENDBRANCH  28  29
ENDBRANCH  21  23
ENDBRANCH  20  21
ENDBRANCH  19  20
ENDBRANCH  18  19
ENDBRANCH   1  18
TORSDOF 16
ENDMDL
MODEL 2
REMARK VINA RESULT:     -10.6      3.139      8.725
REMARK SMILES COCCS(=O)(=O)Cc1ccc(C(=O)OCCOC(=O)c2ccc(-c3c4nc(c(-c5c(F)c(F)c(F)c(F)c5F)c5ccc([nH]5)c(-c5c(F)c(F)c(F)c(F)c5F)c5nc(c(-c6c(F)c(F)c(F)c(F)c6F)c6ccc3[nH]6)C=C5)C=C4)cc2)cn1
REMARK SMILES IDX 15 1 13 2 14 3 12 4 9 5 10 6 85 7 11 8 84 9 8 10 5 11 6 12
REMARK SMILES IDX 7 13 4 14 3 15 2 16 1 17 16 18 17 19 18 20 19 21 20 22 21 23
REMARK SMILES IDX 22 24 83 25 23 26 82 27 24 28 25 29 26 30 76 31 27 32 81 33
REMARK SMILES IDX 75 34 77 35 28 36 80 37 74 38 73 39 29 41 61 42 41 43 60 44
REMARK SMILES IDX 42 45 45 46 59 47 78 48 43 49 44 50 58 52 79 53 46 54 30 55
REMARK SMILES IDX 31 56 39 57 32 58 33 59 37 60 40 61 34 62 35 63 38 64 36 65
REMARK SMILES IDX 62 66 63 67 71 68 64 69 65 70 69 71 72 72 66 73 67 74 70 75
REMARK SMILES IDX 68 76 47 77 48 78 56 79 49 80 50 81 54 82 57 83 51 84 52 85
REMARK SMILES IDX 55 86 53 87
REMARK H PARENT 77 40 45 51
REMARK Flexibility Score: inf
ROOT
ATOM      1  O   UNL A   1      34.024  34.121  28.267  1.00  0.00    -0.458 OA
ENDROOT
BRANCH   1   2
ATOM      2  C   UNL A   1      35.131  33.344  28.295  1.00  0.00     0.339 C 
ATOM      3  O   UNL A   1      36.253  33.691  28.634  1.00  0.00    -0.246 OA
BRANCH   2   4
ATOM      4  C   UNL A   1      34.804  31.939  27.978  1.00  0.00     0.078 A 
ATOM      5  C   UNL A   1      33.970  29.419  27.176  1.00  0.00     0.055 A 
ATOM      6  C   UNL A   1      35.295  29.616  27.570  1.00  0.00     0.026 A 
ATOM      7  N   UNL A   1      33.067  30.415  27.260  1.00  0.00    -0.259 NA
ATOM      8  C   UNL A   1      35.720  30.892  27.965  1.00  0.00     0.019 A 
ATOM      9  C   UNL A   1      33.491  31.638  27.654  1.00  0.00     0.127 A 
BRANCH   5  10
ATOM     10  C   UNL A   1      33.452  28.059  26.823  1.00  0.00     0.193 C 
BRANCH  10  11
ATOM     11  S   UNL A   1      32.975  27.920  25.109  1.00  0.00     0.158 S 
ATOM     12  O   UNL A   1      33.240  26.539  24.731  1.00  0.00    -0.228 OA
ATOM     13  O   UNL A   1      33.672  28.975  24.387  1.00  0.00    -0.228 OA
BRANCH  11  14
ATOM     14  C   UNL A   1      31.224  28.196  24.865  1.00  0.00     0.165 C 
BRANCH  14  15
ATOM     15  C   UNL A   1      30.510  27.145  24.034  1.00  0.00     0.176 C 
BRANCH  15  16
ATOM     16  O   UNL A   1      30.436  27.474  22.647  1.00  0.00    -0.384 OA
ATOM     17  C   UNL A   1      30.034  28.808  22.383  1.00  0.00     0.194 C 
ENDBRANCH  15  16
ENDBRANCH  14  15
ENDBRANCH  11  14
ENDBRANCH  10  11
ENDBRANCH   5  10
ENDBRANCH   2   4
ENDBRANCH   1   2
BRANCH   1  18
ATOM     18  C   UNL A   1      34.207  35.495  28.669  1.00  0.00     0.275 C 
BRANCH  18  19
ATOM     19  C   UNL A   1      32.935  36.061  29.304  1.00  0.00     0.275 C 
BRANCH  19  20
ATOM     20  O   UNL A   1      32.517  35.256  30.426  1.00  0.00    -0.458 OA
BRANCH  20  21
ATOM     21  C   UNL A   1      32.755  35.794  31.643  1.00  0.00     0.338 C 
ATOM     22  O   UNL A   1      32.131  36.678  32.201  1.00  0.00    -0.246 OA
BRANCH  21  23
ATOM     23  C   UNL A   1      33.860  35.078  32.298  1.00  0.00     0.060 A 
ATOM     24  C   UNL A   1      35.119  35.670  32.270  1.00  0.00     0.016 A 
ATOM     25  C   UNL A   1      33.706  33.780  32.779  1.00  0.00     0.016 A 
ATOM     26  C   UNL A   1      36.246  34.947  32.646  1.00  0.00     0.010 A 
ATOM     27  C   UNL A   1      34.832  33.080  33.237  1.00  0.00     0.010 A 
ATOM     28  C   UNL A   1      36.120  33.643  33.146  1.00  0.00    -0.014 A 
BRANCH  28  29
ATOM     29  C   UNL A   1      37.338  32.873  33.532  1.00  0.00     0.031 A 
ATOM     30  C   UNL A   1      37.998  33.106  34.865  1.00  0.00     0.074 A 
ATOM     31  C   UNL A   1      37.842  31.938  32.701  1.00  0.00     0.049 A 
ATOM     32  N   UNL A   1      39.136  32.642  35.323  1.00  0.00    -0.248 NA
ATOM     33  C   UNL A   1      37.292  33.986  35.808  1.00  0.00     0.031 C 
ATOM     34  C   UNL A   1      37.279  31.569  31.401  1.00  0.00     0.029 A 
ATOM     35  N   UNL A   1      38.937  31.118  32.829  1.00  0.00    -0.354 N 
ATOM     36  C   UNL A   1      39.305  33.213  36.578  1.00  0.00     0.074 A 
ATOM     37  C   UNL A   1      38.158  34.065  36.809  1.00  0.00     0.031 C 
ATOM     38  C   UNL A   1      38.008  30.577  30.870  1.00  0.00     0.029 A 
ATOM     39  C   UNL A   1      39.140  30.298  31.745  1.00  0.00     0.049 A 
ATOM     40  H   UNL A   1      39.522  31.118  33.622  1.00  0.00     0.167 HD
ATOM     41  C   UNL A   1      40.323  33.039  37.456  1.00  0.00     0.037 A 
ATOM     42  C   UNL A   1      40.146  29.448  31.461  1.00  0.00     0.037 A 
ATOM     43  C   UNL A   1      41.437  32.150  37.247  1.00  0.00     0.049 A 
ATOM     44  C   UNL A   1      41.284  29.306  32.433  1.00  0.00     0.074 A 
ATOM     45  C   UNL A   1      42.504  31.888  38.090  1.00  0.00     0.029 A 
ATOM     46  N   UNL A   1      41.622  31.367  36.117  1.00  0.00    -0.354 N 
ATOM     47  N   UNL A   1      41.453  29.880  33.599  1.00  0.00    -0.248 NA
ATOM     48  C   UNL A   1      42.380  28.409  32.041  1.00  0.00     0.031 C 
ATOM     49  C   UNL A   1      43.357  30.984  37.451  1.00  0.00     0.029 A 
ATOM     50  C   UNL A   1      42.796  30.638  36.232  1.00  0.00     0.049 A 
ATOM     51  H   UNL A   1      41.010  31.333  35.346  1.00  0.00     0.167 HD
ATOM     52  C   UNL A   1      42.663  29.406  34.085  1.00  0.00     0.074 A 
ATOM     53  C   UNL A   1      43.176  28.479  33.099  1.00  0.00     0.031 C 
ATOM     54  C   UNL A   1      43.295  29.717  35.244  1.00  0.00     0.037 A 
BRANCH  41  55
ATOM     55  C   UNL A   1      40.302  33.856  38.719  1.00  0.00     0.064 A 
ATOM     56  C   UNL A   1      39.591  33.452  39.858  1.00  0.00     0.173 A 
ATOM     57  C   UNL A   1      41.043  35.047  38.798  1.00  0.00     0.173 A 
ATOM     58  F   UNL A   1      38.860  32.328  39.834  1.00  0.00    -0.203 F 
ATOM     59  C   UNL A   1      39.598  34.223  41.019  1.00  0.00     0.198 A 
ATOM     60  C   UNL A   1      41.073  35.799  39.970  1.00  0.00     0.198 A 
ATOM     61  F   UNL A   1      41.749  35.475  37.742  1.00  0.00    -0.203 F 
ATOM     62  F   UNL A   1      38.872  33.842  42.079  1.00  0.00    -0.200 F 
ATOM     63  C   UNL A   1      40.344  35.391  41.076  1.00  0.00     0.200 A 
ATOM     64  F   UNL A   1      41.808  36.918  40.027  1.00  0.00    -0.200 F 
ATOM     65  F   UNL A   1      40.356  36.127  42.196  1.00  0.00    -0.200 F 
ENDBRANCH  41  55
BRANCH  42  66
ATOM     66  C   UNL A   1      40.140  28.697  30.177  1.00  0.00     0.064 A 
ATOM     67  C   UNL A   1      39.488  27.462  30.063  1.00  0.00     0.173 A 
ATOM     68  C   UNL A   1      40.790  29.199  29.038  1.00  0.00     0.173 A 
ATOM     69  F   UNL A   1      38.879  26.925  31.130  1.00  0.00    -0.203 F 
ATOM     70  C   UNL A   1      39.492  26.755  28.863  1.00  0.00     0.198 A 
ATOM     71  C   UNL A   1      40.763  28.507  27.830  1.00  0.00     0.198 A 
ATOM     72  F   UNL A   1      41.433  30.374  29.095  1.00  0.00    -0.203 F 
ATOM     73  F   UNL A   1      38.898  25.555  28.792  1.00  0.00    -0.200 F 
ATOM     74  C   UNL A   1      40.122  27.282  27.745  1.00  0.00     0.200 A 
ATOM     75  F   UNL A   1      41.360  29.030  26.749  1.00  0.00    -0.200 F 
ATOM     76  F   UNL A   1      40.116  26.605  26.588  1.00  0.00    -0.200 F 
ENDBRANCH  42  66
BRANCH  54  77
ATOM     77  C   UNL A   1      44.596  29.022  35.521  1.00  0.00     0.064 A 
ATOM     78  C   UNL A   1      45.824  29.579  35.136  1.00  0.00     0.173 A 
ATOM     79  C   UNL A   1      44.616  27.797  36.205  1.00  0.00     0.173 A 
ATOM     80  F   UNL A   1      45.859  30.739  34.464  1.00  0.00    -0.203 F 
ATOM     81  C   UNL A   1      47.023  28.921  35.401  1.00  0.00     0.198 A 
ATOM     82  C   UNL A   1      45.817  27.157  36.495  1.00  0.00     0.198 A 
ATOM     83  F   UNL A   1      43.469  27.224  36.600  1.00  0.00    -0.203 F 
ATOM     84  F   UNL A   1      48.181  29.446  34.979  1.00  0.00    -0.200 F 
ATOM     85  C   UNL A   1      47.018  27.715  36.086  1.00  0.00     0.200 A 
ATOM     86  F   UNL A   1      45.812  25.997  37.168  1.00  0.00    -0.200 F 
ATOM     87  F   UNL A   1      48.173  27.085  36.345  1.00  0.00    -0.200 F 
ENDBRANCH  54  77
ENDBRANCH  28  29
ENDBRANCH  21  23
ENDBRANCH  20  21
ENDBRANCH  19  20
ENDBRANCH  18  19
ENDBRANCH   1  18
TORSDOF 16
ENDMDL
MODEL 3
REMARK VINA RESULT:     -10.4      4.459     10.062
REMARK SMILES COCCS(=O)(=O)Cc1ccc(C(=O)OCCOC(=O)c2ccc(-c3c4nc(c(-c5c(F)c(F)c(F)c(F)c5F)c5ccc([nH]5)c(-c5c(F)c(F)c(F)c(F)c5F)c5nc(c(-c6c(F)c(F)c(F)c(F)c6F)c6ccc3[nH]6)C=C5)C=C4)cc2)cn1
REMARK SMILES IDX 15 1 13 2 14 3 12 4 9 5 10 6 85 7 11 8 84 9 8 10 5 11 6 12
REMARK SMILES IDX 7 13 4 14 3 15 2 16 1 17 16 18 17 19 18 20 19 21 20 22 21 23
REMARK SMILES IDX 22 24 83 25 23 26 82 27 24 28 25 29 26 30 76 31 27 32 81 33
REMARK SMILES IDX 75 34 77 35 28 36 80 37 74 38 73 39 29 41 61 42 41 43 60 44
REMARK SMILES IDX 42 45 45 46 59 47 78 48 43 49 44 50 58 52 79 53 46 54 30 55
REMARK SMILES IDX 31 56 39 57 32 58 33 59 37 60 40 61 34 62 35 63 38 64 36 65
REMARK SMILES IDX 62 66 63 67 71 68 64 69 65 70 69 71 72 72 66 73 67 74 70 75
REMARK SMILES IDX 68 76 47 77 48 78 56 79 49 80 50 81 54 82 57 83 51 84 52 85
REMARK SMILES IDX 55 86 53 87
REMARK H PARENT 77 40 45 51
REMARK Flexibility Score: inf
ROOT
ATOM      1  O   UNL A   1      34.884  21.007  25.260  1.00  0.00    -0.458 OA
ENDROOT
BRANCH   1   2
ATOM      2  C   UNL A   1      33.743  20.836  24.552  1.00  0.00     0.339 C 
ATOM      3  O   UNL A   1      33.045  19.832  24.531  1.00  0.00    -0.246 OA
BRANCH   2   4
ATOM      4  C   UNL A   1      33.343  22.087  23.875  1.00  0.00     0.078 A 
ATOM      5  C   UNL A   1      32.805  24.354  22.373  1.00  0.00     0.055 A 
ATOM      6  C   UNL A   1      31.797  23.790  23.158  1.00  0.00     0.026 A 
ATOM      7  N   UNL A   1      34.059  23.865  22.400  1.00  0.00    -0.259 NA
ATOM      8  C   UNL A   1      32.066  22.637  23.909  1.00  0.00     0.019 A 
ATOM      9  C   UNL A   1      34.305  22.758  23.138  1.00  0.00     0.127 A 
BRANCH   5  10
ATOM     10  C   UNL A   1      32.587  25.629  21.617  1.00  0.00     0.193 C 
BRANCH  10  11
ATOM     11  S   UNL A   1      33.093  27.075  22.533  1.00  0.00     0.158 S 
ATOM     12  O   UNL A   1      34.028  27.786  21.673  1.00  0.00    -0.228 OA
ATOM     13  O   UNL A   1      33.569  26.612  23.829  1.00  0.00    -0.228 OA
BRANCH  11  14
ATOM     14  C   UNL A   1      31.730  28.190  22.851  1.00  0.00     0.165 C 
BRANCH  14  15
ATOM     15  C   UNL A   1      31.608  28.675  24.284  1.00  0.00     0.176 C 
BRANCH  15  16
ATOM     16  O   UNL A   1      32.561  29.680  24.626  1.00  0.00    -0.384 OA
ATOM     17  C   UNL A   1      33.234  29.456  25.854  1.00  0.00     0.194 C 
ENDBRANCH  15  16
ENDBRANCH  14  15
ENDBRANCH  11  14
ENDBRANCH  10  11
ENDBRANCH   5  10
ENDBRANCH   2   4
ENDBRANCH   1   2
BRANCH   1  18
ATOM     18  C   UNL A   1      35.936  20.054  25.002  1.00  0.00     0.275 C 
BRANCH  18  19
ATOM     19  C   UNL A   1      37.229  20.756  24.583  1.00  0.00     0.275 C 
BRANCH  19  20
ATOM     20  O   UNL A   1      37.688  21.650  25.617  1.00  0.00    -0.458 OA
BRANCH  20  21
ATOM     21  C   UNL A   1      38.908  21.365  26.126  1.00  0.00     0.338 C 
ATOM     22  O   UNL A   1      39.505  20.305  26.079  1.00  0.00    -0.246 OA
BRANCH  21  23
ATOM     23  C   UNL A   1      39.511  22.582  26.689  1.00  0.00     0.060 A 
ATOM     24  C   UNL A   1      39.062  23.807  26.205  1.00  0.00     0.016 A 
ATOM     25  C   UNL A   1      40.608  22.525  27.545  1.00  0.00     0.016 A 
ATOM     26  C   UNL A   1      39.750  24.978  26.506  1.00  0.00     0.010 A 
ATOM     27  C   UNL A   1      41.251  23.716  27.916  1.00  0.00     0.010 A 
ATOM     28  C   UNL A   1      40.850  24.953  27.375  1.00  0.00    -0.014 A 
BRANCH  28  29
ATOM     29  C   UNL A   1      41.589  26.213  27.677  1.00  0.00     0.031 A 
ATOM     30  C   UNL A   1      40.945  27.296  28.503  1.00  0.00     0.074 A 
ATOM     31  C   UNL A   1      42.853  26.382  27.239  1.00  0.00     0.049 A 
ATOM     32  N   UNL A   1      41.367  28.512  28.754  1.00  0.00    -0.248 NA
ATOM     33  C   UNL A   1      39.651  26.974  29.121  1.00  0.00     0.031 C 
ATOM     34  C   UNL A   1      43.621  25.400  26.471  1.00  0.00     0.029 A 
ATOM     35  N   UNL A   1      43.721  27.438  27.381  1.00  0.00    -0.354 N 
ATOM     36  C   UNL A   1      40.369  29.113  29.511  1.00  0.00     0.074 A 
ATOM     37  C   UNL A   1      39.317  28.133  29.673  1.00  0.00     0.031 C 
ATOM     38  C   UNL A   1      44.851  25.881  26.244  1.00  0.00     0.029 A 
ATOM     39  C   UNL A   1      44.934  27.239  26.768  1.00  0.00     0.049 A 
ATOM     40  H   UNL A   1      43.495  28.258  27.876  1.00  0.00     0.167 HD
ATOM     41  C   UNL A   1      40.337  30.367  30.026  1.00  0.00     0.037 A 
ATOM     42  C   UNL A   1      45.983  28.068  26.603  1.00  0.00     0.037 A 
ATOM     43  C   UNL A   1      41.409  31.323  29.909  1.00  0.00     0.049 A 
ATOM     44  C   UNL A   1      45.904  29.468  27.147  1.00  0.00     0.074 A 
ATOM     45  C   UNL A   1      41.479  32.609  30.418  1.00  0.00     0.029 A 
ATOM     46  N   UNL A   1      42.605  31.093  29.246  1.00  0.00    -0.354 N 
ATOM     47  N   UNL A   1      44.941  30.039  27.826  1.00  0.00    -0.248 NA
ATOM     48  C   UNL A   1      47.055  30.344  26.883  1.00  0.00     0.031 C 
ATOM     49  C   UNL A   1      42.696  33.173  30.023  1.00  0.00     0.029 A 
ATOM     50  C   UNL A   1      43.410  32.220  29.314  1.00  0.00     0.049 A 
ATOM     51  H   UNL A   1      42.848  30.252  28.792  1.00  0.00     0.167 HD
ATOM     52  C   UNL A   1      45.372  31.333  28.085  1.00  0.00     0.074 A 
ATOM     53  C   UNL A   1      46.694  31.456  27.508  1.00  0.00     0.031 C 
ATOM     54  C   UNL A   1      44.725  32.330  28.738  1.00  0.00     0.037 A 
BRANCH  41  55
ATOM     55  C   UNL A   1      39.085  30.798  30.737  1.00  0.00     0.064 A 
ATOM     56  C   UNL A   1      38.002  31.378  30.059  1.00  0.00     0.173 A 
ATOM     57  C   UNL A   1      38.953  30.586  32.119  1.00  0.00     0.173 A 
ATOM     58  F   UNL A   1      38.079  31.611  28.741  1.00  0.00    -0.203 F 
ATOM     59  C   UNL A   1      36.849  31.757  30.742  1.00  0.00     0.198 A 
ATOM     60  C   UNL A   1      37.786  30.938  32.793  1.00  0.00     0.198 A 
ATOM     61  F   UNL A   1      39.952  30.025  32.816  1.00  0.00    -0.203 F 
ATOM     62  F   UNL A   1      35.847  32.354  30.082  1.00  0.00    -0.200 F 
ATOM     63  C   UNL A   1      36.738  31.530  32.106  1.00  0.00     0.200 A 
ATOM     64  F   UNL A   1      37.676  30.702  34.108  1.00  0.00    -0.200 F 
ATOM     65  F   UNL A   1      35.625  31.889  32.760  1.00  0.00    -0.200 F 
ENDBRANCH  41  55
BRANCH  42  66
ATOM     66  C   UNL A   1      47.182  27.607  25.852  1.00  0.00     0.064 A 
ATOM     67  C   UNL A   1      47.246  27.711  24.457  1.00  0.00     0.173 A 
ATOM     68  C   UNL A   1      48.287  27.051  26.517  1.00  0.00     0.173 A 
ATOM     69  F   UNL A   1      46.205  28.207  23.773  1.00  0.00    -0.203 F 
ATOM     70  C   UNL A   1      48.365  27.270  23.754  1.00  0.00     0.198 A 
ATOM     71  C   UNL A   1      49.419  26.643  25.816  1.00  0.00     0.198 A 
ATOM     72  F   UNL A   1      48.274  26.925  27.852  1.00  0.00    -0.203 F 
ATOM     73  F   UNL A   1      48.384  27.339  22.415  1.00  0.00    -0.200 F 
ATOM     74  C   UNL A   1      49.454  26.744  24.435  1.00  0.00     0.200 A 
ATOM     75  F   UNL A   1      50.473  26.150  26.481  1.00  0.00    -0.200 F 
ATOM     76  F   UNL A   1      50.534  26.329  23.758  1.00  0.00    -0.200 F 
ENDBRANCH  42  66
BRANCH  54  77
ATOM     77  C   UNL A   1      45.455  33.633  28.890  1.00  0.00     0.064 A 
ATOM     78  C   UNL A   1      45.301  34.675  27.964  1.00  0.00     0.173 A 
ATOM     79  C   UNL A   1      46.298  33.851  29.990  1.00  0.00     0.173 A 
ATOM     80  F   UNL A   1      44.521  34.510  26.885  1.00  0.00    -0.203 F 
ATOM     81  C   UNL A   1      45.985  35.878  28.120  1.00  0.00     0.198 A 
ATOM     82  C   UNL A   1      46.957  35.065  30.160  1.00  0.00     0.198 A 
ATOM     83  F   UNL A   1      46.476  32.888  30.907  1.00  0.00    -0.203 F 
ATOM     84  F   UNL A   1      45.863  36.841  27.197  1.00  0.00    -0.200 F 
ATOM     85  C   UNL A   1      46.806  36.074  29.221  1.00  0.00     0.200 A 
ATOM     86  F   UNL A   1      47.741  35.257  31.230  1.00  0.00    -0.200 F 
ATOM     87  F   UNL A   1      47.460  37.234  29.372  1.00  0.00    -0.200 F 
ENDBRANCH  54  77
ENDBRANCH  28  29
ENDBRANCH  21  23
ENDBRANCH  20  21
ENDBRANCH  19  20
ENDBRANCH  18  19
ENDBRANCH   1  18
TORSDOF 16
ENDMDL
