MODEL 1
REMARK VINA RESULT:     -12.6      0.000      0.000
REMARK SMILES O=C(OCCOC(=O)c1cccn1CC(=O)N1CC[C@H]2CCCC[C@H]2C1)c1ccc(-c2c3nc(c(-c4c(F)c(F)c(F)c(F)c4F)c4ccc([nH]4)c(-c4c(F)c(F)c(F)c(F)c4F)c4nc(c(-c5c(F)c(F)c(F)c(F)c5F)c5ccc2[nH]5)C=C4)C=C3)cc1
REMARK SMILES IDX 5 1 4 2 3 3 2 4 1 5 27 6 28 7 89 8 29 9 88 10 30 11 31 12
REMARK SMILES IDX 32 13 82 14 33 15 87 16 81 17 83 18 34 19 86 20 80 21 79 22
REMARK SMILES IDX 35 24 67 25 47 26 66 27 48 28 51 29 65 30 84 31 49 32 50 33
REMARK SMILES IDX 64 35 85 36 52 37 36 38 37 39 45 40 38 41 39 42 43 43 46 44
REMARK SMILES IDX 40 45 41 46 44 47 42 48 68 49 69 50 77 51 70 52 71 53 75 54
REMARK SMILES IDX 78 55 72 56 73 57 76 58 74 59 53 60 54 61 62 62 55 63 56 64
REMARK SMILES IDX 60 65 63 66 57 67 58 68 61 69 59 70 6 71 7 72 8 73 9 74
REMARK SMILES IDX 10 75 13 76 11 77 12 78 14 79 15 80 16 81 17 82 18 83 26 84
REMARK SMILES IDX 19 85 25 86 20 87 24 88 21 89 23 90 22 91
REMARK H PARENT 83 23 51 34
REMARK Flexibility Score: inf
ROOT
ATOM      1  C   UNL A   1      33.709  29.410  27.354  1.00  0.00     0.275 C 
ENDROOT
BRANCH   1   2
ATOM      2  C   UNL A   1      33.445  30.804  26.702  1.00  0.00     0.275 C 
BRANCH   2   3
ATOM      3  O   UNL A   1      32.390  31.718  27.220  1.00  0.00    -0.458 OA
BRANCH   3   4
ATOM      4  C   UNL A   1      32.873  32.938  27.557  1.00  0.00     0.338 C 
ATOM      5  O   UNL A   1      32.098  33.868  27.554  1.00  0.00    -0.246 OA
BRANCH   4   6
ATOM      6  C   UNL A   1      34.079  33.267  28.364  1.00  0.00     0.060 A 
ATOM      7  C   UNL A   1      35.259  33.729  27.843  1.00  0.00     0.016 A 
ATOM      8  C   UNL A   1      34.148  32.587  29.609  1.00  0.00     0.016 A 
ATOM      9  C   UNL A   1      36.465  33.310  28.464  1.00  0.00     0.010 A 
ATOM     10  C   UNL A   1      35.320  32.024  30.110  1.00  0.00     0.010 A 
ATOM     11  C   UNL A   1      36.525  32.331  29.507  1.00  0.00    -0.014 A 
BRANCH  11  12
ATOM     12  C   UNL A   1      37.803  32.139  30.279  1.00  0.00     0.031 A 
ATOM     13  C   UNL A   1      38.282  30.818  29.761  1.00  0.00     0.074 A 
ATOM     14  C   UNL A   1      38.287  32.865  31.338  1.00  0.00     0.049 A 
ATOM     15  N   UNL A   1      37.975  29.640  30.197  1.00  0.00    -0.248 NA
ATOM     16  C   UNL A   1      38.785  30.797  28.355  1.00  0.00     0.031 C 
ATOM     17  C   UNL A   1      38.347  34.325  31.466  1.00  0.00     0.029 A 
ATOM     18  N   UNL A   1      38.868  32.497  32.550  1.00  0.00    -0.354 N 
ATOM     19  C   UNL A   1      38.514  28.783  29.240  1.00  0.00     0.074 A 
ATOM     20  C   UNL A   1      38.559  29.524  28.019  1.00  0.00     0.031 C 
ATOM     21  C   UNL A   1      38.671  34.716  32.729  1.00  0.00     0.029 A 
ATOM     22  C   UNL A   1      38.925  33.541  33.546  1.00  0.00     0.049 A 
ATOM     23  H   UNL A   1      39.215  31.591  32.716  1.00  0.00     0.167 HD
ATOM     24  C   UNL A   1      39.369  27.779  29.582  1.00  0.00     0.037 A 
ATOM     25  C   UNL A   1      39.107  33.416  34.911  1.00  0.00     0.037 A 
ATOM     26  C   UNL A   1      39.613  27.825  30.992  1.00  0.00     0.049 A 
ATOM     27  C   UNL A   1      39.779  32.122  35.009  1.00  0.00     0.074 A 
ATOM     28  C   UNL A   1      38.758  27.672  32.054  1.00  0.00     0.029 A 
ATOM     29  N   UNL A   1      40.718  28.552  31.397  1.00  0.00    -0.354 N 
ATOM     30  N   UNL A   1      41.007  31.949  34.622  1.00  0.00    -0.248 NA
ATOM     31  C   UNL A   1      39.063  30.939  35.490  1.00  0.00     0.031 C 
ATOM     32  C   UNL A   1      39.160  28.689  32.938  1.00  0.00     0.029 A 
ATOM     33  C   UNL A   1      40.426  29.170  32.585  1.00  0.00     0.049 A 
ATOM     34  H   UNL A   1      41.572  28.617  30.911  1.00  0.00     0.167 HD
ATOM     35  C   UNL A   1      41.019  30.601  34.382  1.00  0.00     0.074 A 
ATOM     36  C   UNL A   1      40.016  30.032  35.264  1.00  0.00     0.031 C 
ATOM     37  C   UNL A   1      41.301  30.198  33.109  1.00  0.00     0.037 A 
BRANCH  24  38
ATOM     38  C   UNL A   1      40.315  27.010  28.728  1.00  0.00     0.064 A 
ATOM     39  C   UNL A   1      40.037  25.640  28.560  1.00  0.00     0.173 A 
ATOM     40  C   UNL A   1      41.579  27.453  28.311  1.00  0.00     0.173 A 
ATOM     41  F   UNL A   1      38.847  25.136  28.927  1.00  0.00    -0.203 F 
ATOM     42  C   UNL A   1      40.997  24.754  28.090  1.00  0.00     0.198 A 
ATOM     43  C   UNL A   1      42.519  26.573  27.787  1.00  0.00     0.198 A 
ATOM     44  F   UNL A   1      41.993  28.712  28.492  1.00  0.00    -0.203 F 
ATOM     45  F   UNL A   1      40.736  23.441  28.065  1.00  0.00    -0.200 F 
ATOM     46  C   UNL A   1      42.242  25.221  27.709  1.00  0.00     0.200 A 
ATOM     47  F   UNL A   1      43.724  27.036  27.429  1.00  0.00    -0.200 F 
ATOM     48  F   UNL A   1      43.189  24.367  27.306  1.00  0.00    -0.200 F 
ENDBRANCH  24  38
BRANCH  25  49
ATOM     49  C   UNL A   1      38.983  34.126  36.263  1.00  0.00     0.064 A 
ATOM     50  C   UNL A   1      38.307  33.663  37.397  1.00  0.00     0.173 A 
ATOM     51  C   UNL A   1      39.743  35.322  36.506  1.00  0.00     0.173 A 
ATOM     52  F   UNL A   1      37.512  32.587  37.320  1.00  0.00    -0.203 F 
ATOM     53  C   UNL A   1      38.443  34.296  38.661  1.00  0.00     0.198 A 
ATOM     54  C   UNL A   1      39.930  35.905  37.760  1.00  0.00     0.198 A 
ATOM     55  F   UNL A   1      40.359  35.986  35.520  1.00  0.00    -0.203 F 
ATOM     56  F   UNL A   1      37.770  33.828  39.722  1.00  0.00    -0.200 F 
ATOM     57  C   UNL A   1      39.284  35.386  38.848  1.00  0.00     0.200 A 
ATOM     58  F   UNL A   1      40.764  36.949  37.891  1.00  0.00    -0.200 F 
ATOM     59  F   UNL A   1      39.467  35.934  40.059  1.00  0.00    -0.200 F 
ENDBRANCH  25  49
BRANCH  37  60
ATOM     60  C   UNL A   1      42.168  31.196  32.335  1.00  0.00     0.064 A 
ATOM     61  C   UNL A   1      43.340  31.719  32.924  1.00  0.00     0.173 A 
ATOM     62  C   UNL A   1      41.790  31.796  31.123  1.00  0.00     0.173 A 
ATOM     63  F   UNL A   1      43.817  31.179  34.057  1.00  0.00    -0.203 F 
ATOM     64  C   UNL A   1      44.027  32.812  32.383  1.00  0.00     0.198 A 
ATOM     65  C   UNL A   1      42.468  32.897  30.583  1.00  0.00     0.198 A 
ATOM     66  F   UNL A   1      40.759  31.313  30.429  1.00  0.00    -0.203 F 
ATOM     67  F   UNL A   1      45.122  33.284  32.996  1.00  0.00    -0.200 F 
ATOM     68  C   UNL A   1      43.581  33.414  31.220  1.00  0.00     0.200 A 
ATOM     69  F   UNL A   1      42.044  33.452  29.436  1.00  0.00    -0.200 F 
ATOM     70  F   UNL A   1      44.236  34.463  30.703  1.00  0.00    -0.200 F 
ENDBRANCH  37  60
ENDBRANCH  11  12
ENDBRANCH   4   6
ENDBRANCH   3   4
ENDBRANCH   2   3
ENDBRANCH   1   2
BRANCH   1  71
ATOM     71  O   UNL A   1      33.255  28.266  26.601  1.00  0.00    -0.457 OA
BRANCH  71  72
ATOM     72  C   UNL A   1      31.957  27.851  26.795  1.00  0.00     0.355 C 
ATOM     73  O   UNL A   1      31.410  27.802  27.895  1.00  0.00    -0.244 OA
BRANCH  72  74
ATOM     74  C   UNL A   1      31.290  27.692  25.503  1.00  0.00     0.128 A 
ATOM     75  C   UNL A   1      30.951  28.742  24.640  1.00  0.00     0.035 A 
ATOM     76  N   UNL A   1      30.504  26.568  25.111  1.00  0.00    -0.333 N 
ATOM     77  C   UNL A   1      30.154  28.228  23.603  1.00  0.00     0.020 A 
ATOM     78  C   UNL A   1      30.020  26.867  23.835  1.00  0.00     0.087 A 
BRANCH  76  79
ATOM     79  C   UNL A   1      30.362  25.242  25.865  1.00  0.00     0.222 C 
BRANCH  79  80
ATOM     80  C   UNL A   1      31.502  24.115  26.225  1.00  0.00     0.242 C 
ATOM     81  O   UNL A   1      31.553  23.699  27.395  1.00  0.00    -0.273 OA
BRANCH  80  82
ATOM     82  N   UNL A   1      32.328  23.426  25.221  1.00  0.00    -0.341 N 
ATOM     83  C   UNL A   1      33.209  24.267  24.502  1.00  0.00     0.120 C 
ATOM     84  C   UNL A   1      33.025  22.124  25.496  1.00  0.00     0.123 C 
ATOM     85  C   UNL A   1      33.816  23.731  23.223  1.00  0.00     0.025 C 
ATOM     86  C   UNL A   1      34.118  21.585  24.443  1.00  0.00     0.012 C 
ATOM     87  C   UNL A   1      34.795  22.600  23.513  1.00  0.00    -0.005 C 
ATOM     88  C   UNL A   1      35.190  20.577  24.924  1.00  0.00     0.006 C 
ATOM     89  C   UNL A   1      36.196  23.146  23.870  1.00  0.00     0.004 C 
ATOM     90  C   UNL A   1      36.557  21.094  25.377  1.00  0.00     0.000 C 
ATOM     91  C   UNL A   1      37.101  22.375  24.805  1.00  0.00     0.000 C 
ENDBRANCH  80  82
ENDBRANCH  79  80
ENDBRANCH  76  79
ENDBRANCH  72  74
ENDBRANCH  71  72
ENDBRANCH   1  71
TORSDOF 14
ENDMDL
MODEL 2
REMARK VINA RESULT:     -12.1      4.645     10.197
REMARK SMILES O=C(OCCOC(=O)c1cccn1CC(=O)N1CC[C@H]2CCCC[C@H]2C1)c1ccc(-c2c3nc(c(-c4c(F)c(F)c(F)c(F)c4F)c4ccc([nH]4)c(-c4c(F)c(F)c(F)c(F)c4F)c4nc(c(-c5c(F)c(F)c(F)c(F)c5F)c5ccc2[nH]5)C=C4)C=C3)cc1
REMARK SMILES IDX 5 1 4 2 3 3 2 4 1 5 27 6 28 7 89 8 29 9 88 10 30 11 31 12
REMARK SMILES IDX 32 13 82 14 33 15 87 16 81 17 83 18 34 19 86 20 80 21 79 22
REMARK SMILES IDX 35 24 67 25 47 26 66 27 48 28 51 29 65 30 84 31 49 32 50 33
REMARK SMILES IDX 64 35 85 36 52 37 36 38 37 39 45 40 38 41 39 42 43 43 46 44
REMARK SMILES IDX 40 45 41 46 44 47 42 48 68 49 69 50 77 51 70 52 71 53 75 54
REMARK SMILES IDX 78 55 72 56 73 57 76 58 74 59 53 60 54 61 62 62 55 63 56 64
REMARK SMILES IDX 60 65 63 66 57 67 58 68 61 69 59 70 6 71 7 72 8 73 9 74
REMARK SMILES IDX 10 75 13 76 11 77 12 78 14 79 15 80 16 81 17 82 18 83 26 84
REMARK SMILES IDX 19 85 25 86 20 87 24 88 21 89 23 90 22 91
REMARK H PARENT 83 23 51 34
REMARK Flexibility Score: inf
ROOT
ATOM      1  C   UNL A   1      37.632  21.786  24.959  1.00  0.00     0.275 C 
ENDROOT
BRANCH   1   2
ATOM      2  C   UNL A   1      38.952  21.424  25.711  1.00  0.00     0.275 C 
BRANCH   2   3
ATOM      3  O   UNL A   1      39.404  20.012  25.855  1.00  0.00    -0.458 OA
BRANCH   3   4
ATOM      4  C   UNL A   1      40.739  19.907  26.058  1.00  0.00     0.338 C 
ATOM      5  O   UNL A   1      41.378  19.259  25.261  1.00  0.00    -0.246 OA
BRANCH   4   6
ATOM      6  C   UNL A   1      41.633  20.812  26.830  1.00  0.00     0.060 A 
ATOM      7  C   UNL A   1      41.368  21.275  28.092  1.00  0.00     0.016 A 
ATOM      8  C   UNL A   1      42.496  21.601  26.024  1.00  0.00     0.016 A 
ATOM      9  C   UNL A   1      41.789  22.591  28.416  1.00  0.00     0.010 A 
ATOM     10  C   UNL A   1      42.748  22.951  26.266  1.00  0.00     0.010 A 
ATOM     11  C   UNL A   1      42.345  23.505  27.465  1.00  0.00    -0.014 A 
BRANCH  11  12
ATOM     12  C   UNL A   1      42.997  24.775  27.945  1.00  0.00     0.031 A 
ATOM     13  C   UNL A   1      41.831  25.712  28.020  1.00  0.00     0.074 A 
ATOM     14  C   UNL A   1      44.333  25.067  28.062  1.00  0.00     0.049 A 
ATOM     15  N   UNL A   1      41.347  26.450  27.075  1.00  0.00    -0.248 NA
ATOM     16  C   UNL A   1      40.845  25.461  29.114  1.00  0.00     0.031 C 
ATOM     17  C   UNL A   1      45.382  24.225  28.648  1.00  0.00     0.029 A 
ATOM     18  N   UNL A   1      45.091  26.184  27.718  1.00  0.00    -0.354 N 
ATOM     19  C   UNL A   1      40.163  26.945  27.617  1.00  0.00     0.074 A 
ATOM     20  C   UNL A   1      39.737  25.989  28.589  1.00  0.00     0.031 C 
ATOM     21  C   UNL A   1      46.628  24.712  28.401  1.00  0.00     0.029 A 
ATOM     22  C   UNL A   1      46.518  25.970  27.681  1.00  0.00     0.049 A 
ATOM     23  H   UNL A   1      44.683  27.057  27.515  1.00  0.00     0.167 HD
ATOM     24  C   UNL A   1      39.903  28.282  27.662  1.00  0.00     0.037 A 
ATOM     25  C   UNL A   1      47.486  26.739  27.061  1.00  0.00     0.037 A 
ATOM     26  C   UNL A   1      41.024  29.000  27.136  1.00  0.00     0.049 A 
ATOM     27  C   UNL A   1      46.827  28.041  26.975  1.00  0.00     0.074 A 
ATOM     28  C   UNL A   1      41.585  28.991  25.884  1.00  0.00     0.029 A 
ATOM     29  N   UNL A   1      41.969  29.416  28.057  1.00  0.00    -0.354 N 
ATOM     30  N   UNL A   1      46.618  28.782  28.021  1.00  0.00    -0.248 NA
ATOM     31  C   UNL A   1      46.311  28.539  25.698  1.00  0.00     0.031 C 
ATOM     32  C   UNL A   1      42.965  28.971  26.151  1.00  0.00     0.029 A 
ATOM     33  C   UNL A   1      43.210  29.331  27.482  1.00  0.00     0.049 A 
ATOM     34  H   UNL A   1      41.781  29.722  28.973  1.00  0.00     0.167 HD
ATOM     35  C   UNL A   1      45.570  29.550  27.593  1.00  0.00     0.074 A 
ATOM     36  C   UNL A   1      45.704  29.638  26.151  1.00  0.00     0.031 C 
ATOM     37  C   UNL A   1      44.402  29.457  28.294  1.00  0.00     0.037 A 
BRANCH  24  38
ATOM     38  C   UNL A   1      38.916  29.025  28.491  1.00  0.00     0.064 A 
ATOM     39  C   UNL A   1      39.100  28.969  29.887  1.00  0.00     0.173 A 
ATOM     40  C   UNL A   1      37.692  29.538  28.036  1.00  0.00     0.173 A 
ATOM     41  F   UNL A   1      40.246  28.498  30.405  1.00  0.00    -0.203 F 
ATOM     42  C   UNL A   1      38.085  29.316  30.769  1.00  0.00     0.198 A 
ATOM     43  C   UNL A   1      36.700  29.939  28.923  1.00  0.00     0.198 A 
ATOM     44  F   UNL A   1      37.365  29.567  26.740  1.00  0.00    -0.203 F 
ATOM     45  F   UNL A   1      38.254  29.128  32.084  1.00  0.00    -0.200 F 
ATOM     46  C   UNL A   1      36.882  29.795  30.285  1.00  0.00     0.200 A 
ATOM     47  F   UNL A   1      35.534  30.393  28.443  1.00  0.00    -0.200 F 
ATOM     48  F   UNL A   1      35.881  30.081  31.127  1.00  0.00    -0.200 F 
ENDBRANCH  24  38
BRANCH  25  49
ATOM     49  C   UNL A   1      48.935  26.771  26.565  1.00  0.00     0.064 A 
ATOM     50  C   UNL A   1      49.383  26.544  25.259  1.00  0.00     0.173 A 
ATOM     51  C   UNL A   1      49.975  27.226  27.448  1.00  0.00     0.173 A 
ATOM     52  F   UNL A   1      48.546  26.065  24.329  1.00  0.00    -0.203 F 
ATOM     53  C   UNL A   1      50.721  26.817  24.867  1.00  0.00     0.198 A 
ATOM     54  C   UNL A   1      51.270  27.559  27.048  1.00  0.00     0.198 A 
ATOM     55  F   UNL A   1      49.773  27.383  28.762  1.00  0.00    -0.203 F 
ATOM     56  F   UNL A   1      51.113  26.575  23.607  1.00  0.00    -0.200 F 
ATOM     57  C   UNL A   1      51.646  27.362  25.748  1.00  0.00     0.200 A 
ATOM     58  F   UNL A   1      52.123  28.095  27.935  1.00  0.00    -0.200 F 
ATOM     59  F   UNL A   1      52.886  27.688  25.353  1.00  0.00    -0.200 F 
ENDBRANCH  25  49
BRANCH  37  60
ATOM     60  C   UNL A   1      44.605  29.053  29.758  1.00  0.00     0.064 A 
ATOM     61  C   UNL A   1      45.561  29.725  30.550  1.00  0.00     0.173 A 
ATOM     62  C   UNL A   1      44.033  27.915  30.349  1.00  0.00     0.173 A 
ATOM     63  F   UNL A   1      46.127  30.855  30.099  1.00  0.00    -0.203 F 
ATOM     64  C   UNL A   1      45.971  29.242  31.799  1.00  0.00     0.198 A 
ATOM     65  C   UNL A   1      44.447  27.422  31.594  1.00  0.00     0.198 A 
ATOM     66  F   UNL A   1      43.045  27.264  29.733  1.00  0.00    -0.203 F 
ATOM     67  F   UNL A   1      46.900  29.907  32.500  1.00  0.00    -0.200 F 
ATOM     68  C   UNL A   1      45.427  28.080  32.314  1.00  0.00     0.200 A 
ATOM     69  F   UNL A   1      43.888  26.310  32.097  1.00  0.00    -0.200 F 
ATOM     70  F   UNL A   1      45.821  27.615  33.508  1.00  0.00    -0.200 F 
ENDBRANCH  37  60
ENDBRANCH  11  12
ENDBRANCH   4   6
ENDBRANCH   3   4
ENDBRANCH   2   3
ENDBRANCH   1   2
BRANCH   1  71
ATOM     71  O   UNL A   1      36.421  21.225  25.508  1.00  0.00    -0.457 OA
BRANCH  71  72
ATOM     72  C   UNL A   1      35.396  22.094  25.807  1.00  0.00     0.355 C 
ATOM     73  O   UNL A   1      35.510  23.054  26.567  1.00  0.00    -0.244 OA
BRANCH  72  74
ATOM     74  C   UNL A   1      34.251  21.827  24.936  1.00  0.00     0.128 A 
ATOM     75  C   UNL A   1      33.641  20.576  24.773  1.00  0.00     0.035 A 
ATOM     76  N   UNL A   1      33.856  22.625  23.822  1.00  0.00    -0.333 N 
ATOM     77  C   UNL A   1      32.715  20.666  23.720  1.00  0.00     0.020 A 
ATOM     78  C   UNL A   1      32.760  21.971  23.253  1.00  0.00     0.087 A 
BRANCH  76  79
ATOM     79  C   UNL A   1      34.413  23.999  23.438  1.00  0.00     0.222 C 
BRANCH  79  80
ATOM     80  C   UNL A   1      33.621  25.346  22.929  1.00  0.00     0.242 C 
ATOM     81  O   UNL A   1      33.841  25.743  21.772  1.00  0.00    -0.273 OA
BRANCH  80  82
ATOM     82  N   UNL A   1      32.529  25.992  23.673  1.00  0.00    -0.341 N 
ATOM     83  C   UNL A   1      32.417  25.591  25.025  1.00  0.00     0.120 C 
ATOM     84  C   UNL A   1      32.243  27.464  23.584  1.00  0.00     0.123 C 
ATOM     85  C   UNL A   1      31.129  25.908  25.755  1.00  0.00     0.025 C 
ATOM     86  C   UNL A   1      31.214  28.125  24.632  1.00  0.00     0.012 C 
ATOM     87  C   UNL A   1      30.974  27.409  25.967  1.00  0.00    -0.005 C 
ATOM     88  C   UNL A   1      31.295  29.646  24.906  1.00  0.00     0.006 C 
ATOM     89  C   UNL A   1      31.727  27.879  27.232  1.00  0.00     0.004 C 
ATOM     90  C   UNL A   1      32.115  30.152  26.095  1.00  0.00     0.000 C 
ATOM     91  C   UNL A   1      32.295  29.278  27.307  1.00  0.00     0.000 C 
ENDBRANCH  80  82
ENDBRANCH  79  80
ENDBRANCH  76  79
ENDBRANCH  72  74
ENDBRANCH  71  72
ENDBRANCH   1  71
TORSDOF 14
ENDMDL
MODEL 3
REMARK VINA RESULT:     -12.0      5.104      7.613
REMARK SMILES O=C(OCCOC(=O)c1cccn1CC(=O)N1CC[C@H]2CCCC[C@H]2C1)c1ccc(-c2c3nc(c(-c4c(F)c(F)c(F)c(F)c4F)c4ccc([nH]4)c(-c4c(F)c(F)c(F)c(F)c4F)c4nc(c(-c5c(F)c(F)c(F)c(F)c5F)c5ccc2[nH]5)C=C4)C=C3)cc1
REMARK SMILES IDX 5 1 4 2 3 3 2 4 1 5 27 6 28 7 89 8 29 9 88 10 30 11 31 12
REMARK SMILES IDX 32 13 82 14 33 15 87 16 81 17 83 18 34 19 86 20 80 21 79 22
REMARK SMILES IDX 35 24 67 25 47 26 66 27 48 28 51 29 65 30 84 31 49 32 50 33
REMARK SMILES IDX 64 35 85 36 52 37 36 38 37 39 45 40 38 41 39 42 43 43 46 44
REMARK SMILES IDX 40 45 41 46 44 47 42 48 68 49 69 50 77 51 70 52 71 53 75 54
REMARK SMILES IDX 78 55 72 56 73 57 76 58 74 59 53 60 54 61 62 62 55 63 56 64
REMARK SMILES IDX 60 65 63 66 57 67 58 68 61 69 59 70 6 71 7 72 8 73 9 74
REMARK SMILES IDX 10 75 13 76 11 77 12 78 14 79 15 80 16 81 17 82 18 83 26 84
REMARK SMILES IDX 19 85 25 86 20 87 24 88 21 89 23 90 22 91
REMARK H PARENT 83 23 51 34
REMARK Flexibility Score: inf
ROOT
ATOM      1  C   UNL A   1      33.821  29.966  27.219  1.00  0.00     0.275 C 
ENDROOT
BRANCH   1   2
ATOM      2  C   UNL A   1      35.203  29.329  27.569  1.00  0.00     0.275 C 
BRANCH   2   3
ATOM      3  O   UNL A   1      36.480  30.055  27.321  1.00  0.00    -0.458 OA
BRANCH   3   4
ATOM      4  C   UNL A   1      37.455  29.714  28.198  1.00  0.00     0.338 C 
ATOM      5  O   UNL A   1      37.229  29.871  29.376  1.00  0.00    -0.246 OA
BRANCH   4   6
ATOM      6  C   UNL A   1      38.583  28.764  28.006  1.00  0.00     0.060 A 
ATOM      7  C   UNL A   1      39.155  28.025  29.008  1.00  0.00     0.016 A 
ATOM      8  C   UNL A   1      39.390  29.042  26.871  1.00  0.00     0.016 A 
ATOM      9  C   UNL A   1      40.553  27.786  28.938  1.00  0.00     0.010 A 
ATOM     10  C   UNL A   1      40.783  28.974  26.887  1.00  0.00     0.010 A 
ATOM     11  C   UNL A   1      41.415  28.384  27.964  1.00  0.00    -0.014 A 
BRANCH  11  12
ATOM     12  C   UNL A   1      42.824  27.878  27.804  1.00  0.00     0.031 A 
ATOM     13  C   UNL A   1      42.604  26.411  27.598  1.00  0.00     0.074 A 
ATOM     14  C   UNL A   1      44.006  28.540  28.017  1.00  0.00     0.049 A 
ATOM     15  N   UNL A   1      42.497  25.493  28.503  1.00  0.00    -0.248 NA
ATOM     16  C   UNL A   1      41.999  26.005  26.294  1.00  0.00     0.031 C 
ATOM     17  C   UNL A   1      44.367  29.889  27.569  1.00  0.00     0.029 A 
ATOM     18  N   UNL A   1      45.191  28.180  28.657  1.00  0.00    -0.354 N 
ATOM     19  C   UNL A   1      42.094  24.369  27.786  1.00  0.00     0.074 A 
ATOM     20  C   UNL A   1      41.408  24.855  26.630  1.00  0.00     0.031 C 
ATOM     21  C   UNL A   1      45.521  30.329  28.140  1.00  0.00     0.029 A 
ATOM     22  C   UNL A   1      46.075  29.275  28.974  1.00  0.00     0.049 A 
ATOM     23  H   UNL A   1      45.409  27.245  28.877  1.00  0.00     0.167 HD
ATOM     24  C   UNL A   1      42.779  23.193  27.856  1.00  0.00     0.037 A 
ATOM     25  C   UNL A   1      47.118  29.302  29.882  1.00  0.00     0.037 A 
ATOM     26  C   UNL A   1      43.923  23.363  28.701  1.00  0.00     0.049 A 
ATOM     27  C   UNL A   1      47.461  27.885  29.990  1.00  0.00     0.074 A 
ATOM     28  C   UNL A   1      44.014  23.679  30.033  1.00  0.00     0.029 A 
ATOM     29  N   UNL A   1      45.102  23.712  28.067  1.00  0.00    -0.354 N 
ATOM     30  N   UNL A   1      48.046  27.239  29.026  1.00  0.00    -0.248 NA
ATOM     31  C   UNL A   1      47.093  27.111  31.178  1.00  0.00     0.031 C 
ATOM     32  C   UNL A   1      45.065  24.612  30.070  1.00  0.00     0.029 A 
ATOM     33  C   UNL A   1      45.803  24.564  28.881  1.00  0.00     0.049 A 
ATOM     34  H   UNL A   1      45.390  23.402  27.178  1.00  0.00     0.167 HD
ATOM     35  C   UNL A   1      47.678  25.952  29.312  1.00  0.00     0.074 A 
ATOM     36  C   UNL A   1      47.475  25.907  30.749  1.00  0.00     0.031 C 
ATOM     37  C   UNL A   1      46.946  25.289  28.369  1.00  0.00     0.037 A 
BRANCH  24  38
ATOM     38  C   UNL A   1      42.750  22.024  26.936  1.00  0.00     0.064 A 
ATOM     39  C   UNL A   1      41.984  20.918  27.350  1.00  0.00     0.173 A 
ATOM     40  C   UNL A   1      43.615  21.822  25.850  1.00  0.00     0.173 A 
ATOM     41  F   UNL A   1      41.127  21.029  28.378  1.00  0.00    -0.203 F 
ATOM     42  C   UNL A   1      42.144  19.665  26.774  1.00  0.00     0.198 A 
ATOM     43  C   UNL A   1      43.730  20.579  25.237  1.00  0.00     0.198 A 
ATOM     44  F   UNL A   1      44.453  22.769  25.415  1.00  0.00    -0.203 F 
ATOM     45  F   UNL A   1      41.491  18.611  27.281  1.00  0.00    -0.200 F 
ATOM     46  C   UNL A   1      43.023  19.495  25.720  1.00  0.00     0.200 A 
ATOM     47  F   UNL A   1      44.592  20.425  24.222  1.00  0.00    -0.200 F 
ATOM     48  F   UNL A   1      43.221  18.280  25.195  1.00  0.00    -0.200 F 
ENDBRANCH  24  38
BRANCH  25  49
ATOM     49  C   UNL A   1      48.064  30.205  30.680  1.00  0.00     0.064 A 
ATOM     50  C   UNL A   1      49.305  30.701  30.264  1.00  0.00     0.173 A 
ATOM     51  C   UNL A   1      47.624  30.761  31.931  1.00  0.00     0.173 A 
ATOM     52  F   UNL A   1      49.877  30.241  29.144  1.00  0.00    -0.203 F 
ATOM     53  C   UNL A   1      49.993  31.706  30.994  1.00  0.00     0.198 A 
ATOM     54  C   UNL A   1      48.266  31.795  32.612  1.00  0.00     0.198 A 
ATOM     55  F   UNL A   1      46.522  30.324  32.554  1.00  0.00    -0.203 F 
ATOM     56  F   UNL A   1      51.186  32.147  30.567  1.00  0.00    -0.200 F 
ATOM     57  C   UNL A   1      49.454  32.279  32.139  1.00  0.00     0.200 A 
ATOM     58  F   UNL A   1      47.697  32.324  33.707  1.00  0.00    -0.200 F 
ATOM     59  F   UNL A   1      50.074  33.280  32.783  1.00  0.00    -0.200 F 
ENDBRANCH  25  49
BRANCH  37  60
ATOM     60  C   UNL A   1      47.194  25.796  26.944  1.00  0.00     0.064 A 
ATOM     61  C   UNL A   1      48.509  25.852  26.433  1.00  0.00     0.173 A 
ATOM     62  C   UNL A   1      46.214  26.399  26.140  1.00  0.00     0.173 A 
ATOM     63  F   UNL A   1      49.511  25.258  27.100  1.00  0.00    -0.203 F 
ATOM     64  C   UNL A   1      48.824  26.536  25.253  1.00  0.00     0.198 A 
ATOM     65  C   UNL A   1      46.526  27.093  24.963  1.00  0.00     0.198 A 
ATOM     66  F   UNL A   1      44.926  26.314  26.475  1.00  0.00    -0.203 F 
ATOM     67  F   UNL A   1      50.094  26.578  24.824  1.00  0.00    -0.200 F 
ATOM     68  C   UNL A   1      47.835  27.172  24.525  1.00  0.00     0.200 A 
ATOM     69  F   UNL A   1      45.552  27.680  24.249  1.00  0.00    -0.200 F 
ATOM     70  F   UNL A   1      48.137  27.829  23.396  1.00  0.00    -0.200 F 
ENDBRANCH  37  60
ENDBRANCH  11  12
ENDBRANCH   4   6
ENDBRANCH   3   4
ENDBRANCH   2   3
ENDBRANCH   1   2
BRANCH   1  71
ATOM     71  O   UNL A   1      33.118  29.374  26.106  1.00  0.00    -0.457 OA
BRANCH  71  72
ATOM     72  C   UNL A   1      32.074  28.523  26.393  1.00  0.00     0.355 C 
ATOM     73  O   UNL A   1      31.684  28.276  27.533  1.00  0.00    -0.244 OA
BRANCH  72  74
ATOM     74  C   UNL A   1      31.389  28.145  25.157  1.00  0.00     0.128 A 
ATOM     75  C   UNL A   1      31.039  29.032  24.131  1.00  0.00     0.035 A 
ATOM     76  N   UNL A   1      30.598  26.973  24.975  1.00  0.00    -0.333 N 
ATOM     77  C   UNL A   1      30.228  28.349  23.208  1.00  0.00     0.020 A 
ATOM     78  C   UNL A   1      30.097  27.048  23.673  1.00  0.00     0.087 A 
BRANCH  76  79
ATOM     79  C   UNL A   1      30.467  25.797  25.949  1.00  0.00     0.222 C 
BRANCH  79  80
ATOM     80  C   UNL A   1      31.493  24.542  26.219  1.00  0.00     0.242 C 
ATOM     81  O   UNL A   1      31.404  23.949  27.308  1.00  0.00    -0.273 OA
BRANCH  80  82
ATOM     82  N   UNL A   1      32.364  23.952  25.192  1.00  0.00    -0.341 N 
ATOM     83  C   UNL A   1      33.423  24.786  24.764  1.00  0.00     0.120 C 
ATOM     84  C   UNL A   1      32.867  22.539  25.266  1.00  0.00     0.123 C 
ATOM     85  C   UNL A   1      34.134  24.427  23.477  1.00  0.00     0.025 C 
ATOM     86  C   UNL A   1      34.025  22.067  24.252  1.00  0.00     0.012 C 
ATOM     87  C   UNL A   1      34.932  23.138  23.632  1.00  0.00    -0.005 C 
ATOM     88  C   UNL A   1      34.904  20.849  24.628  1.00  0.00     0.006 C 
ATOM     89  C   UNL A   1      36.324  23.409  24.247  1.00  0.00     0.004 C 
ATOM     90  C   UNL A   1      36.245  21.077  25.327  1.00  0.00     0.000 C 
ATOM     91  C   UNL A   1      37.002  22.358  25.096  1.00  0.00     0.000 C 
ENDBRANCH  80  82
ENDBRANCH  79  80
ENDBRANCH  76  79
ENDBRANCH  72  74
ENDBRANCH  71  72
ENDBRANCH   1  71
TORSDOF 14
ENDMDL
