MODEL 1
REMARK VINA RESULT:     -12.4      0.000      0.000
REMARK SMILES Nc1oc2ccc(F)cc2c(=O)c1[C@@H]1[NH2+][C@H](C(=O)OCCOC(=O)c2ccc(-c3c4nc(c(-c5c(F)c(F)c(F)c(F)c5F)c5ccc([nH]5)c(-c5c(F)c(F)c(F)c(F)c5F)c5nc(c(-c6c(F)c(F)c(F)c(F)c6F)c6ccc3[nH]6)C=C5)C=C4)cc2)CS1
REMARK SMILES IDX 20 1 19 2 17 3 18 4 16 5 14 6 15 7 89 8 88 11 13 12 2 13
REMARK SMILES IDX 3 14 4 15 11 16 5 17 10 18 12 19 6 20 9 21 7 22 8 23 1 24
REMARK SMILES IDX 21 27 22 28 23 29 24 30 25 31 26 32 87 33 27 34 86 35 28 36
REMARK SMILES IDX 29 37 30 38 80 39 31 40 85 41 79 42 81 43 32 44 84 45 78 46
REMARK SMILES IDX 77 47 33 49 65 50 45 51 64 52 46 53 49 54 63 55 82 56 47 57
REMARK SMILES IDX 48 58 62 60 83 61 50 62 34 63 35 64 43 65 36 66 37 67 41 68
REMARK SMILES IDX 44 69 38 70 39 71 42 72 40 73 66 74 67 75 75 76 68 77 69 78
REMARK SMILES IDX 73 79 76 80 70 81 71 82 74 83 72 84 51 85 52 86 60 87 53 88
REMARK SMILES IDX 54 89 58 90 61 91 55 92 56 93 59 94 57 95
REMARK H PARENT 15 9 15 10 1 25 1 26 81 48 49 59
REMARK Flexibility Score: inf
ROOT
ATOM      1  C   UNL A   1      31.378  30.418  25.322  1.00  0.00     0.274 C 
ENDROOT
BRANCH   1   2
ATOM      2  O   UNL A   1      31.767  29.089  24.930  1.00  0.00    -0.458 OA
BRANCH   2   3
ATOM      3  C   UNL A   1      32.186  28.888  23.653  1.00  0.00     0.365 C 
ATOM      4  O   UNL A   1      33.335  29.083  23.261  1.00  0.00    -0.245 OA
BRANCH   3   5
ATOM      5  C   UNL A   1      31.104  28.267  22.745  1.00  0.00     0.304 C 
ATOM      6  C   UNL A   1      31.189  25.870  22.796  1.00  0.00     0.283 C 
ATOM      7  N   UNL A   1      31.523  27.056  22.006  1.00  0.00    -0.319 N 
ATOM      8  S   UNL A   1      29.635  26.227  23.659  1.00  0.00    -0.087 SA
ATOM      9  H   UNL A   1      31.036  27.019  21.110  1.00  0.00     0.348 HD
ATOM     10  H   UNL A   1      32.529  27.087  21.842  1.00  0.00     0.348 HD
ATOM     11  C   UNL A   1      29.799  28.023  23.495  1.00  0.00     0.153 C 
BRANCH   6  12
ATOM     12  C   UNL A   1      32.336  25.439  23.675  1.00  0.00     0.128 A 
ATOM     13  C   UNL A   1      32.527  25.657  24.997  1.00  0.00     0.205 A 
ATOM     14  O   UNL A   1      33.711  25.375  25.656  1.00  0.00    -0.440 OA
ATOM     15  C   UNL A   1      34.645  24.595  25.043  1.00  0.00     0.140 A 
ATOM     16  C   UNL A   1      33.397  24.694  22.938  1.00  0.00     0.205 A 
ATOM     17  C   UNL A   1      35.721  24.170  25.821  1.00  0.00     0.051 A 
ATOM     18  C   UNL A   1      34.530  24.190  23.722  1.00  0.00     0.068 A 
ATOM     19  O   UNL A   1      33.331  24.445  21.739  1.00  0.00    -0.288 OA
ATOM     20  C   UNL A   1      36.648  23.281  25.281  1.00  0.00     0.043 A 
ATOM     21  C   UNL A   1      35.457  23.304  23.171  1.00  0.00     0.055 A 
ATOM     22  C   UNL A   1      36.498  22.845  23.967  1.00  0.00     0.124 A 
ATOM     23  F   UNL A   1      37.368  21.958  23.469  1.00  0.00    -0.207 F 
BRANCH  13  24
ATOM     24  N   UNL A   1      31.623  26.233  25.840  1.00  0.00    -0.369 N 
ATOM     25  H   UNL A   1      31.491  27.208  25.829  1.00  0.00     0.159 HD
ATOM     26  H   UNL A   1      31.102  25.672  26.460  1.00  0.00     0.159 HD
ENDBRANCH  13  24
ENDBRANCH   6  12
ENDBRANCH   3   5
ENDBRANCH   2   3
ENDBRANCH   1   2
BRANCH   1  27
ATOM     27  C   UNL A   1      31.871  30.692  26.742  1.00  0.00     0.275 C 
BRANCH  27  28
ATOM     28  O   UNL A   1      33.304  30.801  26.747  1.00  0.00    -0.458 OA
BRANCH  28  29
ATOM     29  C   UNL A   1      33.796  31.849  27.445  1.00  0.00     0.338 C 
ATOM     30  O   UNL A   1      33.278  32.924  27.674  1.00  0.00    -0.246 OA
BRANCH  29  31
ATOM     31  C   UNL A   1      35.055  31.415  28.053  1.00  0.00     0.060 A 
ATOM     32  C   UNL A   1      36.121  32.299  28.177  1.00  0.00     0.016 A 
ATOM     33  C   UNL A   1      35.145  30.108  28.531  1.00  0.00     0.016 A 
ATOM     34  C   UNL A   1      37.293  31.850  28.778  1.00  0.00     0.010 A 
ATOM     35  C   UNL A   1      36.291  29.672  29.173  1.00  0.00     0.010 A 
ATOM     36  C   UNL A   1      37.377  30.541  29.292  1.00  0.00    -0.014 A 
BRANCH  36  37
ATOM     37  C   UNL A   1      38.576  30.089  30.020  1.00  0.00     0.031 A 
ATOM     38  C   UNL A   1      38.867  30.597  31.399  1.00  0.00     0.074 A 
ATOM     39  C   UNL A   1      39.416  29.251  29.387  1.00  0.00     0.049 A 
ATOM     40  N   UNL A   1      39.856  30.283  32.195  1.00  0.00    -0.248 NA
ATOM     41  C   UNL A   1      37.945  31.602  31.957  1.00  0.00     0.031 C 
ATOM     42  C   UNL A   1      39.246  28.773  28.012  1.00  0.00     0.029 A 
ATOM     43  N   UNL A   1      40.570  28.651  29.810  1.00  0.00    -0.354 N 
ATOM     44  C   UNL A   1      39.666  31.033  33.347  1.00  0.00     0.074 A 
ATOM     45  C   UNL A   1      38.505  31.867  33.129  1.00  0.00     0.031 C 
ATOM     46  C   UNL A   1      40.236  27.917  27.720  1.00  0.00     0.029 A 
ATOM     47  C   UNL A   1      41.126  27.817  28.871  1.00  0.00     0.049 A 
ATOM     48  H   UNL A   1      40.963  28.801  30.699  1.00  0.00     0.167 HD
ATOM     49  C   UNL A   1      40.387  30.997  34.492  1.00  0.00     0.037 A 
ATOM     50  C   UNL A   1      42.232  27.055  28.941  1.00  0.00     0.037 A 
ATOM     51  C   UNL A   1      41.539  30.154  34.684  1.00  0.00     0.049 A 
ATOM     52  C   UNL A   1      43.010  27.040  30.226  1.00  0.00     0.074 A 
ATOM     53  C   UNL A   1      42.322  30.011  35.815  1.00  0.00     0.029 A 
ATOM     54  N   UNL A   1      42.073  29.314  33.716  1.00  0.00    -0.354 N 
ATOM     55  N   UNL A   1      42.779  27.694  31.339  1.00  0.00    -0.248 NA
ATOM     56  C   UNL A   1      44.194  26.174  30.271  1.00  0.00     0.031 C 
ATOM     57  C   UNL A   1      43.359  29.123  35.516  1.00  0.00     0.029 A 
ATOM     58  C   UNL A   1      43.184  28.661  34.221  1.00  0.00     0.049 A 
ATOM     59  H   UNL A   1      41.714  29.200  32.806  1.00  0.00     0.167 HD
ATOM     60  C   UNL A   1      43.765  27.294  32.228  1.00  0.00     0.074 A 
ATOM     61  C   UNL A   1      44.587  26.327  31.528  1.00  0.00     0.031 C 
ATOM     62  C   UNL A   1      43.975  27.691  33.507  1.00  0.00     0.037 A 
BRANCH  49  63
ATOM     63  C   UNL A   1      39.947  31.858  35.640  1.00  0.00     0.064 A 
ATOM     64  C   UNL A   1      40.520  33.119  35.863  1.00  0.00     0.173 A 
ATOM     65  C   UNL A   1      38.866  31.475  36.448  1.00  0.00     0.173 A 
ATOM     66  F   UNL A   1      41.563  33.529  35.126  1.00  0.00    -0.203 F 
ATOM     67  C   UNL A   1      40.022  33.968  36.849  1.00  0.00     0.198 A 
ATOM     68  C   UNL A   1      38.354  32.338  37.415  1.00  0.00     0.198 A 
ATOM     69  F   UNL A   1      38.281  30.281  36.275  1.00  0.00    -0.203 F 
ATOM     70  F   UNL A   1      40.593  35.164  37.053  1.00  0.00    -0.200 F 
ATOM     71  C   UNL A   1      38.930  33.584  37.613  1.00  0.00     0.200 A 
ATOM     72  F   UNL A   1      37.289  31.972  38.140  1.00  0.00    -0.200 F 
ATOM     73  F   UNL A   1      38.431  34.415  38.537  1.00  0.00    -0.200 F 
ENDBRANCH  49  63
BRANCH  50  74
ATOM     74  C   UNL A   1      42.626  26.216  27.780  1.00  0.00     0.064 A 
ATOM     75  C   UNL A   1      42.052  24.955  27.572  1.00  0.00     0.173 A 
ATOM     76  C   UNL A   1      43.569  26.664  26.843  1.00  0.00     0.173 A 
ATOM     77  F   UNL A   1      41.152  24.478  28.445  1.00  0.00    -0.203 F 
ATOM     78  C   UNL A   1      42.423  24.163  26.488  1.00  0.00     0.198 A 
ATOM     79  C   UNL A   1      43.914  25.887  25.739  1.00  0.00     0.198 A 
ATOM     80  F   UNL A   1      44.139  27.870  26.986  1.00  0.00    -0.203 F 
ATOM     81  F   UNL A   1      41.893  22.941  26.341  1.00  0.00    -0.200 F 
ATOM     82  C   UNL A   1      43.349  24.633  25.568  1.00  0.00     0.200 A 
ATOM     83  F   UNL A   1      44.793  26.354  24.842  1.00  0.00    -0.200 F 
ATOM     84  F   UNL A   1      43.699  23.874  24.521  1.00  0.00    -0.200 F 
ENDBRANCH  50  74
BRANCH  62  85
ATOM     85  C   UNL A   1      45.109  27.046  34.249  1.00  0.00     0.064 A 
ATOM     86  C   UNL A   1      46.391  27.614  34.276  1.00  0.00     0.173 A 
ATOM     87  C   UNL A   1      44.893  25.871  34.987  1.00  0.00     0.173 A 
ATOM     88  F   UNL A   1      46.651  28.730  33.580  1.00  0.00    -0.203 F 
ATOM     89  C   UNL A   1      47.423  27.011  34.990  1.00  0.00     0.198 A 
ATOM     90  C   UNL A   1      45.917  25.293  35.729  1.00  0.00     0.198 A 
ATOM     91  F   UNL A   1      43.680  25.295  35.003  1.00  0.00    -0.203 F 
ATOM     92  F   UNL A   1      48.653  27.541  34.959  1.00  0.00    -0.200 F 
ATOM     93  C   UNL A   1      47.183  25.857  35.723  1.00  0.00     0.200 A 
ATOM     94  F   UNL A   1      45.678  24.191  36.452  1.00  0.00    -0.200 F 
ATOM     95  F   UNL A   1      48.175  25.287  36.419  1.00  0.00    -0.200 F 
ENDBRANCH  62  85
ENDBRANCH  36  37
ENDBRANCH  29  31
ENDBRANCH  28  29
ENDBRANCH  27  28
ENDBRANCH   1  27
TORSDOF 13
ENDMDL
MODEL 2
REMARK VINA RESULT:     -12.4      0.483      2.009
REMARK SMILES Nc1oc2ccc(F)cc2c(=O)c1[C@@H]1[NH2+][C@H](C(=O)OCCOC(=O)c2ccc(-c3c4nc(c(-c5c(F)c(F)c(F)c(F)c5F)c5ccc([nH]5)c(-c5c(F)c(F)c(F)c(F)c5F)c5nc(c(-c6c(F)c(F)c(F)c(F)c6F)c6ccc3[nH]6)C=C5)C=C4)cc2)CS1
REMARK SMILES IDX 20 1 19 2 17 3 18 4 16 5 14 6 15 7 89 8 88 11 13 12 2 13
REMARK SMILES IDX 3 14 4 15 11 16 5 17 10 18 12 19 6 20 9 21 7 22 8 23 1 24
REMARK SMILES IDX 21 27 22 28 23 29 24 30 25 31 26 32 87 33 27 34 86 35 28 36
REMARK SMILES IDX 29 37 30 38 80 39 31 40 85 41 79 42 81 43 32 44 84 45 78 46
REMARK SMILES IDX 77 47 33 49 65 50 45 51 64 52 46 53 49 54 63 55 82 56 47 57
REMARK SMILES IDX 48 58 62 60 83 61 50 62 34 63 35 64 43 65 36 66 37 67 41 68
REMARK SMILES IDX 44 69 38 70 39 71 42 72 40 73 66 74 67 75 75 76 68 77 69 78
REMARK SMILES IDX 73 79 76 80 70 81 71 82 74 83 72 84 51 85 52 86 60 87 53 88
REMARK SMILES IDX 54 89 58 90 61 91 55 92 56 93 59 94 57 95
REMARK H PARENT 15 9 15 10 1 25 1 26 81 48 49 59
REMARK Flexibility Score: inf
ROOT
ATOM      1  C   UNL A   1      32.658  29.704  25.262  1.00  0.00     0.274 C 
ENDROOT
BRANCH   1   2
ATOM      2  O   UNL A   1      31.737  28.961  24.442  1.00  0.00    -0.458 OA
BRANCH   2   3
ATOM      3  C   UNL A   1      32.121  28.624  23.182  1.00  0.00     0.365 C 
ATOM      4  O   UNL A   1      33.258  28.773  22.741  1.00  0.00    -0.245 OA
BRANCH   3   5
ATOM      5  C   UNL A   1      31.015  27.911  22.376  1.00  0.00     0.304 C 
ATOM      6  C   UNL A   1      31.104  25.533  22.683  1.00  0.00     0.283 C 
ATOM      7  N   UNL A   1      31.414  26.627  21.761  1.00  0.00    -0.319 N 
ATOM      8  S   UNL A   1      29.573  25.984  23.544  1.00  0.00    -0.087 SA
ATOM      9  H   UNL A   1      30.904  26.494  20.888  1.00  0.00     0.348 HD
ATOM     10  H   UNL A   1      32.416  26.638  21.568  1.00  0.00     0.348 HD
ATOM     11  C   UNL A   1      29.731  27.751  23.183  1.00  0.00     0.153 C 
BRANCH   6  12
ATOM     12  C   UNL A   1      32.274  25.197  23.572  1.00  0.00     0.128 A 
ATOM     13  C   UNL A   1      32.477  25.512  24.873  1.00  0.00     0.205 A 
ATOM     14  O   UNL A   1      33.677  25.310  25.531  1.00  0.00    -0.440 OA
ATOM     15  C   UNL A   1      34.625  24.516  24.960  1.00  0.00     0.140 A 
ATOM     16  C   UNL A   1      33.347  24.432  22.872  1.00  0.00     0.205 A 
ATOM     17  C   UNL A   1      35.724  24.177  25.748  1.00  0.00     0.051 A 
ATOM     18  C   UNL A   1      34.504  24.017  23.672  1.00  0.00     0.068 A 
ATOM     19  O   UNL A   1      33.272  24.099  21.695  1.00  0.00    -0.288 OA
ATOM     20  C   UNL A   1      36.669  23.279  25.257  1.00  0.00     0.043 A 
ATOM     21  C   UNL A   1      35.449  23.121  23.169  1.00  0.00     0.055 A 
ATOM     22  C   UNL A   1      36.514  22.748  23.979  1.00  0.00     0.124 A 
ATOM     23  F   UNL A   1      37.403  21.854  23.530  1.00  0.00    -0.207 F 
BRANCH  13  24
ATOM     24  N   UNL A   1      31.567  26.119  25.688  1.00  0.00    -0.369 N 
ATOM     25  H   UNL A   1      31.070  26.907  25.370  1.00  0.00     0.159 HD
ATOM     26  H   UNL A   1      31.408  25.769  26.594  1.00  0.00     0.159 HD
ENDBRANCH  13  24
ENDBRANCH   6  12
ENDBRANCH   3   5
ENDBRANCH   2   3
ENDBRANCH   1   2
BRANCH   1  27
ATOM     27  C   UNL A   1      31.882  30.713  26.107  1.00  0.00     0.275 C 
BRANCH  27  28
ATOM     28  O   UNL A   1      32.585  30.958  27.337  1.00  0.00    -0.458 OA
BRANCH  28  29
ATOM     29  C   UNL A   1      33.434  32.011  27.312  1.00  0.00     0.338 C 
ATOM     30  O   UNL A   1      33.220  33.155  26.965  1.00  0.00    -0.246 OA
BRANCH  29  31
ATOM     31  C   UNL A   1      34.679  31.581  27.950  1.00  0.00     0.060 A 
ATOM     32  C   UNL A   1      35.725  32.478  28.131  1.00  0.00     0.016 A 
ATOM     33  C   UNL A   1      34.775  30.263  28.397  1.00  0.00     0.016 A 
ATOM     34  C   UNL A   1      36.885  32.033  28.760  1.00  0.00     0.010 A 
ATOM     35  C   UNL A   1      35.907  29.830  29.066  1.00  0.00     0.010 A 
ATOM     36  C   UNL A   1      36.973  30.712  29.242  1.00  0.00    -0.014 A 
BRANCH  36  37
ATOM     37  C   UNL A   1      38.155  30.260  29.998  1.00  0.00     0.031 A 
ATOM     38  C   UNL A   1      38.411  30.763  31.386  1.00  0.00     0.074 A 
ATOM     39  C   UNL A   1      39.014  29.428  29.382  1.00  0.00     0.049 A 
ATOM     40  N   UNL A   1      39.381  30.449  32.205  1.00  0.00    -0.248 NA
ATOM     41  C   UNL A   1      37.472  31.763  31.924  1.00  0.00     0.031 C 
ATOM     42  C   UNL A   1      38.879  28.956  28.001  1.00  0.00     0.029 A 
ATOM     43  N   UNL A   1      40.159  28.829  29.831  1.00  0.00    -0.354 N 
ATOM     44  C   UNL A   1      39.159  31.193  33.355  1.00  0.00     0.074 A 
ATOM     45  C   UNL A   1      38.002  32.024  33.112  1.00  0.00     0.031 C 
ATOM     46  C   UNL A   1      39.879  28.104  27.730  1.00  0.00     0.029 A 
ATOM     47  C   UNL A   1      40.740  28.002  28.902  1.00  0.00     0.049 A 
ATOM     48  H   UNL A   1      40.529  28.977  30.730  1.00  0.00     0.167 HD
ATOM     49  C   UNL A   1      39.852  31.154  34.517  1.00  0.00     0.037 A 
ATOM     50  C   UNL A   1      41.846  27.242  28.997  1.00  0.00     0.037 A 
ATOM     51  C   UNL A   1      41.002  30.315  34.734  1.00  0.00     0.049 A 
ATOM     52  C   UNL A   1      42.593  27.225  30.300  1.00  0.00     0.074 A 
ATOM     53  C   UNL A   1      41.757  30.169  35.883  1.00  0.00     0.029 A 
ATOM     54  N   UNL A   1      41.562  29.480  33.776  1.00  0.00    -0.354 N 
ATOM     55  N   UNL A   1      42.333  27.873  31.410  1.00  0.00    -0.248 NA
ATOM     56  C   UNL A   1      43.778  26.362  30.371  1.00  0.00     0.031 C 
ATOM     57  C   UNL A   1      42.804  29.285  35.607  1.00  0.00     0.029 A 
ATOM     58  C   UNL A   1      42.663  28.828  34.306  1.00  0.00     0.049 A 
ATOM     59  H   UNL A   1      41.226  29.369  32.857  1.00  0.00     0.167 HD
ATOM     60  C   UNL A   1      43.297  27.472  32.322  1.00  0.00     0.074 A 
ATOM     61  C   UNL A   1      44.139  26.511  31.638  1.00  0.00     0.031 C 
ATOM     62  C   UNL A   1      43.474  27.864  33.607  1.00  0.00     0.037 A 
BRANCH  49  63
ATOM     63  C   UNL A   1      39.382  32.009  35.658  1.00  0.00     0.064 A 
ATOM     64  C   UNL A   1      38.416  31.544  36.564  1.00  0.00     0.173 A 
ATOM     65  C   UNL A   1      39.985  33.248  35.920  1.00  0.00     0.173 A 
ATOM     66  F   UNL A   1      37.801  30.371  36.354  1.00  0.00    -0.203 F 
ATOM     67  C   UNL A   1      38.077  32.286  37.692  1.00  0.00     0.198 A 
ATOM     68  C   UNL A   1      39.662  33.974  37.064  1.00  0.00     0.198 A 
ATOM     69  F   UNL A   1      40.915  33.737  35.087  1.00  0.00    -0.203 F 
ATOM     70  F   UNL A   1      37.142  31.828  38.538  1.00  0.00    -0.200 F 
ATOM     71  C   UNL A   1      38.711  33.492  37.950  1.00  0.00     0.200 A 
ATOM     72  F   UNL A   1      40.288  35.131  37.320  1.00  0.00    -0.200 F 
ATOM     73  F   UNL A   1      38.408  34.188  39.054  1.00  0.00    -0.200 F 
ENDBRANCH  49  63
BRANCH  50  74
ATOM     74  C   UNL A   1      42.272  26.410  27.842  1.00  0.00     0.064 A 
ATOM     75  C   UNL A   1      43.255  26.860  26.951  1.00  0.00     0.173 A 
ATOM     76  C   UNL A   1      41.721  25.140  27.616  1.00  0.00     0.173 A 
ATOM     77  F   UNL A   1      43.807  28.072  27.119  1.00  0.00    -0.203 F 
ATOM     78  C   UNL A   1      43.653  26.085  25.864  1.00  0.00     0.198 A 
ATOM     79  C   UNL A   1      42.144  24.350  26.549  1.00  0.00     0.198 A 
ATOM     80  F   UNL A   1      40.787  24.654  28.446  1.00  0.00    -0.203 F 
ATOM     81  F   UNL A   1      44.561  26.561  25.001  1.00  0.00    -0.200 F 
ATOM     82  C   UNL A   1      43.102  24.827  25.668  1.00  0.00     0.200 A 
ATOM     83  F   UNL A   1      41.624  23.127  26.375  1.00  0.00    -0.200 F 
ATOM     84  F   UNL A   1      43.491  24.079  24.627  1.00  0.00    -0.200 F 
ENDBRANCH  50  74
BRANCH  62  85
ATOM     85  C   UNL A   1      44.591  27.219  34.374  1.00  0.00     0.064 A 
ATOM     86  C   UNL A   1      44.404  26.025  35.087  1.00  0.00     0.173 A 
ATOM     87  C   UNL A   1      45.879  27.776  34.349  1.00  0.00     0.173 A 
ATOM     88  F   UNL A   1      43.190  25.459  35.150  1.00  0.00    -0.203 F 
ATOM     89  C   UNL A   1      45.460  25.431  35.773  1.00  0.00     0.198 A 
ATOM     90  C   UNL A   1      46.940  27.160  35.004  1.00  0.00     0.198 A 
ATOM     91  F   UNL A   1      46.113  28.911  33.671  1.00  0.00    -0.203 F 
ATOM     92  F   UNL A   1      45.247  24.321  36.492  1.00  0.00    -0.200 F 
ATOM     93  C   UNL A   1      46.728  25.993  35.723  1.00  0.00     0.200 A 
ATOM     94  F   UNL A   1      48.167  27.692  34.938  1.00  0.00    -0.200 F 
ATOM     95  F   UNL A   1      47.745  25.412  36.374  1.00  0.00    -0.200 F 
ENDBRANCH  62  85
ENDBRANCH  36  37
ENDBRANCH  29  31
ENDBRANCH  28  29
ENDBRANCH  27  28
ENDBRANCH   1  27
TORSDOF 13
ENDMDL
MODEL 3
REMARK VINA RESULT:     -12.4      4.502      9.689
REMARK SMILES Nc1oc2ccc(F)cc2c(=O)c1[C@@H]1[NH2+][C@H](C(=O)OCCOC(=O)c2ccc(-c3c4nc(c(-c5c(F)c(F)c(F)c(F)c5F)c5ccc([nH]5)c(-c5c(F)c(F)c(F)c(F)c5F)c5nc(c(-c6c(F)c(F)c(F)c(F)c6F)c6ccc3[nH]6)C=C5)C=C4)cc2)CS1
REMARK SMILES IDX 20 1 19 2 17 3 18 4 16 5 14 6 15 7 89 8 88 11 13 12 2 13
REMARK SMILES IDX 3 14 4 15 11 16 5 17 10 18 12 19 6 20 9 21 7 22 8 23 1 24
REMARK SMILES IDX 21 27 22 28 23 29 24 30 25 31 26 32 87 33 27 34 86 35 28 36
REMARK SMILES IDX 29 37 30 38 80 39 31 40 85 41 79 42 81 43 32 44 84 45 78 46
REMARK SMILES IDX 77 47 33 49 65 50 45 51 64 52 46 53 49 54 63 55 82 56 47 57
REMARK SMILES IDX 48 58 62 60 83 61 50 62 34 63 35 64 43 65 36 66 37 67 41 68
REMARK SMILES IDX 44 69 38 70 39 71 42 72 40 73 66 74 67 75 75 76 68 77 69 78
REMARK SMILES IDX 73 79 76 80 70 81 71 82 74 83 72 84 51 85 52 86 60 87 53 88
REMARK SMILES IDX 54 89 58 90 61 91 55 92 56 93 59 94 57 95
REMARK H PARENT 15 9 15 10 1 25 1 26 81 48 49 59
REMARK Flexibility Score: inf
ROOT
ATOM      1  C   UNL A   1      36.018  20.451  25.002  1.00  0.00     0.274 C 
ENDROOT
BRANCH   1   2
ATOM      2  O   UNL A   1      35.061  21.518  25.140  1.00  0.00    -0.458 OA
BRANCH   2   3
ATOM      3  C   UNL A   1      34.080  21.389  26.071  1.00  0.00     0.365 C 
ATOM      4  O   UNL A   1      34.199  21.711  27.252  1.00  0.00    -0.245 OA
BRANCH   3   5
ATOM      5  C   UNL A   1      32.738  20.907  25.483  1.00  0.00     0.304 C 
ATOM      6  C   UNL A   1      31.441  22.742  24.642  1.00  0.00     0.283 C 
ATOM      7  N   UNL A   1      31.583  21.792  25.746  1.00  0.00    -0.319 N 
ATOM      8  S   UNL A   1      31.916  21.868  23.126  1.00  0.00    -0.087 SA
ATOM      9  H   UNL A   1      30.735  21.230  25.825  1.00  0.00     0.348 HD
ATOM     10  H   UNL A   1      31.733  22.299  26.618  1.00  0.00     0.348 HD
ATOM     11  C   UNL A   1      32.848  20.583  23.997  1.00  0.00     0.153 C 
BRANCH   6  12
ATOM     12  C   UNL A   1      32.182  24.028  24.909  1.00  0.00     0.128 A 
ATOM     13  C   UNL A   1      33.371  24.447  24.417  1.00  0.00     0.205 A 
ATOM     14  O   UNL A   1      34.042  25.565  24.881  1.00  0.00    -0.440 OA
ATOM     15  C   UNL A   1      33.381  26.457  25.671  1.00  0.00     0.140 A 
ATOM     16  C   UNL A   1      31.483  24.923  25.876  1.00  0.00     0.205 A 
ATOM     17  C   UNL A   1      34.028  27.663  25.940  1.00  0.00     0.051 A 
ATOM     18  C   UNL A   1      32.105  26.221  26.159  1.00  0.00     0.068 A 
ATOM     19  O   UNL A   1      30.405  24.642  26.388  1.00  0.00    -0.288 OA
ATOM     20  C   UNL A   1      33.358  28.657  26.649  1.00  0.00     0.043 A 
ATOM     21  C   UNL A   1      31.427  27.209  26.875  1.00  0.00     0.055 A 
ATOM     22  C   UNL A   1      32.059  28.426  27.095  1.00  0.00     0.124 A 
ATOM     23  F   UNL A   1      31.406  29.402  27.739  1.00  0.00    -0.207 F 
BRANCH  13  24
ATOM     24  N   UNL A   1      34.097  23.805  23.456  1.00  0.00    -0.369 N 
ATOM     25  H   UNL A   1      35.079  23.871  23.455  1.00  0.00     0.159 HD
ATOM     26  H   UNL A   1      33.638  23.276  22.764  1.00  0.00     0.159 HD
ENDBRANCH  13  24
ENDBRANCH   6  12
ENDBRANCH   3   5
ENDBRANCH   2   3
ENDBRANCH   1   2
BRANCH   1  27
ATOM     27  C   UNL A   1      37.400  21.043  24.727  1.00  0.00     0.275 C 
BRANCH  27  28
ATOM     28  O   UNL A   1      37.860  21.760  25.886  1.00  0.00    -0.458 OA
BRANCH  28  29
ATOM     29  C   UNL A   1      39.136  21.501  26.250  1.00  0.00     0.338 C 
ATOM     30  O   UNL A   1      39.774  20.477  26.117  1.00  0.00    -0.246 OA
BRANCH  29  31
ATOM     31  C   UNL A   1      39.720  22.761  26.714  1.00  0.00     0.060 A 
ATOM     32  C   UNL A   1      40.722  22.761  27.678  1.00  0.00     0.016 A 
ATOM     33  C   UNL A   1      39.270  23.951  26.143  1.00  0.00     0.016 A 
ATOM     34  C   UNL A   1      41.264  23.980  28.076  1.00  0.00     0.010 A 
ATOM     35  C   UNL A   1      39.840  25.161  26.500  1.00  0.00     0.010 A 
ATOM     36  C   UNL A   1      40.835  25.182  27.479  1.00  0.00    -0.014 A 
BRANCH  36  37
ATOM     37  C   UNL A   1      41.472  26.466  27.820  1.00  0.00     0.031 A 
ATOM     38  C   UNL A   1      42.908  26.721  27.475  1.00  0.00     0.074 A 
ATOM     39  C   UNL A   1      40.739  27.372  28.491  1.00  0.00     0.049 A 
ATOM     40  N   UNL A   1      43.618  27.801  27.672  1.00  0.00    -0.248 NA
ATOM     41  C   UNL A   1      43.656  25.618  26.845  1.00  0.00     0.031 C 
ATOM     42  C   UNL A   1      39.358  27.169  28.937  1.00  0.00     0.029 A 
ATOM     43  N   UNL A   1      41.043  28.638  28.911  1.00  0.00    -0.354 N 
ATOM     44  C   UNL A   1      44.882  27.517  27.176  1.00  0.00     0.074 A 
ATOM     45  C   UNL A   1      44.868  26.143  26.726  1.00  0.00     0.031 C 
ATOM     46  C   UNL A   1      38.919  28.290  29.528  1.00  0.00     0.029 A 
ATOM     47  C   UNL A   1      39.997  29.271  29.536  1.00  0.00     0.049 A 
ATOM     48  H   UNL A   1      41.925  29.054  28.778  1.00  0.00     0.167 HD
ATOM     49  C   UNL A   1      45.946  28.349  27.083  1.00  0.00     0.037 A 
ATOM     50  C   UNL A   1      39.924  30.511  30.051  1.00  0.00     0.037 A 
ATOM     51  C   UNL A   1      45.933  29.715  27.538  1.00  0.00     0.049 A 
ATOM     52  C   UNL A   1      41.124  31.407  29.934  1.00  0.00     0.074 A 
ATOM     53  C   UNL A   1      46.942  30.658  27.460  1.00  0.00     0.029 A 
ATOM     54  N   UNL A   1      44.855  30.331  28.159  1.00  0.00    -0.354 N 
ATOM     55  N   UNL A   1      42.292  31.157  29.393  1.00  0.00    -0.248 NA
ATOM     56  C   UNL A   1      40.993  32.761  30.484  1.00  0.00     0.031 C 
ATOM     57  C   UNL A   1      46.493  31.828  28.079  1.00  0.00     0.029 A 
ATOM     58  C   UNL A   1      45.181  31.637  28.482  1.00  0.00     0.049 A 
ATOM     59  H   UNL A   1      43.987  29.902  28.343  1.00  0.00     0.167 HD
ATOM     60  C   UNL A   1      43.024  32.329  29.505  1.00  0.00     0.074 A 
ATOM     61  C   UNL A   1      42.160  33.296  30.151  1.00  0.00     0.031 C 
ATOM     62  C   UNL A   1      44.296  32.583  29.112  1.00  0.00     0.037 A 
BRANCH  49  63
ATOM     63  C   UNL A   1      47.202  27.834  26.442  1.00  0.00     0.064 A 
ATOM     64  C   UNL A   1      48.214  27.232  27.206  1.00  0.00     0.173 A 
ATOM     65  C   UNL A   1      47.343  27.829  25.046  1.00  0.00     0.173 A 
ATOM     66  F   UNL A   1      48.134  27.219  28.545  1.00  0.00    -0.203 F 
ATOM     67  C   UNL A   1      49.317  26.641  26.595  1.00  0.00     0.198 A 
ATOM     68  C   UNL A   1      48.435  27.213  24.439  1.00  0.00     0.198 A 
ATOM     69  F   UNL A   1      46.403  28.388  24.269  1.00  0.00    -0.203 F 
ATOM     70  F   UNL A   1      50.278  26.084  27.346  1.00  0.00    -0.200 F 
ATOM     71  C   UNL A   1      49.419  26.618  25.212  1.00  0.00     0.200 A 
ATOM     72  F   UNL A   1      48.522  27.177  23.102  1.00  0.00    -0.200 F 
ATOM     73  F   UNL A   1      50.463  26.018  24.626  1.00  0.00    -0.200 F 
ENDBRANCH  49  63
BRANCH  50  74
ATOM     74  C   UNL A   1      38.658  30.979  30.674  1.00  0.00     0.064 A 
ATOM     75  C   UNL A   1      37.616  31.492  29.891  1.00  0.00     0.173 A 
ATOM     76  C   UNL A   1      38.456  30.904  32.060  1.00  0.00     0.173 A 
ATOM     77  F   UNL A   1      37.764  31.592  28.561  1.00  0.00    -0.203 F 
ATOM     78  C   UNL A   1      36.430  31.937  30.471  1.00  0.00     0.198 A 
ATOM     79  C   UNL A   1      37.256  31.316  32.636  1.00  0.00     0.198 A 
ATOM     80  F   UNL A   1      39.415  30.407  32.854  1.00  0.00    -0.203 F 
ATOM     81  F   UNL A   1      35.469  32.467  29.702  1.00  0.00    -0.200 F 
ATOM     82  C   UNL A   1      36.248  31.842  31.843  1.00  0.00     0.200 A 
ATOM     83  F   UNL A   1      37.077  31.203  33.959  1.00  0.00    -0.200 F 
ATOM     84  F   UNL A   1      35.104  32.262  32.399  1.00  0.00    -0.200 F 
ENDBRANCH  50  74
BRANCH  62  85
ATOM     85  C   UNL A   1      44.815  33.975  29.326  1.00  0.00     0.064 A 
ATOM     86  C   UNL A   1      45.476  34.343  30.507  1.00  0.00     0.173 A 
ATOM     87  C   UNL A   1      44.696  34.937  28.311  1.00  0.00     0.173 A 
ATOM     88  F   UNL A   1      45.607  33.463  31.510  1.00  0.00    -0.203 F 
ATOM     89  C   UNL A   1      45.971  35.633  30.676  1.00  0.00     0.198 A 
ATOM     90  C   UNL A   1      45.224  36.214  28.468  1.00  0.00     0.198 A 
ATOM     91  F   UNL A   1      44.082  34.632  27.157  1.00  0.00    -0.203 F 
ATOM     92  F   UNL A   1      46.551  35.978  31.832  1.00  0.00    -0.200 F 
ATOM     93  C   UNL A   1      45.853  36.564  29.654  1.00  0.00     0.200 A 
ATOM     94  F   UNL A   1      45.128  37.105  27.473  1.00  0.00    -0.200 F 
ATOM     95  F   UNL A   1      46.342  37.801  29.814  1.00  0.00    -0.200 F 
ENDBRANCH  62  85
ENDBRANCH  36  37
ENDBRANCH  29  31
ENDBRANCH  28  29
ENDBRANCH  27  28
ENDBRANCH   1  27
TORSDOF 13
ENDMDL
