MODEL 1
REMARK VINA RESULT:      -9.9      0.000      0.000
REMARK SMILES Cc1nnc(SCCC(=O)OCCOC(=O)c2ccc(-c3c4nc(c(-c5c(F)c(F)c(F)c(F)c5F)c5ccc([nH]5)c(-c5c(F)c(F)c(F)c(F)c5F)c5nc(c(-c6c(F)c(F)c(F)c(F)c6F)c6ccc3[nH]6)C=C5)C=C4)cc2)s1
REMARK SMILES IDX 12 1 11 2 9 3 10 4 8 5 7 6 6 7 5 8 1 9 2 10 3 11 80 12 4 13
REMARK SMILES IDX 13 14 14 15 15 16 16 17 17 18 18 19 79 20 19 21 78 22 20 23
REMARK SMILES IDX 21 24 22 25 72 26 23 27 77 28 71 29 73 30 24 31 76 32 70 33
REMARK SMILES IDX 69 34 25 36 57 37 37 38 56 39 38 40 41 41 55 42 74 43 39 44
REMARK SMILES IDX 40 45 54 47 75 48 42 49 26 50 27 51 35 52 28 53 29 54 33 55
REMARK SMILES IDX 36 56 30 57 31 58 34 59 32 60 58 61 59 62 67 63 60 64 61 65
REMARK SMILES IDX 65 66 68 67 62 68 63 69 66 70 64 71 43 72 44 73 52 74 45 75
REMARK SMILES IDX 46 76 50 77 53 78 47 79 48 80 51 81 49 82
REMARK H PARENT 73 35 41 46
REMARK Flexibility Score: inf
ROOT
ATOM      1  C   UNL A   1      41.264  20.217  26.156  1.00  0.00     0.274 C 
ENDROOT
BRANCH   1   2
ATOM      2  O   UNL A   1      42.678  19.940  26.082  1.00  0.00    -0.462 OA
BRANCH   2   3
ATOM      3  C   UNL A   1      43.045  18.671  25.792  1.00  0.00     0.306 C 
ATOM      4  O   UNL A   1      42.278  17.716  25.751  1.00  0.00    -0.252 OA
BRANCH   3   5
ATOM      5  C   UNL A   1      44.535  18.517  25.594  1.00  0.00     0.134 C 
BRANCH   5   6
ATOM      6  C   UNL A   1      45.113  19.112  24.313  1.00  0.00     0.089 C 
BRANCH   6   7
ATOM      7  S   UNL A   1      46.365  20.403  24.626  1.00  0.00    -0.093 SA
BRANCH   7   8
ATOM      8  C   UNL A   1      45.371  21.838  24.601  1.00  0.00     0.174 A 
ATOM      9  C   UNL A   1      43.828  25.242  25.425  1.00  0.00     0.081 C 
ATOM     10  C   UNL A   1      44.285  23.912  24.951  1.00  0.00     0.115 A 
ATOM     11  N   UNL A   1      43.544  23.080  24.251  1.00  0.00    -0.143 NA
ATOM     12  S   UNL A   1      45.849  23.314  25.331  1.00  0.00    -0.091 S 
ATOM     13  N   UNL A   1      44.181  21.872  24.044  1.00  0.00    -0.132 NA
ENDBRANCH   7   8
ENDBRANCH   6   7
ENDBRANCH   5   6
ENDBRANCH   3   5
ENDBRANCH   2   3
ENDBRANCH   1   2
BRANCH   1  14
ATOM     14  C   UNL A   1      40.984  21.720  26.245  1.00  0.00     0.275 C 
BRANCH  14  15
ATOM     15  O   UNL A   1      39.720  21.978  26.877  1.00  0.00    -0.458 OA
BRANCH  15  16
ATOM     16  C   UNL A   1      38.998  22.978  26.329  1.00  0.00     0.338 C 
ATOM     17  O   UNL A   1      38.072  22.897  25.540  1.00  0.00    -0.246 OA
BRANCH  16  18
ATOM     18  C   UNL A   1      39.398  24.247  26.935  1.00  0.00     0.060 A 
ATOM     19  C   UNL A   1      40.027  25.195  26.125  1.00  0.00     0.016 A 
ATOM     20  C   UNL A   1      39.198  24.472  28.297  1.00  0.00     0.016 A 
ATOM     21  C   UNL A   1      40.454  26.396  26.678  1.00  0.00     0.010 A 
ATOM     22  C   UNL A   1      39.622  25.677  28.849  1.00  0.00     0.010 A 
ATOM     23  C   UNL A   1      40.251  26.642  28.043  1.00  0.00    -0.014 A 
BRANCH  23  24
ATOM     24  C   UNL A   1      40.702  27.916  28.638  1.00  0.00     0.031 A 
ATOM     25  C   UNL A   1      42.131  28.076  29.054  1.00  0.00     0.074 A 
ATOM     26  C   UNL A   1      39.806  28.901  28.825  1.00  0.00     0.049 A 
ATOM     27  N   UNL A   1      42.701  29.066  29.691  1.00  0.00    -0.248 NA
ATOM     28  C   UNL A   1      43.041  26.971  28.714  1.00  0.00     0.031 C 
ATOM     29  C   UNL A   1      38.398  28.843  28.435  1.00  0.00     0.029 A 
ATOM     30  N   UNL A   1      39.946  30.136  29.403  1.00  0.00    -0.354 N 
ATOM     31  C   UNL A   1      44.029  28.698  29.845  1.00  0.00     0.074 A 
ATOM     32  C   UNL A   1      44.180  27.386  29.253  1.00  0.00     0.031 C 
ATOM     33  C   UNL A   1      37.798  29.990  28.793  1.00  0.00     0.029 A 
ATOM     34  C   UNL A   1      38.770  30.840  29.473  1.00  0.00     0.049 A 
ATOM     35  H   UNL A   1      40.805  30.483  29.736  1.00  0.00     0.167 HD
ATOM     36  C   UNL A   1      45.029  29.400  30.428  1.00  0.00     0.037 A 
ATOM     37  C   UNL A   1      38.508  32.028  30.049  1.00  0.00     0.037 A 
ATOM     38  C   UNL A   1      44.860  30.707  31.008  1.00  0.00     0.049 A 
ATOM     39  C   UNL A   1      39.629  32.769  30.722  1.00  0.00     0.074 A 
ATOM     40  C   UNL A   1      45.807  31.516  31.610  1.00  0.00     0.029 A 
ATOM     41  N   UNL A   1      43.655  31.396  31.059  1.00  0.00    -0.354 N 
ATOM     42  N   UNL A   1      40.889  32.424  30.851  1.00  0.00    -0.248 NA
ATOM     43  C   UNL A   1      39.296  34.063  31.332  1.00  0.00     0.031 C 
ATOM     44  C   UNL A   1      45.167  32.676  32.060  1.00  0.00     0.029 A 
ATOM     45  C   UNL A   1      43.832  32.611  31.697  1.00  0.00     0.049 A 
ATOM     46  H   UNL A   1      42.801  31.067  30.695  1.00  0.00     0.167 HD
ATOM     47  C   UNL A   1      41.502  33.466  31.531  1.00  0.00     0.074 A 
ATOM     48  C   UNL A   1      40.479  34.462  31.776  1.00  0.00     0.031 C 
ATOM     49  C   UNL A   1      42.795  33.588  31.920  1.00  0.00     0.037 A 
BRANCH  36  50
ATOM     50  C   UNL A   1      46.384  28.760  30.490  1.00  0.00     0.064 A 
ATOM     51  C   UNL A   1      47.336  28.951  29.478  1.00  0.00     0.173 A 
ATOM     52  C   UNL A   1      46.748  27.973  31.592  1.00  0.00     0.173 A 
ATOM     53  F   UNL A   1      47.034  29.683  28.395  1.00  0.00    -0.203 F 
ATOM     54  C   UNL A   1      48.595  28.360  29.557  1.00  0.00     0.198 A 
ATOM     55  C   UNL A   1      48.016  27.405  31.682  1.00  0.00     0.198 A 
ATOM     56  F   UNL A   1      45.875  27.761  32.590  1.00  0.00    -0.203 F 
ATOM     57  F   UNL A   1      49.475  28.523  28.560  1.00  0.00    -0.200 F 
ATOM     58  C   UNL A   1      48.936  27.594  30.662  1.00  0.00     0.200 A 
ATOM     59  F   UNL A   1      48.348  26.673  32.755  1.00  0.00    -0.200 F 
ATOM     60  F   UNL A   1      50.151  27.032  30.741  1.00  0.00    -0.200 F 
ENDBRANCH  36  50
BRANCH  37  61
ATOM     61  C   UNL A   1      37.129  32.579  30.017  1.00  0.00     0.064 A 
ATOM     62  C   UNL A   1      36.712  33.417  28.975  1.00  0.00     0.173 A 
ATOM     63  C   UNL A   1      36.200  32.277  31.024  1.00  0.00     0.173 A 
ATOM     64  F   UNL A   1      37.571  33.752  28.001  1.00  0.00    -0.203 F 
ATOM     65  C   UNL A   1      35.423  33.947  28.950  1.00  0.00     0.198 A 
ATOM     66  C   UNL A   1      34.903  32.784  30.983  1.00  0.00     0.198 A 
ATOM     67  F   UNL A   1      36.548  31.476  32.041  1.00  0.00    -0.203 F 
ATOM     68  F   UNL A   1      35.063  34.782  27.965  1.00  0.00    -0.200 F 
ATOM     69  C   UNL A   1      34.518  33.625  29.950  1.00  0.00     0.200 A 
ATOM     70  F   UNL A   1      34.028  32.460  31.944  1.00  0.00    -0.200 F 
ATOM     71  F   UNL A   1      33.278  34.132  29.924  1.00  0.00    -0.200 F 
ENDBRANCH  37  61
BRANCH  49  72
ATOM     72  C   UNL A   1      43.179  34.859  32.617  1.00  0.00     0.064 A 
ATOM     73  C   UNL A   1      43.591  35.993  31.902  1.00  0.00     0.173 A 
ATOM     74  C   UNL A   1      43.097  34.952  34.014  1.00  0.00     0.173 A 
ATOM     75  F   UNL A   1      43.701  35.947  30.566  1.00  0.00    -0.203 F 
ATOM     76  C   UNL A   1      43.931  37.169  32.565  1.00  0.00     0.198 A 
ATOM     77  C   UNL A   1      43.410  36.138  34.671  1.00  0.00     0.198 A 
ATOM     78  F   UNL A   1      42.702  33.896  34.740  1.00  0.00    -0.203 F 
ATOM     79  F   UNL A   1      44.366  38.227  31.867  1.00  0.00    -0.200 F 
ATOM     80  C   UNL A   1      43.833  37.243  33.947  1.00  0.00     0.200 A 
ATOM     81  F   UNL A   1      43.304  36.211  36.005  1.00  0.00    -0.200 F 
ATOM     82  F   UNL A   1      44.155  38.378  34.583  1.00  0.00    -0.200 F 
ENDBRANCH  49  72
ENDBRANCH  23  24
ENDBRANCH  16  18
ENDBRANCH  15  16
ENDBRANCH  14  15
ENDBRANCH   1  14
TORSDOF 14
ENDMDL
MODEL 2
REMARK VINA RESULT:      -9.8      4.945     11.389
REMARK SMILES Cc1nnc(SCCC(=O)OCCOC(=O)c2ccc(-c3c4nc(c(-c5c(F)c(F)c(F)c(F)c5F)c5ccc([nH]5)c(-c5c(F)c(F)c(F)c(F)c5F)c5nc(c(-c6c(F)c(F)c(F)c(F)c6F)c6ccc3[nH]6)C=C5)C=C4)cc2)s1
REMARK SMILES IDX 12 1 11 2 9 3 10 4 8 5 7 6 6 7 5 8 1 9 2 10 3 11 80 12 4 13
REMARK SMILES IDX 13 14 14 15 15 16 16 17 17 18 18 19 79 20 19 21 78 22 20 23
REMARK SMILES IDX 21 24 22 25 72 26 23 27 77 28 71 29 73 30 24 31 76 32 70 33
REMARK SMILES IDX 69 34 25 36 57 37 37 38 56 39 38 40 41 41 55 42 74 43 39 44
REMARK SMILES IDX 40 45 54 47 75 48 42 49 26 50 27 51 35 52 28 53 29 54 33 55
REMARK SMILES IDX 36 56 30 57 31 58 34 59 32 60 58 61 59 62 67 63 60 64 61 65
REMARK SMILES IDX 65 66 68 67 62 68 63 69 66 70 64 71 43 72 44 73 52 74 45 75
REMARK SMILES IDX 46 76 50 77 53 78 47 79 48 80 51 81 49 82
REMARK H PARENT 73 35 41 46
REMARK Flexibility Score: inf
ROOT
ATOM      1  C   UNL A   1      33.913  33.798  28.512  1.00  0.00     0.274 C 
ENDROOT
BRANCH   1   2
ATOM      2  O   UNL A   1      33.088  34.407  29.526  1.00  0.00    -0.462 OA
BRANCH   2   3
ATOM      3  C   UNL A   1      32.915  35.747  29.461  1.00  0.00     0.306 C 
ATOM      4  O   UNL A   1      32.184  36.316  28.659  1.00  0.00    -0.252 OA
BRANCH   3   5
ATOM      5  C   UNL A   1      33.784  36.504  30.437  1.00  0.00     0.134 C 
BRANCH   5   6
ATOM      6  C   UNL A   1      33.077  37.106  31.648  1.00  0.00     0.089 C 
BRANCH   6   7
ATOM      7  S   UNL A   1      33.915  36.730  33.225  1.00  0.00    -0.093 SA
BRANCH   7   8
ATOM      8  C   UNL A   1      34.288  35.039  33.005  1.00  0.00     0.174 A 
ATOM      9  C   UNL A   1      36.061  31.762  32.135  1.00  0.00     0.081 C 
ATOM     10  C   UNL A   1      35.213  32.913  32.531  1.00  0.00     0.115 A 
ATOM     11  N   UNL A   1      33.901  32.872  32.613  1.00  0.00    -0.143 NA
ATOM     12  S   UNL A   1      35.894  34.450  32.880  1.00  0.00    -0.091 S 
ATOM     13  N   UNL A   1      33.363  34.113  32.894  1.00  0.00    -0.132 NA
ENDBRANCH   7   8
ENDBRANCH   6   7
ENDBRANCH   5   6
ENDBRANCH   3   5
ENDBRANCH   2   3
ENDBRANCH   1   2
BRANCH   1  14
ATOM     14  C   UNL A   1      34.194  32.325  28.819  1.00  0.00     0.275 C 
BRANCH  14  15
ATOM     15  O   UNL A   1      34.612  31.617  27.640  1.00  0.00    -0.458 OA
BRANCH  15  16
ATOM     16  C   UNL A   1      34.702  30.277  27.775  1.00  0.00     0.338 C 
ATOM     17  O   UNL A   1      33.871  29.431  27.491  1.00  0.00    -0.246 OA
BRANCH  16  18
ATOM     18  C   UNL A   1      36.053  29.929  28.211  1.00  0.00     0.060 A 
ATOM     19  C   UNL A   1      37.105  30.120  27.311  1.00  0.00     0.016 A 
ATOM     20  C   UNL A   1      36.267  29.374  29.472  1.00  0.00     0.016 A 
ATOM     21  C   UNL A   1      38.397  29.764  27.680  1.00  0.00     0.010 A 
ATOM     22  C   UNL A   1      37.561  29.021  29.842  1.00  0.00     0.010 A 
ATOM     23  C   UNL A   1      38.630  29.215  28.948  1.00  0.00    -0.014 A 
BRANCH  23  24
ATOM     24  C   UNL A   1      39.999  28.833  29.347  1.00  0.00     0.031 A 
ATOM     25  C   UNL A   1      40.813  29.761  30.192  1.00  0.00     0.074 A 
ATOM     26  C   UNL A   1      40.501  27.663  28.913  1.00  0.00     0.049 A 
ATOM     27  N   UNL A   1      42.065  29.664  30.558  1.00  0.00    -0.248 NA
ATOM     28  C   UNL A   1      40.130  30.967  30.687  1.00  0.00     0.031 C 
ATOM     29  C   UNL A   1      39.776  26.685  28.102  1.00  0.00     0.029 A 
ATOM     30  N   UNL A   1      41.742  27.107  29.083  1.00  0.00    -0.354 N 
ATOM     31  C   UNL A   1      42.326  30.801  31.309  1.00  0.00     0.074 A 
ATOM     32  C   UNL A   1      41.110  31.585  31.333  1.00  0.00     0.031 C 
ATOM     33  C   UNL A   1      40.590  25.650  27.836  1.00  0.00     0.029 A 
ATOM     34  C   UNL A   1      41.900  25.915  28.421  1.00  0.00     0.049 A 
ATOM     35  H   UNL A   1      42.451  27.522  29.626  1.00  0.00     0.167 HD
ATOM     36  C   UNL A   1      43.481  31.149  31.923  1.00  0.00     0.037 A 
ATOM     37  C   UNL A   1      42.992  25.141  28.284  1.00  0.00     0.037 A 
ATOM     38  C   UNL A   1      44.680  30.352  31.891  1.00  0.00     0.049 A 
ATOM     39  C   UNL A   1      44.272  25.572  28.946  1.00  0.00     0.074 A 
ATOM     40  C   UNL A   1      45.901  30.601  32.491  1.00  0.00     0.029 A 
ATOM     41  N   UNL A   1      44.806  29.147  31.215  1.00  0.00    -0.354 N 
ATOM     42  N   UNL A   1      44.510  26.640  29.670  1.00  0.00    -0.248 NA
ATOM     43  C   UNL A   1      45.435  24.693  28.772  1.00  0.00     0.031 C 
ATOM     44  C   UNL A   1      46.776  29.567  32.145  1.00  0.00     0.029 A 
ATOM     45  C   UNL A   1      46.088  28.649  31.368  1.00  0.00     0.049 A 
ATOM     46  H   UNL A   1      44.088  28.710  30.701  1.00  0.00     0.167 HD
ATOM     47  C   UNL A   1      45.837  26.550  30.059  1.00  0.00     0.074 A 
ATOM     48  C   UNL A   1      46.351  25.315  29.501  1.00  0.00     0.031 C 
ATOM     49  C   UNL A   1      46.569  27.411  30.808  1.00  0.00     0.037 A 
BRANCH  36  50
ATOM     50  C   UNL A   1      43.511  32.456  32.658  1.00  0.00     0.064 A 
ATOM     51  C   UNL A   1      43.755  33.669  31.996  1.00  0.00     0.173 A 
ATOM     52  C   UNL A   1      43.258  32.501  34.037  1.00  0.00     0.173 A 
ATOM     53  F   UNL A   1      44.016  33.679  30.681  1.00  0.00    -0.203 F 
ATOM     54  C   UNL A   1      43.765  34.876  32.692  1.00  0.00     0.198 A 
ATOM     55  C   UNL A   1      43.244  33.711  34.725  1.00  0.00     0.198 A 
ATOM     56  F   UNL A   1      43.016  31.370  34.718  1.00  0.00    -0.203 F 
ATOM     57  F   UNL A   1      44.040  36.017  32.047  1.00  0.00    -0.200 F 
ATOM     58  C   UNL A   1      43.503  34.896  34.054  1.00  0.00     0.200 A 
ATOM     59  F   UNL A   1      42.980  33.731  36.040  1.00  0.00    -0.200 F 
ATOM     60  F   UNL A   1      43.506  36.059  34.721  1.00  0.00    -0.200 F 
ENDBRANCH  36  50
BRANCH  37  61
ATOM     61  C   UNL A   1      42.920  23.892  27.484  1.00  0.00     0.064 A 
ATOM     62  C   UNL A   1      42.495  22.689  28.063  1.00  0.00     0.173 A 
ATOM     63  C   UNL A   1      43.271  23.875  26.126  1.00  0.00     0.173 A 
ATOM     64  F   UNL A   1      42.170  22.650  29.364  1.00  0.00    -0.203 F 
ATOM     65  C   UNL A   1      42.441  21.512  27.319  1.00  0.00     0.198 A 
ATOM     66  C   UNL A   1      43.189  22.705  25.375  1.00  0.00     0.198 A 
ATOM     67  F   UNL A   1      43.681  25.001  25.524  1.00  0.00    -0.203 F 
ATOM     68  F   UNL A   1      42.073  20.366  27.907  1.00  0.00    -0.200 F 
ATOM     69  C   UNL A   1      42.781  21.523  25.974  1.00  0.00     0.200 A 
ATOM     70  F   UNL A   1      43.506  22.721  24.074  1.00  0.00    -0.200 F 
ATOM     71  F   UNL A   1      42.725  20.391  25.258  1.00  0.00    -0.200 F 
ENDBRANCH  37  61
BRANCH  49  72
ATOM     72  C   UNL A   1      47.989  27.025  31.097  1.00  0.00     0.064 A 
ATOM     73  C   UNL A   1      48.315  26.148  32.141  1.00  0.00     0.173 A 
ATOM     74  C   UNL A   1      49.031  27.512  30.294  1.00  0.00     0.173 A 
ATOM     75  F   UNL A   1      47.354  25.670  32.946  1.00  0.00    -0.203 F 
ATOM     76  C   UNL A   1      49.637  25.790  32.386  1.00  0.00     0.198 A 
ATOM     77  C   UNL A   1      50.349  27.130  30.524  1.00  0.00     0.198 A 
ATOM     78  F   UNL A   1      48.769  28.348  29.279  1.00  0.00    -0.203 F 
ATOM     79  F   UNL A   1      49.932  24.987  33.417  1.00  0.00    -0.200 F 
ATOM     80  C   UNL A   1      50.652  26.275  31.574  1.00  0.00     0.200 A 
ATOM     81  F   UNL A   1      51.327  27.590  29.731  1.00  0.00    -0.200 F 
ATOM     82  F   UNL A   1      51.924  25.925  31.807  1.00  0.00    -0.200 F 
ENDBRANCH  49  72
ENDBRANCH  23  24
ENDBRANCH  16  18
ENDBRANCH  15  16
ENDBRANCH  14  15
ENDBRANCH   1  14
TORSDOF 14
ENDMDL
MODEL 3
REMARK VINA RESULT:      -9.8      6.026      9.219
REMARK SMILES Cc1nnc(SCCC(=O)OCCOC(=O)c2ccc(-c3c4nc(c(-c5c(F)c(F)c(F)c(F)c5F)c5ccc([nH]5)c(-c5c(F)c(F)c(F)c(F)c5F)c5nc(c(-c6c(F)c(F)c(F)c(F)c6F)c6ccc3[nH]6)C=C5)C=C4)cc2)s1
REMARK SMILES IDX 12 1 11 2 9 3 10 4 8 5 7 6 6 7 5 8 1 9 2 10 3 11 80 12 4 13
REMARK SMILES IDX 13 14 14 15 15 16 16 17 17 18 18 19 79 20 19 21 78 22 20 23
REMARK SMILES IDX 21 24 22 25 72 26 23 27 77 28 71 29 73 30 24 31 76 32 70 33
REMARK SMILES IDX 69 34 25 36 57 37 37 38 56 39 38 40 41 41 55 42 74 43 39 44
REMARK SMILES IDX 40 45 54 47 75 48 42 49 26 50 27 51 35 52 28 53 29 54 33 55
REMARK SMILES IDX 36 56 30 57 31 58 34 59 32 60 58 61 59 62 67 63 60 64 61 65
REMARK SMILES IDX 65 66 68 67 62 68 63 69 66 70 64 71 43 72 44 73 52 74 45 75
REMARK SMILES IDX 46 76 50 77 53 78 47 79 48 80 51 81 49 82
REMARK H PARENT 73 35 41 46
REMARK Flexibility Score: inf
ROOT
ATOM      1  C   UNL A   1      32.188  27.995  26.702  1.00  0.00     0.274 C 
ENDROOT
BRANCH   1   2
ATOM      2  O   UNL A   1      30.935  27.285  26.785  1.00  0.00    -0.462 OA
BRANCH   2   3
ATOM      3  C   UNL A   1      30.833  26.127  26.094  1.00  0.00     0.306 C 
ATOM      4  O   UNL A   1      30.384  25.081  26.550  1.00  0.00    -0.252 OA
BRANCH   3   5
ATOM      5  C   UNL A   1      31.406  26.217  24.700  1.00  0.00     0.134 C 
BRANCH   5   6
ATOM      6  C   UNL A   1      30.415  26.079  23.548  1.00  0.00     0.089 C 
BRANCH   6   7
ATOM      7  S   UNL A   1      28.801  26.857  23.898  1.00  0.00    -0.093 SA
BRANCH   7   8
ATOM      8  C   UNL A   1      28.929  28.321  22.955  1.00  0.00     0.174 A 
ATOM      9  C   UNL A   1      28.099  31.475  20.954  1.00  0.00     0.081 C 
ATOM     10  C   UNL A   1      28.621  30.297  21.690  1.00  0.00     0.115 A 
ATOM     11  N   UNL A   1      29.806  29.762  21.486  1.00  0.00    -0.143 NA
ATOM     12  S   UNL A   1      27.675  29.486  22.871  1.00  0.00    -0.091 S 
ATOM     13  N   UNL A   1      29.986  28.610  22.229  1.00  0.00    -0.132 NA
ENDBRANCH   7   8
ENDBRANCH   6   7
ENDBRANCH   5   6
ENDBRANCH   3   5
ENDBRANCH   2   3
ENDBRANCH   1   2
BRANCH   1  14
ATOM     14  C   UNL A   1      31.985  29.465  26.327  1.00  0.00     0.275 C 
BRANCH  14  15
ATOM     15  O   UNL A   1      33.242  30.130  26.123  1.00  0.00    -0.458 OA
BRANCH  15  16
ATOM     16  C   UNL A   1      33.484  31.168  26.951  1.00  0.00     0.338 C 
ATOM     17  O   UNL A   1      32.798  32.157  27.143  1.00  0.00    -0.246 OA
BRANCH  16  18
ATOM     18  C   UNL A   1      34.681  30.882  27.741  1.00  0.00     0.060 A 
ATOM     19  C   UNL A   1      35.619  31.904  27.909  1.00  0.00     0.016 A 
ATOM     20  C   UNL A   1      34.894  29.607  28.263  1.00  0.00     0.016 A 
ATOM     21  C   UNL A   1      36.785  31.656  28.622  1.00  0.00     0.010 A 
ATOM     22  C   UNL A   1      36.061  29.360  28.980  1.00  0.00     0.010 A 
ATOM     23  C   UNL A   1      37.009  30.382  29.162  1.00  0.00    -0.014 A 
BRANCH  23  24
ATOM     24  C   UNL A   1      38.246  30.109  29.920  1.00  0.00     0.031 A 
ATOM     25  C   UNL A   1      39.284  29.197  29.346  1.00  0.00     0.074 A 
ATOM     26  C   UNL A   1      38.403  30.666  31.135  1.00  0.00     0.049 A 
ATOM     27  N   UNL A   1      40.382  28.744  29.893  1.00  0.00    -0.248 NA
ATOM     28  C   UNL A   1      39.053  28.723  27.972  1.00  0.00     0.031 C 
ATOM     29  C   UNL A   1      37.455  31.582  31.769  1.00  0.00     0.029 A 
ATOM     30  N   UNL A   1      39.408  30.530  32.056  1.00  0.00    -0.354 N 
ATOM     31  C   UNL A   1      40.963  27.920  28.940  1.00  0.00     0.074 A 
ATOM     32  C   UNL A   1      40.089  27.917  27.787  1.00  0.00     0.031 C 
ATOM     33  C   UNL A   1      37.920  31.921  32.983  1.00  0.00     0.029 A 
ATOM     34  C   UNL A   1      39.173  31.212  33.223  1.00  0.00     0.049 A 
ATOM     35  H   UNL A   1      40.219  29.995  31.896  1.00  0.00     0.167 HD
ATOM     36  C   UNL A   1      42.126  27.232  29.029  1.00  0.00     0.037 A 
ATOM     37  C   UNL A   1      39.881  31.235  34.367  1.00  0.00     0.037 A 
ATOM     38  C   UNL A   1      42.985  27.251  30.184  1.00  0.00     0.049 A 
ATOM     39  C   UNL A   1      41.149  30.432  34.451  1.00  0.00     0.074 A 
ATOM     40  C   UNL A   1      44.193  26.605  30.376  1.00  0.00     0.029 A 
ATOM     41  N   UNL A   1      42.720  27.956  31.350  1.00  0.00    -0.354 N 
ATOM     42  N   UNL A   1      41.704  29.666  33.541  1.00  0.00    -0.248 NA
ATOM     43  C   UNL A   1      41.890  30.493  35.717  1.00  0.00     0.031 C 
ATOM     44  C   UNL A   1      44.639  26.888  31.671  1.00  0.00     0.029 A 
ATOM     45  C   UNL A   1      43.733  27.747  32.271  1.00  0.00     0.049 A 
ATOM     46  H   UNL A   1      41.927  28.522  31.500  1.00  0.00     0.167 HD
ATOM     47  C   UNL A   1      42.868  29.176  34.113  1.00  0.00     0.074 A 
ATOM     48  C   UNL A   1      42.947  29.742  35.445  1.00  0.00     0.031 C 
ATOM     49  C   UNL A   1      43.789  28.332  33.587  1.00  0.00     0.037 A 
BRANCH  36  50
ATOM     50  C   UNL A   1      42.522  26.383  27.858  1.00  0.00     0.064 A 
ATOM     51  C   UNL A   1      43.432  26.838  26.892  1.00  0.00     0.173 A 
ATOM     52  C   UNL A   1      42.011  25.084  27.717  1.00  0.00     0.173 A 
ATOM     53  F   UNL A   1      43.939  28.077  26.972  1.00  0.00    -0.203 F 
ATOM     54  C   UNL A   1      43.799  26.031  25.817  1.00  0.00     0.198 A 
ATOM     55  C   UNL A   1      42.400  24.270  26.656  1.00  0.00     0.198 A 
ATOM     56  F   UNL A   1      41.139  24.599  28.615  1.00  0.00    -0.203 F 
ATOM     57  F   UNL A   1      44.639  26.501  24.885  1.00  0.00    -0.200 F 
ATOM     58  C   UNL A   1      43.288  24.746  25.704  1.00  0.00     0.200 A 
ATOM     59  F   UNL A   1      41.914  23.025  26.554  1.00  0.00    -0.200 F 
ATOM     60  F   UNL A   1      43.649  23.968  24.673  1.00  0.00    -0.200 F 
ENDBRANCH  36  50
BRANCH  37  61
ATOM     61  C   UNL A   1      39.401  32.040  35.520  1.00  0.00     0.064 A 
ATOM     62  C   UNL A   1      39.807  33.370  35.689  1.00  0.00     0.173 A 
ATOM     63  C   UNL A   1      38.525  31.498  36.473  1.00  0.00     0.173 A 
ATOM     64  F   UNL A   1      40.660  33.926  34.816  1.00  0.00    -0.203 F 
ATOM     65  C   UNL A   1      39.369  34.123  36.777  1.00  0.00     0.198 A 
ATOM     66  C   UNL A   1      38.066  32.260  37.544  1.00  0.00     0.198 A 
ATOM     67  F   UNL A   1      38.104  30.231  36.355  1.00  0.00    -0.203 F 
ATOM     68  F   UNL A   1      39.807  35.379  36.939  1.00  0.00    -0.200 F 
ATOM     69  C   UNL A   1      38.494  33.569  37.700  1.00  0.00     0.200 A 
ATOM     70  F   UNL A   1      37.211  31.726  38.426  1.00  0.00    -0.200 F 
ATOM     71  F   UNL A   1      38.071  34.295  38.744  1.00  0.00    -0.200 F 
ENDBRANCH  37  61
BRANCH  49  72
ATOM     72  C   UNL A   1      44.977  28.002  34.441  1.00  0.00     0.064 A 
ATOM     73  C   UNL A   1      46.130  28.801  34.436  1.00  0.00     0.173 A 
ATOM     74  C   UNL A   1      44.944  26.895  35.301  1.00  0.00     0.173 A 
ATOM     75  F   UNL A   1      46.213  29.861  33.618  1.00  0.00    -0.203 F 
ATOM     76  C   UNL A   1      47.218  28.488  35.246  1.00  0.00     0.198 A 
ATOM     77  C   UNL A   1      46.023  26.601  36.129  1.00  0.00     0.198 A 
ATOM     78  F   UNL A   1      43.862  26.105  35.346  1.00  0.00    -0.203 F 
ATOM     79  F   UNL A   1      48.327  29.238  35.193  1.00  0.00    -0.200 F 
ATOM     80  C   UNL A   1      47.161  27.393  36.096  1.00  0.00     0.200 A 
ATOM     81  F   UNL A   1      45.963  25.550  36.958  1.00  0.00    -0.200 F 
ATOM     82  F   UNL A   1      48.207  27.097  36.879  1.00  0.00    -0.200 F 
ENDBRANCH  49  72
ENDBRANCH  23  24
ENDBRANCH  16  18
ENDBRANCH  15  16
ENDBRANCH  14  15
ENDBRANCH   1  14
TORSDOF 14
ENDMDL
