MODEL 1
REMARK VINA RESULT:     -12.2      0.000      0.000
REMARK SMILES O=C(OCCOC(=O)[C@H]1CC(=O)N(Cc2ccc(OCc3ccccc3)cc2)C1)c1ccc(-c2c3nc(c(-c4c(F)c(F)c(F)c(F)c4F)c4ccc([nH]4)c(-c4c(F)c(F)c(F)c(F)c4F)c4nc(c(-c5c(F)c(F)c(F)c(F)c5F)c5ccc2[nH]5)C=C4)C=C3)cc1
REMARK SMILES IDX 6 1 5 2 4 3 3 4 2 5 1 6 30 7 31 8 92 9 32 10 91 11 33 12
REMARK SMILES IDX 34 13 35 14 85 15 36 16 90 17 84 18 86 19 37 20 89 21 83 22
REMARK SMILES IDX 82 23 38 25 70 26 50 27 69 28 51 29 54 30 68 31 87 32 52 33
REMARK SMILES IDX 53 34 67 36 88 37 55 38 39 39 40 40 48 41 41 42 42 43 46 44
REMARK SMILES IDX 49 45 43 46 44 47 47 48 45 49 71 50 72 51 80 52 73 53 74 54
REMARK SMILES IDX 78 55 81 56 75 57 76 58 79 59 77 60 56 61 57 62 65 63 58 64
REMARK SMILES IDX 59 65 63 66 66 67 60 68 61 69 64 70 62 71 7 72 8 73 9 74
REMARK SMILES IDX 10 75 29 76 11 77 13 78 12 79 14 80 15 81 16 82 28 83 17 84
REMARK SMILES IDX 27 85 18 86 19 87 20 88 21 89 22 90 26 91 23 92 25 93 24 94
REMARK H PARENT 86 24 54 35
REMARK Flexibility Score: inf
ROOT
ATOM      1  O   UNL A   1      35.364  35.356  33.372  1.00  0.00    -0.462 OA
ENDROOT
BRANCH   1   2
ATOM      2  C   UNL A   1      35.311  34.617  34.604  1.00  0.00     0.274 C 
BRANCH   2   3
ATOM      3  C   UNL A   1      36.361  33.504  34.635  1.00  0.00     0.275 C 
BRANCH   3   4
ATOM      4  O   UNL A   1      35.930  32.298  33.973  1.00  0.00    -0.458 OA
BRANCH   4   5
ATOM      5  C   UNL A   1      36.022  31.920  32.678  1.00  0.00     0.338 C 
ATOM      6  O   UNL A   1      34.998  31.925  31.996  1.00  0.00    -0.246 OA
BRANCH   5   7
ATOM      7  C   UNL A   1      37.253  31.332  32.049  1.00  0.00     0.060 A 
ATOM      8  C   UNL A   1      38.278  30.645  32.705  1.00  0.00     0.016 A 
ATOM      9  C   UNL A   1      37.339  31.447  30.646  1.00  0.00     0.016 A 
ATOM     10  C   UNL A   1      39.293  30.001  31.991  1.00  0.00     0.010 A 
ATOM     11  C   UNL A   1      38.351  30.811  29.923  1.00  0.00     0.010 A 
ATOM     12  C   UNL A   1      39.330  30.079  30.599  1.00  0.00    -0.014 A 
BRANCH  12  13
ATOM     13  C   UNL A   1      40.514  29.577  29.875  1.00  0.00     0.031 A 
ATOM     14  C   UNL A   1      41.631  30.541  29.643  1.00  0.00     0.074 A 
ATOM     15  C   UNL A   1      40.587  28.304  29.454  1.00  0.00     0.049 A 
ATOM     16  N   UNL A   1      42.756  30.376  29.002  1.00  0.00    -0.248 NA
ATOM     17  C   UNL A   1      41.448  31.887  30.215  1.00  0.00     0.031 C 
ATOM     18  C   UNL A   1      39.566  27.284  29.675  1.00  0.00     0.029 A 
ATOM     19  N   UNL A   1      41.558  27.657  28.735  1.00  0.00    -0.354 N 
ATOM     20  C   UNL A   1      43.411  31.595  29.089  1.00  0.00     0.074 A 
ATOM     21  C   UNL A   1      42.545  32.502  29.808  1.00  0.00     0.031 C 
ATOM     22  C   UNL A   1      39.946  26.145  29.070  1.00  0.00     0.029 A 
ATOM     23  C   UNL A   1      41.228  26.365  28.406  1.00  0.00     0.049 A 
ATOM     24  H   UNL A   1      42.411  28.077  28.480  1.00  0.00     0.167 HD
ATOM     25  C   UNL A   1      44.633  31.922  28.614  1.00  0.00     0.037 A 
ATOM     26  C   UNL A   1      41.882  25.479  27.629  1.00  0.00     0.037 A 
ATOM     27  C   UNL A   1      45.458  31.013  27.871  1.00  0.00     0.049 A 
ATOM     28  C   UNL A   1      43.209  25.886  27.038  1.00  0.00     0.074 A 
ATOM     29  C   UNL A   1      46.708  31.227  27.326  1.00  0.00     0.029 A 
ATOM     30  N   UNL A   1      45.092  29.710  27.549  1.00  0.00    -0.354 N 
ATOM     31  N   UNL A   1      43.848  27.026  27.155  1.00  0.00    -0.248 NA
ATOM     32  C   UNL A   1      43.910  24.889  26.220  1.00  0.00     0.031 C 
ATOM     33  C   UNL A   1      47.073  30.074  26.621  1.00  0.00     0.029 A 
ATOM     34  C   UNL A   1      46.080  29.118  26.785  1.00  0.00     0.049 A 
ATOM     35  H   UNL A   1      44.253  29.275  27.824  1.00  0.00     0.167 HD
ATOM     36  C   UNL A   1      45.037  26.876  26.454  1.00  0.00     0.074 A 
ATOM     37  C   UNL A   1      45.030  25.531  25.913  1.00  0.00     0.031 C 
ATOM     38  C   UNL A   1      46.045  27.767  26.279  1.00  0.00     0.037 A 
BRANCH  25  39
ATOM     39  C   UNL A   1      45.083  33.336  28.840  1.00  0.00     0.064 A 
ATOM     40  C   UNL A   1      45.855  33.698  29.956  1.00  0.00     0.173 A 
ATOM     41  C   UNL A   1      44.661  34.356  27.975  1.00  0.00     0.173 A 
ATOM     42  F   UNL A   1      46.258  32.763  30.830  1.00  0.00    -0.203 F 
ATOM     43  C   UNL A   1      46.134  35.034  30.230  1.00  0.00     0.198 A 
ATOM     44  C   UNL A   1      44.974  35.687  28.233  1.00  0.00     0.198 A 
ATOM     45  F   UNL A   1      43.919  34.065  26.897  1.00  0.00    -0.203 F 
ATOM     46  F   UNL A   1      46.788  35.363  31.353  1.00  0.00    -0.200 F 
ATOM     47  C   UNL A   1      45.693  36.027  29.369  1.00  0.00     0.200 A 
ATOM     48  F   UNL A   1      44.551  36.646  27.398  1.00  0.00    -0.200 F 
ATOM     49  F   UNL A   1      45.941  37.314  29.647  1.00  0.00    -0.200 F 
ENDBRANCH  25  39
BRANCH  26  50
ATOM     50  C   UNL A   1      41.286  24.142  27.367  1.00  0.00     0.064 A 
ATOM     51  C   UNL A   1      40.159  23.994  26.548  1.00  0.00     0.173 A 
ATOM     52  C   UNL A   1      41.849  22.979  27.915  1.00  0.00     0.173 A 
ATOM     53  F   UNL A   1      39.568  25.076  26.019  1.00  0.00    -0.203 F 
ATOM     54  C   UNL A   1      39.616  22.735  26.290  1.00  0.00     0.198 A 
ATOM     55  C   UNL A   1      41.321  21.720  27.636  1.00  0.00     0.198 A 
ATOM     56  F   UNL A   1      42.922  23.066  28.713  1.00  0.00    -0.203 F 
ATOM     57  F   UNL A   1      38.518  22.625  25.529  1.00  0.00    -0.200 F 
ATOM     58  C   UNL A   1      40.202  21.599  26.827  1.00  0.00     0.200 A 
ATOM     59  F   UNL A   1      41.892  20.623  28.154  1.00  0.00    -0.200 F 
ATOM     60  F   UNL A   1      39.683  20.390  26.570  1.00  0.00    -0.200 F 
ENDBRANCH  26  50
BRANCH  38  61
ATOM     61  C   UNL A   1      47.253  27.309  25.515  1.00  0.00     0.064 A 
ATOM     62  C   UNL A   1      47.419  27.599  24.154  1.00  0.00     0.173 A 
ATOM     63  C   UNL A   1      48.310  26.679  26.191  1.00  0.00     0.173 A 
ATOM     64  F   UNL A   1      46.432  28.190  23.464  1.00  0.00    -0.203 F 
ATOM     65  C   UNL A   1      48.603  27.275  23.498  1.00  0.00     0.198 A 
ATOM     66  C   UNL A   1      49.502  26.385  25.539  1.00  0.00     0.198 A 
ATOM     67  F   UNL A   1      48.200  26.390  27.497  1.00  0.00    -0.203 F 
ATOM     68  F   UNL A   1      48.737  27.544  22.191  1.00  0.00    -0.200 F 
ATOM     69  C   UNL A   1      49.647  26.683  24.192  1.00  0.00     0.200 A 
ATOM     70  F   UNL A   1      50.516  25.831  26.218  1.00  0.00    -0.200 F 
ATOM     71  F   UNL A   1      50.797  26.401  23.564  1.00  0.00    -0.200 F 
ENDBRANCH  38  61
ENDBRANCH  12  13
ENDBRANCH   5   7
ENDBRANCH   4   5
ENDBRANCH   3   4
ENDBRANCH   2   3
ENDBRANCH   1   2
BRANCH   1  72
ATOM     72  C   UNL A   1      34.260  36.089  33.045  1.00  0.00     0.311 C 
ATOM     73  O   UNL A   1      33.827  37.031  33.687  1.00  0.00    -0.252 OA
BRANCH  72  74
ATOM     74  C   UNL A   1      33.676  35.592  31.751  1.00  0.00     0.128 C 
ATOM     75  C   UNL A   1      32.848  36.618  30.997  1.00  0.00     0.117 C 
ATOM     76  C   UNL A   1      34.754  35.220  30.750  1.00  0.00     0.135 C 
ATOM     77  C   UNL A   1      32.941  36.108  29.573  1.00  0.00     0.223 C 
ATOM     78  N   UNL A   1      34.048  35.280  29.492  1.00  0.00    -0.337 N 
ATOM     79  O   UNL A   1      32.168  36.397  28.675  1.00  0.00    -0.275 OA
BRANCH  78  80
ATOM     80  C   UNL A   1      34.527  34.633  28.275  1.00  0.00     0.155 C 
BRANCH  80  81
ATOM     81  C   UNL A   1      33.951  33.247  28.121  1.00  0.00    -0.028 A 
ATOM     82  C   UNL A   1      32.651  33.078  27.629  1.00  0.00     0.009 A 
ATOM     83  C   UNL A   1      34.748  32.113  28.334  1.00  0.00     0.009 A 
ATOM     84  C   UNL A   1      32.209  31.814  27.242  1.00  0.00     0.047 A 
ATOM     85  C   UNL A   1      34.304  30.847  27.942  1.00  0.00     0.047 A 
ATOM     86  C   UNL A   1      33.066  30.714  27.315  1.00  0.00     0.119 A 
BRANCH  86  87
ATOM     87  O   UNL A   1      32.635  29.618  26.620  1.00  0.00    -0.489 OA
BRANCH  87  88
ATOM     88  C   UNL A   1      32.511  29.712  25.195  1.00  0.00     0.265 C 
BRANCH  88  89
ATOM     89  C   UNL A   1      31.253  29.160  24.532  1.00  0.00    -0.011 A 
ATOM     90  C   UNL A   1      31.130  27.765  24.395  1.00  0.00     0.007 A 
ATOM     91  C   UNL A   1      30.251  29.957  23.961  1.00  0.00     0.007 A 
ATOM     92  C   UNL A   1      30.070  27.198  23.680  1.00  0.00     0.000 A 
ATOM     93  C   UNL A   1      29.207  29.391  23.226  1.00  0.00     0.000 A 
ATOM     94  C   UNL A   1      29.118  28.014  23.077  1.00  0.00     0.000 A 
ENDBRANCH  88  89
ENDBRANCH  87  88
ENDBRANCH  86  87
ENDBRANCH  80  81
ENDBRANCH  78  80
ENDBRANCH  72  74
ENDBRANCH   1  72
TORSDOF 16
ENDMDL
MODEL 2
REMARK VINA RESULT:     -12.1      4.663      9.845
REMARK SMILES O=C(OCCOC(=O)[C@H]1CC(=O)N(Cc2ccc(OCc3ccccc3)cc2)C1)c1ccc(-c2c3nc(c(-c4c(F)c(F)c(F)c(F)c4F)c4ccc([nH]4)c(-c4c(F)c(F)c(F)c(F)c4F)c4nc(c(-c5c(F)c(F)c(F)c(F)c5F)c5ccc2[nH]5)C=C4)C=C3)cc1
REMARK SMILES IDX 6 1 5 2 4 3 3 4 2 5 1 6 30 7 31 8 92 9 32 10 91 11 33 12
REMARK SMILES IDX 34 13 35 14 85 15 36 16 90 17 84 18 86 19 37 20 89 21 83 22
REMARK SMILES IDX 82 23 38 25 70 26 50 27 69 28 51 29 54 30 68 31 87 32 52 33
REMARK SMILES IDX 53 34 67 36 88 37 55 38 39 39 40 40 48 41 41 42 42 43 46 44
REMARK SMILES IDX 49 45 43 46 44 47 47 48 45 49 71 50 72 51 80 52 73 53 74 54
REMARK SMILES IDX 78 55 81 56 75 57 76 58 79 59 77 60 56 61 57 62 65 63 58 64
REMARK SMILES IDX 59 65 63 66 66 67 60 68 61 69 64 70 62 71 7 72 8 73 9 74
REMARK SMILES IDX 10 75 29 76 11 77 13 78 12 79 14 80 15 81 16 82 28 83 17 84
REMARK SMILES IDX 27 85 18 86 19 87 20 88 21 89 22 90 26 91 23 92 25 93 24 94
REMARK H PARENT 86 24 54 35
REMARK Flexibility Score: inf
ROOT
ATOM      1  O   UNL A   1      36.984  21.198  24.760  1.00  0.00    -0.462 OA
ENDROOT
BRANCH   1   2
ATOM      2  C   UNL A   1      38.278  21.064  25.372  1.00  0.00     0.274 C 
BRANCH   2   3
ATOM      3  C   UNL A   1      38.791  19.624  25.290  1.00  0.00     0.275 C 
BRANCH   3   4
ATOM      4  O   UNL A   1      39.873  19.353  26.204  1.00  0.00    -0.458 OA
BRANCH   4   5
ATOM      5  C   UNL A   1      41.190  19.649  26.125  1.00  0.00     0.338 C 
ATOM      6  O   UNL A   1      41.974  18.740  25.853  1.00  0.00    -0.246 OA
BRANCH   5   7
ATOM      7  C   UNL A   1      41.789  20.971  26.511  1.00  0.00     0.060 A 
ATOM      8  C   UNL A   1      42.164  21.374  27.795  1.00  0.00     0.016 A 
ATOM      9  C   UNL A   1      42.046  21.861  25.446  1.00  0.00     0.016 A 
ATOM     10  C   UNL A   1      42.863  22.567  28.006  1.00  0.00     0.010 A 
ATOM     11  C   UNL A   1      42.739  23.056  25.647  1.00  0.00     0.010 A 
ATOM     12  C   UNL A   1      43.156  23.409  26.933  1.00  0.00    -0.014 A 
BRANCH  12  13
ATOM     13  C   UNL A   1      43.704  24.753  27.194  1.00  0.00     0.031 A 
ATOM     14  C   UNL A   1      42.756  25.788  27.707  1.00  0.00     0.074 A 
ATOM     15  C   UNL A   1      45.002  25.030  26.990  1.00  0.00     0.049 A 
ATOM     16  N   UNL A   1      42.963  27.048  27.974  1.00  0.00    -0.248 NA
ATOM     17  C   UNL A   1      41.376  25.333  27.949  1.00  0.00     0.031 C 
ATOM     18  C   UNL A   1      46.006  24.073  26.535  1.00  0.00     0.029 A 
ATOM     19  N   UNL A   1      45.695  26.206  27.122  1.00  0.00    -0.354 N 
ATOM     20  C   UNL A   1      41.740  27.537  28.410  1.00  0.00     0.074 A 
ATOM     21  C   UNL A   1      40.789  26.452  28.334  1.00  0.00     0.031 C 
ATOM     22  C   UNL A   1      47.182  24.707  26.388  1.00  0.00     0.029 A 
ATOM     23  C   UNL A   1      47.005  26.118  26.722  1.00  0.00     0.049 A 
ATOM     24  H   UNL A   1      45.291  27.034  27.471  1.00  0.00     0.167 HD
ATOM     25  C   UNL A   1      41.444  28.783  28.842  1.00  0.00     0.037 A 
ATOM     26  C   UNL A   1      47.940  27.083  26.614  1.00  0.00     0.037 A 
ATOM     27  C   UNL A   1      42.400  29.853  28.872  1.00  0.00     0.049 A 
ATOM     28  C   UNL A   1      47.573  28.487  27.024  1.00  0.00     0.074 A 
ATOM     29  C   UNL A   1      42.221  31.161  29.275  1.00  0.00     0.029 A 
ATOM     30  N   UNL A   1      43.721  29.733  28.455  1.00  0.00    -0.354 N 
ATOM     31  N   UNL A   1      46.426  28.941  27.475  1.00  0.00    -0.248 NA
ATOM     32  C   UNL A   1      48.621  29.509  26.921  1.00  0.00     0.031 C 
ATOM     33  C   UNL A   1      43.418  31.849  29.044  1.00  0.00     0.029 A 
ATOM     34  C   UNL A   1      44.362  30.953  28.562  1.00  0.00     0.049 A 
ATOM     35  H   UNL A   1      44.138  28.902  28.131  1.00  0.00     0.167 HD
ATOM     36  C   UNL A   1      46.621  30.289  27.738  1.00  0.00     0.074 A 
ATOM     37  C   UNL A   1      48.000  30.581  27.395  1.00  0.00     0.031 C 
ATOM     38  C   UNL A   1      45.744  31.201  28.226  1.00  0.00     0.037 A 
BRANCH  25  39
ATOM     39  C   UNL A   1      40.019  29.034  29.236  1.00  0.00     0.064 A 
ATOM     40  C   UNL A   1      39.582  28.894  30.564  1.00  0.00     0.173 A 
ATOM     41  C   UNL A   1      39.059  29.333  28.258  1.00  0.00     0.173 A 
ATOM     42  F   UNL A   1      40.456  28.578  31.532  1.00  0.00    -0.203 F 
ATOM     43  C   UNL A   1      38.230  28.981  30.886  1.00  0.00     0.198 A 
ATOM     44  C   UNL A   1      37.713  29.456  28.590  1.00  0.00     0.198 A 
ATOM     45  F   UNL A   1      39.422  29.473  26.975  1.00  0.00    -0.203 F 
ATOM     46  F   UNL A   1      37.826  28.746  32.142  1.00  0.00    -0.200 F 
ATOM     47  C   UNL A   1      37.297  29.262  29.899  1.00  0.00     0.200 A 
ATOM     48  F   UNL A   1      36.813  29.732  27.637  1.00  0.00    -0.200 F 
ATOM     49  F   UNL A   1      35.995  29.322  30.206  1.00  0.00    -0.200 F 
ENDBRANCH  25  39
BRANCH  26  50
ATOM     50  C   UNL A   1      49.292  26.749  26.092  1.00  0.00     0.064 A 
ATOM     51  C   UNL A   1      49.618  26.932  24.742  1.00  0.00     0.173 A 
ATOM     52  C   UNL A   1      50.295  26.259  26.943  1.00  0.00     0.173 A 
ATOM     53  F   UNL A   1      48.689  27.375  23.882  1.00  0.00    -0.203 F 
ATOM     54  C   UNL A   1      50.894  26.635  24.262  1.00  0.00     0.198 A 
ATOM     55  C   UNL A   1      51.577  25.986  26.467  1.00  0.00     0.198 A 
ATOM     56  F   UNL A   1      50.032  26.055  28.241  1.00  0.00    -0.203 F 
ATOM     57  F   UNL A   1      51.170  26.790  22.959  1.00  0.00    -0.200 F 
ATOM     58  C   UNL A   1      51.875  26.171  25.125  1.00  0.00     0.200 A 
ATOM     59  F   UNL A   1      52.523  25.541  27.305  1.00  0.00    -0.200 F 
ATOM     60  F   UNL A   1      53.102  25.895  24.663  1.00  0.00    -0.200 F 
ENDBRANCH  26  50
BRANCH  38  61
ATOM     61  C   UNL A   1      46.250  32.593  28.471  1.00  0.00     0.064 A 
ATOM     62  C   UNL A   1      46.882  32.948  29.670  1.00  0.00     0.173 A 
ATOM     63  C   UNL A   1      46.207  33.543  27.439  1.00  0.00     0.173 A 
ATOM     64  F   UNL A   1      46.936  32.077  30.688  1.00  0.00    -0.203 F 
ATOM     65  C   UNL A   1      47.454  34.207  29.826  1.00  0.00     0.198 A 
ATOM     66  C   UNL A   1      46.807  34.788  27.587  1.00  0.00     0.198 A 
ATOM     67  F   UNL A   1      45.620  33.245  26.269  1.00  0.00    -0.203 F 
ATOM     68  F   UNL A   1      48.039  34.536  30.987  1.00  0.00    -0.200 F 
ATOM     69  C   UNL A   1      47.430  35.120  28.782  1.00  0.00     0.200 A 
ATOM     70  F   UNL A   1      46.799  35.660  26.570  1.00  0.00    -0.200 F 
ATOM     71  F   UNL A   1      48.010  36.319  28.924  1.00  0.00    -0.200 F 
ENDBRANCH  38  61
ENDBRANCH  12  13
ENDBRANCH   5   7
ENDBRANCH   4   5
ENDBRANCH   3   4
ENDBRANCH   2   3
ENDBRANCH   1   2
BRANCH   1  72
ATOM     72  C   UNL A   1      36.122  22.088  25.330  1.00  0.00     0.311 C 
ATOM     73  O   UNL A   1      36.445  23.003  26.070  1.00  0.00    -0.252 OA
BRANCH  72  74
ATOM     74  C   UNL A   1      34.715  21.805  24.879  1.00  0.00     0.128 C 
ATOM     75  C   UNL A   1      34.295  20.349  24.997  1.00  0.00     0.117 C 
ATOM     76  C   UNL A   1      33.692  22.526  25.736  1.00  0.00     0.135 C 
ATOM     77  C   UNL A   1      32.789  20.467  25.098  1.00  0.00     0.223 C 
ATOM     78  N   UNL A   1      32.491  21.757  25.504  1.00  0.00    -0.337 N 
ATOM     79  O   UNL A   1      32.000  19.566  24.866  1.00  0.00    -0.275 OA
BRANCH  78  80
ATOM     80  C   UNL A   1      31.151  22.264  25.782  1.00  0.00     0.155 C 
BRANCH  80  81
ATOM     81  C   UNL A   1      30.944  23.635  25.187  1.00  0.00    -0.028 A 
ATOM     82  C   UNL A   1      30.823  23.788  23.801  1.00  0.00     0.009 A 
ATOM     83  C   UNL A   1      30.730  24.748  26.014  1.00  0.00     0.009 A 
ATOM     84  C   UNL A   1      30.377  24.996  23.267  1.00  0.00     0.047 A 
ATOM     85  C   UNL A   1      30.280  25.957  25.477  1.00  0.00     0.047 A 
ATOM     86  C   UNL A   1      30.020  26.050  24.110  1.00  0.00     0.119 A 
BRANCH  86  87
ATOM     87  O   UNL A   1      29.308  27.044  23.498  1.00  0.00    -0.489 OA
BRANCH  87  88
ATOM     88  C   UNL A   1      30.020  28.053  22.770  1.00  0.00     0.265 C 
BRANCH  88  89
ATOM     89  C   UNL A   1      29.431  29.459  22.702  1.00  0.00    -0.011 A 
ATOM     90  C   UNL A   1      29.578  30.297  23.823  1.00  0.00     0.007 A 
ATOM     91  C   UNL A   1      28.666  29.940  21.630  1.00  0.00     0.007 A 
ATOM     92  C   UNL A   1      28.950  31.545  23.881  1.00  0.00     0.000 A 
ATOM     93  C   UNL A   1      28.020  31.176  21.700  1.00  0.00     0.000 A 
ATOM     94  C   UNL A   1      28.152  31.976  22.826  1.00  0.00     0.000 A 
ENDBRANCH  88  89
ENDBRANCH  87  88
ENDBRANCH  86  87
ENDBRANCH  80  81
ENDBRANCH  78  80
ENDBRANCH  72  74
ENDBRANCH   1  72
TORSDOF 16
ENDMDL
MODEL 3
REMARK VINA RESULT:     -12.1      4.577      9.884
REMARK SMILES O=C(OCCOC(=O)[C@H]1CC(=O)N(Cc2ccc(OCc3ccccc3)cc2)C1)c1ccc(-c2c3nc(c(-c4c(F)c(F)c(F)c(F)c4F)c4ccc([nH]4)c(-c4c(F)c(F)c(F)c(F)c4F)c4nc(c(-c5c(F)c(F)c(F)c(F)c5F)c5ccc2[nH]5)C=C4)C=C3)cc1
REMARK SMILES IDX 6 1 5 2 4 3 3 4 2 5 1 6 30 7 31 8 92 9 32 10 91 11 33 12
REMARK SMILES IDX 34 13 35 14 85 15 36 16 90 17 84 18 86 19 37 20 89 21 83 22
REMARK SMILES IDX 82 23 38 25 70 26 50 27 69 28 51 29 54 30 68 31 87 32 52 33
REMARK SMILES IDX 53 34 67 36 88 37 55 38 39 39 40 40 48 41 41 42 42 43 46 44
REMARK SMILES IDX 49 45 43 46 44 47 47 48 45 49 71 50 72 51 80 52 73 53 74 54
REMARK SMILES IDX 78 55 81 56 75 57 76 58 79 59 77 60 56 61 57 62 65 63 58 64
REMARK SMILES IDX 59 65 63 66 66 67 60 68 61 69 64 70 62 71 7 72 8 73 9 74
REMARK SMILES IDX 10 75 29 76 11 77 13 78 12 79 14 80 15 81 16 82 28 83 17 84
REMARK SMILES IDX 27 85 18 86 19 87 20 88 21 89 22 90 26 91 23 92 25 93 24 94
REMARK H PARENT 86 24 54 35
REMARK Flexibility Score: inf
ROOT
ATOM      1  O   UNL A   1      36.847  21.048  25.708  1.00  0.00    -0.462 OA
ENDROOT
BRANCH   1   2
ATOM      2  C   UNL A   1      38.245  21.038  25.375  1.00  0.00     0.274 C 
BRANCH   2   3
ATOM      3  C   UNL A   1      38.738  19.622  25.066  1.00  0.00     0.275 C 
BRANCH   3   4
ATOM      4  O   UNL A   1      39.776  19.175  25.961  1.00  0.00    -0.458 OA
BRANCH   4   5
ATOM      5  C   UNL A   1      41.097  19.463  25.996  1.00  0.00     0.338 C 
ATOM      6  O   UNL A   1      41.897  18.549  25.804  1.00  0.00    -0.246 OA
BRANCH   5   7
ATOM      7  C   UNL A   1      41.667  20.787  26.419  1.00  0.00     0.060 A 
ATOM      8  C   UNL A   1      42.030  21.163  27.715  1.00  0.00     0.016 A 
ATOM      9  C   UNL A   1      41.905  21.711  25.380  1.00  0.00     0.016 A 
ATOM     10  C   UNL A   1      42.703  22.365  27.960  1.00  0.00     0.010 A 
ATOM     11  C   UNL A   1      42.573  22.915  25.615  1.00  0.00     0.010 A 
ATOM     12  C   UNL A   1      42.980  23.241  26.911  1.00  0.00    -0.014 A 
BRANCH  12  13
ATOM     13  C   UNL A   1      43.498  24.590  27.210  1.00  0.00     0.031 A 
ATOM     14  C   UNL A   1      42.530  25.586  27.762  1.00  0.00     0.074 A 
ATOM     15  C   UNL A   1      44.787  24.904  27.005  1.00  0.00     0.049 A 
ATOM     16  N   UNL A   1      42.709  26.842  28.067  1.00  0.00    -0.248 NA
ATOM     17  C   UNL A   1      41.163  25.090  27.999  1.00  0.00     0.031 C 
ATOM     18  C   UNL A   1      45.809  23.985  26.513  1.00  0.00     0.029 A 
ATOM     19  N   UNL A   1      45.453  26.091  27.168  1.00  0.00    -0.354 N 
ATOM     20  C   UNL A   1      41.479  27.287  28.526  1.00  0.00     0.074 A 
ATOM     21  C   UNL A   1      40.553  26.183  28.424  1.00  0.00     0.031 C 
ATOM     22  C   UNL A   1      46.969  24.651  26.377  1.00  0.00     0.029 A 
ATOM     23  C   UNL A   1      46.762  26.047  26.756  1.00  0.00     0.049 A 
ATOM     24  H   UNL A   1      45.033  26.898  27.546  1.00  0.00     0.167 HD
ATOM     25  C   UNL A   1      41.157  28.512  28.999  1.00  0.00     0.037 A 
ATOM     26  C   UNL A   1      47.673  27.037  26.671  1.00  0.00     0.037 A 
ATOM     27  C   UNL A   1      42.088  29.602  29.056  1.00  0.00     0.049 A 
ATOM     28  C   UNL A   1      47.276  28.418  27.127  1.00  0.00     0.074 A 
ATOM     29  C   UNL A   1      41.882  30.893  29.500  1.00  0.00     0.029 A 
ATOM     30  N   UNL A   1      43.408  29.527  28.625  1.00  0.00    -0.354 N 
ATOM     31  N   UNL A   1      46.123  28.830  27.600  1.00  0.00    -0.248 NA
ATOM     32  C   UNL A   1      48.299  29.468  27.048  1.00  0.00     0.031 C 
ATOM     33  C   UNL A   1      43.060  31.616  29.282  1.00  0.00     0.029 A 
ATOM     34  C   UNL A   1      44.021  30.758  28.765  1.00  0.00     0.049 A 
ATOM     35  H   UNL A   1      43.841  28.717  28.273  1.00  0.00     0.167 HD
ATOM     36  C   UNL A   1      46.289  30.174  27.905  1.00  0.00     0.074 A 
ATOM     37  C   UNL A   1      47.657  30.509  27.561  1.00  0.00     0.031 C 
ATOM     38  C   UNL A   1      45.394  31.050  28.427  1.00  0.00     0.037 A 
BRANCH  25  39
ATOM     39  C   UNL A   1      39.729  28.716  29.411  1.00  0.00     0.064 A 
ATOM     40  C   UNL A   1      38.762  29.201  28.515  1.00  0.00     0.173 A 
ATOM     41  C   UNL A   1      39.343  28.507  30.743  1.00  0.00     0.173 A 
ATOM     42  F   UNL A   1      39.089  29.446  27.237  1.00  0.00    -0.203 F 
ATOM     43  C   UNL A   1      37.482  29.529  28.953  1.00  0.00     0.198 A 
ATOM     44  C   UNL A   1      38.051  28.801  31.168  1.00  0.00     0.198 A 
ATOM     45  F   UNL A   1      40.228  28.050  31.640  1.00  0.00    -0.203 F 
ATOM     46  F   UNL A   1      36.607  30.083  28.102  1.00  0.00    -0.200 F 
ATOM     47  C   UNL A   1      37.127  29.329  30.278  1.00  0.00     0.200 A 
ATOM     48  F   UNL A   1      37.708  28.603  32.448  1.00  0.00    -0.200 F 
ATOM     49  F   UNL A   1      35.903  29.667  30.703  1.00  0.00    -0.200 F 
ENDBRANCH  25  39
BRANCH  26  50
ATOM     50  C   UNL A   1      49.028  26.751  26.129  1.00  0.00     0.064 A 
ATOM     51  C   UNL A   1      49.331  26.956  24.776  1.00  0.00     0.173 A 
ATOM     52  C   UNL A   1      50.058  26.287  26.962  1.00  0.00     0.173 A 
ATOM     53  F   UNL A   1      48.376  27.375  23.932  1.00  0.00    -0.203 F 
ATOM     54  C   UNL A   1      50.608  26.705  24.277  1.00  0.00     0.198 A 
ATOM     55  C   UNL A   1      51.341  26.061  26.468  1.00  0.00     0.198 A 
ATOM     56  F   UNL A   1      49.819  26.065  28.262  1.00  0.00    -0.203 F 
ATOM     57  F   UNL A   1      50.862  26.878  22.972  1.00  0.00    -0.200 F 
ATOM     58  C   UNL A   1      51.615  26.266  25.124  1.00  0.00     0.200 A 
ATOM     59  F   UNL A   1      52.312  25.640  27.290  1.00  0.00    -0.200 F 
ATOM     60  F   UNL A   1      52.845  26.034  24.643  1.00  0.00    -0.200 F 
ENDBRANCH  26  50
BRANCH  38  61
ATOM     61  C   UNL A   1      45.869  32.444  28.712  1.00  0.00     0.064 A 
ATOM     62  C   UNL A   1      45.723  33.478  27.777  1.00  0.00     0.173 A 
ATOM     63  C   UNL A   1      46.364  32.768  29.985  1.00  0.00     0.173 A 
ATOM     64  F   UNL A   1      45.266  33.215  26.544  1.00  0.00    -0.203 F 
ATOM     65  C   UNL A   1      46.056  34.789  28.109  1.00  0.00     0.198 A 
ATOM     66  C   UNL A   1      46.666  34.082  30.322  1.00  0.00     0.198 A 
ATOM     67  F   UNL A   1      46.512  31.812  30.915  1.00  0.00    -0.203 F 
ATOM     68  F   UNL A   1      45.927  35.762  27.197  1.00  0.00    -0.200 F 
ATOM     69  C   UNL A   1      46.511  35.092  29.384  1.00  0.00     0.200 A 
ATOM     70  F   UNL A   1      47.086  34.375  31.561  1.00  0.00    -0.200 F 
ATOM     71  F   UNL A   1      46.800  36.359  29.709  1.00  0.00    -0.200 F 
ENDBRANCH  38  61
ENDBRANCH  12  13
ENDBRANCH   5   7
ENDBRANCH   4   5
ENDBRANCH   3   4
ENDBRANCH   2   3
ENDBRANCH   1   2
BRANCH   1  72
ATOM     72  C   UNL A   1      36.168  22.210  25.484  1.00  0.00     0.311 C 
ATOM     73  O   UNL A   1      36.622  23.331  25.646  1.00  0.00    -0.252 OA
BRANCH  72  74
ATOM     74  C   UNL A   1      34.788  21.910  24.966  1.00  0.00     0.128 C 
ATOM     75  C   UNL A   1      34.406  20.440  25.000  1.00  0.00     0.117 C 
ATOM     76  C   UNL A   1      33.712  22.563  25.813  1.00  0.00     0.135 C 
ATOM     77  C   UNL A   1      32.894  20.512  25.047  1.00  0.00     0.223 C 
ATOM     78  N   UNL A   1      32.544  21.773  25.500  1.00  0.00    -0.337 N 
ATOM     79  O   UNL A   1      32.141  19.602  24.743  1.00  0.00    -0.275 OA
BRANCH  78  80
ATOM     80  C   UNL A   1      31.180  22.230  25.747  1.00  0.00     0.155 C 
BRANCH  80  81
ATOM     81  C   UNL A   1      30.952  23.616  25.194  1.00  0.00    -0.028 A 
ATOM     82  C   UNL A   1      30.875  23.816  23.811  1.00  0.00     0.009 A 
ATOM     83  C   UNL A   1      30.676  24.691  26.052  1.00  0.00     0.009 A 
ATOM     84  C   UNL A   1      30.411  25.029  23.304  1.00  0.00     0.047 A 
ATOM     85  C   UNL A   1      30.208  25.905  25.542  1.00  0.00     0.047 A 
ATOM     86  C   UNL A   1      29.993  26.041  24.171  1.00  0.00     0.119 A 
BRANCH  86  87
ATOM     87  O   UNL A   1      29.273  27.034  23.570  1.00  0.00    -0.489 OA
BRANCH  87  88
ATOM     88  C   UNL A   1      29.977  28.062  22.860  1.00  0.00     0.265 C 
BRANCH  88  89
ATOM     89  C   UNL A   1      29.351  29.450  22.770  1.00  0.00    -0.011 A 
ATOM     90  C   UNL A   1      29.574  30.351  23.828  1.00  0.00     0.007 A 
ATOM     91  C   UNL A   1      28.485  29.858  21.746  1.00  0.00     0.007 A 
ATOM     92  C   UNL A   1      28.923  31.588  23.876  1.00  0.00     0.000 A 
ATOM     93  C   UNL A   1      27.817  31.083  21.807  1.00  0.00     0.000 A 
ATOM     94  C   UNL A   1      28.027  31.945  22.873  1.00  0.00     0.000 A 
ENDBRANCH  88  89
ENDBRANCH  87  88
ENDBRANCH  86  87
ENDBRANCH  80  81
ENDBRANCH  78  80
ENDBRANCH  72  74
ENDBRANCH   1  72
TORSDOF 16
ENDMDL
