MODEL 1
REMARK VINA RESULT:     -12.2      0.000      0.000
REMARK SMILES CC1(C)COCCN1C(=O)N1CCO[C@@H](CC(=O)OCCOC(=O)c2ccc(-c3c4nc(c(-c5c(F)c(F)c(F)c(F)c5F)c5ccc([nH]5)c(-c5c(F)c(F)c(F)c(F)c5F)c5nc(c(-c6c(F)c(F)c(F)c(F)c6F)c6ccc3[nH]6)C=C5)C=C4)cc2)C1
REMARK SMILES IDX 20 1 19 2 17 3 18 4 16 5 15 6 11 7 12 8 88 9 13 10 14 11
REMARK SMILES IDX 9 12 10 13 8 14 1 15 2 16 3 17 4 18 5 19 7 20 6 21 21 22
REMARK SMILES IDX 22 23 23 24 24 25 25 26 26 27 87 28 27 29 86 30 28 31 29 32
REMARK SMILES IDX 30 33 80 34 31 35 85 36 79 37 81 38 32 39 84 40 78 41 77 42
REMARK SMILES IDX 33 44 65 45 45 46 64 47 46 48 49 49 63 50 82 51 47 52 48 53
REMARK SMILES IDX 62 55 83 56 50 57 34 58 35 59 43 60 36 61 37 62 41 63 44 64
REMARK SMILES IDX 38 65 39 66 42 67 40 68 66 69 67 70 75 71 68 72 69 73 73 74
REMARK SMILES IDX 76 75 70 76 71 77 74 78 72 79 51 80 52 81 60 82 53 83 54 84
REMARK SMILES IDX 58 85 61 86 55 87 56 88 59 89 57 90
REMARK H PARENT 81 43 49 54
REMARK Flexibility Score: inf
ROOT
ATOM      1  C   UNL A   1      31.562  29.300  24.911  1.00  0.00     0.274 C 
ENDROOT
BRANCH   1   2
ATOM      2  O   UNL A   1      30.607  29.612  23.875  1.00  0.00    -0.462 OA
BRANCH   2   3
ATOM      3  C   UNL A   1      30.308  28.597  23.027  1.00  0.00     0.308 C 
ATOM      4  O   UNL A   1      29.627  28.712  22.015  1.00  0.00    -0.252 OA
BRANCH   3   5
ATOM      5  C   UNL A   1      31.009  27.312  23.381  1.00  0.00     0.156 C 
BRANCH   5   6
ATOM      6  C   UNL A   1      30.129  26.088  23.615  1.00  0.00     0.149 C 
ATOM      7  N   UNL A   1      31.732  24.324  24.336  1.00  0.00    -0.320 N 
ATOM      8  C   UNL A   1      31.163  24.366  25.681  1.00  0.00     0.150 C 
ATOM      9  C   UNL A   1      30.753  24.714  23.330  1.00  0.00     0.154 C 
ATOM     10  C   UNL A   1      30.528  25.726  25.974  1.00  0.00     0.182 C 
ATOM     11  O   UNL A   1      29.584  26.119  24.960  1.00  0.00    -0.374 OA
BRANCH   7  12
ATOM     12  C   UNL A   1      32.466  23.200  24.030  1.00  0.00     0.320 C 
ATOM     13  O   UNL A   1      32.868  23.037  22.877  1.00  0.00    -0.248 OA
BRANCH  12  14
ATOM     14  N   UNL A   1      32.795  22.339  25.074  1.00  0.00    -0.315 N 
ATOM     15  C   UNL A   1      33.870  21.699  27.267  1.00  0.00     0.037 C 
ATOM     16  C   UNL A   1      34.103  22.204  25.815  1.00  0.00     0.062 C 
ATOM     17  C   UNL A   1      34.918  23.491  25.998  1.00  0.00     0.037 C 
ATOM     18  C   UNL A   1      34.918  21.132  25.041  1.00  0.00     0.188 C 
ATOM     19  O   UNL A   1      34.216  19.869  25.004  1.00  0.00    -0.377 OA
ATOM     20  C   UNL A   1      32.054  21.068  25.035  1.00  0.00     0.150 C 
ATOM     21  C   UNL A   1      32.931  19.997  24.365  1.00  0.00     0.182 C 
ENDBRANCH  12  14
ENDBRANCH   7  12
ENDBRANCH   5   6
ENDBRANCH   3   5
ENDBRANCH   2   3
ENDBRANCH   1   2
BRANCH   1  22
ATOM     22  C   UNL A   1      31.691  30.457  25.905  1.00  0.00     0.275 C 
BRANCH  22  23
ATOM     23  O   UNL A   1      32.801  30.261  26.802  1.00  0.00    -0.458 OA
BRANCH  23  24
ATOM     24  C   UNL A   1      33.391  31.397  27.237  1.00  0.00     0.338 C 
ATOM     25  O   UNL A   1      32.891  32.501  27.350  1.00  0.00    -0.246 OA
BRANCH  24  26
ATOM     26  C   UNL A   1      34.751  31.099  27.701  1.00  0.00     0.060 A 
ATOM     27  C   UNL A   1      35.074  29.775  28.014  1.00  0.00     0.016 A 
ATOM     28  C   UNL A   1      35.649  32.133  27.954  1.00  0.00     0.016 A 
ATOM     29  C   UNL A   1      36.286  29.476  28.619  1.00  0.00     0.010 A 
ATOM     30  C   UNL A   1      36.870  31.833  28.558  1.00  0.00     0.010 A 
ATOM     31  C   UNL A   1      37.177  30.509  28.917  1.00  0.00    -0.014 A 
BRANCH  31  32
ATOM     32  C   UNL A   1      38.372  30.218  29.731  1.00  0.00     0.031 A 
ATOM     33  C   UNL A   1      39.423  29.314  29.162  1.00  0.00     0.074 A 
ATOM     34  C   UNL A   1      38.518  30.780  30.941  1.00  0.00     0.049 A 
ATOM     35  N   UNL A   1      40.455  28.768  29.750  1.00  0.00    -0.248 NA
ATOM     36  C   UNL A   1      39.290  28.975  27.735  1.00  0.00     0.031 C 
ATOM     37  C   UNL A   1      37.599  31.748  31.539  1.00  0.00     0.029 A 
ATOM     38  N   UNL A   1      39.492  30.609  31.889  1.00  0.00    -0.354 N 
ATOM     39  C   UNL A   1      41.066  27.988  28.778  1.00  0.00     0.074 A 
ATOM     40  C   UNL A   1      40.297  28.133  27.562  1.00  0.00     0.031 C 
ATOM     41  C   UNL A   1      38.045  32.074  32.763  1.00  0.00     0.029 A 
ATOM     42  C   UNL A   1      39.243  31.292  33.052  1.00  0.00     0.049 A 
ATOM     43  H   UNL A   1      40.291  30.051  31.749  1.00  0.00     0.167 HD
ATOM     44  C   UNL A   1      42.169  27.212  28.906  1.00  0.00     0.037 A 
ATOM     45  C   UNL A   1      39.888  31.245  34.232  1.00  0.00     0.037 A 
ATOM     46  C   UNL A   1      42.928  27.103  30.122  1.00  0.00     0.049 A 
ATOM     47  C   UNL A   1      41.078  30.333  34.366  1.00  0.00     0.074 A 
ATOM     48  C   UNL A   1      44.051  26.339  30.378  1.00  0.00     0.029 A 
ATOM     49  N   UNL A   1      42.638  27.796  31.290  1.00  0.00    -0.354 N 
ATOM     50  N   UNL A   1      41.622  29.546  33.469  1.00  0.00    -0.248 NA
ATOM     51  C   UNL A   1      41.735  30.291  35.678  1.00  0.00     0.031 C 
ATOM     52  C   UNL A   1      44.421  26.544  31.712  1.00  0.00     0.029 A 
ATOM     53  C   UNL A   1      43.554  27.470  32.274  1.00  0.00     0.049 A 
ATOM     54  H   UNL A   1      41.889  28.427  31.402  1.00  0.00     0.167 HD
ATOM     55  C   UNL A   1      42.692  28.927  34.099  1.00  0.00     0.074 A 
ATOM     56  C   UNL A   1      42.730  29.444  35.453  1.00  0.00     0.031 C 
ATOM     57  C   UNL A   1      43.563  28.011  33.609  1.00  0.00     0.037 A 
BRANCH  44  58
ATOM     58  C   UNL A   1      42.577  26.391  27.720  1.00  0.00     0.064 A 
ATOM     59  C   UNL A   1      42.028  25.125  27.467  1.00  0.00     0.173 A 
ATOM     60  C   UNL A   1      43.533  26.884  26.819  1.00  0.00     0.173 A 
ATOM     61  F   UNL A   1      41.127  24.600  28.312  1.00  0.00    -0.203 F 
ATOM     62  C   UNL A   1      42.437  24.375  26.367  1.00  0.00     0.198 A 
ATOM     63  C   UNL A   1      43.920  26.141  25.707  1.00  0.00     0.198 A 
ATOM     64  F   UNL A   1      44.092  28.088  27.016  1.00  0.00    -0.203 F 
ATOM     65  F   UNL A   1      41.934  23.149  26.171  1.00  0.00    -0.200 F 
ATOM     66  C   UNL A   1      43.378  24.886  25.485  1.00  0.00     0.200 A 
ATOM     67  F   UNL A   1      44.825  26.640  24.853  1.00  0.00    -0.200 F 
ATOM     68  F   UNL A   1      43.770  24.162  24.427  1.00  0.00    -0.200 F 
ENDBRANCH  44  58
BRANCH  45  69
ATOM     69  C   UNL A   1      39.394  32.047  35.380  1.00  0.00     0.064 A 
ATOM     70  C   UNL A   1      39.756  33.391  35.531  1.00  0.00     0.173 A 
ATOM     71  C   UNL A   1      38.543  31.489  36.345  1.00  0.00     0.173 A 
ATOM     72  F   UNL A   1      40.587  33.965  34.648  1.00  0.00    -0.203 F 
ATOM     73  C   UNL A   1      39.295  34.144  36.610  1.00  0.00     0.198 A 
ATOM     74  C   UNL A   1      38.059  32.249  37.408  1.00  0.00     0.198 A 
ATOM     75  F   UNL A   1      38.167  30.204  36.247  1.00  0.00    -0.203 F 
ATOM     76  F   UNL A   1      39.688  35.418  36.752  1.00  0.00    -0.200 F 
ATOM     77  C   UNL A   1      38.441  33.575  37.543  1.00  0.00     0.200 A 
ATOM     78  F   UNL A   1      37.225  31.698  38.299  1.00  0.00    -0.200 F 
ATOM     79  F   UNL A   1      37.991  34.301  38.575  1.00  0.00    -0.200 F 
ENDBRANCH  45  69
BRANCH  57  80
ATOM     80  C   UNL A   1      44.644  27.542  34.535  1.00  0.00     0.064 A 
ATOM     81  C   UNL A   1      44.485  26.396  35.326  1.00  0.00     0.173 A 
ATOM     82  C   UNL A   1      45.867  28.226  34.599  1.00  0.00     0.173 A 
ATOM     83  F   UNL A   1      43.325  25.720  35.308  1.00  0.00    -0.203 F 
ATOM     84  C   UNL A   1      45.505  25.963  36.167  1.00  0.00     0.198 A 
ATOM     85  C   UNL A   1      46.894  27.776  35.422  1.00  0.00     0.198 A 
ATOM     86  F   UNL A   1      46.067  29.324  33.856  1.00  0.00    -0.203 F 
ATOM     87  F   UNL A   1      45.317  24.890  36.947  1.00  0.00    -0.200 F 
ATOM     88  C   UNL A   1      46.710  26.649  36.209  1.00  0.00     0.200 A 
ATOM     89  F   UNL A   1      48.061  28.433  35.454  1.00  0.00    -0.200 F 
ATOM     90  F   UNL A   1      47.693  26.227  37.017  1.00  0.00    -0.200 F 
ENDBRANCH  57  80
ENDBRANCH  31  32
ENDBRANCH  24  26
ENDBRANCH  23  24
ENDBRANCH  22  23
ENDBRANCH   1  22
TORSDOF 14
ENDMDL
MODEL 2
REMARK VINA RESULT:     -12.2      0.177      1.611
REMARK SMILES CC1(C)COCCN1C(=O)N1CCO[C@@H](CC(=O)OCCOC(=O)c2ccc(-c3c4nc(c(-c5c(F)c(F)c(F)c(F)c5F)c5ccc([nH]5)c(-c5c(F)c(F)c(F)c(F)c5F)c5nc(c(-c6c(F)c(F)c(F)c(F)c6F)c6ccc3[nH]6)C=C5)C=C4)cc2)C1
REMARK SMILES IDX 20 1 19 2 17 3 18 4 16 5 15 6 11 7 12 8 88 9 13 10 14 11
REMARK SMILES IDX 9 12 10 13 8 14 1 15 2 16 3 17 4 18 5 19 7 20 6 21 21 22
REMARK SMILES IDX 22 23 23 24 24 25 25 26 26 27 87 28 27 29 86 30 28 31 29 32
REMARK SMILES IDX 30 33 80 34 31 35 85 36 79 37 81 38 32 39 84 40 78 41 77 42
REMARK SMILES IDX 33 44 65 45 45 46 64 47 46 48 49 49 63 50 82 51 47 52 48 53
REMARK SMILES IDX 62 55 83 56 50 57 34 58 35 59 43 60 36 61 37 62 41 63 44 64
REMARK SMILES IDX 38 65 39 66 42 67 40 68 66 69 67 70 75 71 68 72 69 73 73 74
REMARK SMILES IDX 76 75 70 76 71 77 74 78 72 79 51 80 52 81 60 82 53 83 54 84
REMARK SMILES IDX 58 85 61 86 55 87 56 88 59 89 57 90
REMARK H PARENT 81 43 49 54
REMARK Flexibility Score: inf
ROOT
ATOM      1  C   UNL A   1      31.387  29.153  25.062  1.00  0.00     0.274 C 
ENDROOT
BRANCH   1   2
ATOM      2  O   UNL A   1      30.398  29.420  24.046  1.00  0.00    -0.462 OA
BRANCH   2   3
ATOM      3  C   UNL A   1      30.262  28.465  23.094  1.00  0.00     0.308 C 
ATOM      4  O   UNL A   1      29.732  28.640  22.002  1.00  0.00    -0.252 OA
BRANCH   3   5
ATOM      5  C   UNL A   1      30.947  27.175  23.456  1.00  0.00     0.156 C 
BRANCH   5   6
ATOM      6  C   UNL A   1      30.054  25.959  23.683  1.00  0.00     0.149 C 
ATOM      7  N   UNL A   1      31.644  24.157  24.337  1.00  0.00    -0.320 N 
ATOM      8  C   UNL A   1      31.104  24.181  25.693  1.00  0.00     0.150 C 
ATOM      9  C   UNL A   1      30.652  24.582  23.359  1.00  0.00     0.154 C 
ATOM     10  C   UNL A   1      30.494  25.545  26.026  1.00  0.00     0.182 C 
ATOM     11  O   UNL A   1      29.537  25.971  25.039  1.00  0.00    -0.374 OA
BRANCH   7  12
ATOM     12  C   UNL A   1      32.356  23.029  23.994  1.00  0.00     0.320 C 
ATOM     13  O   UNL A   1      32.654  22.840  22.814  1.00  0.00    -0.248 OA
BRANCH  12  14
ATOM     14  N   UNL A   1      32.782  22.197  25.025  1.00  0.00    -0.315 N 
ATOM     15  C   UNL A   1      33.965  21.642  27.185  1.00  0.00     0.037 C 
ATOM     16  C   UNL A   1      34.117  22.166  25.730  1.00  0.00     0.062 C 
ATOM     17  C   UNL A   1      34.830  23.515  25.895  1.00  0.00     0.037 C 
ATOM     18  C   UNL A   1      34.994  21.165  24.930  1.00  0.00     0.188 C 
ATOM     19  O   UNL A   1      34.396  19.850  24.906  1.00  0.00    -0.377 OA
ATOM     20  C   UNL A   1      32.145  20.870  25.001  1.00  0.00     0.150 C 
ATOM     21  C   UNL A   1      33.087  19.874  24.303  1.00  0.00     0.182 C 
ENDBRANCH  12  14
ENDBRANCH   7  12
ENDBRANCH   5   6
ENDBRANCH   3   5
ENDBRANCH   2   3
ENDBRANCH   1   2
BRANCH   1  22
ATOM     22  C   UNL A   1      31.782  30.437  25.796  1.00  0.00     0.275 C 
BRANCH  22  23
ATOM     23  O   UNL A   1      33.168  30.416  26.187  1.00  0.00    -0.458 OA
BRANCH  23  24
ATOM     24  C   UNL A   1      33.506  31.319  27.135  1.00  0.00     0.338 C 
ATOM     25  O   UNL A   1      32.803  32.183  27.629  1.00  0.00    -0.246 OA
BRANCH  24  26
ATOM     26  C   UNL A   1      34.863  31.040  27.618  1.00  0.00     0.060 A 
ATOM     27  C   UNL A   1      35.219  29.713  27.883  1.00  0.00     0.016 A 
ATOM     28  C   UNL A   1      35.725  32.088  27.936  1.00  0.00     0.016 A 
ATOM     29  C   UNL A   1      36.425  29.423  28.503  1.00  0.00     0.010 A 
ATOM     30  C   UNL A   1      36.940  31.797  28.556  1.00  0.00     0.010 A 
ATOM     31  C   UNL A   1      37.278  30.467  28.865  1.00  0.00    -0.014 A 
BRANCH  31  32
ATOM     32  C   UNL A   1      38.463  30.176  29.694  1.00  0.00     0.031 A 
ATOM     33  C   UNL A   1      39.529  29.286  29.132  1.00  0.00     0.074 A 
ATOM     34  C   UNL A   1      38.586  30.725  30.913  1.00  0.00     0.049 A 
ATOM     35  N   UNL A   1      40.555  28.740  29.729  1.00  0.00    -0.248 NA
ATOM     36  C   UNL A   1      39.419  28.962  27.699  1.00  0.00     0.031 C 
ATOM     37  C   UNL A   1      37.651  31.680  31.507  1.00  0.00     0.029 A 
ATOM     38  N   UNL A   1      39.547  30.550  31.873  1.00  0.00    -0.354 N 
ATOM     39  C   UNL A   1      41.187  27.975  28.758  1.00  0.00     0.074 A 
ATOM     40  C   UNL A   1      40.436  28.129  27.532  1.00  0.00     0.031 C 
ATOM     41  C   UNL A   1      38.077  31.995  32.741  1.00  0.00     0.029 A 
ATOM     42  C   UNL A   1      39.275  31.218  33.040  1.00  0.00     0.049 A 
ATOM     43  H   UNL A   1      40.352  30.000  31.739  1.00  0.00     0.167 HD
ATOM     44  C   UNL A   1      42.293  27.206  28.894  1.00  0.00     0.037 A 
ATOM     45  C   UNL A   1      39.902  31.162  34.229  1.00  0.00     0.037 A 
ATOM     46  C   UNL A   1      43.035  27.089  30.121  1.00  0.00     0.049 A 
ATOM     47  C   UNL A   1      41.097  30.257  34.371  1.00  0.00     0.074 A 
ATOM     48  C   UNL A   1      44.159  26.330  30.385  1.00  0.00     0.029 A 
ATOM     49  N   UNL A   1      42.721  27.767  31.291  1.00  0.00    -0.354 N 
ATOM     50  N   UNL A   1      41.660  29.485  33.474  1.00  0.00    -0.248 NA
ATOM     51  C   UNL A   1      41.734  30.206  35.693  1.00  0.00     0.031 C 
ATOM     52  C   UNL A   1      44.508  26.523  31.727  1.00  0.00     0.029 A 
ATOM     53  C   UNL A   1      43.625  27.436  32.286  1.00  0.00     0.049 A 
ATOM     54  H   UNL A   1      41.967  28.391  31.399  1.00  0.00     0.167 HD
ATOM     55  C   UNL A   1      42.725  28.866  34.114  1.00  0.00     0.074 A 
ATOM     56  C   UNL A   1      42.738  29.369  35.473  1.00  0.00     0.031 C 
ATOM     57  C   UNL A   1      43.610  27.962  33.627  1.00  0.00     0.037 A 
BRANCH  44  58
ATOM     58  C   UNL A   1      42.725  26.401  27.705  1.00  0.00     0.064 A 
ATOM     59  C   UNL A   1      42.206  25.125  27.442  1.00  0.00     0.173 A 
ATOM     60  C   UNL A   1      43.674  26.921  26.812  1.00  0.00     0.173 A 
ATOM     61  F   UNL A   1      41.313  24.575  28.279  1.00  0.00    -0.203 F 
ATOM     62  C   UNL A   1      42.637  24.391  26.340  1.00  0.00     0.198 A 
ATOM     63  C   UNL A   1      44.084  26.193  25.698  1.00  0.00     0.198 A 
ATOM     64  F   UNL A   1      44.206  28.135  27.020  1.00  0.00    -0.203 F 
ATOM     65  F   UNL A   1      42.161  23.155  26.134  1.00  0.00    -0.200 F 
ATOM     66  C   UNL A   1      43.570  24.928  25.466  1.00  0.00     0.200 A 
ATOM     67  F   UNL A   1      44.982  26.717  24.851  1.00  0.00    -0.200 F 
ATOM     68  F   UNL A   1      43.983  24.219  24.406  1.00  0.00    -0.200 F 
ENDBRANCH  44  58
BRANCH  45  69
ATOM     69  C   UNL A   1      39.385  31.949  35.378  1.00  0.00     0.064 A 
ATOM     70  C   UNL A   1      38.538  31.368  36.329  1.00  0.00     0.173 A 
ATOM     71  C   UNL A   1      39.735  33.296  35.553  1.00  0.00     0.173 A 
ATOM     72  F   UNL A   1      38.155  30.089  36.193  1.00  0.00    -0.203 F 
ATOM     73  C   UNL A   1      38.051  32.107  37.407  1.00  0.00     0.198 A 
ATOM     74  C   UNL A   1      39.271  34.027  36.645  1.00  0.00     0.198 A 
ATOM     75  F   UNL A   1      40.544  33.901  34.669  1.00  0.00    -0.203 F 
ATOM     76  F   UNL A   1      37.210  31.537  38.281  1.00  0.00    -0.200 F 
ATOM     77  C   UNL A   1      38.423  33.433  37.568  1.00  0.00     0.200 A 
ATOM     78  F   UNL A   1      39.645  35.303  36.803  1.00  0.00    -0.200 F 
ATOM     79  F   UNL A   1      37.962  34.140  38.608  1.00  0.00    -0.200 F 
ENDBRANCH  45  69
BRANCH  57  80
ATOM     80  C   UNL A   1      44.680  27.490  34.564  1.00  0.00     0.064 A 
ATOM     81  C   UNL A   1      45.891  28.183  34.701  1.00  0.00     0.173 A 
ATOM     82  C   UNL A   1      44.472  26.356  35.362  1.00  0.00     0.173 A 
ATOM     83  F   UNL A   1      46.139  29.265  33.946  1.00  0.00    -0.203 F 
ATOM     84  C   UNL A   1      46.867  27.743  35.589  1.00  0.00     0.198 A 
ATOM     85  C   UNL A   1      45.440  25.933  36.267  1.00  0.00     0.198 A 
ATOM     86  F   UNL A   1      43.326  25.665  35.269  1.00  0.00    -0.203 F 
ATOM     87  F   UNL A   1      48.035  28.394  35.675  1.00  0.00    -0.200 F 
ATOM     88  C   UNL A   1      46.638  26.622  36.376  1.00  0.00     0.200 A 
ATOM     89  F   UNL A   1      45.214  24.857  37.033  1.00  0.00    -0.200 F 
ATOM     90  F   UNL A   1      47.578  26.203  37.234  1.00  0.00    -0.200 F 
ENDBRANCH  57  80
ENDBRANCH  31  32
ENDBRANCH  24  26
ENDBRANCH  23  24
ENDBRANCH  22  23
ENDBRANCH   1  22
TORSDOF 14
ENDMDL
MODEL 3
REMARK VINA RESULT:     -12.1      1.045      1.980
REMARK SMILES CC1(C)COCCN1C(=O)N1CCO[C@@H](CC(=O)OCCOC(=O)c2ccc(-c3c4nc(c(-c5c(F)c(F)c(F)c(F)c5F)c5ccc([nH]5)c(-c5c(F)c(F)c(F)c(F)c5F)c5nc(c(-c6c(F)c(F)c(F)c(F)c6F)c6ccc3[nH]6)C=C5)C=C4)cc2)C1
REMARK SMILES IDX 20 1 19 2 17 3 18 4 16 5 15 6 11 7 12 8 88 9 13 10 14 11
REMARK SMILES IDX 9 12 10 13 8 14 1 15 2 16 3 17 4 18 5 19 7 20 6 21 21 22
REMARK SMILES IDX 22 23 23 24 24 25 25 26 26 27 87 28 27 29 86 30 28 31 29 32
REMARK SMILES IDX 30 33 80 34 31 35 85 36 79 37 81 38 32 39 84 40 78 41 77 42
REMARK SMILES IDX 33 44 65 45 45 46 64 47 46 48 49 49 63 50 82 51 47 52 48 53
REMARK SMILES IDX 62 55 83 56 50 57 34 58 35 59 43 60 36 61 37 62 41 63 44 64
REMARK SMILES IDX 38 65 39 66 42 67 40 68 66 69 67 70 75 71 68 72 69 73 73 74
REMARK SMILES IDX 76 75 70 76 71 77 74 78 72 79 51 80 52 81 60 82 53 83 54 84
REMARK SMILES IDX 58 85 61 86 55 87 56 88 59 89 57 90
REMARK H PARENT 81 43 49 54
REMARK Flexibility Score: inf
ROOT
ATOM      1  C   UNL A   1      31.637  29.575  25.357  1.00  0.00     0.274 C 
ENDROOT
BRANCH   1   2
ATOM      2  O   UNL A   1      32.413  28.506  25.941  1.00  0.00    -0.462 OA
BRANCH   2   3
ATOM      3  C   UNL A   1      31.737  27.356  26.183  1.00  0.00     0.308 C 
ATOM      4  O   UNL A   1      31.050  27.149  27.177  1.00  0.00    -0.252 OA
BRANCH   3   5
ATOM      5  C   UNL A   1      31.808  26.382  25.038  1.00  0.00     0.156 C 
BRANCH   5   6
ATOM      6  C   UNL A   1      32.902  26.614  24.001  1.00  0.00     0.149 C 
ATOM      7  N   UNL A   1      33.466  24.324  23.199  1.00  0.00    -0.320 N 
ATOM      8  C   UNL A   1      32.869  24.638  21.904  1.00  0.00     0.150 C 
ATOM      9  C   UNL A   1      33.972  25.522  23.858  1.00  0.00     0.154 C 
ATOM     10  C   UNL A   1      31.808  25.733  22.030  1.00  0.00     0.182 C 
ATOM     11  O   UNL A   1      32.307  26.901  22.709  1.00  0.00    -0.374 OA
BRANCH   7  12
ATOM     12  C   UNL A   1      34.318  23.243  23.222  1.00  0.00     0.320 C 
ATOM     13  O   UNL A   1      35.392  23.308  22.623  1.00  0.00    -0.248 OA
BRANCH  12  14
ATOM     14  N   UNL A   1      33.954  22.150  24.004  1.00  0.00    -0.315 N 
ATOM     15  C   UNL A   1      32.942  19.880  24.445  1.00  0.00     0.037 C 
ATOM     16  C   UNL A   1      32.684  21.335  23.963  1.00  0.00     0.062 C 
ATOM     17  C   UNL A   1      32.033  21.158  22.585  1.00  0.00     0.037 C 
ATOM     18  C   UNL A   1      31.709  22.022  24.958  1.00  0.00     0.188 C 
ATOM     19  O   UNL A   1      32.259  22.049  26.294  1.00  0.00    -0.377 OA
ATOM     20  C   UNL A   1      34.542  22.180  25.353  1.00  0.00     0.150 C 
ATOM     21  C   UNL A   1      33.511  22.761  26.337  1.00  0.00     0.182 C 
ENDBRANCH  12  14
ENDBRANCH   7  12
ENDBRANCH   5   6
ENDBRANCH   3   5
ENDBRANCH   2   3
ENDBRANCH   1   2
BRANCH   1  22
ATOM     22  C   UNL A   1      31.780  30.864  26.170  1.00  0.00     0.275 C 
BRANCH  22  23
ATOM     23  O   UNL A   1      32.747  30.717  27.228  1.00  0.00    -0.458 OA
BRANCH  23  24
ATOM     24  C   UNL A   1      33.473  31.825  27.496  1.00  0.00     0.338 C 
ATOM     25  O   UNL A   1      33.096  32.983  27.492  1.00  0.00    -0.246 OA
BRANCH  24  26
ATOM     26  C   UNL A   1      34.817  31.438  27.939  1.00  0.00     0.060 A 
ATOM     27  C   UNL A   1      35.034  30.114  28.335  1.00  0.00     0.016 A 
ATOM     28  C   UNL A   1      35.811  32.402  28.092  1.00  0.00     0.016 A 
ATOM     29  C   UNL A   1      36.235  29.749  28.923  1.00  0.00     0.010 A 
ATOM     30  C   UNL A   1      37.021  32.034  28.679  1.00  0.00     0.010 A 
ATOM     31  C   UNL A   1      37.224  30.715  29.121  1.00  0.00    -0.014 A 
BRANCH  31  32
ATOM     32  C   UNL A   1      38.417  30.373  29.917  1.00  0.00     0.031 A 
ATOM     33  C   UNL A   1      39.434  29.448  29.322  1.00  0.00     0.074 A 
ATOM     34  C   UNL A   1      38.593  30.909  31.135  1.00  0.00     0.049 A 
ATOM     35  N   UNL A   1      40.454  28.859  29.890  1.00  0.00    -0.248 NA
ATOM     36  C   UNL A   1      39.276  29.137  27.891  1.00  0.00     0.031 C 
ATOM     37  C   UNL A   1      37.710  31.895  31.759  1.00  0.00     0.029 A 
ATOM     38  N   UNL A   1      39.570  30.692  32.070  1.00  0.00    -0.354 N 
ATOM     39  C   UNL A   1      41.031  28.077  28.899  1.00  0.00     0.074 A 
ATOM     40  C   UNL A   1      40.256  28.267  27.694  1.00  0.00     0.031 C 
ATOM     41  C   UNL A   1      38.179  32.185  32.983  1.00  0.00     0.029 A 
ATOM     42  C   UNL A   1      39.354  31.362  33.247  1.00  0.00     0.049 A 
ATOM     43  H   UNL A   1      40.350  30.112  31.912  1.00  0.00     0.167 HD
ATOM     44  C   UNL A   1      42.110  27.266  29.002  1.00  0.00     0.037 A 
ATOM     45  C   UNL A   1      40.009  31.274  34.419  1.00  0.00     0.037 A 
ATOM     46  C   UNL A   1      42.878  27.113  30.208  1.00  0.00     0.049 A 
ATOM     47  C   UNL A   1      41.171  30.324  34.525  1.00  0.00     0.074 A 
ATOM     48  C   UNL A   1      43.979  26.310  30.439  1.00  0.00     0.029 A 
ATOM     49  N   UNL A   1      42.621  27.794  31.390  1.00  0.00    -0.354 N 
ATOM     50  N   UNL A   1      41.682  29.536  33.609  1.00  0.00    -0.248 NA
ATOM     51  C   UNL A   1      41.839  30.239  35.830  1.00  0.00     0.031 C 
ATOM     52  C   UNL A   1      44.369  26.480  31.773  1.00  0.00     0.029 A 
ATOM     53  C   UNL A   1      43.536  27.422  32.359  1.00  0.00     0.049 A 
ATOM     54  H   UNL A   1      41.894  28.446  31.521  1.00  0.00     0.167 HD
ATOM     55  C   UNL A   1      42.738  28.874  34.218  1.00  0.00     0.074 A 
ATOM     56  C   UNL A   1      42.805  29.366  35.580  1.00  0.00     0.031 C 
ATOM     57  C   UNL A   1      43.575  27.940  33.703  1.00  0.00     0.037 A 
BRANCH  44  58
ATOM     58  C   UNL A   1      42.481  26.453  27.798  1.00  0.00     0.064 A 
ATOM     59  C   UNL A   1      43.447  26.885  26.878  1.00  0.00     0.173 A 
ATOM     60  C   UNL A   1      41.858  25.217  27.565  1.00  0.00     0.173 A 
ATOM     61  F   UNL A   1      44.055  28.070  27.044  1.00  0.00    -0.203 F 
ATOM     62  C   UNL A   1      43.761  26.119  25.758  1.00  0.00     0.198 A 
ATOM     63  C   UNL A   1      42.193  24.443  26.457  1.00  0.00     0.198 A 
ATOM     64  F   UNL A   1      40.924  24.760  28.412  1.00  0.00    -0.203 F 
ATOM     65  F   UNL A   1      44.654  26.572  24.867  1.00  0.00    -0.200 F 
ATOM     66  C   UNL A   1      43.139  24.896  25.552  1.00  0.00     0.200 A 
ATOM     67  F   UNL A   1      41.594  23.259  26.264  1.00  0.00    -0.200 F 
ATOM     68  F   UNL A   1      43.443  24.160  24.474  1.00  0.00    -0.200 F 
ENDBRANCH  44  58
BRANCH  45  69
ATOM     69  C   UNL A   1      39.552  32.072  35.585  1.00  0.00     0.064 A 
ATOM     70  C   UNL A   1      40.062  33.352  35.831  1.00  0.00     0.173 A 
ATOM     71  C   UNL A   1      38.588  31.573  36.475  1.00  0.00     0.173 A 
ATOM     72  F   UNL A   1      41.003  33.865  35.023  1.00  0.00    -0.203 F 
ATOM     73  C   UNL A   1      39.635  34.100  36.927  1.00  0.00     0.198 A 
ATOM     74  C   UNL A   1      38.140  32.331  37.555  1.00  0.00     0.198 A 
ATOM     75  F   UNL A   1      38.068  30.350  36.286  1.00  0.00    -0.203 F 
ATOM     76  F   UNL A   1      40.168  35.307  37.161  1.00  0.00    -0.200 F 
ATOM     77  C   UNL A   1      38.669  33.592  37.784  1.00  0.00     0.200 A 
ATOM     78  F   UNL A   1      37.198  31.842  38.371  1.00  0.00    -0.200 F 
ATOM     79  F   UNL A   1      38.253  34.315  38.832  1.00  0.00    -0.200 F 
ENDBRANCH  45  69
BRANCH  57  80
ATOM     80  C   UNL A   1      44.651  27.422  34.610  1.00  0.00     0.064 A 
ATOM     81  C   UNL A   1      44.466  26.262  35.375  1.00  0.00     0.173 A 
ATOM     82  C   UNL A   1      45.891  28.072  34.680  1.00  0.00     0.173 A 
ATOM     83  F   UNL A   1      43.290  25.617  35.351  1.00  0.00    -0.203 F 
ATOM     84  C   UNL A   1      45.481  25.783  36.198  1.00  0.00     0.198 A 
ATOM     85  C   UNL A   1      46.912  27.577  35.485  1.00  0.00     0.198 A 
ATOM     86  F   UNL A   1      46.114  29.182  33.961  1.00  0.00    -0.203 F 
ATOM     87  F   UNL A   1      45.271  24.697  36.954  1.00  0.00    -0.200 F 
ATOM     88  C   UNL A   1      46.704  26.437  36.247  1.00  0.00     0.200 A 
ATOM     89  F   UNL A   1      48.096  28.202  35.523  1.00  0.00    -0.200 F 
ATOM     90  F   UNL A   1      47.682  25.971  37.037  1.00  0.00    -0.200 F 
ENDBRANCH  57  80
ENDBRANCH  31  32
ENDBRANCH  24  26
ENDBRANCH  23  24
ENDBRANCH  22  23
ENDBRANCH   1  22
TORSDOF 14
ENDMDL
