MODEL 1
REMARK VINA RESULT:     -11.9      0.000      0.000
REMARK SMILES CCc1nnc(/[NH+]=C2/S/C(=C/c3ccccc3OCCC(=O)OCCOC(=O)c3ccc(-c4c5nc(c(-c6c(F)c(F)c(F)c(F)c6F)c6ccc([nH]6)c(-c6c(F)c(F)c(F)c(F)c6F)c6nc(c(-c7c(F)c(F)c(F)c(F)c7F)c7ccc4[nH]7)C=C6)C=C5)cc3)C(=O)N2C)s1
REMARK SMILES IDX 21 1 22 2 20 3 19 4 18 5 17 6 12 7 13 8 14 9 16 10 15 11
REMARK SMILES IDX 11 12 7 13 8 14 9 16 94 17 10 18 92 19 95 20 93 21 6 22 3 23
REMARK SMILES IDX 4 24 96 25 5 26 2 27 1 28 23 29 24 30 25 31 26 32 27 33
REMARK SMILES IDX 28 34 29 35 30 36 91 37 31 38 90 39 32 40 33 41 34 42 84 43
REMARK SMILES IDX 35 44 89 45 83 46 85 47 36 48 88 49 82 50 81 51 37 53 69 54
REMARK SMILES IDX 49 55 68 56 50 57 53 58 67 59 86 60 51 61 52 62 66 64 87 65
REMARK SMILES IDX 54 66 38 67 39 68 47 69 40 70 41 71 45 72 48 73 42 74 43 75
REMARK SMILES IDX 46 76 44 77 70 78 71 79 79 80 72 81 73 82 77 83 80 84 74 85
REMARK SMILES IDX 75 86 78 87 76 88 55 89 56 90 64 91 57 92 58 93 62 94 65 95
REMARK SMILES IDX 59 96 60 97 63 98 61 99
REMARK H PARENT 7 15 85 52 53 63
REMARK Flexibility Score: inf
ROOT
ATOM      1  C   UNL A   1      34.830  23.785  23.145  1.00  0.00     0.309 C 
ATOM      2  O   UNL A   1      35.111  24.672  23.950  1.00  0.00    -0.252 OA
ENDROOT
BRANCH   1   3
ATOM      3  C   UNL A   1      33.393  23.595  22.670  1.00  0.00     0.164 C 
BRANCH   3   4
ATOM      4  C   UNL A   1      32.846  22.218  22.298  1.00  0.00     0.241 C 
BRANCH   4   5
ATOM      5  O   UNL A   1      31.945  21.513  23.156  1.00  0.00    -0.492 OA
BRANCH   5   6
ATOM      6  C   UNL A   1      32.335  20.247  23.470  1.00  0.00     0.126 A 
ATOM      7  C   UNL A   1      33.011  19.939  24.664  1.00  0.00     0.018 A 
ATOM      8  C   UNL A   1      33.425  18.608  24.835  1.00  0.00     0.012 A 
ATOM      9  C   UNL A   1      33.149  17.624  23.869  1.00  0.00     0.001 A 
ATOM     10  C   UNL A   1      32.137  19.283  22.468  1.00  0.00     0.047 A 
ATOM     11  C   UNL A   1      32.519  17.965  22.677  1.00  0.00     0.004 A 
BRANCH   7  12
ATOM     12  C   UNL A   1      33.513  20.964  25.605  1.00  0.00     0.035 C 
ATOM     13  N   UNL A   1      33.264  25.748  26.128  1.00  0.00    -0.226 N 
ATOM     14  C   UNL A   1      32.796  24.558  26.291  1.00  0.00     0.271 C 
ATOM     15  H   UNL A   1      34.186  25.953  26.405  1.00  0.00     0.268 HD
ATOM     16  S   UNL A   1      33.931  23.317  26.838  1.00  0.00    -0.012 SA
ATOM     17  N   UNL A   1      31.570  23.983  26.070  1.00  0.00    -0.222 N 
ATOM     18  C   UNL A   1      32.958  22.069  26.133  1.00  0.00     0.100 C 
ATOM     19  C   UNL A   1      31.571  22.599  26.080  1.00  0.00     0.321 C 
ATOM     20  C   UNL A   1      30.314  24.668  25.795  1.00  0.00     0.252 C 
ATOM     21  O   UNL A   1      30.567  21.905  26.041  1.00  0.00    -0.250 OA
BRANCH  13  22
ATOM     22  C   UNL A   1      32.498  26.714  25.581  1.00  0.00     0.345 A 
ATOM     23  C   UNL A   1      31.383  28.235  24.098  1.00  0.00     0.138 A 
ATOM     24  N   UNL A   1      31.114  28.476  25.363  1.00  0.00    -0.067 NA
ATOM     25  S   UNL A   1      32.460  26.918  23.859  1.00  0.00    -0.044 S 
ATOM     26  N   UNL A   1      31.771  27.612  26.215  1.00  0.00     0.023 NA
BRANCH  23  27
ATOM     27  C   UNL A   1      30.753  28.971  22.959  1.00  0.00     0.068 C 
ATOM     28  C   UNL A   1      29.238  29.064  23.034  1.00  0.00     0.012 C 
ENDBRANCH  23  27
ENDBRANCH  13  22
ENDBRANCH   7  12
ENDBRANCH   5   6
ENDBRANCH   4   5
ENDBRANCH   3   4
ENDBRANCH   1   3
BRANCH   1  29
ATOM     29  O   UNL A   1      35.702  22.818  22.747  1.00  0.00    -0.462 OA
BRANCH  29  30
ATOM     30  C   UNL A   1      36.896  22.669  23.553  1.00  0.00     0.274 C 
BRANCH  30  31
ATOM     31  C   UNL A   1      36.927  21.397  24.418  1.00  0.00     0.275 C 
BRANCH  31  32
ATOM     32  O   UNL A   1      37.333  21.668  25.773  1.00  0.00    -0.458 OA
BRANCH  32  33
ATOM     33  C   UNL A   1      38.648  21.441  26.032  1.00  0.00     0.338 C 
ATOM     34  O   UNL A   1      39.228  20.373  25.898  1.00  0.00    -0.246 OA
BRANCH  33  35
ATOM     35  C   UNL A   1      39.341  22.675  26.503  1.00  0.00     0.060 A 
ATOM     36  C   UNL A   1      38.874  23.951  26.191  1.00  0.00     0.016 A 
ATOM     37  C   UNL A   1      40.525  22.558  27.241  1.00  0.00     0.016 A 
ATOM     38  C   UNL A   1      39.634  25.086  26.495  1.00  0.00     0.010 A 
ATOM     39  C   UNL A   1      41.225  23.702  27.650  1.00  0.00     0.010 A 
ATOM     40  C   UNL A   1      40.811  24.983  27.252  1.00  0.00    -0.014 A 
BRANCH  40  41
ATOM     41  C   UNL A   1      41.596  26.197  27.637  1.00  0.00     0.031 A 
ATOM     42  C   UNL A   1      40.990  27.253  28.528  1.00  0.00     0.074 A 
ATOM     43  C   UNL A   1      42.849  26.374  27.172  1.00  0.00     0.049 A 
ATOM     44  N   UNL A   1      41.419  28.460  28.808  1.00  0.00    -0.248 NA
ATOM     45  C   UNL A   1      39.714  26.913  29.172  1.00  0.00     0.031 C 
ATOM     46  C   UNL A   1      43.581  25.428  26.329  1.00  0.00     0.029 A 
ATOM     47  N   UNL A   1      43.737  27.409  27.345  1.00  0.00    -0.354 N 
ATOM     48  C   UNL A   1      40.438  29.043  29.604  1.00  0.00     0.074 A 
ATOM     49  C   UNL A   1      39.386  28.059  29.751  1.00  0.00     0.031 C 
ATOM     50  C   UNL A   1      44.818  25.895  26.107  1.00  0.00     0.029 A 
ATOM     51  C   UNL A   1      44.936  27.220  26.704  1.00  0.00     0.049 A 
ATOM     52  H   UNL A   1      43.531  28.212  27.879  1.00  0.00     0.167 HD
ATOM     53  C   UNL A   1      40.417  30.282  30.157  1.00  0.00     0.037 A 
ATOM     54  C   UNL A   1      46.003  28.032  26.573  1.00  0.00     0.037 A 
ATOM     55  C   UNL A   1      41.494  31.238  30.044  1.00  0.00     0.049 A 
ATOM     56  C   UNL A   1      45.953  29.405  27.175  1.00  0.00     0.074 A 
ATOM     57  C   UNL A   1      41.578  32.517  30.565  1.00  0.00     0.029 A 
ATOM     58  N   UNL A   1      42.686  31.006  29.369  1.00  0.00    -0.354 N 
ATOM     59  N   UNL A   1      44.994  29.971  27.866  1.00  0.00    -0.248 NA
ATOM     60  C   UNL A   1      47.129  30.260  26.964  1.00  0.00     0.031 C 
ATOM     61  C   UNL A   1      42.803  33.073  30.173  1.00  0.00     0.029 A 
ATOM     62  C   UNL A   1      43.508  32.120  29.457  1.00  0.00     0.049 A 
ATOM     63  H   UNL A   1      42.914  30.172  28.897  1.00  0.00     0.167 HD
ATOM     64  C   UNL A   1      45.457  31.236  28.197  1.00  0.00     0.074 A 
ATOM     65  C   UNL A   1      46.790  31.349  27.639  1.00  0.00     0.031 C 
ATOM     66  C   UNL A   1      44.835  32.214  28.900  1.00  0.00     0.037 A 
BRANCH  53  67
ATOM     67  C   UNL A   1      39.169  30.692  30.897  1.00  0.00     0.064 A 
ATOM     68  C   UNL A   1      39.035  30.536  32.286  1.00  0.00     0.173 A 
ATOM     69  C   UNL A   1      38.084  31.248  30.200  1.00  0.00     0.173 A 
ATOM     70  F   UNL A   1      40.035  30.004  33.005  1.00  0.00    -0.203 F 
ATOM     71  C   UNL A   1      37.849  30.870  32.937  1.00  0.00     0.198 A 
ATOM     72  C   UNL A   1      36.913  31.615  30.860  1.00  0.00     0.198 A 
ATOM     73  F   UNL A   1      38.156  31.436  28.874  1.00  0.00    -0.203 F 
ATOM     74  F   UNL A   1      37.720  30.641  34.252  1.00  0.00    -0.200 F 
ATOM     75  C   UNL A   1      36.790  31.412  32.225  1.00  0.00     0.200 A 
ATOM     76  F   UNL A   1      35.898  32.158  30.171  1.00  0.00    -0.200 F 
ATOM     77  F   UNL A   1      35.648  31.727  32.852  1.00  0.00    -0.200 F 
ENDBRANCH  53  67
BRANCH  54  78
ATOM     78  C   UNL A   1      47.205  27.553  25.837  1.00  0.00     0.064 A 
ATOM     79  C   UNL A   1      47.300  27.708  24.447  1.00  0.00     0.173 A 
ATOM     80  C   UNL A   1      48.296  26.977  26.505  1.00  0.00     0.173 A 
ATOM     81  F   UNL A   1      46.272  28.227  23.759  1.00  0.00    -0.203 F 
ATOM     82  C   UNL A   1      48.442  27.310  23.755  1.00  0.00     0.198 A 
ATOM     83  C   UNL A   1      49.450  26.609  25.815  1.00  0.00     0.198 A 
ATOM     84  F   UNL A   1      48.256  26.805  27.834  1.00  0.00    -0.203 F 
ATOM     85  F   UNL A   1      48.497  27.445  22.423  1.00  0.00    -0.200 F 
ATOM     86  C   UNL A   1      49.521  26.774  24.441  1.00  0.00     0.200 A 
ATOM     87  F   UNL A   1      50.497  26.108  26.486  1.00  0.00    -0.200 F 
ATOM     88  F   UNL A   1      50.628  26.413  23.778  1.00  0.00    -0.200 F 
ENDBRANCH  54  78
BRANCH  66  89
ATOM     89  C   UNL A   1      45.620  33.469  29.156  1.00  0.00     0.064 A 
ATOM     90  C   UNL A   1      46.441  33.615  30.284  1.00  0.00     0.173 A 
ATOM     91  C   UNL A   1      45.543  34.543  28.256  1.00  0.00     0.173 A 
ATOM     92  F   UNL A   1      46.536  32.624  31.184  1.00  0.00    -0.203 F 
ATOM     93  C   UNL A   1      47.123  34.805  30.523  1.00  0.00     0.198 A 
ATOM     94  C   UNL A   1      46.251  35.720  28.482  1.00  0.00     0.198 A 
ATOM     95  F   UNL A   1      44.777  34.453  27.158  1.00  0.00    -0.203 F 
ATOM     96  F   UNL A   1      47.850  34.947  31.640  1.00  0.00    -0.200 F 
ATOM     97  C   UNL A   1      47.031  35.854  29.620  1.00  0.00     0.200 A 
ATOM     98  F   UNL A   1      46.169  36.728  27.603  1.00  0.00    -0.200 F 
ATOM     99  F   UNL A   1      47.684  37.001  29.854  1.00  0.00    -0.200 F 
ENDBRANCH  66  89
ENDBRANCH  40  41
ENDBRANCH  33  35
ENDBRANCH  32  33
ENDBRANCH  31  32
ENDBRANCH  30  31
ENDBRANCH  29  30
ENDBRANCH   1  29
TORSDOF 17
ENDMDL
MODEL 2
REMARK VINA RESULT:     -11.6      1.420      7.550
REMARK SMILES CCc1nnc(/[NH+]=C2/S/C(=C/c3ccccc3OCCC(=O)OCCOC(=O)c3ccc(-c4c5nc(c(-c6c(F)c(F)c(F)c(F)c6F)c6ccc([nH]6)c(-c6c(F)c(F)c(F)c(F)c6F)c6nc(c(-c7c(F)c(F)c(F)c(F)c7F)c7ccc4[nH]7)C=C6)C=C5)cc3)C(=O)N2C)s1
REMARK SMILES IDX 21 1 22 2 20 3 19 4 18 5 17 6 12 7 13 8 14 9 16 10 15 11
REMARK SMILES IDX 11 12 7 13 8 14 9 16 94 17 10 18 92 19 95 20 93 21 6 22 3 23
REMARK SMILES IDX 4 24 96 25 5 26 2 27 1 28 23 29 24 30 25 31 26 32 27 33
REMARK SMILES IDX 28 34 29 35 30 36 91 37 31 38 90 39 32 40 33 41 34 42 84 43
REMARK SMILES IDX 35 44 89 45 83 46 85 47 36 48 88 49 82 50 81 51 37 53 69 54
REMARK SMILES IDX 49 55 68 56 50 57 53 58 67 59 86 60 51 61 52 62 66 64 87 65
REMARK SMILES IDX 54 66 38 67 39 68 47 69 40 70 41 71 45 72 48 73 42 74 43 75
REMARK SMILES IDX 46 76 44 77 70 78 71 79 79 80 72 81 73 82 77 83 80 84 74 85
REMARK SMILES IDX 75 86 78 87 76 88 55 89 56 90 64 91 57 92 58 93 62 94 65 95
REMARK SMILES IDX 59 96 60 97 63 98 61 99
REMARK H PARENT 7 15 85 52 53 63
REMARK Flexibility Score: inf
ROOT
ATOM      1  C   UNL A   1      37.102  22.186  24.756  1.00  0.00     0.309 C 
ATOM      2  O   UNL A   1      37.014  22.265  23.532  1.00  0.00    -0.252 OA
ENDROOT
BRANCH   1   3
ATOM      3  C   UNL A   1      36.261  23.088  25.655  1.00  0.00     0.164 C 
BRANCH   3   4
ATOM      4  C   UNL A   1      34.931  22.621  26.243  1.00  0.00     0.241 C 
BRANCH   4   5
ATOM      5  O   UNL A   1      33.721  22.657  25.481  1.00  0.00    -0.492 OA
BRANCH   5   6
ATOM      6  C   UNL A   1      33.444  21.511  24.801  1.00  0.00     0.126 A 
ATOM      7  C   UNL A   1      32.439  21.440  23.820  1.00  0.00     0.018 A 
ATOM      8  C   UNL A   1      32.201  20.181  23.245  1.00  0.00     0.012 A 
ATOM      9  C   UNL A   1      32.952  19.052  23.614  1.00  0.00     0.001 A 
ATOM     10  C   UNL A   1      34.133  20.366  25.231  1.00  0.00     0.047 A 
ATOM     11  C   UNL A   1      33.908  19.140  24.621  1.00  0.00     0.004 A 
BRANCH   7  12
ATOM     12  C   UNL A   1      31.482  22.535  23.551  1.00  0.00     0.035 C 
ATOM     13  N   UNL A   1      30.989  27.194  24.680  1.00  0.00    -0.226 N 
ATOM     14  C   UNL A   1      31.464  26.242  23.952  1.00  0.00     0.271 C 
ATOM     15  H   UNL A   1      30.020  27.242  24.851  1.00  0.00     0.268 HD
ATOM     16  S   UNL A   1      30.339  24.968  23.463  1.00  0.00    -0.012 SA
ATOM     17  N   UNL A   1      32.719  25.937  23.492  1.00  0.00    -0.222 N 
ATOM     18  C   UNL A   1      31.642  23.842  23.278  1.00  0.00     0.100 C 
ATOM     19  C   UNL A   1      32.858  24.651  23.000  1.00  0.00     0.321 C 
ATOM     20  C   UNL A   1      33.895  26.798  23.507  1.00  0.00     0.252 C 
ATOM     21  O   UNL A   1      33.849  24.232  22.423  1.00  0.00    -0.250 OA
BRANCH  13  22
ATOM     22  C   UNL A   1      31.809  28.124  25.209  1.00  0.00     0.345 A 
ATOM     23  C   UNL A   1      33.278  29.400  26.613  1.00  0.00     0.138 A 
ATOM     24  N   UNL A   1      32.971  30.030  25.499  1.00  0.00    -0.067 NA
ATOM     25  S   UNL A   1      32.537  27.856  26.759  1.00  0.00    -0.044 S 
ATOM     26  N   UNL A   1      32.112  29.303  24.701  1.00  0.00     0.023 NA
BRANCH  23  27
ATOM     27  C   UNL A   1      34.246  29.923  27.626  1.00  0.00     0.068 C 
ATOM     28  C   UNL A   1      35.645  29.341  27.515  1.00  0.00     0.012 C 
ENDBRANCH  23  27
ENDBRANCH  13  22
ENDBRANCH   7  12
ENDBRANCH   5   6
ENDBRANCH   4   5
ENDBRANCH   3   4
ENDBRANCH   1   3
BRANCH   1  29
ATOM     29  O   UNL A   1      38.040  21.441  25.404  1.00  0.00    -0.462 OA
BRANCH  29  30
ATOM     30  C   UNL A   1      38.135  20.052  25.001  1.00  0.00     0.274 C 
BRANCH  30  31
ATOM     31  C   UNL A   1      39.254  19.261  25.701  1.00  0.00     0.275 C 
BRANCH  31  32
ATOM     32  O   UNL A   1      40.459  20.037  25.851  1.00  0.00    -0.458 OA
BRANCH  32  33
ATOM     33  C   UNL A   1      40.788  20.338  27.135  1.00  0.00     0.338 C 
ATOM     34  O   UNL A   1      40.857  19.541  28.059  1.00  0.00    -0.246 OA
BRANCH  33  35
ATOM     35  C   UNL A   1      41.080  21.790  27.306  1.00  0.00     0.060 A 
ATOM     36  C   UNL A   1      40.491  22.764  26.501  1.00  0.00     0.016 A 
ATOM     37  C   UNL A   1      42.010  22.194  28.272  1.00  0.00     0.016 A 
ATOM     38  C   UNL A   1      40.912  24.097  26.565  1.00  0.00     0.010 A 
ATOM     39  C   UNL A   1      42.343  23.549  28.418  1.00  0.00     0.010 A 
ATOM     40  C   UNL A   1      41.827  24.518  27.542  1.00  0.00    -0.014 A 
BRANCH  40  41
ATOM     41  C   UNL A   1      42.234  25.952  27.661  1.00  0.00     0.031 A 
ATOM     42  C   UNL A   1      43.525  26.437  27.049  1.00  0.00     0.074 A 
ATOM     43  C   UNL A   1      41.462  26.826  28.339  1.00  0.00     0.049 A 
ATOM     44  N   UNL A   1      44.152  27.577  27.211  1.00  0.00    -0.248 NA
ATOM     45  C   UNL A   1      44.215  25.502  26.149  1.00  0.00     0.031 C 
ATOM     46  C   UNL A   1      40.173  26.514  28.957  1.00  0.00     0.029 A 
ATOM     47  N   UNL A   1      41.643  28.160  28.618  1.00  0.00    -0.354 N 
ATOM     48  C   UNL A   1      45.337  27.470  26.490  1.00  0.00     0.074 A 
ATOM     49  C   UNL A   1      45.345  26.148  25.900  1.00  0.00     0.031 C 
ATOM     50  C   UNL A   1      39.655  27.630  29.490  1.00  0.00     0.029 A 
ATOM     51  C   UNL A   1      40.617  28.715  29.343  1.00  0.00     0.049 A 
ATOM     52  H   UNL A   1      42.434  28.669  28.325  1.00  0.00     0.167 HD
ATOM     53  C   UNL A   1      46.326  28.388  26.339  1.00  0.00     0.037 A 
ATOM     54  C   UNL A   1      40.477  29.947  29.870  1.00  0.00     0.037 A 
ATOM     55  C   UNL A   1      46.286  29.721  26.892  1.00  0.00     0.049 A 
ATOM     56  C   UNL A   1      41.589  30.941  29.707  1.00  0.00     0.074 A 
ATOM     57  C   UNL A   1      47.229  30.730  26.797  1.00  0.00     0.029 A 
ATOM     58  N   UNL A   1      45.230  30.234  27.635  1.00  0.00    -0.354 N 
ATOM     59  N   UNL A   1      42.734  30.807  29.083  1.00  0.00    -0.248 NA
ATOM     60  C   UNL A   1      41.396  32.253  30.337  1.00  0.00     0.031 C 
ATOM     61  C   UNL A   1      46.762  31.838  27.516  1.00  0.00     0.029 A 
ATOM     62  C   UNL A   1      45.502  31.542  28.010  1.00  0.00     0.049 A 
ATOM     63  H   UNL A   1      44.409  29.741  27.863  1.00  0.00     0.167 HD
ATOM     64  C   UNL A   1      43.388  32.022  29.221  1.00  0.00     0.074 A 
ATOM     65  C   UNL A   1      42.504  32.886  29.978  1.00  0.00     0.031 C 
ATOM     66  C   UNL A   1      44.608  32.390  28.759  1.00  0.00     0.037 A 
BRANCH  53  67
ATOM     67  C   UNL A   1      47.557  27.963  25.578  1.00  0.00     0.064 A 
ATOM     68  C   UNL A   1      47.587  27.895  24.177  1.00  0.00     0.173 A 
ATOM     69  C   UNL A   1      48.729  27.614  26.270  1.00  0.00     0.173 A 
ATOM     70  F   UNL A   1      46.497  28.210  23.462  1.00  0.00    -0.203 F 
ATOM     71  C   UNL A   1      48.721  27.445  23.501  1.00  0.00     0.198 A 
ATOM     72  C   UNL A   1      49.873  27.199  25.590  1.00  0.00     0.198 A 
ATOM     73  F   UNL A   1      48.768  27.672  27.609  1.00  0.00    -0.203 F 
ATOM     74  F   UNL A   1      48.698  27.317  22.167  1.00  0.00    -0.200 F 
ATOM     75  C   UNL A   1      49.863  27.101  24.208  1.00  0.00     0.200 A 
ATOM     76  F   UNL A   1      50.982  26.886  26.275  1.00  0.00    -0.200 F 
ATOM     77  F   UNL A   1      50.950  26.662  23.557  1.00  0.00    -0.200 F 
ENDBRANCH  53  67
BRANCH  54  78
ATOM     78  C   UNL A   1      39.227  30.297  30.598  1.00  0.00     0.064 A 
ATOM     79  C   UNL A   1      39.116  30.070  31.976  1.00  0.00     0.173 A 
ATOM     80  C   UNL A   1      38.141  30.902  29.947  1.00  0.00     0.173 A 
ATOM     81  F   UNL A   1      40.115  29.468  32.638  1.00  0.00    -0.203 F 
ATOM     82  C   UNL A   1      37.970  30.441  32.677  1.00  0.00     0.198 A 
ATOM     83  C   UNL A   1      37.009  31.301  30.655  1.00  0.00     0.198 A 
ATOM     84  F   UNL A   1      38.195  31.141  28.629  1.00  0.00    -0.203 F 
ATOM     85  F   UNL A   1      37.879  30.188  33.990  1.00  0.00    -0.200 F 
ATOM     86  C   UNL A   1      36.923  31.068  32.019  1.00  0.00     0.200 A 
ATOM     87  F   UNL A   1      36.007  31.924  30.018  1.00  0.00    -0.200 F 
ATOM     88  F   UNL A   1      35.832  31.446  32.698  1.00  0.00    -0.200 F 
ENDBRANCH  54  78
BRANCH  66  89
ATOM     89  C   UNL A   1      45.029  33.810  29.012  1.00  0.00     0.064 A 
ATOM     90  C   UNL A   1      44.700  34.850  28.131  1.00  0.00     0.173 A 
ATOM     91  C   UNL A   1      45.779  34.129  30.154  1.00  0.00     0.173 A 
ATOM     92  F   UNL A   1      43.999  34.595  27.015  1.00  0.00    -0.203 F 
ATOM     93  C   UNL A   1      45.140  36.151  28.364  1.00  0.00     0.198 A 
ATOM     94  C   UNL A   1      46.191  35.436  30.400  1.00  0.00     0.198 A 
ATOM     95  F   UNL A   1      46.116  33.172  31.032  1.00  0.00    -0.203 F 
ATOM     96  F   UNL A   1      44.869  37.117  27.476  1.00  0.00    -0.200 F 
ATOM     97  C   UNL A   1      45.881  36.442  29.499  1.00  0.00     0.200 A 
ATOM     98  F   UNL A   1      46.897  35.717  31.503  1.00  0.00    -0.200 F 
ATOM     99  F   UNL A   1      46.309  37.694  29.719  1.00  0.00    -0.200 F 
ENDBRANCH  66  89
ENDBRANCH  40  41
ENDBRANCH  33  35
ENDBRANCH  32  33
ENDBRANCH  31  32
ENDBRANCH  30  31
ENDBRANCH  29  30
ENDBRANCH   1  29
TORSDOF 17
ENDMDL
MODEL 3
REMARK VINA RESULT:     -11.4      4.454     10.041
REMARK SMILES CCc1nnc(/[NH+]=C2/S/C(=C/c3ccccc3OCCC(=O)OCCOC(=O)c3ccc(-c4c5nc(c(-c6c(F)c(F)c(F)c(F)c6F)c6ccc([nH]6)c(-c6c(F)c(F)c(F)c(F)c6F)c6nc(c(-c7c(F)c(F)c(F)c(F)c7F)c7ccc4[nH]7)C=C6)C=C5)cc3)C(=O)N2C)s1
REMARK SMILES IDX 21 1 22 2 20 3 19 4 18 5 17 6 12 7 13 8 14 9 16 10 15 11
REMARK SMILES IDX 11 12 7 13 8 14 9 16 94 17 10 18 92 19 95 20 93 21 6 22 3 23
REMARK SMILES IDX 4 24 96 25 5 26 2 27 1 28 23 29 24 30 25 31 26 32 27 33
REMARK SMILES IDX 28 34 29 35 30 36 91 37 31 38 90 39 32 40 33 41 34 42 84 43
REMARK SMILES IDX 35 44 89 45 83 46 85 47 36 48 88 49 82 50 81 51 37 53 69 54
REMARK SMILES IDX 49 55 68 56 50 57 53 58 67 59 86 60 51 61 52 62 66 64 87 65
REMARK SMILES IDX 54 66 38 67 39 68 47 69 40 70 41 71 45 72 48 73 42 74 43 75
REMARK SMILES IDX 46 76 44 77 70 78 71 79 79 80 72 81 73 82 77 83 80 84 74 85
REMARK SMILES IDX 75 86 78 87 76 88 55 89 56 90 64 91 57 92 58 93 62 94 65 95
REMARK SMILES IDX 59 96 60 97 63 98 61 99
REMARK H PARENT 7 15 85 52 53 63
REMARK Flexibility Score: inf
ROOT
ATOM      1  C   UNL A   1      33.753  28.829  25.729  1.00  0.00     0.309 C 
ATOM      2  O   UNL A   1      34.281  28.383  26.746  1.00  0.00    -0.252 OA
ENDROOT
BRANCH   1   3
ATOM      3  C   UNL A   1      33.847  28.071  24.408  1.00  0.00     0.164 C 
BRANCH   3   4
ATOM      4  C   UNL A   1      33.086  28.528  23.165  1.00  0.00     0.241 C 
BRANCH   4   5
ATOM      5  O   UNL A   1      32.016  27.754  22.615  1.00  0.00    -0.492 OA
BRANCH   5   6
ATOM      6  C   UNL A   1      30.774  28.265  22.838  1.00  0.00     0.126 A 
ATOM      7  C   UNL A   1      29.689  27.464  23.235  1.00  0.00     0.018 A 
ATOM      8  C   UNL A   1      28.443  28.099  23.359  1.00  0.00     0.012 A 
ATOM      9  C   UNL A   1      28.294  29.477  23.124  1.00  0.00     0.001 A 
ATOM     10  C   UNL A   1      30.608  29.622  22.520  1.00  0.00     0.047 A 
ATOM     11  C   UNL A   1      29.375  30.237  22.688  1.00  0.00     0.004 A 
BRANCH   7  12
ATOM     12  C   UNL A   1      29.740  25.986  23.284  1.00  0.00     0.035 C 
ATOM     13  N   UNL A   1      33.105  22.541  23.459  1.00  0.00    -0.226 N 
ATOM     14  C   UNL A   1      32.338  23.414  24.017  1.00  0.00     0.271 C 
ATOM     15  H   UNL A   1      32.721  21.875  22.844  1.00  0.00     0.268 HD
ATOM     16  S   UNL A   1      30.655  23.465  23.478  1.00  0.00    -0.012 SA
ATOM     17  N   UNL A   1      32.546  24.408  24.940  1.00  0.00    -0.222 N 
ATOM     18  C   UNL A   1      30.513  25.121  23.964  1.00  0.00     0.100 C 
ATOM     19  C   UNL A   1      31.518  25.329  25.039  1.00  0.00     0.321 C 
ATOM     20  C   UNL A   1      33.727  24.603  25.771  1.00  0.00     0.252 C 
ATOM     21  O   UNL A   1      31.449  26.202  25.889  1.00  0.00    -0.250 OA
BRANCH  13  22
ATOM     22  C   UNL A   1      34.429  22.534  23.714  1.00  0.00     0.345 A 
ATOM     23  C   UNL A   1      36.624  22.136  24.598  1.00  0.00     0.138 A 
ATOM     24  N   UNL A   1      36.619  23.049  23.651  1.00  0.00    -0.067 NA
ATOM     25  S   UNL A   1      35.068  21.496  24.947  1.00  0.00    -0.044 S 
ATOM     26  N   UNL A   1      35.354  23.290  23.157  1.00  0.00     0.023 NA
BRANCH  23  27
ATOM     27  C   UNL A   1      37.865  21.628  25.259  1.00  0.00     0.068 C 
ATOM     28  C   UNL A   1      38.157  20.159  25.000  1.00  0.00     0.012 C 
ENDBRANCH  23  27
ENDBRANCH  13  22
ENDBRANCH   7  12
ENDBRANCH   5   6
ENDBRANCH   4   5
ENDBRANCH   3   4
ENDBRANCH   1   3
BRANCH   1  29
ATOM     29  O   UNL A   1      33.203  30.072  25.643  1.00  0.00    -0.462 OA
BRANCH  29  30
ATOM     30  C   UNL A   1      31.953  30.263  26.350  1.00  0.00     0.274 C 
BRANCH  30  31
ATOM     31  C   UNL A   1      31.635  31.728  26.698  1.00  0.00     0.275 C 
BRANCH  31  32
ATOM     32  O   UNL A   1      32.776  32.590  26.524  1.00  0.00    -0.458 OA
BRANCH  32  33
ATOM     33  C   UNL A   1      33.126  33.304  27.627  1.00  0.00     0.338 C 
ATOM     34  O   UNL A   1      32.526  34.273  28.070  1.00  0.00    -0.246 OA
BRANCH  33  35
ATOM     35  C   UNL A   1      34.355  32.759  28.272  1.00  0.00     0.060 A 
ATOM     36  C   UNL A   1      34.422  31.451  28.751  1.00  0.00     0.016 A 
ATOM     37  C   UNL A   1      35.465  33.594  28.450  1.00  0.00     0.016 A 
ATOM     38  C   UNL A   1      35.519  31.020  29.505  1.00  0.00     0.010 A 
ATOM     39  C   UNL A   1      36.614  33.123  29.102  1.00  0.00     0.010 A 
ATOM     40  C   UNL A   1      36.645  31.840  29.672  1.00  0.00    -0.014 A 
BRANCH  40  41
ATOM     41  C   UNL A   1      37.849  31.364  30.422  1.00  0.00     0.031 A 
ATOM     42  C   UNL A   1      38.831  30.417  29.777  1.00  0.00     0.074 A 
ATOM     43  C   UNL A   1      38.060  31.757  31.695  1.00  0.00     0.049 A 
ATOM     44  N   UNL A   1      39.812  29.733  30.315  1.00  0.00    -0.248 NA
ATOM     45  C   UNL A   1      38.670  30.190  28.334  1.00  0.00     0.031 C 
ATOM     46  C   UNL A   1      37.218  32.693  32.442  1.00  0.00     0.029 A 
ATOM     47  N   UNL A   1      39.050  31.426  32.588  1.00  0.00    -0.354 N 
ATOM     48  C   UNL A   1      40.341  28.950  29.293  1.00  0.00     0.074 A 
ATOM     49  C   UNL A   1      39.562  29.236  28.107  1.00  0.00     0.031 C 
ATOM     50  C   UNL A   1      37.755  32.905  33.652  1.00  0.00     0.029 A 
ATOM     51  C   UNL A   1      38.921  32.044  33.808  1.00  0.00     0.049 A 
ATOM     52  H   UNL A   1      39.783  30.803  32.373  1.00  0.00     0.167 HD
ATOM     53  C   UNL A   1      41.376  28.074  29.343  1.00  0.00     0.037 A 
ATOM     54  C   UNL A   1      39.633  31.909  34.944  1.00  0.00     0.037 A 
ATOM     55  C   UNL A   1      42.177  27.833  30.519  1.00  0.00     0.049 A 
ATOM     56  C   UNL A   1      40.762  30.921  34.984  1.00  0.00     0.074 A 
ATOM     57  C   UNL A   1      43.249  26.971  30.679  1.00  0.00     0.029 A 
ATOM     58  N   UNL A   1      41.999  28.472  31.739  1.00  0.00    -0.354 N 
ATOM     59  N   UNL A   1      41.209  30.137  34.034  1.00  0.00    -0.248 NA
ATOM     60  C   UNL A   1      41.476  30.789  36.261  1.00  0.00     0.031 C 
ATOM     61  C   UNL A   1      43.692  27.061  32.005  1.00  0.00     0.029 A 
ATOM     62  C   UNL A   1      42.936  28.020  32.657  1.00  0.00     0.049 A 
ATOM     63  H   UNL A   1      41.307  29.148  31.926  1.00  0.00     0.167 HD
ATOM     64  C   UNL A   1      42.272  29.436  34.586  1.00  0.00     0.074 A 
ATOM     65  C   UNL A   1      42.409  29.900  35.953  1.00  0.00     0.031 C 
ATOM     66  C   UNL A   1      43.063  28.497  34.012  1.00  0.00     0.037 A 
BRANCH  53  67
ATOM     67  C   UNL A   1      41.672  27.277  28.097  1.00  0.00     0.064 A 
ATOM     68  C   UNL A   1      42.596  27.709  27.133  1.00  0.00     0.173 A 
ATOM     69  C   UNL A   1      41.013  26.059  27.864  1.00  0.00     0.173 A 
ATOM     70  F   UNL A   1      43.253  28.867  27.297  1.00  0.00    -0.203 F 
ATOM     71  C   UNL A   1      42.810  26.981  25.963  1.00  0.00     0.198 A 
ATOM     72  C   UNL A   1      41.256  25.315  26.710  1.00  0.00     0.198 A 
ATOM     73  F   UNL A   1      40.129  25.586  28.754  1.00  0.00    -0.203 F 
ATOM     74  F   UNL A   1      43.642  27.454  25.023  1.00  0.00    -0.200 F 
ATOM     75  C   UNL A   1      42.142  25.784  25.754  1.00  0.00     0.200 A 
ATOM     76  F   UNL A   1      40.623  24.149  26.521  1.00  0.00    -0.200 F 
ATOM     77  F   UNL A   1      42.343  25.089  24.625  1.00  0.00    -0.200 F 
ENDBRANCH  53  67
BRANCH  54  78
ATOM     78  C   UNL A   1      39.289  32.738  36.130  1.00  0.00     0.064 A 
ATOM     79  C   UNL A   1      38.391  32.264  37.096  1.00  0.00     0.173 A 
ATOM     80  C   UNL A   1      39.878  33.994  36.347  1.00  0.00     0.173 A 
ATOM     81  F   UNL A   1      37.780  31.084  36.921  1.00  0.00    -0.203 F 
ATOM     82  C   UNL A   1      38.101  33.011  38.237  1.00  0.00     0.198 A 
ATOM     83  C   UNL A   1      39.610  34.724  37.503  1.00  0.00     0.198 A 
ATOM     84  F   UNL A   1      40.742  34.494  35.453  1.00  0.00    -0.203 F 
ATOM     85  F   UNL A   1      37.218  32.546  39.133  1.00  0.00    -0.200 F 
ATOM     86  C   UNL A   1      38.720  34.233  38.446  1.00  0.00     0.200 A 
ATOM     87  F   UNL A   1      40.226  35.897  37.709  1.00  0.00    -0.200 F 
ATOM     88  F   UNL A   1      38.459  34.940  39.554  1.00  0.00    -0.200 F 
ENDBRANCH  54  78
BRANCH  66  89
ATOM     89  C   UNL A   1      44.186  27.954  34.849  1.00  0.00     0.064 A 
ATOM     90  C   UNL A   1      45.444  28.574  34.896  1.00  0.00     0.173 A 
ATOM     91  C   UNL A   1      43.998  26.791  35.610  1.00  0.00     0.173 A 
ATOM     92  F   UNL A   1      45.680  29.679  34.173  1.00  0.00    -0.203 F 
ATOM     93  C   UNL A   1      46.483  28.026  35.643  1.00  0.00     0.198 A 
ATOM     94  C   UNL A   1      45.031  26.263  36.381  1.00  0.00     0.198 A 
ATOM     95  F   UNL A   1      42.813  26.162  35.605  1.00  0.00    -0.203 F 
ATOM     96  F   UNL A   1      47.695  28.598  35.623  1.00  0.00    -0.200 F 
ATOM     97  C   UNL A   1      46.275  26.874  36.388  1.00  0.00     0.200 A 
ATOM     98  F   UNL A   1      44.824  25.157  37.108  1.00  0.00    -0.200 F 
ATOM     99  F   UNL A   1      47.278  26.345  37.102  1.00  0.00    -0.200 F 
ENDBRANCH  66  89
ENDBRANCH  40  41
ENDBRANCH  33  35
ENDBRANCH  32  33
ENDBRANCH  31  32
ENDBRANCH  30  31
ENDBRANCH  29  30
ENDBRANCH   1  29
TORSDOF 17
ENDMDL
