MODEL 1
REMARK VINA RESULT:     -12.6      0.000      0.000
REMARK SMILES CC[C@@H](C)[C@@H](NC(=O)Cn1ncc2ccccc2c1=O)C(=O)OCCOC(=O)c1ccc(-c2c3nc(c(-c4c(F)c(F)c(F)c(F)c4F)c4ccc([nH]4)c(-c4c(F)c(F)c(F)c(F)c4F)c4nc(c(-c5c(F)c(F)c(F)c(F)c5F)c5ccc2[nH]5)C=C4)C=C3)cc1
REMARK SMILES IDX 24 1 23 2 21 3 22 4 5 5 3 6 4 7 2 8 1 9 6 10 7 11 8 13 9 14
REMARK SMILES IDX 10 15 11 16 19 17 12 18 18 19 20 20 13 21 17 22 14 23 16 24
REMARK SMILES IDX 15 25 25 26 26 27 27 28 28 29 29 30 30 31 91 32 31 33 90 34
REMARK SMILES IDX 32 35 33 36 34 37 84 38 35 39 89 40 83 41 85 42 36 43 88 44
REMARK SMILES IDX 82 45 81 46 37 48 69 49 49 50 68 51 50 52 53 53 67 54 86 55
REMARK SMILES IDX 51 56 52 57 66 59 87 60 54 61 38 62 39 63 47 64 40 65 41 66
REMARK SMILES IDX 45 67 48 68 42 69 43 70 46 71 44 72 70 73 71 74 79 75 72 76
REMARK SMILES IDX 73 77 77 78 80 79 74 80 75 81 78 82 76 83 55 84 56 85 64 86
REMARK SMILES IDX 57 87 58 88 62 89 65 90 59 91 60 92 63 93 61 94
REMARK H PARENT 6 12 85 47 53 58
REMARK Flexibility Score: inf
ROOT
ATOM      1  C   UNL A   1      31.922  29.403  24.587  1.00  0.00     0.274 C 
ENDROOT
BRANCH   1   2
ATOM      2  O   UNL A   1      30.727  29.611  23.797  1.00  0.00    -0.461 OA
BRANCH   2   3
ATOM      3  C   UNL A   1      30.517  28.738  22.781  1.00  0.00     0.329 C 
ATOM      4  O   UNL A   1      29.939  29.036  21.736  1.00  0.00    -0.250 OA
BRANCH   3   5
ATOM      5  C   UNL A   1      30.945  27.277  23.060  1.00  0.00     0.195 C 
BRANCH   5   6
ATOM      6  C   UNL A   1      30.110  26.241  23.875  1.00  0.00     0.019 C 
ATOM      7  C   UNL A   1      28.610  26.536  23.893  1.00  0.00     0.010 C 
BRANCH   6   8
ATOM      8  C   UNL A   1      30.642  26.124  25.331  1.00  0.00     0.002 C 
ATOM      9  C   UNL A   1      30.542  24.714  25.908  1.00  0.00     0.004 C 
ENDBRANCH   6   8
ENDBRANCH   5   6
BRANCH   5  10
ATOM     10  N   UNL A   1      31.572  26.690  21.859  1.00  0.00    -0.341 N 
ATOM     11  C   UNL A   1      32.768  26.071  21.638  1.00  0.00     0.242 C 
ATOM     12  H   UNL A   1      31.011  26.758  21.052  1.00  0.00     0.164 HD
ATOM     13  O   UNL A   1      33.075  25.912  20.449  1.00  0.00    -0.273 OA
BRANCH  11  14
ATOM     14  C   UNL A   1      33.602  25.398  22.739  1.00  0.00     0.248 C 
BRANCH  14  15
ATOM     15  N   UNL A   1      33.269  24.069  23.243  1.00  0.00    -0.220 N 
ATOM     16  N   UNL A   1      32.043  23.562  22.936  1.00  0.00    -0.177 NA
ATOM     17  C   UNL A   1      34.251  23.349  23.930  1.00  0.00     0.275 A 
ATOM     18  C   UNL A   1      31.818  22.301  23.124  1.00  0.00     0.142 A 
ATOM     19  C   UNL A   1      33.963  21.920  24.184  1.00  0.00     0.050 A 
ATOM     20  O   UNL A   1      35.347  23.805  24.246  1.00  0.00    -0.267 OA
ATOM     21  C   UNL A   1      32.786  21.381  23.688  1.00  0.00     0.007 A 
ATOM     22  C   UNL A   1      34.884  21.082  24.815  1.00  0.00     0.014 A 
ATOM     23  C   UNL A   1      32.526  20.013  23.740  1.00  0.00     0.010 A 
ATOM     24  C   UNL A   1      34.623  19.711  24.904  1.00  0.00     0.001 A 
ATOM     25  C   UNL A   1      33.457  19.175  24.347  1.00  0.00     0.001 A 
ENDBRANCH  14  15
ENDBRANCH  11  14
ENDBRANCH   5  10
ENDBRANCH   3   5
ENDBRANCH   2   3
ENDBRANCH   1   2
BRANCH   1  26
ATOM     26  C   UNL A   1      31.891  30.219  25.876  1.00  0.00     0.275 C 
BRANCH  26  27
ATOM     27  O   UNL A   1      33.210  30.247  26.433  1.00  0.00    -0.458 OA
BRANCH  27  28
ATOM     28  C   UNL A   1      33.504  31.355  27.146  1.00  0.00     0.338 C 
ATOM     29  O   UNL A   1      32.802  32.324  27.365  1.00  0.00    -0.246 OA
BRANCH  28  30
ATOM     30  C   UNL A   1      34.788  31.098  27.799  1.00  0.00     0.060 A 
ATOM     31  C   UNL A   1      35.704  32.133  27.962  1.00  0.00     0.016 A 
ATOM     32  C   UNL A   1      35.080  29.797  28.217  1.00  0.00     0.016 A 
ATOM     33  C   UNL A   1      36.932  31.850  28.546  1.00  0.00     0.010 A 
ATOM     34  C   UNL A   1      36.300  29.515  28.814  1.00  0.00     0.010 A 
ATOM     35  C   UNL A   1      37.230  30.543  28.976  1.00  0.00    -0.014 A 
BRANCH  35  36
ATOM     36  C   UNL A   1      38.497  30.297  29.683  1.00  0.00     0.031 A 
ATOM     37  C   UNL A   1      38.711  30.808  31.068  1.00  0.00     0.074 A 
ATOM     38  C   UNL A   1      39.421  29.552  29.052  1.00  0.00     0.049 A 
ATOM     39  N   UNL A   1      39.652  30.491  31.918  1.00  0.00    -0.248 NA
ATOM     40  C   UNL A   1      37.754  31.807  31.568  1.00  0.00     0.031 C 
ATOM     41  C   UNL A   1      39.305  29.076  27.671  1.00  0.00     0.029 A 
ATOM     42  N   UNL A   1      40.608  29.034  29.491  1.00  0.00    -0.354 N 
ATOM     43  C   UNL A   1      39.378  31.218  33.066  1.00  0.00     0.074 A 
ATOM     44  C   UNL A   1      38.226  32.047  32.785  1.00  0.00     0.031 C 
ATOM     45  C   UNL A   1      40.349  28.281  27.397  1.00  0.00     0.029 A 
ATOM     46  C   UNL A   1      41.204  28.202  28.577  1.00  0.00     0.049 A 
ATOM     47  H   UNL A   1      40.995  29.237  30.373  1.00  0.00     0.167 HD
ATOM     48  C   UNL A   1      40.024  31.164  34.255  1.00  0.00     0.037 A 
ATOM     49  C   UNL A   1      42.299  27.432  28.700  1.00  0.00     0.037 A 
ATOM     50  C   UNL A   1      41.183  30.342  34.493  1.00  0.00     0.049 A 
ATOM     51  C   UNL A   1      43.003  27.400  30.026  1.00  0.00     0.074 A 
ATOM     52  C   UNL A   1      41.905  30.183  35.661  1.00  0.00     0.029 A 
ATOM     53  N   UNL A   1      41.794  29.546  33.531  1.00  0.00    -0.354 N 
ATOM     54  N   UNL A   1      42.687  28.013  31.141  1.00  0.00    -0.248 NA
ATOM     55  C   UNL A   1      44.204  26.562  30.117  1.00  0.00     0.031 C 
ATOM     56  C   UNL A   1      42.980  29.329  35.394  1.00  0.00     0.029 A 
ATOM     57  C   UNL A   1      42.901  28.915  34.073  1.00  0.00     0.049 A 
ATOM     58  H   UNL A   1      41.485  29.447  32.602  1.00  0.00     0.167 HD
ATOM     59  C   UNL A   1      43.642  27.630  32.071  1.00  0.00     0.074 A 
ATOM     60  C   UNL A   1      44.533  26.710  31.393  1.00  0.00     0.031 C 
ATOM     61  C   UNL A   1      43.774  28.012  33.365  1.00  0.00     0.037 A 
BRANCH  48  62
ATOM     62  C   UNL A   1      39.487  31.993  35.384  1.00  0.00     0.064 A 
ATOM     63  C   UNL A   1      38.562  31.465  36.298  1.00  0.00     0.173 A 
ATOM     64  C   UNL A   1      39.949  33.299  35.601  1.00  0.00     0.173 A 
ATOM     65  F   UNL A   1      38.082  30.223  36.131  1.00  0.00    -0.203 F 
ATOM     66  C   UNL A   1      38.108  32.219  37.377  1.00  0.00     0.198 A 
ATOM     67  C   UNL A   1      39.512  34.041  36.696  1.00  0.00     0.198 A 
ATOM     68  F   UNL A   1      40.838  33.851  34.761  1.00  0.00    -0.203 F 
ATOM     69  F   UNL A   1      37.203  31.702  38.220  1.00  0.00    -0.200 F 
ATOM     70  C   UNL A   1      38.591  33.502  37.582  1.00  0.00     0.200 A 
ATOM     71  F   UNL A   1      39.990  35.277  36.900  1.00  0.00    -0.200 F 
ATOM     72  F   UNL A   1      38.168  34.220  38.631  1.00  0.00    -0.200 F 
ENDBRANCH  48  62
BRANCH  49  73
ATOM     73  C   UNL A   1      42.728  26.588  27.557  1.00  0.00     0.064 A 
ATOM     74  C   UNL A   1      43.713  27.031  26.664  1.00  0.00     0.173 A 
ATOM     75  C   UNL A   1      42.208  25.298  27.369  1.00  0.00     0.173 A 
ATOM     76  F   UNL A   1      44.236  28.258  26.797  1.00  0.00    -0.203 F 
ATOM     77  C   UNL A   1      44.158  26.218  25.623  1.00  0.00     0.198 A 
ATOM     78  C   UNL A   1      42.673  24.477  26.345  1.00  0.00     0.198 A 
ATOM     79  F   UNL A   1      41.274  24.823  28.206  1.00  0.00    -0.203 F 
ATOM     80  F   UNL A   1      45.085  26.673  24.769  1.00  0.00    -0.200 F 
ATOM     81  C   UNL A   1      43.645  24.939  25.469  1.00  0.00     0.200 A 
ATOM     82  F   UNL A   1      42.189  23.234  26.213  1.00  0.00    -0.200 F 
ATOM     83  F   UNL A   1      44.087  24.150  24.480  1.00  0.00    -0.200 F 
ENDBRANCH  49  73
BRANCH  61  84
ATOM     84  C   UNL A   1      44.933  27.441  34.127  1.00  0.00     0.064 A 
ATOM     85  C   UNL A   1      46.158  28.119  34.203  1.00  0.00     0.173 A 
ATOM     86  C   UNL A   1      44.795  26.243  34.844  1.00  0.00     0.173 A 
ATOM     87  F   UNL A   1      46.341  29.261  33.523  1.00  0.00    -0.203 F 
ATOM     88  C   UNL A   1      47.210  27.609  34.957  1.00  0.00     0.198 A 
ATOM     89  C   UNL A   1      45.840  25.752  35.621  1.00  0.00     0.198 A 
ATOM     90  F   UNL A   1      43.640  25.562  34.809  1.00  0.00    -0.203 F 
ATOM     91  F   UNL A   1      48.385  28.253  34.987  1.00  0.00    -0.200 F 
ATOM     92  C   UNL A   1      47.047  26.433  35.673  1.00  0.00     0.200 A 
ATOM     93  F   UNL A   1      45.675  24.623  36.324  1.00  0.00    -0.200 F 
ATOM     94  F   UNL A   1      48.056  25.951  36.412  1.00  0.00    -0.200 F 
ENDBRANCH  61  84
ENDBRANCH  35  36
ENDBRANCH  28  30
ENDBRANCH  27  28
ENDBRANCH  26  27
ENDBRANCH   1  26
TORSDOF 16
ENDMDL
MODEL 2
REMARK VINA RESULT:     -12.6      0.716      1.357
REMARK SMILES CC[C@@H](C)[C@@H](NC(=O)Cn1ncc2ccccc2c1=O)C(=O)OCCOC(=O)c1ccc(-c2c3nc(c(-c4c(F)c(F)c(F)c(F)c4F)c4ccc([nH]4)c(-c4c(F)c(F)c(F)c(F)c4F)c4nc(c(-c5c(F)c(F)c(F)c(F)c5F)c5ccc2[nH]5)C=C4)C=C3)cc1
REMARK SMILES IDX 24 1 23 2 21 3 22 4 5 5 3 6 4 7 2 8 1 9 6 10 7 11 8 13 9 14
REMARK SMILES IDX 10 15 11 16 19 17 12 18 18 19 20 20 13 21 17 22 14 23 16 24
REMARK SMILES IDX 15 25 25 26 26 27 27 28 28 29 29 30 30 31 91 32 31 33 90 34
REMARK SMILES IDX 32 35 33 36 34 37 84 38 35 39 89 40 83 41 85 42 36 43 88 44
REMARK SMILES IDX 82 45 81 46 37 48 69 49 49 50 68 51 50 52 53 53 67 54 86 55
REMARK SMILES IDX 51 56 52 57 66 59 87 60 54 61 38 62 39 63 47 64 40 65 41 66
REMARK SMILES IDX 45 67 48 68 42 69 43 70 46 71 44 72 70 73 71 74 79 75 72 76
REMARK SMILES IDX 73 77 77 78 80 79 74 80 75 81 78 82 76 83 55 84 56 85 64 86
REMARK SMILES IDX 57 87 58 88 62 89 65 90 59 91 60 92 63 93 61 94
REMARK H PARENT 6 12 85 47 53 58
REMARK Flexibility Score: inf
ROOT
ATOM      1  C   UNL A   1      31.599  29.303  24.758  1.00  0.00     0.274 C 
ENDROOT
BRANCH   1   2
ATOM      2  O   UNL A   1      30.469  29.477  23.869  1.00  0.00    -0.461 OA
BRANCH   2   3
ATOM      3  C   UNL A   1      30.434  28.674  22.777  1.00  0.00     0.329 C 
ATOM      4  O   UNL A   1      30.015  29.039  21.678  1.00  0.00    -0.250 OA
BRANCH   3   5
ATOM      5  C   UNL A   1      30.845  27.202  23.019  1.00  0.00     0.195 C 
BRANCH   5   6
ATOM      6  C   UNL A   1      30.011  26.164  23.832  1.00  0.00     0.019 C 
ATOM      7  C   UNL A   1      28.517  26.482  23.890  1.00  0.00     0.010 C 
BRANCH   6   8
ATOM      8  C   UNL A   1      30.574  26.009  25.273  1.00  0.00     0.002 C 
ATOM      9  C   UNL A   1      30.317  24.635  25.887  1.00  0.00     0.004 C 
ENDBRANCH   6   8
ENDBRANCH   5   6
BRANCH   5  10
ATOM     10  N   UNL A   1      31.435  26.628  21.793  1.00  0.00    -0.341 N 
ATOM     11  C   UNL A   1      32.674  26.136  21.495  1.00  0.00     0.242 C 
ATOM     12  H   UNL A   1      30.807  26.592  21.036  1.00  0.00     0.164 HD
ATOM     13  O   UNL A   1      32.900  25.953  20.292  1.00  0.00    -0.273 OA
BRANCH  11  14
ATOM     14  C   UNL A   1      33.667  25.618  22.547  1.00  0.00     0.248 C 
BRANCH  14  15
ATOM     15  N   UNL A   1      33.318  24.525  23.450  1.00  0.00    -0.220 N 
ATOM     16  N   UNL A   1      32.494  23.549  22.979  1.00  0.00    -0.177 NA
ATOM     17  C   UNL A   1      33.918  24.485  24.713  1.00  0.00     0.275 A 
ATOM     18  C   UNL A   1      32.386  22.442  23.641  1.00  0.00     0.142 A 
ATOM     19  C   UNL A   1      33.747  23.233  25.482  1.00  0.00     0.050 A 
ATOM     20  O   UNL A   1      34.634  25.374  25.166  1.00  0.00    -0.267 OA
ATOM     21  C   UNL A   1      33.063  22.180  24.895  1.00  0.00     0.007 A 
ATOM     22  C   UNL A   1      34.339  23.048  26.734  1.00  0.00     0.014 A 
ATOM     23  C   UNL A   1      33.007  20.919  25.487  1.00  0.00     0.010 A 
ATOM     24  C   UNL A   1      34.265  21.798  27.356  1.00  0.00     0.001 A 
ATOM     25  C   UNL A   1      33.620  20.730  26.723  1.00  0.00     0.001 A 
ENDBRANCH  14  15
ENDBRANCH  11  14
ENDBRANCH   5  10
ENDBRANCH   3   5
ENDBRANCH   2   3
ENDBRANCH   1   2
BRANCH   1  26
ATOM     26  C   UNL A   1      31.706  30.449  25.759  1.00  0.00     0.275 C 
BRANCH  26  27
ATOM     27  O   UNL A   1      33.026  30.452  26.314  1.00  0.00    -0.458 OA
BRANCH  27  28
ATOM     28  C   UNL A   1      33.320  31.524  27.081  1.00  0.00     0.338 C 
ATOM     29  O   UNL A   1      32.627  32.493  27.324  1.00  0.00    -0.246 OA
BRANCH  28  30
ATOM     30  C   UNL A   1      34.584  31.219  27.752  1.00  0.00     0.060 A 
ATOM     31  C   UNL A   1      35.503  32.234  27.998  1.00  0.00     0.016 A 
ATOM     32  C   UNL A   1      34.855  29.893  28.102  1.00  0.00     0.016 A 
ATOM     33  C   UNL A   1      36.712  31.907  28.597  1.00  0.00     0.010 A 
ATOM     34  C   UNL A   1      36.056  29.566  28.714  1.00  0.00     0.010 A 
ATOM     35  C   UNL A   1      36.989  30.576  28.959  1.00  0.00    -0.014 A 
BRANCH  35  36
ATOM     36  C   UNL A   1      38.235  30.277  29.684  1.00  0.00     0.031 A 
ATOM     37  C   UNL A   1      38.444  30.770  31.077  1.00  0.00     0.074 A 
ATOM     38  C   UNL A   1      39.141  29.505  29.062  1.00  0.00     0.049 A 
ATOM     39  N   UNL A   1      39.359  30.412  31.939  1.00  0.00    -0.248 NA
ATOM     40  C   UNL A   1      37.515  31.798  31.570  1.00  0.00     0.031 C 
ATOM     41  C   UNL A   1      39.031  29.045  27.675  1.00  0.00     0.029 A 
ATOM     42  N   UNL A   1      40.301  28.942  29.515  1.00  0.00    -0.354 N 
ATOM     43  C   UNL A   1      39.093  31.139  33.089  1.00  0.00     0.074 A 
ATOM     44  C   UNL A   1      37.976  32.011  32.796  1.00  0.00     0.031 C 
ATOM     45  C   UNL A   1      40.050  28.215  27.411  1.00  0.00     0.029 A 
ATOM     46  C   UNL A   1      40.882  28.096  28.603  1.00  0.00     0.049 A 
ATOM     47  H   UNL A   1      40.681  29.122  30.404  1.00  0.00     0.167 HD
ATOM     48  C   UNL A   1      39.717  31.051  34.287  1.00  0.00     0.037 A 
ATOM     49  C   UNL A   1      41.947  27.286  28.737  1.00  0.00     0.037 A 
ATOM     50  C   UNL A   1      40.841  30.186  34.536  1.00  0.00     0.049 A 
ATOM     51  C   UNL A   1      42.627  27.218  30.073  1.00  0.00     0.074 A 
ATOM     52  C   UNL A   1      41.538  29.992  35.714  1.00  0.00     0.029 A 
ATOM     53  N   UNL A   1      41.439  29.377  33.578  1.00  0.00    -0.354 N 
ATOM     54  N   UNL A   1      42.316  27.833  31.189  1.00  0.00    -0.248 NA
ATOM     55  C   UNL A   1      43.796  26.337  30.176  1.00  0.00     0.031 C 
ATOM     56  C   UNL A   1      42.586  29.102  35.458  1.00  0.00     0.029 A 
ATOM     57  C   UNL A   1      42.514  28.702  34.131  1.00  0.00     0.049 A 
ATOM     58  H   UNL A   1      41.142  29.296  32.643  1.00  0.00     0.167 HD
ATOM     59  C   UNL A   1      43.241  27.408  32.131  1.00  0.00     0.074 A 
ATOM     60  C   UNL A   1      44.109  26.462  31.459  1.00  0.00     0.031 C 
ATOM     61  C   UNL A   1      43.366  27.774  33.430  1.00  0.00     0.037 A 
BRANCH  48  62
ATOM     62  C   UNL A   1      39.191  31.890  35.415  1.00  0.00     0.064 A 
ATOM     63  C   UNL A   1      38.335  31.349  36.386  1.00  0.00     0.173 A 
ATOM     64  C   UNL A   1      39.598  33.223  35.571  1.00  0.00     0.173 A 
ATOM     65  F   UNL A   1      37.909  30.081  36.279  1.00  0.00    -0.203 F 
ATOM     66  C   UNL A   1      37.894  32.115  37.462  1.00  0.00     0.198 A 
ATOM     67  C   UNL A   1      39.176  33.979  36.663  1.00  0.00     0.198 A 
ATOM     68  F   UNL A   1      40.422  33.789  34.675  1.00  0.00    -0.203 F 
ATOM     69  F   UNL A   1      37.054  31.583  38.362  1.00  0.00    -0.200 F 
ATOM     70  C   UNL A   1      38.323  33.425  37.606  1.00  0.00     0.200 A 
ATOM     71  F   UNL A   1      39.602  35.242  36.808  1.00  0.00    -0.200 F 
ATOM     72  F   UNL A   1      37.913  34.155  38.652  1.00  0.00    -0.200 F 
ENDBRANCH  48  62
BRANCH  49  73
ATOM     73  C   UNL A   1      42.364  26.436  27.594  1.00  0.00     0.064 A 
ATOM     74  C   UNL A   1      43.387  26.846  26.727  1.00  0.00     0.173 A 
ATOM     75  C   UNL A   1      41.793  25.173  27.379  1.00  0.00     0.173 A 
ATOM     76  F   UNL A   1      43.959  28.047  26.886  1.00  0.00    -0.203 F 
ATOM     77  C   UNL A   1      43.819  26.025  25.686  1.00  0.00     0.198 A 
ATOM     78  C   UNL A   1      42.244  24.343  26.356  1.00  0.00     0.198 A 
ATOM     79  F   UNL A   1      40.821  24.729  28.190  1.00  0.00    -0.203 F 
ATOM     80  F   UNL A   1      44.783  26.449  24.858  1.00  0.00    -0.200 F 
ATOM     81  C   UNL A   1      43.254  24.771  25.507  1.00  0.00     0.200 A 
ATOM     82  F   UNL A   1      41.710  23.124  26.199  1.00  0.00    -0.200 F 
ATOM     83  F   UNL A   1      43.683  23.975  24.518  1.00  0.00    -0.200 F 
ENDBRANCH  49  73
BRANCH  61  84
ATOM     84  C   UNL A   1      44.491  27.155  34.205  1.00  0.00     0.064 A 
ATOM     85  C   UNL A   1      44.338  25.917  34.845  1.00  0.00     0.173 A 
ATOM     86  C   UNL A   1      45.750  27.771  34.249  1.00  0.00     0.173 A 
ATOM     87  F   UNL A   1      43.147  25.297  34.841  1.00  0.00    -0.203 F 
ATOM     88  C   UNL A   1      45.403  25.324  35.516  1.00  0.00     0.198 A 
ATOM     89  C   UNL A   1      46.820  27.161  34.896  1.00  0.00     0.198 A 
ATOM     90  F   UNL A   1      45.948  28.953  33.646  1.00  0.00    -0.203 F 
ATOM     91  F   UNL A   1      45.226  24.158  36.152  1.00  0.00    -0.200 F 
ATOM     92  C   UNL A   1      46.645  25.941  35.532  1.00  0.00     0.200 A 
ATOM     93  F   UNL A   1      48.024  27.751  34.898  1.00  0.00    -0.200 F 
ATOM     94  F   UNL A   1      47.673  25.361  36.165  1.00  0.00    -0.200 F 
ENDBRANCH  61  84
ENDBRANCH  35  36
ENDBRANCH  28  30
ENDBRANCH  27  28
ENDBRANCH  26  27
ENDBRANCH   1  26
TORSDOF 16
ENDMDL
MODEL 3
REMARK VINA RESULT:     -12.5      0.279      1.597
REMARK SMILES CC[C@@H](C)[C@@H](NC(=O)Cn1ncc2ccccc2c1=O)C(=O)OCCOC(=O)c1ccc(-c2c3nc(c(-c4c(F)c(F)c(F)c(F)c4F)c4ccc([nH]4)c(-c4c(F)c(F)c(F)c(F)c4F)c4nc(c(-c5c(F)c(F)c(F)c(F)c5F)c5ccc2[nH]5)C=C4)C=C3)cc1
REMARK SMILES IDX 24 1 23 2 21 3 22 4 5 5 3 6 4 7 2 8 1 9 6 10 7 11 8 13 9 14
REMARK SMILES IDX 10 15 11 16 19 17 12 18 18 19 20 20 13 21 17 22 14 23 16 24
REMARK SMILES IDX 15 25 25 26 26 27 27 28 28 29 29 30 30 31 91 32 31 33 90 34
REMARK SMILES IDX 32 35 33 36 34 37 84 38 35 39 89 40 83 41 85 42 36 43 88 44
REMARK SMILES IDX 82 45 81 46 37 48 69 49 49 50 68 51 50 52 53 53 67 54 86 55
REMARK SMILES IDX 51 56 52 57 66 59 87 60 54 61 38 62 39 63 47 64 40 65 41 66
REMARK SMILES IDX 45 67 48 68 42 69 43 70 46 71 44 72 70 73 71 74 79 75 72 76
REMARK SMILES IDX 73 77 77 78 80 79 74 80 75 81 78 82 76 83 55 84 56 85 64 86
REMARK SMILES IDX 57 87 58 88 62 89 65 90 59 91 60 92 63 93 61 94
REMARK H PARENT 6 12 85 47 53 58
REMARK Flexibility Score: inf
ROOT
ATOM      1  C   UNL A   1      31.884  29.318  24.684  1.00  0.00     0.274 C 
ENDROOT
BRANCH   1   2
ATOM      2  O   UNL A   1      30.669  29.477  23.911  1.00  0.00    -0.461 OA
BRANCH   2   3
ATOM      3  C   UNL A   1      30.514  28.640  22.855  1.00  0.00     0.329 C 
ATOM      4  O   UNL A   1      29.954  28.964  21.808  1.00  0.00    -0.250 OA
BRANCH   3   5
ATOM      5  C   UNL A   1      30.982  27.183  23.085  1.00  0.00     0.195 C 
BRANCH   5   6
ATOM      6  C   UNL A   1      30.183  26.103  23.879  1.00  0.00     0.019 C 
ATOM      7  C   UNL A   1      28.691  26.410  24.006  1.00  0.00     0.010 C 
BRANCH   6   8
ATOM      8  C   UNL A   1      30.799  25.884  25.289  1.00  0.00     0.002 C 
ATOM      9  C   UNL A   1      30.649  24.456  25.808  1.00  0.00     0.004 C 
ENDBRANCH   6   8
ENDBRANCH   5   6
BRANCH   5  10
ATOM     10  N   UNL A   1      31.608  26.647  21.860  1.00  0.00    -0.341 N 
ATOM     11  C   UNL A   1      32.805  26.039  21.612  1.00  0.00     0.242 C 
ATOM     12  H   UNL A   1      31.047  26.749  21.057  1.00  0.00     0.164 HD
ATOM     13  O   UNL A   1      33.111  25.931  20.418  1.00  0.00    -0.273 OA
BRANCH  11  14
ATOM     14  C   UNL A   1      33.640  25.320  22.684  1.00  0.00     0.248 C 
BRANCH  14  15
ATOM     15  N   UNL A   1      33.271  23.996  23.175  1.00  0.00    -0.220 N 
ATOM     16  N   UNL A   1      32.069  23.486  22.789  1.00  0.00    -0.177 NA
ATOM     17  C   UNL A   1      34.202  23.283  23.937  1.00  0.00     0.275 A 
ATOM     18  C   UNL A   1      31.830  22.227  22.972  1.00  0.00     0.142 A 
ATOM     19  C   UNL A   1      33.896  21.856  24.182  1.00  0.00     0.050 A 
ATOM     20  O   UNL A   1      35.274  23.741  24.324  1.00  0.00    -0.267 OA
ATOM     21  C   UNL A   1      32.756  21.313  23.611  1.00  0.00     0.007 A 
ATOM     22  C   UNL A   1      34.770  21.024  24.885  1.00  0.00     0.014 A 
ATOM     23  C   UNL A   1      32.492  19.945  23.658  1.00  0.00     0.010 A 
ATOM     24  C   UNL A   1      34.502  19.653  24.968  1.00  0.00     0.001 A 
ATOM     25  C   UNL A   1      33.378  19.113  24.337  1.00  0.00     0.001 A 
ENDBRANCH  14  15
ENDBRANCH  11  14
ENDBRANCH   5  10
ENDBRANCH   3   5
ENDBRANCH   2   3
ENDBRANCH   1   2
BRANCH   1  26
ATOM     26  C   UNL A   1      31.911  30.259  25.884  1.00  0.00     0.275 C 
BRANCH  26  27
ATOM     27  O   UNL A   1      33.228  30.248  26.446  1.00  0.00    -0.458 OA
BRANCH  27  28
ATOM     28  C   UNL A   1      33.569  31.366  27.123  1.00  0.00     0.338 C 
ATOM     29  O   UNL A   1      32.906  32.367  27.313  1.00  0.00    -0.246 OA
BRANCH  28  30
ATOM     30  C   UNL A   1      34.845  31.079  27.778  1.00  0.00     0.060 A 
ATOM     31  C   UNL A   1      35.756  32.107  28.003  1.00  0.00     0.016 A 
ATOM     32  C   UNL A   1      35.135  29.760  28.136  1.00  0.00     0.016 A 
ATOM     33  C   UNL A   1      36.977  31.798  28.588  1.00  0.00     0.010 A 
ATOM     34  C   UNL A   1      36.348  29.451  28.734  1.00  0.00     0.010 A 
ATOM     35  C   UNL A   1      37.273  30.472  28.958  1.00  0.00    -0.014 A 
BRANCH  35  36
ATOM     36  C   UNL A   1      38.532  30.193  29.668  1.00  0.00     0.031 A 
ATOM     37  C   UNL A   1      38.777  30.745  31.032  1.00  0.00     0.074 A 
ATOM     38  C   UNL A   1      39.416  29.385  29.061  1.00  0.00     0.049 A 
ATOM     39  N   UNL A   1      39.707  30.416  31.890  1.00  0.00    -0.248 NA
ATOM     40  C   UNL A   1      37.869  31.804  31.499  1.00  0.00     0.031 C 
ATOM     41  C   UNL A   1      39.271  28.864  27.699  1.00  0.00     0.029 A 
ATOM     42  N   UNL A   1      40.581  28.829  29.514  1.00  0.00    -0.354 N 
ATOM     43  C   UNL A   1      39.474  31.197  33.011  1.00  0.00     0.074 A 
ATOM     44  C   UNL A   1      38.360  32.066  32.704  1.00  0.00     0.031 C 
ATOM     45  C   UNL A   1      40.276  28.012  27.450  1.00  0.00     0.029 A 
ATOM     46  C   UNL A   1      41.134  27.938  28.628  1.00  0.00     0.049 A 
ATOM     47  H   UNL A   1      40.983  29.046  30.385  1.00  0.00     0.167 HD
ATOM     48  C   UNL A   1      40.124  31.156  34.198  1.00  0.00     0.037 A 
ATOM     49  C   UNL A   1      42.193  27.123  28.774  1.00  0.00     0.037 A 
ATOM     50  C   UNL A   1      41.245  30.291  34.461  1.00  0.00     0.049 A 
ATOM     51  C   UNL A   1      42.902  27.108  30.098  1.00  0.00     0.074 A 
ATOM     52  C   UNL A   1      41.966  30.142  35.631  1.00  0.00     0.029 A 
ATOM     53  N   UNL A   1      41.813  29.433  33.527  1.00  0.00    -0.354 N 
ATOM     54  N   UNL A   1      42.622  27.775  31.191  1.00  0.00    -0.248 NA
ATOM     55  C   UNL A   1      44.064  26.219  30.214  1.00  0.00     0.031 C 
ATOM     56  C   UNL A   1      43.000  29.230  35.391  1.00  0.00     0.029 A 
ATOM     57  C   UNL A   1      42.894  28.773  34.086  1.00  0.00     0.049 A 
ATOM     58  H   UNL A   1      41.495  29.314  32.603  1.00  0.00     0.167 HD
ATOM     59  C   UNL A   1      43.563  27.383  32.130  1.00  0.00     0.074 A 
ATOM     60  C   UNL A   1      44.407  26.398  31.482  1.00  0.00     0.031 C 
ATOM     61  C   UNL A   1      43.721  27.805  33.409  1.00  0.00     0.037 A 
BRANCH  48  62
ATOM     62  C   UNL A   1      39.632  32.049  35.298  1.00  0.00     0.064 A 
ATOM     63  C   UNL A   1      40.045  33.388  35.389  1.00  0.00     0.173 A 
ATOM     64  C   UNL A   1      38.688  31.592  36.229  1.00  0.00     0.173 A 
ATOM     65  F   UNL A   1      40.953  33.873  34.528  1.00  0.00    -0.203 F 
ATOM     66  C   UNL A   1      39.543  34.229  36.378  1.00  0.00     0.198 A 
ATOM     67  C   UNL A   1      38.169  32.443  37.202  1.00  0.00     0.198 A 
ATOM     68  F   UNL A   1      38.254  30.322  36.185  1.00  0.00    -0.203 F 
ATOM     69  F   UNL A   1      39.975  35.496  36.460  1.00  0.00    -0.200 F 
ATOM     70  C   UNL A   1      38.598  33.760  37.277  1.00  0.00     0.200 A 
ATOM     71  F   UNL A   1      37.244  31.992  38.062  1.00  0.00    -0.200 F 
ATOM     72  F   UNL A   1      38.102  34.576  38.217  1.00  0.00    -0.200 F 
ENDBRANCH  48  62
BRANCH  49  73
ATOM     73  C   UNL A   1      42.576  26.219  27.662  1.00  0.00     0.064 A 
ATOM     74  C   UNL A   1      41.931  24.987  27.480  1.00  0.00     0.173 A 
ATOM     75  C   UNL A   1      43.548  26.592  26.722  1.00  0.00     0.173 A 
ATOM     76  F   UNL A   1      41.000  24.583  28.355  1.00  0.00    -0.203 F 
ATOM     77  C   UNL A   1      42.249  24.161  26.403  1.00  0.00     0.198 A 
ATOM     78  C   UNL A   1      43.845  25.778  25.631  1.00  0.00     0.198 A 
ATOM     79  F   UNL A   1      44.182  27.767  26.843  1.00  0.00    -0.203 F 
ATOM     80  F   UNL A   1      41.634  22.978  26.264  1.00  0.00    -0.200 F 
ATOM     81  C   UNL A   1      43.199  24.561  25.475  1.00  0.00     0.200 A 
ATOM     82  F   UNL A   1      44.748  26.178  24.726  1.00  0.00    -0.200 F 
ATOM     83  F   UNL A   1      43.490  23.775  24.429  1.00  0.00    -0.200 F 
ENDBRANCH  49  73
BRANCH  61  84
ATOM     84  C   UNL A   1      44.857  27.209  34.186  1.00  0.00     0.064 A 
ATOM     85  C   UNL A   1      46.110  27.836  34.238  1.00  0.00     0.173 A 
ATOM     86  C   UNL A   1      44.670  26.042  34.942  1.00  0.00     0.173 A 
ATOM     87  F   UNL A   1      46.339  28.947  33.520  1.00  0.00    -0.203 F 
ATOM     88  C   UNL A   1      47.142  27.306  35.006  1.00  0.00     0.198 A 
ATOM     89  C   UNL A   1      45.696  25.532  35.732  1.00  0.00     0.198 A 
ATOM     90  F   UNL A   1      43.486  25.411  34.932  1.00  0.00    -0.203 F 
ATOM     91  F   UNL A   1      48.343  27.900  35.011  1.00  0.00    -0.200 F 
ATOM     92  C   UNL A   1      46.931  26.162  35.760  1.00  0.00     0.200 A 
ATOM     93  F   UNL A   1      45.485  24.435  36.473  1.00  0.00    -0.200 F 
ATOM     94  F   UNL A   1      47.921  25.662  36.511  1.00  0.00    -0.200 F 
ENDBRANCH  61  84
ENDBRANCH  35  36
ENDBRANCH  28  30
ENDBRANCH  27  28
ENDBRANCH  26  27
ENDBRANCH   1  26
TORSDOF 16
ENDMDL
