MODEL 1
REMARK VINA RESULT:     -12.9      0.000      0.000
REMARK SMILES Cc1cc(Cl)c2c(c1)C=C(C(=O)OCCOC(=O)c1ccc(-c3c4nc(c(-c5c(F)c(F)c(F)c(F)c5F)c5ccc([nH]5)c(-c5c(F)c(F)c(F)c(F)c5F)c5nc(c(-c6c(F)c(F)c(F)c(F)c6F)c6ccc3[nH]6)C=C5)C=C4)cc1)[C@@H](C(F)(F)F)O2
REMARK SMILES IDX 15 1 14 2 13 3 11 4 12 5 10 6 1 7 2 8 3 9 8 10 4 11 7 12
REMARK SMILES IDX 5 13 6 14 9 15 87 16 82 17 83 18 84 19 85 20 86 21 16 22
REMARK SMILES IDX 17 23 18 24 19 25 20 26 81 27 21 28 80 29 22 30 23 31 24 32
REMARK SMILES IDX 74 33 25 34 79 35 73 36 75 37 26 38 78 39 72 40 71 41 27 43
REMARK SMILES IDX 59 44 39 45 58 46 40 47 43 48 57 49 76 50 41 51 42 52 56 54
REMARK SMILES IDX 77 55 44 56 28 57 29 58 37 59 30 60 31 61 35 62 38 63 32 64
REMARK SMILES IDX 33 65 36 66 34 67 60 68 61 69 69 70 62 71 63 72 67 73 70 74
REMARK SMILES IDX 64 75 65 76 68 77 66 78 45 79 46 80 54 81 47 82 48 83 52 84
REMARK SMILES IDX 55 85 49 86 50 87 53 88 51 89
REMARK H PARENT 75 42 43 53
REMARK Flexibility Score: inf
ROOT
ATOM      1  C   UNL A   1      31.646  30.477  25.667  1.00  0.00     0.275 C 
ENDROOT
BRANCH   1   2
ATOM      2  C   UNL A   1      31.441  29.076  25.090  1.00  0.00     0.275 C 
BRANCH   2   3
ATOM      3  O   UNL A   1      32.346  28.121  25.687  1.00  0.00    -0.459 OA
BRANCH   3   4
ATOM      4  C   UNL A   1      31.762  27.169  26.450  1.00  0.00     0.338 C 
ATOM      5  O   UNL A   1      30.969  27.350  27.361  1.00  0.00    -0.246 OA
BRANCH   4   6
ATOM      6  C   UNL A   1      32.180  25.824  26.016  1.00  0.00     0.087 C 
ATOM      7  C   UNL A   1      37.286  22.661  24.675  1.00  0.00     0.044 C 
ATOM      8  C   UNL A   1      35.807  22.883  24.798  1.00  0.00    -0.049 A 
ATOM      9  C   UNL A   1      34.887  21.976  24.261  1.00  0.00     0.028 A 
ATOM     10  C   UNL A   1      35.328  24.049  25.398  1.00  0.00     0.015 A 
ATOM     11  C   UNL A   1      33.509  22.223  24.351  1.00  0.00     0.084 A 
ATOM     12  C   UNL A   1      33.950  24.304  25.468  1.00  0.00     0.019 A 
ATOM     13  Cl  UNL A   1      32.427  21.061  23.671  1.00  0.00    -0.080 Cl
ATOM     14  C   UNL A   1      33.030  23.392  24.953  1.00  0.00     0.146 A 
ATOM     15  C   UNL A   1      33.487  25.551  26.040  1.00  0.00     0.027 C 
ATOM     16  O   UNL A   1      31.676  23.590  25.030  1.00  0.00    -0.474 OA
ATOM     17  C   UNL A   1      31.161  24.892  25.426  1.00  0.00     0.316 C 
BRANCH  17  18
ATOM     18  C   UNL A   1      30.447  25.538  24.227  1.00  0.00     0.430 C 
ATOM     19  F   UNL A   1      31.305  26.253  23.463  1.00  0.00    -0.167 F 
ATOM     20  F   UNL A   1      29.895  24.601  23.418  1.00  0.00    -0.167 F 
ATOM     21  F   UNL A   1      29.454  26.370  24.616  1.00  0.00    -0.167 F 
ENDBRANCH  17  18
ENDBRANCH   4   6
ENDBRANCH   3   4
ENDBRANCH   2   3
ENDBRANCH   1   2
BRANCH   1  22
ATOM     22  O   UNL A   1      32.414  30.411  26.883  1.00  0.00    -0.458 OA
BRANCH  22  23
ATOM     23  C   UNL A   1      33.074  31.543  27.212  1.00  0.00     0.338 C 
ATOM     24  O   UNL A   1      32.633  32.678  27.248  1.00  0.00    -0.246 OA
BRANCH  23  25
ATOM     25  C   UNL A   1      34.451  31.230  27.624  1.00  0.00     0.060 A 
ATOM     26  C   UNL A   1      34.786  29.905  27.871  1.00  0.00     0.016 A 
ATOM     27  C   UNL A   1      35.336  32.247  27.972  1.00  0.00     0.016 A 
ATOM     28  C   UNL A   1      35.914  29.600  28.624  1.00  0.00     0.010 A 
ATOM     29  C   UNL A   1      36.552  31.922  28.589  1.00  0.00     0.010 A 
ATOM     30  C   UNL A   1      36.832  30.599  28.978  1.00  0.00    -0.014 A 
BRANCH  30  31
ATOM     31  C   UNL A   1      38.050  30.260  29.774  1.00  0.00     0.031 A 
ATOM     32  C   UNL A   1      39.145  29.411  29.173  1.00  0.00     0.074 A 
ATOM     33  C   UNL A   1      38.203  30.736  31.028  1.00  0.00     0.049 A 
ATOM     34  N   UNL A   1      40.181  28.859  29.756  1.00  0.00    -0.248 NA
ATOM     35  C   UNL A   1      39.061  29.136  27.729  1.00  0.00     0.031 C 
ATOM     36  C   UNL A   1      37.262  31.617  31.722  1.00  0.00     0.029 A 
ATOM     37  N   UNL A   1      39.217  30.562  31.940  1.00  0.00    -0.354 N 
ATOM     38  C   UNL A   1      40.831  28.127  28.769  1.00  0.00     0.074 A 
ATOM     39  C   UNL A   1      40.073  28.298  27.549  1.00  0.00     0.031 C 
ATOM     40  C   UNL A   1      37.768  31.960  32.913  1.00  0.00     0.029 A 
ATOM     41  C   UNL A   1      39.011  31.229  33.124  1.00  0.00     0.049 A 
ATOM     42  H   UNL A   1      40.014  30.013  31.762  1.00  0.00     0.167 HD
ATOM     43  C   UNL A   1      41.960  27.384  28.873  1.00  0.00     0.037 A 
ATOM     44  C   UNL A   1      39.710  31.219  34.276  1.00  0.00     0.037 A 
ATOM     45  C   UNL A   1      42.746  27.267  30.075  1.00  0.00     0.049 A 
ATOM     46  C   UNL A   1      40.923  30.341  34.386  1.00  0.00     0.074 A 
ATOM     47  C   UNL A   1      43.906  26.542  30.280  1.00  0.00     0.029 A 
ATOM     48  N   UNL A   1      42.462  27.912  31.270  1.00  0.00    -0.354 N 
ATOM     49  N   UNL A   1      41.483  29.590  33.470  1.00  0.00    -0.248 NA
ATOM     50  C   UNL A   1      41.583  30.284  35.697  1.00  0.00     0.031 C 
ATOM     51  C   UNL A   1      44.304  26.716  31.608  1.00  0.00     0.029 A 
ATOM     52  C   UNL A   1      43.419  27.589  32.220  1.00  0.00     0.049 A 
ATOM     53  H   UNL A   1      41.695  28.510  31.422  1.00  0.00     0.167 HD
ATOM     54  C   UNL A   1      42.563  28.978  34.088  1.00  0.00     0.074 A 
ATOM     55  C   UNL A   1      42.596  29.464  35.451  1.00  0.00     0.031 C 
ATOM     56  C   UNL A   1      43.442  28.086  33.571  1.00  0.00     0.037 A 
BRANCH  43  57
ATOM     57  C   UNL A   1      42.415  26.616  27.664  1.00  0.00     0.064 A 
ATOM     58  C   UNL A   1      43.395  27.113  26.794  1.00  0.00     0.173 A 
ATOM     59  C   UNL A   1      41.910  25.329  27.416  1.00  0.00     0.173 A 
ATOM     60  F   UNL A   1      43.902  28.341  26.980  1.00  0.00    -0.203 F 
ATOM     61  C   UNL A   1      43.841  26.358  25.710  1.00  0.00     0.198 A 
ATOM     62  C   UNL A   1      42.379  24.565  26.349  1.00  0.00     0.198 A 
ATOM     63  F   UNL A   1      40.977  24.801  28.221  1.00  0.00    -0.203 F 
ATOM     64  F   UNL A   1      44.754  26.869  24.872  1.00  0.00    -0.200 F 
ATOM     65  C   UNL A   1      43.341  25.082  25.495  1.00  0.00     0.200 A 
ATOM     66  F   UNL A   1      41.906  23.327  26.153  1.00  0.00    -0.200 F 
ATOM     67  F   UNL A   1      43.784  24.352  24.462  1.00  0.00    -0.200 F 
ENDBRANCH  43  57
BRANCH  44  68
ATOM     68  C   UNL A   1      39.246  32.040  35.427  1.00  0.00     0.064 A 
ATOM     69  C   UNL A   1      38.410  31.492  36.410  1.00  0.00     0.173 A 
ATOM     70  C   UNL A   1      39.653  33.374  35.588  1.00  0.00     0.173 A 
ATOM     71  F   UNL A   1      37.972  30.230  36.288  1.00  0.00    -0.203 F 
ATOM     72  C   UNL A   1      38.002  32.245  37.508  1.00  0.00     0.198 A 
ATOM     73  C   UNL A   1      39.272  34.115  36.704  1.00  0.00     0.198 A 
ATOM     74  F   UNL A   1      40.450  33.948  34.675  1.00  0.00    -0.203 F 
ATOM     75  F   UNL A   1      37.177  31.708  38.417  1.00  0.00    -0.200 F 
ATOM     76  C   UNL A   1      38.442  33.552  37.661  1.00  0.00     0.200 A 
ATOM     77  F   UNL A   1      39.716  35.370  36.855  1.00  0.00    -0.200 F 
ATOM     78  F   UNL A   1      38.066  34.269  38.728  1.00  0.00    -0.200 F 
ENDBRANCH  44  68
BRANCH  56  79
ATOM     79  C   UNL A   1      44.531  27.588  34.475  1.00  0.00     0.064 A 
ATOM     80  C   UNL A   1      44.385  26.405  35.213  1.00  0.00     0.173 A 
ATOM     81  C   UNL A   1      45.756  28.268  34.552  1.00  0.00     0.173 A 
ATOM     82  F   UNL A   1      43.227  25.729  35.183  1.00  0.00    -0.203 F 
ATOM     83  C   UNL A   1      45.423  25.927  36.007  1.00  0.00     0.198 A 
ATOM     84  C   UNL A   1      46.801  27.772  35.326  1.00  0.00     0.198 A 
ATOM     85  F   UNL A   1      45.945  29.401  33.860  1.00  0.00    -0.203 F 
ATOM     86  F   UNL A   1      45.251  24.813  36.732  1.00  0.00    -0.200 F 
ATOM     87  C   UNL A   1      46.633  26.605  36.056  1.00  0.00     0.200 A 
ATOM     88  F   UNL A   1      47.974  28.420  35.360  1.00  0.00    -0.200 F 
ATOM     89  F   UNL A   1      47.636  26.135  36.809  1.00  0.00    -0.200 F 
ENDBRANCH  56  79
ENDBRANCH  30  31
ENDBRANCH  23  25
ENDBRANCH  22  23
ENDBRANCH   1  22
TORSDOF 12
ENDMDL
MODEL 2
REMARK VINA RESULT:     -12.8      0.118      1.615
REMARK SMILES Cc1cc(Cl)c2c(c1)C=C(C(=O)OCCOC(=O)c1ccc(-c3c4nc(c(-c5c(F)c(F)c(F)c(F)c5F)c5ccc([nH]5)c(-c5c(F)c(F)c(F)c(F)c5F)c5nc(c(-c6c(F)c(F)c(F)c(F)c6F)c6ccc3[nH]6)C=C5)C=C4)cc1)[C@@H](C(F)(F)F)O2
REMARK SMILES IDX 15 1 14 2 13 3 11 4 12 5 10 6 1 7 2 8 3 9 8 10 4 11 7 12
REMARK SMILES IDX 5 13 6 14 9 15 87 16 82 17 83 18 84 19 85 20 86 21 16 22
REMARK SMILES IDX 17 23 18 24 19 25 20 26 81 27 21 28 80 29 22 30 23 31 24 32
REMARK SMILES IDX 74 33 25 34 79 35 73 36 75 37 26 38 78 39 72 40 71 41 27 43
REMARK SMILES IDX 59 44 39 45 58 46 40 47 43 48 57 49 76 50 41 51 42 52 56 54
REMARK SMILES IDX 77 55 44 56 28 57 29 58 37 59 30 60 31 61 35 62 38 63 32 64
REMARK SMILES IDX 33 65 36 66 34 67 60 68 61 69 69 70 62 71 63 72 67 73 70 74
REMARK SMILES IDX 64 75 65 76 68 77 66 78 45 79 46 80 54 81 47 82 48 83 52 84
REMARK SMILES IDX 55 85 49 86 50 87 53 88 51 89
REMARK H PARENT 75 42 43 53
REMARK Flexibility Score: inf
ROOT
ATOM      1  C   UNL A   1      31.732  30.461  25.683  1.00  0.00     0.275 C 
ENDROOT
BRANCH   1   2
ATOM      2  C   UNL A   1      31.561  29.051  25.117  1.00  0.00     0.275 C 
BRANCH   2   3
ATOM      3  O   UNL A   1      32.447  28.110  25.764  1.00  0.00    -0.459 OA
BRANCH   3   4
ATOM      4  C   UNL A   1      31.838  27.151  26.496  1.00  0.00     0.338 C 
ATOM      5  O   UNL A   1      31.022  27.321  27.388  1.00  0.00    -0.246 OA
BRANCH   4   6
ATOM      6  C   UNL A   1      32.259  25.810  26.051  1.00  0.00     0.087 C 
ATOM      7  C   UNL A   1      37.367  22.687  24.625  1.00  0.00     0.044 C 
ATOM      8  C   UNL A   1      35.888  22.899  24.770  1.00  0.00    -0.049 A 
ATOM      9  C   UNL A   1      34.967  21.988  24.243  1.00  0.00     0.028 A 
ATOM     10  C   UNL A   1      35.409  24.059  25.381  1.00  0.00     0.015 A 
ATOM     11  C   UNL A   1      33.589  22.224  24.354  1.00  0.00     0.084 A 
ATOM     12  C   UNL A   1      34.031  24.305  25.472  1.00  0.00     0.019 A 
ATOM     13  Cl  UNL A   1      32.506  21.057  23.685  1.00  0.00    -0.080 Cl
ATOM     14  C   UNL A   1      33.110  23.388  24.967  1.00  0.00     0.146 A 
ATOM     15  C   UNL A   1      33.568  25.546  26.055  1.00  0.00     0.027 C 
ATOM     16  O   UNL A   1      31.756  23.577  25.063  1.00  0.00    -0.474 OA
ATOM     17  C   UNL A   1      31.238  24.874  25.472  1.00  0.00     0.316 C 
BRANCH  17  18
ATOM     18  C   UNL A   1      30.503  25.518  24.286  1.00  0.00     0.430 C 
ATOM     19  F   UNL A   1      31.349  26.219  23.497  1.00  0.00    -0.167 F 
ATOM     20  F   UNL A   1      29.922  24.582  23.496  1.00  0.00    -0.167 F 
ATOM     21  F   UNL A   1      29.528  26.363  24.692  1.00  0.00    -0.167 F 
ENDBRANCH  17  18
ENDBRANCH   4   6
ENDBRANCH   3   4
ENDBRANCH   2   3
ENDBRANCH   1   2
BRANCH   1  22
ATOM     22  O   UNL A   1      32.463  30.419  26.923  1.00  0.00    -0.458 OA
BRANCH  22  23
ATOM     23  C   UNL A   1      33.147  31.542  27.229  1.00  0.00     0.338 C 
ATOM     24  O   UNL A   1      32.727  32.686  27.255  1.00  0.00    -0.246 OA
BRANCH  23  25
ATOM     25  C   UNL A   1      34.522  31.209  27.632  1.00  0.00     0.060 A 
ATOM     26  C   UNL A   1      34.832  29.883  27.907  1.00  0.00     0.016 A 
ATOM     27  C   UNL A   1      35.433  32.214  27.944  1.00  0.00     0.016 A 
ATOM     28  C   UNL A   1      35.963  29.572  28.653  1.00  0.00     0.010 A 
ATOM     29  C   UNL A   1      36.650  31.878  28.553  1.00  0.00     0.010 A 
ATOM     30  C   UNL A   1      36.906  30.559  28.970  1.00  0.00    -0.014 A 
BRANCH  30  31
ATOM     31  C   UNL A   1      38.128  30.213  29.758  1.00  0.00     0.031 A 
ATOM     32  C   UNL A   1      39.211  29.353  29.153  1.00  0.00     0.074 A 
ATOM     33  C   UNL A   1      38.294  30.692  31.010  1.00  0.00     0.049 A 
ATOM     34  N   UNL A   1      40.247  28.794  29.730  1.00  0.00    -0.248 NA
ATOM     35  C   UNL A   1      39.114  29.073  27.711  1.00  0.00     0.031 C 
ATOM     36  C   UNL A   1      37.365  31.584  31.707  1.00  0.00     0.029 A 
ATOM     37  N   UNL A   1      39.313  30.513  31.915  1.00  0.00    -0.354 N 
ATOM     38  C   UNL A   1      40.883  28.053  28.742  1.00  0.00     0.074 A 
ATOM     39  C   UNL A   1      40.118  28.226  27.527  1.00  0.00     0.031 C 
ATOM     40  C   UNL A   1      37.883  31.927  32.893  1.00  0.00     0.029 A 
ATOM     41  C   UNL A   1      39.121  31.186  33.098  1.00  0.00     0.049 A 
ATOM     42  H   UNL A   1      40.104  29.956  31.734  1.00  0.00     0.167 HD
ATOM     43  C   UNL A   1      42.006  27.300  28.840  1.00  0.00     0.037 A 
ATOM     44  C   UNL A   1      39.828  31.174  34.245  1.00  0.00     0.037 A 
ATOM     45  C   UNL A   1      42.800  27.182  30.036  1.00  0.00     0.049 A 
ATOM     46  C   UNL A   1      41.034  30.287  34.349  1.00  0.00     0.074 A 
ATOM     47  C   UNL A   1      43.956  26.447  30.236  1.00  0.00     0.029 A 
ATOM     48  N   UNL A   1      42.531  27.833  31.232  1.00  0.00    -0.354 N 
ATOM     49  N   UNL A   1      41.581  29.527  33.432  1.00  0.00    -0.248 NA
ATOM     50  C   UNL A   1      41.704  30.229  35.655  1.00  0.00     0.031 C 
ATOM     51  C   UNL A   1      44.365  26.623  31.561  1.00  0.00     0.029 A 
ATOM     52  C   UNL A   1      43.492  27.506  32.176  1.00  0.00     0.049 A 
ATOM     53  H   UNL A   1      41.770  28.439  31.387  1.00  0.00     0.167 HD
ATOM     54  C   UNL A   1      42.661  28.909  34.044  1.00  0.00     0.074 A 
ATOM     55  C   UNL A   1      42.708  29.400  35.406  1.00  0.00     0.031 C 
ATOM     56  C   UNL A   1      43.529  28.007  33.525  1.00  0.00     0.037 A 
BRANCH  43  57
ATOM     57  C   UNL A   1      42.446  26.524  27.631  1.00  0.00     0.064 A 
ATOM     58  C   UNL A   1      43.425  27.009  26.753  1.00  0.00     0.173 A 
ATOM     59  C   UNL A   1      41.927  25.241  27.390  1.00  0.00     0.173 A 
ATOM     60  F   UNL A   1      43.946  28.232  26.932  1.00  0.00    -0.203 F 
ATOM     61  C   UNL A   1      43.858  26.246  25.669  1.00  0.00     0.198 A 
ATOM     62  C   UNL A   1      42.382  24.470  26.323  1.00  0.00     0.198 A 
ATOM     63  F   UNL A   1      40.994  24.725  28.203  1.00  0.00    -0.203 F 
ATOM     64  F   UNL A   1      44.770  26.745  24.823  1.00  0.00    -0.200 F 
ATOM     65  C   UNL A   1      43.343  24.974  25.461  1.00  0.00     0.200 A 
ATOM     66  F   UNL A   1      41.896  23.236  26.133  1.00  0.00    -0.200 F 
ATOM     67  F   UNL A   1      43.773  24.237  24.428  1.00  0.00    -0.200 F 
ENDBRANCH  43  57
BRANCH  44  68
ATOM     68  C   UNL A   1      39.380  32.004  35.396  1.00  0.00     0.064 A 
ATOM     69  C   UNL A   1      39.763  33.348  35.504  1.00  0.00     0.173 A 
ATOM     70  C   UNL A   1      38.538  31.485  36.391  1.00  0.00     0.173 A 
ATOM     71  F   UNL A   1      40.589  33.884  34.594  1.00  0.00    -0.203 F 
ATOM     72  C   UNL A   1      39.318  34.139  36.561  1.00  0.00     0.198 A 
ATOM     73  C   UNL A   1      38.066  32.286  37.428  1.00  0.00     0.198 A 
ATOM     74  F   UNL A   1      38.144  30.203  36.337  1.00  0.00    -0.203 F 
ATOM     75  F   UNL A   1      39.723  35.413  36.658  1.00  0.00    -0.200 F 
ATOM     76  C   UNL A   1      38.460  33.612  37.515  1.00  0.00     0.200 A 
ATOM     77  F   UNL A   1      37.222  31.776  38.335  1.00  0.00    -0.200 F 
ATOM     78  F   UNL A   1      38.016  34.380  38.519  1.00  0.00    -0.200 F 
ENDBRANCH  44  68
BRANCH  56  79
ATOM     79  C   UNL A   1      44.620  27.504  34.423  1.00  0.00     0.064 A 
ATOM     80  C   UNL A   1      45.830  28.198  34.564  1.00  0.00     0.173 A 
ATOM     81  C   UNL A   1      44.425  26.351  35.199  1.00  0.00     0.173 A 
ATOM     82  F   UNL A   1      46.067  29.297  33.832  1.00  0.00    -0.203 F 
ATOM     83  C   UNL A   1      46.812  27.748  35.441  1.00  0.00     0.198 A 
ATOM     84  C   UNL A   1      45.399  25.920  36.094  1.00  0.00     0.198 A 
ATOM     85  F   UNL A   1      43.282  25.656  35.104  1.00  0.00    -0.203 F 
ATOM     86  F   UNL A   1      47.976  28.407  35.535  1.00  0.00    -0.200 F 
ATOM     87  C   UNL A   1      46.593  26.616  36.212  1.00  0.00     0.200 A 
ATOM     88  F   UNL A   1      45.180  24.834  36.850  1.00  0.00    -0.200 F 
ATOM     89  F   UNL A   1      47.534  26.193  37.066  1.00  0.00    -0.200 F 
ENDBRANCH  56  79
ENDBRANCH  30  31
ENDBRANCH  23  25
ENDBRANCH  22  23
ENDBRANCH   1  22
TORSDOF 12
ENDMDL
MODEL 3
REMARK VINA RESULT:     -12.8      0.108      1.145
REMARK SMILES Cc1cc(Cl)c2c(c1)C=C(C(=O)OCCOC(=O)c1ccc(-c3c4nc(c(-c5c(F)c(F)c(F)c(F)c5F)c5ccc([nH]5)c(-c5c(F)c(F)c(F)c(F)c5F)c5nc(c(-c6c(F)c(F)c(F)c(F)c6F)c6ccc3[nH]6)C=C5)C=C4)cc1)[C@@H](C(F)(F)F)O2
REMARK SMILES IDX 15 1 14 2 13 3 11 4 12 5 10 6 1 7 2 8 3 9 8 10 4 11 7 12
REMARK SMILES IDX 5 13 6 14 9 15 87 16 82 17 83 18 84 19 85 20 86 21 16 22
REMARK SMILES IDX 17 23 18 24 19 25 20 26 81 27 21 28 80 29 22 30 23 31 24 32
REMARK SMILES IDX 74 33 25 34 79 35 73 36 75 37 26 38 78 39 72 40 71 41 27 43
REMARK SMILES IDX 59 44 39 45 58 46 40 47 43 48 57 49 76 50 41 51 42 52 56 54
REMARK SMILES IDX 77 55 44 56 28 57 29 58 37 59 30 60 31 61 35 62 38 63 32 64
REMARK SMILES IDX 33 65 36 66 34 67 60 68 61 69 69 70 62 71 63 72 67 73 70 74
REMARK SMILES IDX 64 75 65 76 68 77 66 78 45 79 46 80 54 81 47 82 48 83 52 84
REMARK SMILES IDX 55 85 49 86 50 87 53 88 51 89
REMARK H PARENT 75 42 43 53
REMARK Flexibility Score: inf
ROOT
ATOM      1  C   UNL A   1      31.651  30.456  25.678  1.00  0.00     0.275 C 
ENDROOT
BRANCH   1   2
ATOM      2  C   UNL A   1      31.508  29.068  25.051  1.00  0.00     0.275 C 
BRANCH   2   3
ATOM      3  O   UNL A   1      32.412  28.119  25.658  1.00  0.00    -0.459 OA
BRANCH   3   4
ATOM      4  C   UNL A   1      31.828  27.171  26.425  1.00  0.00     0.338 C 
ATOM      5  O   UNL A   1      31.030  27.355  27.330  1.00  0.00    -0.246 OA
BRANCH   4   6
ATOM      6  C   UNL A   1      32.252  25.824  26.003  1.00  0.00     0.087 C 
ATOM      7  C   UNL A   1      37.370  22.686  24.645  1.00  0.00     0.044 C 
ATOM      8  C   UNL A   1      35.890  22.898  24.781  1.00  0.00    -0.049 A 
ATOM      9  C   UNL A   1      34.972  21.978  24.265  1.00  0.00     0.028 A 
ATOM     10  C   UNL A   1      35.408  24.067  25.372  1.00  0.00     0.015 A 
ATOM     11  C   UNL A   1      33.593  22.214  24.367  1.00  0.00     0.084 A 
ATOM     12  C   UNL A   1      34.029  24.312  25.454  1.00  0.00     0.019 A 
ATOM     13  Cl  UNL A   1      32.514  21.035  23.712  1.00  0.00    -0.080 Cl
ATOM     14  C   UNL A   1      33.110  23.386  24.959  1.00  0.00     0.146 A 
ATOM     15  C   UNL A   1      33.562  25.562  26.016  1.00  0.00     0.027 C 
ATOM     16  O   UNL A   1      31.756  23.575  25.048  1.00  0.00    -0.474 OA
ATOM     17  C   UNL A   1      31.234  24.877  25.435  1.00  0.00     0.316 C 
BRANCH  17  18
ATOM     18  C   UNL A   1      30.503  25.502  24.236  1.00  0.00     0.430 C 
ATOM     19  F   UNL A   1      31.351  26.191  23.439  1.00  0.00    -0.167 F 
ATOM     20  F   UNL A   1      29.926  24.553  23.459  1.00  0.00    -0.167 F 
ATOM     21  F   UNL A   1      29.526  26.353  24.625  1.00  0.00    -0.167 F 
ENDBRANCH  17  18
ENDBRANCH   4   6
ENDBRANCH   3   4
ENDBRANCH   2   3
ENDBRANCH   1   2
BRANCH   1  22
ATOM     22  O   UNL A   1      32.442  30.385  26.880  1.00  0.00    -0.458 OA
BRANCH  22  23
ATOM     23  C   UNL A   1      33.102  31.517  27.205  1.00  0.00     0.338 C 
ATOM     24  O   UNL A   1      32.662  32.653  27.236  1.00  0.00    -0.246 OA
BRANCH  23  25
ATOM     25  C   UNL A   1      34.478  31.205  27.619  1.00  0.00     0.060 A 
ATOM     26  C   UNL A   1      34.807  29.884  27.892  1.00  0.00     0.016 A 
ATOM     27  C   UNL A   1      35.370  32.224  27.945  1.00  0.00     0.016 A 
ATOM     28  C   UNL A   1      35.936  29.588  28.647  1.00  0.00     0.010 A 
ATOM     29  C   UNL A   1      36.586  31.905  28.564  1.00  0.00     0.010 A 
ATOM     30  C   UNL A   1      36.860  30.589  28.978  1.00  0.00    -0.014 A 
BRANCH  30  31
ATOM     31  C   UNL A   1      38.079  30.259  29.777  1.00  0.00     0.031 A 
ATOM     32  C   UNL A   1      39.179  29.414  29.181  1.00  0.00     0.074 A 
ATOM     33  C   UNL A   1      38.227  30.741  31.030  1.00  0.00     0.049 A 
ATOM     34  N   UNL A   1      40.217  28.870  29.768  1.00  0.00    -0.248 NA
ATOM     35  C   UNL A   1      39.099  29.133  27.738  1.00  0.00     0.031 C 
ATOM     36  C   UNL A   1      37.280  31.620  31.719  1.00  0.00     0.029 A 
ATOM     37  N   UNL A   1      39.241  30.576  31.944  1.00  0.00    -0.354 N 
ATOM     38  C   UNL A   1      40.872  28.137  28.785  1.00  0.00     0.074 A 
ATOM     39  C   UNL A   1      40.115  28.300  27.563  1.00  0.00     0.031 C 
ATOM     40  C   UNL A   1      37.784  31.969  32.909  1.00  0.00     0.029 A 
ATOM     41  C   UNL A   1      39.030  31.246  33.126  1.00  0.00     0.049 A 
ATOM     42  H   UNL A   1      40.041  30.029  31.770  1.00  0.00     0.167 HD
ATOM     43  C   UNL A   1      42.005  27.400  28.893  1.00  0.00     0.037 A 
ATOM     44  C   UNL A   1      39.727  31.243  34.279  1.00  0.00     0.037 A 
ATOM     45  C   UNL A   1      42.789  27.292  30.096  1.00  0.00     0.049 A 
ATOM     46  C   UNL A   1      40.944  30.372  34.393  1.00  0.00     0.074 A 
ATOM     47  C   UNL A   1      43.954  26.574  30.306  1.00  0.00     0.029 A 
ATOM     48  N   UNL A   1      42.501  27.940  31.289  1.00  0.00    -0.354 N 
ATOM     49  N   UNL A   1      41.509  29.621  33.481  1.00  0.00    -0.248 NA
ATOM     50  C   UNL A   1      41.603  30.324  35.705  1.00  0.00     0.031 C 
ATOM     51  C   UNL A   1      44.349  26.755  31.634  1.00  0.00     0.029 A 
ATOM     52  C   UNL A   1      43.458  27.625  32.241  1.00  0.00     0.049 A 
ATOM     53  H   UNL A   1      41.731  28.535  31.437  1.00  0.00     0.167 HD
ATOM     54  C   UNL A   1      42.592  29.017  34.102  1.00  0.00     0.074 A 
ATOM     55  C   UNL A   1      42.620  29.509  35.464  1.00  0.00     0.031 C 
ATOM     56  C   UNL A   1      43.477  28.127  33.591  1.00  0.00     0.037 A 
BRANCH  43  57
ATOM     57  C   UNL A   1      42.466  26.630  27.687  1.00  0.00     0.064 A 
ATOM     58  C   UNL A   1      43.399  27.154  26.783  1.00  0.00     0.173 A 
ATOM     59  C   UNL A   1      42.016  25.316  27.476  1.00  0.00     0.173 A 
ATOM     60  F   UNL A   1      43.853  28.408  26.933  1.00  0.00    -0.203 F 
ATOM     61  C   UNL A   1      43.855  26.400  25.703  1.00  0.00     0.198 A 
ATOM     62  C   UNL A   1      42.495  24.554  26.413  1.00  0.00     0.198 A 
ATOM     63  F   UNL A   1      41.129  24.762  28.316  1.00  0.00    -0.203 F 
ATOM     64  F   UNL A   1      44.721  26.936  24.832  1.00  0.00    -0.200 F 
ATOM     65  C   UNL A   1      43.410  25.098  25.525  1.00  0.00     0.200 A 
ATOM     66  F   UNL A   1      42.076  23.292  26.252  1.00  0.00    -0.200 F 
ATOM     67  F   UNL A   1      43.861  24.368  24.496  1.00  0.00    -0.200 F 
ENDBRANCH  43  57
BRANCH  44  68
ATOM     68  C   UNL A   1      39.258  32.067  35.425  1.00  0.00     0.064 A 
ATOM     69  C   UNL A   1      38.443  31.511  36.422  1.00  0.00     0.173 A 
ATOM     70  C   UNL A   1      39.637  33.410  35.569  1.00  0.00     0.173 A 
ATOM     71  F   UNL A   1      38.030  30.240  36.318  1.00  0.00    -0.203 F 
ATOM     72  C   UNL A   1      38.029  32.267  37.516  1.00  0.00     0.198 A 
ATOM     73  C   UNL A   1      39.251  34.155  36.681  1.00  0.00     0.198 A 
ATOM     74  F   UNL A   1      40.413  33.992  34.642  1.00  0.00    -0.203 F 
ATOM     75  F   UNL A   1      37.225  31.722  38.439  1.00  0.00    -0.200 F 
ATOM     76  C   UNL A   1      38.444  33.584  37.652  1.00  0.00     0.200 A 
ATOM     77  F   UNL A   1      39.670  35.420  36.815  1.00  0.00    -0.200 F 
ATOM     78  F   UNL A   1      38.062  34.304  38.716  1.00  0.00    -0.200 F 
ENDBRANCH  44  68
BRANCH  56  79
ATOM     79  C   UNL A   1      44.566  27.639  34.498  1.00  0.00     0.064 A 
ATOM     80  C   UNL A   1      45.766  28.348  34.648  1.00  0.00     0.173 A 
ATOM     81  C   UNL A   1      44.380  26.485  35.275  1.00  0.00     0.173 A 
ATOM     82  F   UNL A   1      45.996  29.449  33.916  1.00  0.00    -0.203 F 
ATOM     83  C   UNL A   1      46.747  27.912  35.533  1.00  0.00     0.198 A 
ATOM     84  C   UNL A   1      45.352  26.067  36.178  1.00  0.00     0.198 A 
ATOM     85  F   UNL A   1      43.246  25.776  35.171  1.00  0.00    -0.203 F 
ATOM     86  F   UNL A   1      47.902  28.586  35.635  1.00  0.00    -0.200 F 
ATOM     87  C   UNL A   1      46.536  26.778  36.304  1.00  0.00     0.200 A 
ATOM     88  F   UNL A   1      45.140  24.980  36.934  1.00  0.00    -0.200 F 
ATOM     89  F   UNL A   1      47.476  26.369  37.167  1.00  0.00    -0.200 F 
ENDBRANCH  56  79
ENDBRANCH  30  31
ENDBRANCH  23  25
ENDBRANCH  22  23
ENDBRANCH   1  22
TORSDOF 12
ENDMDL
