MODEL 1
REMARK VINA RESULT:     -12.6      0.000      0.000
REMARK SMILES O=C(OCCOC(=O)[C@@H]1CCCC[C@@H]1NS(=O)(=O)c1ccc2ccccc2c1)c1ccc(-c2c3nc(c(-c4c(F)c(F)c(F)c(F)c4F)c4ccc([nH]4)c(-c4c(F)c(F)c(F)c(F)c4F)c4nc(c(-c5c(F)c(F)c(F)c(F)c5F)c5ccc2[nH]5)C=C4)C=C3)cc1
REMARK SMILES IDX 5 1 4 2 3 3 2 4 1 5 29 6 30 7 91 8 31 9 90 10 32 11 33 12
REMARK SMILES IDX 34 13 84 14 35 15 89 16 83 17 85 18 36 19 88 20 82 21 81 22
REMARK SMILES IDX 37 24 69 25 49 26 68 27 50 28 53 29 67 30 86 31 51 32 52 33
REMARK SMILES IDX 66 35 87 36 54 37 38 38 39 39 47 40 40 41 41 42 45 43 48 44
REMARK SMILES IDX 42 45 43 46 46 47 44 48 70 49 71 50 79 51 72 52 73 53 77 54
REMARK SMILES IDX 80 55 74 56 75 57 78 58 76 59 55 60 56 61 64 62 57 63 58 64
REMARK SMILES IDX 62 65 65 66 59 67 60 68 63 69 61 70 6 71 7 72 8 73 9 74
REMARK SMILES IDX 10 75 14 76 11 77 13 78 12 79 15 80 16 82 17 83 18 84 19 85
REMARK SMILES IDX 20 86 28 87 21 88 27 89 22 90 26 91 23 92 25 93 24 94
REMARK H PARENT 85 23 53 34 15 81
REMARK Flexibility Score: inf
ROOT
ATOM      1  C   UNL A   1      32.934  27.446  26.536  1.00  0.00     0.274 C 
ENDROOT
BRANCH   1   2
ATOM      2  C   UNL A   1      33.623  28.775  26.226  1.00  0.00     0.275 C 
BRANCH   2   3
ATOM      3  O   UNL A   1      33.509  29.749  27.283  1.00  0.00    -0.458 OA
BRANCH   3   4
ATOM      4  C   UNL A   1      34.446  30.592  27.779  1.00  0.00     0.338 C 
ATOM      5  O   UNL A   1      34.278  31.806  27.681  1.00  0.00    -0.246 OA
BRANCH   4   6
ATOM      6  C   UNL A   1      35.779  30.122  28.262  1.00  0.00     0.060 A 
ATOM      7  C   UNL A   1      36.058  29.631  29.541  1.00  0.00     0.016 A 
ATOM      8  C   UNL A   1      36.838  30.194  27.335  1.00  0.00     0.016 A 
ATOM      9  C   UNL A   1      37.323  29.121  29.857  1.00  0.00     0.010 A 
ATOM     10  C   UNL A   1      38.107  29.699  27.650  1.00  0.00     0.010 A 
ATOM     11  C   UNL A   1      38.352  29.144  28.913  1.00  0.00    -0.014 A 
BRANCH  11  12
ATOM     12  C   UNL A   1      39.726  28.746  29.295  1.00  0.00     0.031 A 
ATOM     13  C   UNL A   1      40.558  29.736  30.048  1.00  0.00     0.074 A 
ATOM     14  C   UNL A   1      40.222  27.537  28.975  1.00  0.00     0.049 A 
ATOM     15  N   UNL A   1      41.787  29.625  30.474  1.00  0.00    -0.248 NA
ATOM     16  C   UNL A   1      39.909  31.012  30.391  1.00  0.00     0.031 C 
ATOM     17  C   UNL A   1      39.477  26.468  28.323  1.00  0.00     0.029 A 
ATOM     18  N   UNL A   1      41.482  27.015  29.122  1.00  0.00    -0.354 N 
ATOM     19  C   UNL A   1      42.043  30.796  31.170  1.00  0.00     0.074 A 
ATOM     20  C   UNL A   1      40.871  31.633  31.053  1.00  0.00     0.031 C 
ATOM     21  C   UNL A   1      40.312  25.459  28.022  1.00  0.00     0.029 A 
ATOM     22  C   UNL A   1      41.649  25.803  28.494  1.00  0.00     0.049 A 
ATOM     23  H   UNL A   1      42.198  27.465  29.627  1.00  0.00     0.167 HD
ATOM     24  C   UNL A   1      43.150  31.123  31.874  1.00  0.00     0.037 A 
ATOM     25  C   UNL A   1      42.765  25.070  28.313  1.00  0.00     0.037 A 
ATOM     26  C   UNL A   1      44.317  30.293  31.956  1.00  0.00     0.049 A 
ATOM     27  C   UNL A   1      44.042  25.533  28.966  1.00  0.00     0.074 A 
ATOM     28  C   UNL A   1      45.482  30.509  32.669  1.00  0.00     0.029 A 
ATOM     29  N   UNL A   1      44.475  29.094  31.275  1.00  0.00    -0.354 N 
ATOM     30  N   UNL A   1      44.248  26.596  29.708  1.00  0.00    -0.248 NA
ATOM     31  C   UNL A   1      45.230  24.686  28.792  1.00  0.00     0.031 C 
ATOM     32  C   UNL A   1      46.369  29.468  32.371  1.00  0.00     0.029 A 
ATOM     33  C   UNL A   1      45.738  28.580  31.511  1.00  0.00     0.049 A 
ATOM     34  H   UNL A   1      43.790  28.672  30.708  1.00  0.00     0.167 HD
ATOM     35  C   UNL A   1      45.568  26.520  30.129  1.00  0.00     0.074 A 
ATOM     36  C   UNL A   1      46.120  25.310  29.552  1.00  0.00     0.031 C 
ATOM     37  C   UNL A   1      46.257  27.366  30.934  1.00  0.00     0.037 A 
BRANCH  24  38
ATOM     38  C   UNL A   1      43.133  32.439  32.586  1.00  0.00     0.064 A 
ATOM     39  C   UNL A   1      42.676  32.547  33.909  1.00  0.00     0.173 A 
ATOM     40  C   UNL A   1      43.557  33.606  31.936  1.00  0.00     0.173 A 
ATOM     41  F   UNL A   1      42.237  31.461  34.563  1.00  0.00    -0.203 F 
ATOM     42  C   UNL A   1      42.619  33.784  34.545  1.00  0.00     0.198 A 
ATOM     43  C   UNL A   1      43.519  34.837  32.584  1.00  0.00     0.198 A 
ATOM     44  F   UNL A   1      43.993  33.553  30.669  1.00  0.00    -0.203 F 
ATOM     45  F   UNL A   1      42.128  33.872  35.790  1.00  0.00    -0.200 F 
ATOM     46  C   UNL A   1      43.043  34.926  33.884  1.00  0.00     0.200 A 
ATOM     47  F   UNL A   1      43.930  35.940  31.945  1.00  0.00    -0.200 F 
ATOM     48  F   UNL A   1      42.980  36.117  34.495  1.00  0.00    -0.200 F 
ENDBRANCH  24  38
BRANCH  25  49
ATOM     49  C   UNL A   1      42.735  23.838  27.479  1.00  0.00     0.064 A 
ATOM     50  C   UNL A   1      42.371  22.597  28.019  1.00  0.00     0.173 A 
ATOM     51  C   UNL A   1      43.123  23.871  26.130  1.00  0.00     0.173 A 
ATOM     52  F   UNL A   1      42.018  22.507  29.311  1.00  0.00    -0.203 F 
ATOM     53  C   UNL A   1      42.423  21.434  27.252  1.00  0.00     0.198 A 
ATOM     54  C   UNL A   1      43.157  22.711  25.359  1.00  0.00     0.198 A 
ATOM     55  F   UNL A   1      43.491  25.033  25.569  1.00  0.00    -0.203 F 
ATOM     56  F   UNL A   1      42.125  20.252  27.811  1.00  0.00    -0.200 F 
ATOM     57  C   UNL A   1      42.816  21.490  25.924  1.00  0.00     0.200 A 
ATOM     58  F   UNL A   1      43.550  22.769  24.079  1.00  0.00    -0.200 F 
ATOM     59  F   UNL A   1      42.886  20.367  25.195  1.00  0.00    -0.200 F 
ENDBRANCH  25  49
BRANCH  37  60
ATOM     60  C   UNL A   1      47.671  26.999  31.271  1.00  0.00     0.064 A 
ATOM     61  C   UNL A   1      47.967  26.085  32.290  1.00  0.00     0.173 A 
ATOM     62  C   UNL A   1      48.733  27.510  30.511  1.00  0.00     0.173 A 
ATOM     63  F   UNL A   1      46.984  25.584  33.054  1.00  0.00    -0.203 F 
ATOM     64  C   UNL A   1      49.280  25.700  32.542  1.00  0.00     0.198 A 
ATOM     65  C   UNL A   1      50.042  27.101  30.747  1.00  0.00     0.198 A 
ATOM     66  F   UNL A   1      48.498  28.384  29.521  1.00  0.00    -0.203 F 
ATOM     67  F   UNL A   1      49.546  24.846  33.540  1.00  0.00    -0.200 F 
ATOM     68  C   UNL A   1      50.314  26.198  31.763  1.00  0.00     0.200 A 
ATOM     69  F   UNL A   1      51.037  27.572  29.982  1.00  0.00    -0.200 F 
ATOM     70  F   UNL A   1      51.576  25.809  31.993  1.00  0.00    -0.200 F 
ENDBRANCH  37  60
ENDBRANCH  11  12
ENDBRANCH   4   6
ENDBRANCH   3   4
ENDBRANCH   2   3
ENDBRANCH   1   2
BRANCH   1  71
ATOM     71  O   UNL A   1      33.716  26.326  26.094  1.00  0.00    -0.462 OA
BRANCH  71  72
ATOM     72  C   UNL A   1      33.069  25.127  26.068  1.00  0.00     0.310 C 
ATOM     73  O   UNL A   1      31.967  24.912  26.552  1.00  0.00    -0.252 OA
BRANCH  72  74
ATOM     74  C   UNL A   1      33.900  24.078  25.358  1.00  0.00     0.117 C 
ATOM     75  C   UNL A   1      35.323  24.085  25.931  1.00  0.00     0.017 C 
ATOM     76  C   UNL A   1      33.830  24.182  23.828  1.00  0.00     0.084 C 
ATOM     77  C   UNL A   1      36.208  23.050  25.252  1.00  0.00     0.001 C 
ATOM     78  C   UNL A   1      34.826  23.217  23.167  1.00  0.00     0.021 C 
ATOM     79  C   UNL A   1      36.233  23.276  23.748  1.00  0.00     0.002 C 
BRANCH  76  80
ATOM     80  N   UNL A   1      33.985  25.566  23.381  1.00  0.00    -0.207 NA
ATOM     81  H   UNL A   1      34.979  25.681  23.181  1.00  0.00     0.141 HD
BRANCH  80  82
ATOM     82  S   UNL A   1      33.182  26.230  22.072  1.00  0.00     0.240 S 
ATOM     83  O   UNL A   1      33.915  27.423  21.726  1.00  0.00    -0.207 OA
ATOM     84  O   UNL A   1      32.947  25.171  21.111  1.00  0.00    -0.207 OA
BRANCH  82  85
ATOM     85  C   UNL A   1      31.575  26.761  22.624  1.00  0.00     0.083 A 
ATOM     86  C   UNL A   1      30.722  25.961  23.379  1.00  0.00     0.022 A 
ATOM     87  C   UNL A   1      31.157  28.031  22.206  1.00  0.00     0.030 A 
ATOM     88  C   UNL A   1      29.425  26.403  23.660  1.00  0.00     0.010 A 
ATOM     89  C   UNL A   1      29.875  28.502  22.519  1.00  0.00    -0.017 A 
ATOM     90  C   UNL A   1      28.985  27.669  23.235  1.00  0.00    -0.018 A 
ATOM     91  C   UNL A   1      29.458  29.786  22.134  1.00  0.00     0.009 A 
ATOM     92  C   UNL A   1      27.689  28.132  23.513  1.00  0.00     0.009 A 
ATOM     93  C   UNL A   1      28.174  30.238  22.438  1.00  0.00     0.001 A 
ATOM     94  C   UNL A   1      27.287  29.410  23.118  1.00  0.00     0.001 A 
ENDBRANCH  82  85
ENDBRANCH  80  82
ENDBRANCH  76  80
ENDBRANCH  72  74
ENDBRANCH  71  72
ENDBRANCH   1  71
TORSDOF 14
ENDMDL
MODEL 2
REMARK VINA RESULT:     -12.5      3.733      7.269
REMARK SMILES O=C(OCCOC(=O)[C@@H]1CCCC[C@@H]1NS(=O)(=O)c1ccc2ccccc2c1)c1ccc(-c2c3nc(c(-c4c(F)c(F)c(F)c(F)c4F)c4ccc([nH]4)c(-c4c(F)c(F)c(F)c(F)c4F)c4nc(c(-c5c(F)c(F)c(F)c(F)c5F)c5ccc2[nH]5)C=C4)C=C3)cc1
REMARK SMILES IDX 5 1 4 2 3 3 2 4 1 5 29 6 30 7 91 8 31 9 90 10 32 11 33 12
REMARK SMILES IDX 34 13 84 14 35 15 89 16 83 17 85 18 36 19 88 20 82 21 81 22
REMARK SMILES IDX 37 24 69 25 49 26 68 27 50 28 53 29 67 30 86 31 51 32 52 33
REMARK SMILES IDX 66 35 87 36 54 37 38 38 39 39 47 40 40 41 41 42 45 43 48 44
REMARK SMILES IDX 42 45 43 46 46 47 44 48 70 49 71 50 79 51 72 52 73 53 77 54
REMARK SMILES IDX 80 55 74 56 75 57 78 58 76 59 55 60 56 61 64 62 57 63 58 64
REMARK SMILES IDX 62 65 65 66 59 67 60 68 63 69 61 70 6 71 7 72 8 73 9 74
REMARK SMILES IDX 10 75 14 76 11 77 13 78 12 79 15 80 16 82 17 83 18 84 19 85
REMARK SMILES IDX 20 86 28 87 21 88 27 89 22 90 26 91 23 92 25 93 24 94
REMARK H PARENT 85 23 53 34 15 81
REMARK Flexibility Score: inf
ROOT
ATOM      1  C   UNL A   1      33.396  34.144  28.000  1.00  0.00     0.274 C 
ENDROOT
BRANCH   1   2
ATOM      2  C   UNL A   1      33.152  32.663  27.717  1.00  0.00     0.275 C 
BRANCH   2   3
ATOM      3  O   UNL A   1      34.357  31.910  27.477  1.00  0.00    -0.458 OA
BRANCH   3   4
ATOM      4  C   UNL A   1      34.611  30.599  27.705  1.00  0.00     0.338 C 
ATOM      5  O   UNL A   1      33.687  29.789  27.660  1.00  0.00    -0.246 OA
BRANCH   4   6
ATOM      6  C   UNL A   1      35.928  30.108  28.210  1.00  0.00     0.060 A 
ATOM      7  C   UNL A   1      36.170  29.579  29.481  1.00  0.00     0.016 A 
ATOM      8  C   UNL A   1      37.012  30.199  27.314  1.00  0.00     0.016 A 
ATOM      9  C   UNL A   1      37.423  29.053  29.818  1.00  0.00     0.010 A 
ATOM     10  C   UNL A   1      38.270  29.688  27.649  1.00  0.00     0.010 A 
ATOM     11  C   UNL A   1      38.477  29.097  28.903  1.00  0.00    -0.014 A 
BRANCH  11  12
ATOM     12  C   UNL A   1      39.838  28.680  29.310  1.00  0.00     0.031 A 
ATOM     13  C   UNL A   1      40.664  29.652  30.093  1.00  0.00     0.074 A 
ATOM     14  C   UNL A   1      40.329  27.470  28.986  1.00  0.00     0.049 A 
ATOM     15  N   UNL A   1      41.881  29.523  30.546  1.00  0.00    -0.248 NA
ATOM     16  C   UNL A   1      40.020  30.930  30.437  1.00  0.00     0.031 C 
ATOM     17  C   UNL A   1      39.588  26.417  28.304  1.00  0.00     0.029 A 
ATOM     18  N   UNL A   1      41.581  26.934  29.154  1.00  0.00    -0.354 N 
ATOM     19  C   UNL A   1      42.133  30.683  31.261  1.00  0.00     0.074 A 
ATOM     20  C   UNL A   1      40.972  31.534  31.129  1.00  0.00     0.031 C 
ATOM     21  C   UNL A   1      40.420  25.403  28.009  1.00  0.00     0.029 A 
ATOM     22  C   UNL A   1      41.750  25.728  28.515  1.00  0.00     0.049 A 
ATOM     23  H   UNL A   1      42.290  27.370  29.681  1.00  0.00     0.167 HD
ATOM     24  C   UNL A   1      43.227  30.991  31.993  1.00  0.00     0.037 A 
ATOM     25  C   UNL A   1      42.862  24.986  28.350  1.00  0.00     0.037 A 
ATOM     26  C   UNL A   1      44.384  30.148  32.092  1.00  0.00     0.049 A 
ATOM     27  C   UNL A   1      44.129  25.428  29.037  1.00  0.00     0.074 A 
ATOM     28  C   UNL A   1      45.535  30.343  32.833  1.00  0.00     0.029 A 
ATOM     29  N   UNL A   1      44.546  28.955  31.400  1.00  0.00    -0.354 N 
ATOM     30  N   UNL A   1      44.328  26.479  29.796  1.00  0.00    -0.248 NA
ATOM     31  C   UNL A   1      45.312  24.571  28.878  1.00  0.00     0.031 C 
ATOM     32  C   UNL A   1      46.418  29.296  32.541  1.00  0.00     0.029 A 
ATOM     33  C   UNL A   1      45.797  28.426  31.657  1.00  0.00     0.049 A 
ATOM     34  H   UNL A   1      43.869  28.548  30.812  1.00  0.00     0.167 HD
ATOM     35  C   UNL A   1      45.638  26.385  30.245  1.00  0.00     0.074 A 
ATOM     36  C   UNL A   1      46.190  25.177  29.666  1.00  0.00     0.031 C 
ATOM     37  C   UNL A   1      46.317  27.214  31.076  1.00  0.00     0.037 A 
BRANCH  24  38
ATOM     38  C   UNL A   1      43.207  32.297  32.722  1.00  0.00     0.064 A 
ATOM     39  C   UNL A   1      43.534  33.499  32.074  1.00  0.00     0.173 A 
ATOM     40  C   UNL A   1      42.878  32.349  34.083  1.00  0.00     0.173 A 
ATOM     41  F   UNL A   1      43.880  33.496  30.778  1.00  0.00    -0.203 F 
ATOM     42  C   UNL A   1      43.560  34.702  32.773  1.00  0.00     0.198 A 
ATOM     43  C   UNL A   1      42.883  33.557  34.773  1.00  0.00     0.198 A 
ATOM     44  F   UNL A   1      42.567  31.225  34.745  1.00  0.00    -0.203 F 
ATOM     45  F   UNL A   1      43.929  35.830  32.149  1.00  0.00    -0.200 F 
ATOM     46  C   UNL A   1      43.232  34.731  34.120  1.00  0.00     0.200 A 
ATOM     47  F   UNL A   1      42.565  33.585  36.073  1.00  0.00    -0.200 F 
ATOM     48  F   UNL A   1      43.264  35.889  34.794  1.00  0.00    -0.200 F 
ENDBRANCH  24  38
BRANCH  25  49
ATOM     49  C   UNL A   1      42.839  23.764  27.500  1.00  0.00     0.064 A 
ATOM     50  C   UNL A   1      42.450  22.521  28.016  1.00  0.00     0.173 A 
ATOM     51  C   UNL A   1      43.257  23.810  26.161  1.00  0.00     0.173 A 
ATOM     52  F   UNL A   1      42.068  22.418  29.299  1.00  0.00    -0.203 F 
ATOM     53  C   UNL A   1      42.508  21.366  27.237  1.00  0.00     0.198 A 
ATOM     54  C   UNL A   1      43.297  22.659  25.376  1.00  0.00     0.198 A 
ATOM     55  F   UNL A   1      43.649  24.974  25.622  1.00  0.00    -0.203 F 
ATOM     56  F   UNL A   1      42.186  20.181  27.774  1.00  0.00    -0.200 F 
ATOM     57  C   UNL A   1      42.931  21.435  25.918  1.00  0.00     0.200 A 
ATOM     58  F   UNL A   1      43.718  22.728  24.106  1.00  0.00    -0.200 F 
ATOM     59  F   UNL A   1      43.006  20.320  25.177  1.00  0.00    -0.200 F 
ENDBRANCH  25  49
BRANCH  37  60
ATOM     60  C   UNL A   1      47.719  26.829  31.440  1.00  0.00     0.064 A 
ATOM     61  C   UNL A   1      47.986  25.947  32.496  1.00  0.00     0.173 A 
ATOM     62  C   UNL A   1      48.799  27.286  30.671  1.00  0.00     0.173 A 
ATOM     63  F   UNL A   1      46.986  25.498  33.270  1.00  0.00    -0.203 F 
ATOM     64  C   UNL A   1      49.288  25.543  32.775  1.00  0.00     0.198 A 
ATOM     65  C   UNL A   1      50.096  26.856  30.934  1.00  0.00     0.198 A 
ATOM     66  F   UNL A   1      48.593  28.126  29.646  1.00  0.00    -0.203 F 
ATOM     67  F   UNL A   1      49.526  24.722  33.808  1.00  0.00    -0.200 F 
ATOM     68  C   UNL A   1      50.339  25.988  31.987  1.00  0.00     0.200 A 
ATOM     69  F   UNL A   1      51.108  27.275  30.161  1.00  0.00    -0.200 F 
ATOM     70  F   UNL A   1      51.590  25.579  32.244  1.00  0.00    -0.200 F 
ENDBRANCH  37  60
ENDBRANCH  11  12
ENDBRANCH   4   6
ENDBRANCH   3   4
ENDBRANCH   2   3
ENDBRANCH   1   2
BRANCH   1  71
ATOM     71  O   UNL A   1      32.669  34.592  29.154  1.00  0.00    -0.462 OA
BRANCH  71  72
ATOM     72  C   UNL A   1      32.895  35.882  29.531  1.00  0.00     0.310 C 
ATOM     73  O   UNL A   1      33.062  36.820  28.765  1.00  0.00    -0.252 OA
BRANCH  72  74
ATOM     74  C   UNL A   1      32.919  36.009  31.041  1.00  0.00     0.117 C 
ATOM     75  C   UNL A   1      33.351  37.431  31.424  1.00  0.00     0.017 C 
ATOM     76  C   UNL A   1      33.715  34.894  31.731  1.00  0.00     0.084 C 
ATOM     77  C   UNL A   1      33.396  37.618  32.933  1.00  0.00     0.001 C 
ATOM     78  C   UNL A   1      33.857  35.172  33.235  1.00  0.00     0.021 C 
ATOM     79  C   UNL A   1      34.315  36.586  33.569  1.00  0.00     0.002 C 
BRANCH  76  80
ATOM     80  N   UNL A   1      34.997  34.664  31.064  1.00  0.00    -0.207 NA
ATOM     81  H   UNL A   1      35.688  35.176  31.613  1.00  0.00     0.141 HD
BRANCH  80  82
ATOM     82  S   UNL A   1      35.663  33.154  30.795  1.00  0.00     0.240 S 
ATOM     83  O   UNL A   1      34.560  32.227  30.828  1.00  0.00    -0.207 OA
ATOM     84  O   UNL A   1      36.543  33.254  29.647  1.00  0.00    -0.207 OA
BRANCH  82  85
ATOM     85  C   UNL A   1      36.705  32.757  32.182  1.00  0.00     0.083 A 
ATOM     86  C   UNL A   1      36.938  31.456  32.617  1.00  0.00     0.022 A 
ATOM     87  C   UNL A   1      37.253  33.839  32.884  1.00  0.00     0.030 A 
ATOM     88  C   UNL A   1      37.662  31.237  33.794  1.00  0.00     0.010 A 
ATOM     89  C   UNL A   1      38.017  33.629  34.040  1.00  0.00    -0.017 A 
ATOM     90  C   UNL A   1      38.206  32.312  34.518  1.00  0.00    -0.018 A 
ATOM     91  C   UNL A   1      38.598  34.703  34.733  1.00  0.00     0.009 A 
ATOM     92  C   UNL A   1      38.941  32.112  35.698  1.00  0.00     0.009 A 
ATOM     93  C   UNL A   1      39.344  34.484  35.890  1.00  0.00     0.001 A 
ATOM     94  C   UNL A   1      39.508  33.191  36.379  1.00  0.00     0.001 A 
ENDBRANCH  82  85
ENDBRANCH  80  82
ENDBRANCH  76  80
ENDBRANCH  72  74
ENDBRANCH  71  72
ENDBRANCH   1  71
TORSDOF 14
ENDMDL
MODEL 3
REMARK VINA RESULT:     -12.5      3.460      9.160
REMARK SMILES O=C(OCCOC(=O)[C@@H]1CCCC[C@@H]1NS(=O)(=O)c1ccc2ccccc2c1)c1ccc(-c2c3nc(c(-c4c(F)c(F)c(F)c(F)c4F)c4ccc([nH]4)c(-c4c(F)c(F)c(F)c(F)c4F)c4nc(c(-c5c(F)c(F)c(F)c(F)c5F)c5ccc2[nH]5)C=C4)C=C3)cc1
REMARK SMILES IDX 5 1 4 2 3 3 2 4 1 5 29 6 30 7 91 8 31 9 90 10 32 11 33 12
REMARK SMILES IDX 34 13 84 14 35 15 89 16 83 17 85 18 36 19 88 20 82 21 81 22
REMARK SMILES IDX 37 24 69 25 49 26 68 27 50 28 53 29 67 30 86 31 51 32 52 33
REMARK SMILES IDX 66 35 87 36 54 37 38 38 39 39 47 40 40 41 41 42 45 43 48 44
REMARK SMILES IDX 42 45 43 46 46 47 44 48 70 49 71 50 79 51 72 52 73 53 77 54
REMARK SMILES IDX 80 55 74 56 75 57 78 58 76 59 55 60 56 61 64 62 57 63 58 64
REMARK SMILES IDX 62 65 65 66 59 67 60 68 63 69 61 70 6 71 7 72 8 73 9 74
REMARK SMILES IDX 10 75 14 76 11 77 13 78 12 79 15 80 16 82 17 83 18 84 19 85
REMARK SMILES IDX 20 86 28 87 21 88 27 89 22 90 26 91 23 92 25 93 24 94
REMARK H PARENT 85 23 53 34 15 81
REMARK Flexibility Score: inf
ROOT
ATOM      1  C   UNL A   1      32.528  31.426  26.916  1.00  0.00     0.274 C 
ENDROOT
BRANCH   1   2
ATOM      2  C   UNL A   1      31.677  32.674  27.143  1.00  0.00     0.275 C 
BRANCH   2   3
ATOM      3  O   UNL A   1      32.446  33.888  27.261  1.00  0.00    -0.458 OA
BRANCH   3   4
ATOM      4  C   UNL A   1      32.976  34.466  28.366  1.00  0.00     0.338 C 
ATOM      5  O   UNL A   1      32.535  35.547  28.751  1.00  0.00    -0.246 OA
BRANCH   4   6
ATOM      6  C   UNL A   1      34.213  33.955  29.029  1.00  0.00     0.060 A 
ATOM      7  C   UNL A   1      35.525  34.248  28.648  1.00  0.00     0.016 A 
ATOM      8  C   UNL A   1      34.019  33.099  30.132  1.00  0.00     0.016 A 
ATOM      9  C   UNL A   1      36.614  33.796  29.403  1.00  0.00     0.010 A 
ATOM     10  C   UNL A   1      35.103  32.634  30.882  1.00  0.00     0.010 A 
ATOM     11  C   UNL A   1      36.410  32.994  30.528  1.00  0.00    -0.014 A 
BRANCH  11  12
ATOM     12  C   UNL A   1      37.563  32.394  31.236  1.00  0.00     0.031 A 
ATOM     13  C   UNL A   1      38.189  31.170  30.645  1.00  0.00     0.074 A 
ATOM     14  C   UNL A   1      38.038  32.920  32.380  1.00  0.00     0.049 A 
ATOM     15  N   UNL A   1      39.191  30.460  31.087  1.00  0.00    -0.248 NA
ATOM     16  C   UNL A   1      37.627  30.699  29.368  1.00  0.00     0.031 C 
ATOM     17  C   UNL A   1      37.565  34.152  32.998  1.00  0.00     0.029 A 
ATOM     18  N   UNL A   1      39.000  32.467  33.247  1.00  0.00    -0.354 N 
ATOM     19  C   UNL A   1      39.407  29.487  30.124  1.00  0.00     0.074 A 
ATOM     20  C   UNL A   1      38.392  29.651  29.108  1.00  0.00     0.031 C 
ATOM     21  C   UNL A   1      38.151  34.305  34.198  1.00  0.00     0.029 A 
ATOM     22  C   UNL A   1      39.070  33.192  34.414  1.00  0.00     0.049 A 
ATOM     23  H   UNL A   1      39.583  31.697  33.053  1.00  0.00     0.167 HD
ATOM     24  C   UNL A   1      40.390  28.560  30.079  1.00  0.00     0.037 A 
ATOM     25  C   UNL A   1      39.788  32.963  35.531  1.00  0.00     0.037 A 
ATOM     26  C   UNL A   1      41.374  28.390  31.111  1.00  0.00     0.049 A 
ATOM     27  C   UNL A   1      40.768  31.818  35.533  1.00  0.00     0.074 A 
ATOM     28  C   UNL A   1      42.436  27.508  31.154  1.00  0.00     0.029 A 
ATOM     29  N   UNL A   1      41.394  29.107  32.299  1.00  0.00    -0.354 N 
ATOM     30  N   UNL A   1      41.034  30.962  34.575  1.00  0.00    -0.248 NA
ATOM     31  C   UNL A   1      41.571  31.626  36.748  1.00  0.00     0.031 C 
ATOM     32  C   UNL A   1      43.065  27.650  32.397  1.00  0.00     0.029 A 
ATOM     33  C   UNL A   1      42.422  28.654  33.106  1.00  0.00     0.049 A 
ATOM     34  H   UNL A   1      40.767  29.831  32.533  1.00  0.00     0.167 HD
ATOM     35  C   UNL A   1      42.066  30.165  35.050  1.00  0.00     0.074 A 
ATOM     36  C   UNL A   1      42.372  30.633  36.387  1.00  0.00     0.031 C 
ATOM     37  C   UNL A   1      42.713  29.147  34.429  1.00  0.00     0.037 A 
BRANCH  24  38
ATOM     38  C   UNL A   1      40.422  27.666  28.881  1.00  0.00     0.064 A 
ATOM     39  C   UNL A   1      41.193  27.986  27.752  1.00  0.00     0.173 A 
ATOM     40  C   UNL A   1      39.662  26.489  28.850  1.00  0.00     0.173 A 
ATOM     41  F   UNL A   1      41.917  29.114  27.726  1.00  0.00    -0.203 F 
ATOM     42  C   UNL A   1      41.177  27.171  26.623  1.00  0.00     0.198 A 
ATOM     43  C   UNL A   1      39.667  25.666  27.728  1.00  0.00     0.198 A 
ATOM     44  F   UNL A   1      38.903  26.147  29.901  1.00  0.00    -0.203 F 
ATOM     45  F   UNL A   1      41.877  27.524  25.536  1.00  0.00    -0.200 F 
ATOM     46  C   UNL A   1      40.417  26.012  26.613  1.00  0.00     0.200 A 
ATOM     47  F   UNL A   1      38.933  24.545  27.719  1.00  0.00    -0.200 F 
ATOM     48  F   UNL A   1      40.397  25.232  25.523  1.00  0.00    -0.200 F 
ENDBRANCH  24  38
BRANCH  25  49
ATOM     49  C   UNL A   1      39.606  33.818  36.736  1.00  0.00     0.064 A 
ATOM     50  C   UNL A   1      40.332  35.004  36.908  1.00  0.00     0.173 A 
ATOM     51  C   UNL A   1      38.734  33.433  37.767  1.00  0.00     0.173 A 
ATOM     52  F   UNL A   1      41.199  35.401  35.964  1.00  0.00    -0.203 F 
ATOM     53  C   UNL A   1      40.216  35.757  38.076  1.00  0.00     0.198 A 
ATOM     54  C   UNL A   1      38.605  34.196  38.926  1.00  0.00     0.198 A 
ATOM     55  F   UNL A   1      38.024  32.301  37.655  1.00  0.00    -0.203 F 
ATOM     56  F   UNL A   1      40.967  36.856  38.239  1.00  0.00    -0.200 F 
ATOM     57  C   UNL A   1      39.354  35.354  39.084  1.00  0.00     0.200 A 
ATOM     58  F   UNL A   1      37.780  33.796  39.903  1.00  0.00    -0.200 F 
ATOM     59  F   UNL A   1      39.261  36.068  40.215  1.00  0.00    -0.200 F 
ENDBRANCH  25  49
BRANCH  37  60
ATOM     60  C   UNL A   1      43.840  28.493  35.169  1.00  0.00     0.064 A 
ATOM     61  C   UNL A   1      45.146  28.996  35.107  1.00  0.00     0.173 A 
ATOM     62  C   UNL A   1      43.591  27.400  36.012  1.00  0.00     0.173 A 
ATOM     63  F   UNL A   1      45.434  30.029  34.301  1.00  0.00    -0.203 F 
ATOM     64  C   UNL A   1      46.167  28.421  35.857  1.00  0.00     0.198 A 
ATOM     65  C   UNL A   1      44.609  26.846  36.782  1.00  0.00     0.198 A 
ATOM     66  F   UNL A   1      42.355  26.888  36.108  1.00  0.00    -0.203 F 
ATOM     67  F   UNL A   1      47.416  28.898  35.762  1.00  0.00    -0.200 F 
ATOM     68  C   UNL A   1      45.895  27.355  36.703  1.00  0.00     0.200 A 
ATOM     69  F   UNL A   1      44.339  25.827  37.611  1.00  0.00    -0.200 F 
ATOM     70  F   UNL A   1      46.876  26.817  37.442  1.00  0.00    -0.200 F 
ENDBRANCH  37  60
ENDBRANCH  11  12
ENDBRANCH   4   6
ENDBRANCH   3   4
ENDBRANCH   2   3
ENDBRANCH   1   2
BRANCH   1  71
ATOM     71  O   UNL A   1      31.768  30.367  26.314  1.00  0.00    -0.462 OA
BRANCH  71  72
ATOM     72  C   UNL A   1      32.448  29.577  25.436  1.00  0.00     0.310 C 
ATOM     73  O   UNL A   1      33.573  29.132  25.615  1.00  0.00    -0.252 OA
BRANCH  72  74
ATOM     74  C   UNL A   1      31.625  29.319  24.190  1.00  0.00     0.117 C 
ATOM     75  C   UNL A   1      30.345  30.163  24.244  1.00  0.00     0.017 C 
ATOM     76  C   UNL A   1      31.393  27.828  23.913  1.00  0.00     0.084 C 
ATOM     77  C   UNL A   1      29.474  29.944  23.015  1.00  0.00     0.001 C 
ATOM     78  C   UNL A   1      30.409  27.633  22.750  1.00  0.00     0.021 C 
ATOM     79  C   UNL A   1      29.140  28.468  22.858  1.00  0.00     0.002 C 
BRANCH  76  80
ATOM     80  N   UNL A   1      30.997  27.116  25.129  1.00  0.00    -0.207 NA
ATOM     81  H   UNL A   1      30.054  27.442  25.343  1.00  0.00     0.141 HD
BRANCH  80  82
ATOM     82  S   UNL A   1      30.942  25.451  25.272  1.00  0.00     0.240 S 
ATOM     83  O   UNL A   1      31.029  25.175  26.684  1.00  0.00    -0.207 OA
ATOM     84  O   UNL A   1      29.836  24.972  24.466  1.00  0.00    -0.207 OA
BRANCH  82  85
ATOM     85  C   UNL A   1      32.416  24.786  24.530  1.00  0.00     0.083 A 
ATOM     86  C   UNL A   1      32.468  24.307  23.224  1.00  0.00     0.022 A 
ATOM     87  C   UNL A   1      33.547  24.700  25.352  1.00  0.00     0.030 A 
ATOM     88  C   UNL A   1      33.629  23.680  22.760  1.00  0.00     0.010 A 
ATOM     89  C   UNL A   1      34.731  24.114  24.883  1.00  0.00    -0.017 A 
ATOM     90  C   UNL A   1      34.768  23.573  23.578  1.00  0.00    -0.018 A 
ATOM     91  C   UNL A   1      35.880  24.052  25.687  1.00  0.00     0.009 A 
ATOM     92  C   UNL A   1      35.945  22.953  23.127  1.00  0.00     0.009 A 
ATOM     93  C   UNL A   1      37.048  23.453  25.215  1.00  0.00     0.001 A 
ATOM     94  C   UNL A   1      37.078  22.895  23.941  1.00  0.00     0.001 A 
ENDBRANCH  82  85
ENDBRANCH  80  82
ENDBRANCH  76  80
ENDBRANCH  72  74
ENDBRANCH  71  72
ENDBRANCH   1  71
TORSDOF 14
ENDMDL
