MODEL 1
REMARK VINA RESULT:     -12.1      0.000      0.000
REMARK SMILES COC(=O)C1=C(C)NC(C)=C(C(=O)OC)C1c1ccc(C(=O)OCCOC(=O)c2ccc(-c3c4nc(c(-c5c(F)c(F)c(F)c(F)c5F)c5ccc([nH]5)c(-c5c(F)c(F)c(F)c(F)c5F)c5nc(c(-c6c(F)c(F)c(F)c(F)c6F)c6ccc3[nH]6)C=C5)C=C4)cc2)cc1
REMARK SMILES IDX 24 1 23 2 21 3 22 4 20 5 17 6 18 7 93 8 19 9 92 10 16 11
REMARK SMILES IDX 5 12 6 13 7 14 8 15 11 16 9 17 10 19 3 20 4 21 2 22 1 23
REMARK SMILES IDX 12 24 13 25 14 26 15 27 25 28 26 29 27 30 28 31 29 32 30 33
REMARK SMILES IDX 91 34 31 35 90 36 32 37 33 38 34 39 84 40 35 41 89 42 83 43
REMARK SMILES IDX 85 44 36 45 88 46 82 47 81 48 37 50 69 51 49 52 68 53 50 54
REMARK SMILES IDX 53 55 67 56 86 57 51 58 52 59 66 61 87 62 54 63 38 64 39 65
REMARK SMILES IDX 47 66 40 67 41 68 45 69 48 70 42 71 43 72 46 73 44 74 70 75
REMARK SMILES IDX 71 76 79 77 72 78 73 79 77 80 80 81 74 82 75 83 78 84 76 85
REMARK SMILES IDX 55 86 56 87 64 88 57 89 58 90 62 91 65 92 59 93 60 94 63 95
REMARK SMILES IDX 61 96
REMARK H PARENT 8 18 85 49 53 60
REMARK Flexibility Score: inf
ROOT
ATOM      1  C   UNL A   1      31.872  29.279  24.111  1.00  0.00     0.275 C 
ENDROOT
BRANCH   1   2
ATOM      2  O   UNL A   1      33.239  28.829  24.137  1.00  0.00    -0.458 OA
BRANCH   2   3
ATOM      3  C   UNL A   1      33.569  27.933  23.171  1.00  0.00     0.338 C 
ATOM      4  O   UNL A   1      33.765  28.185  21.996  1.00  0.00    -0.246 OA
BRANCH   3   5
ATOM      5  C   UNL A   1      33.770  26.573  23.741  1.00  0.00     0.060 A 
ATOM      6  C   UNL A   1      34.079  24.060  24.972  1.00  0.00    -0.035 A 
ATOM      7  C   UNL A   1      33.934  25.213  25.751  1.00  0.00     0.005 A 
ATOM      8  C   UNL A   1      34.065  24.181  23.567  1.00  0.00     0.005 A 
ATOM      9  C   UNL A   1      33.780  26.457  25.140  1.00  0.00     0.016 A 
ATOM     10  C   UNL A   1      33.913  25.429  22.955  1.00  0.00     0.016 A 
BRANCH   6  11
ATOM     11  C   UNL A   1      34.368  22.696  25.608  1.00  0.00     0.098 C 
ATOM     12  C   UNL A   1      33.274  21.691  25.251  1.00  0.00     0.068 C 
ATOM     13  C   UNL A   1      33.553  20.398  24.982  1.00  0.00     0.023 C 
ATOM     14  C   UNL A   1      32.529  19.356  24.605  1.00  0.00     0.065 C 
ATOM     15  N   UNL A   1      34.868  19.972  24.999  1.00  0.00    -0.362 N 
ATOM     16  C   UNL A   1      35.777  22.139  25.340  1.00  0.00     0.068 C 
ATOM     17  C   UNL A   1      35.962  20.820  25.085  1.00  0.00     0.023 C 
ATOM     18  H   UNL A   1      35.039  19.004  24.947  1.00  0.00     0.166 HD
ATOM     19  C   UNL A   1      37.297  20.148  24.857  1.00  0.00     0.065 C 
BRANCH  12  20
ATOM     20  C   UNL A   1      31.887  22.162  25.102  1.00  0.00     0.336 C 
ATOM     21  O   UNL A   1      31.357  22.377  24.023  1.00  0.00    -0.246 OA
BRANCH  20  22
ATOM     22  O   UNL A   1      31.302  22.237  26.321  1.00  0.00    -0.466 OA
ATOM     23  C   UNL A   1      30.710  23.507  26.609  1.00  0.00     0.282 C 
ENDBRANCH  20  22
ENDBRANCH  12  20
BRANCH  16  24
ATOM     24  C   UNL A   1      36.921  23.078  25.262  1.00  0.00     0.336 C 
ATOM     25  O   UNL A   1      37.353  23.537  24.214  1.00  0.00    -0.246 OA
BRANCH  24  26
ATOM     26  O   UNL A   1      37.366  23.401  26.501  1.00  0.00    -0.466 OA
ATOM     27  C   UNL A   1      38.539  24.220  26.498  1.00  0.00     0.282 C 
ENDBRANCH  24  26
ENDBRANCH  16  24
ENDBRANCH   6  11
ENDBRANCH   3   5
ENDBRANCH   2   3
ENDBRANCH   1   2
BRANCH   1  28
ATOM     28  C   UNL A   1      31.553  30.107  25.356  1.00  0.00     0.275 C 
BRANCH  28  29
ATOM     29  O   UNL A   1      32.586  29.953  26.350  1.00  0.00    -0.458 OA
BRANCH  29  30
ATOM     30  C   UNL A   1      33.003  31.091  26.945  1.00  0.00     0.338 C 
ATOM     31  O   UNL A   1      32.439  32.175  26.976  1.00  0.00    -0.246 OA
BRANCH  30  32
ATOM     32  C   UNL A   1      34.294  30.853  27.606  1.00  0.00     0.060 A 
ATOM     33  C   UNL A   1      34.650  29.552  27.954  1.00  0.00     0.016 A 
ATOM     34  C   UNL A   1      35.101  31.927  27.981  1.00  0.00     0.016 A 
ATOM     35  C   UNL A   1      35.801  29.314  28.702  1.00  0.00     0.010 A 
ATOM     36  C   UNL A   1      36.289  31.682  28.681  1.00  0.00     0.010 A 
ATOM     37  C   UNL A   1      36.647  30.374  29.060  1.00  0.00    -0.014 A 
BRANCH  37  38
ATOM     38  C   UNL A   1      37.892  30.124  29.839  1.00  0.00     0.031 A 
ATOM     39  C   UNL A   1      38.992  29.277  29.259  1.00  0.00     0.074 A 
ATOM     40  C   UNL A   1      38.042  30.654  31.070  1.00  0.00     0.049 A 
ATOM     41  N   UNL A   1      40.056  28.782  29.843  1.00  0.00    -0.248 NA
ATOM     42  C   UNL A   1      38.879  28.936  27.832  1.00  0.00     0.031 C 
ATOM     43  C   UNL A   1      37.086  31.540  31.734  1.00  0.00     0.029 A 
ATOM     44  N   UNL A   1      39.060  30.521  31.984  1.00  0.00    -0.354 N 
ATOM     45  C   UNL A   1      40.715  28.045  28.868  1.00  0.00     0.074 A 
ATOM     46  C   UNL A   1      39.931  28.148  27.656  1.00  0.00     0.031 C 
ATOM     47  C   UNL A   1      37.570  31.890  32.935  1.00  0.00     0.029 A 
ATOM     48  C   UNL A   1      38.828  31.187  33.164  1.00  0.00     0.049 A 
ATOM     49  H   UNL A   1      39.876  29.999  31.811  1.00  0.00     0.167 HD
ATOM     50  C   UNL A   1      41.872  27.348  28.978  1.00  0.00     0.037 A 
ATOM     51  C   UNL A   1      39.521  31.191  34.319  1.00  0.00     0.037 A 
ATOM     52  C   UNL A   1      42.673  27.280  30.174  1.00  0.00     0.049 A 
ATOM     53  C   UNL A   1      40.760  30.345  34.438  1.00  0.00     0.074 A 
ATOM     54  C   UNL A   1      43.861  26.599  30.381  1.00  0.00     0.029 A 
ATOM     55  N   UNL A   1      42.374  27.929  31.362  1.00  0.00    -0.354 N 
ATOM     56  N   UNL A   1      41.345  29.602  33.531  1.00  0.00    -0.248 NA
ATOM     57  C   UNL A   1      41.417  30.316  35.753  1.00  0.00     0.031 C 
ATOM     58  C   UNL A   1      44.262  26.808  31.704  1.00  0.00     0.029 A 
ATOM     59  C   UNL A   1      43.346  27.650  32.310  1.00  0.00     0.049 A 
ATOM     60  H   UNL A   1      41.589  28.503  31.510  1.00  0.00     0.167 HD
ATOM     61  C   UNL A   1      42.440  29.027  34.159  1.00  0.00     0.074 A 
ATOM     62  C   UNL A   1      42.454  29.523  35.519  1.00  0.00     0.031 C 
ATOM     63  C   UNL A   1      43.347  28.156  33.657  1.00  0.00     0.037 A 
BRANCH  50  64
ATOM     64  C   UNL A   1      42.345  26.580  27.779  1.00  0.00     0.064 A 
ATOM     65  C   UNL A   1      43.239  27.133  26.854  1.00  0.00     0.173 A 
ATOM     66  C   UNL A   1      41.951  25.244  27.596  1.00  0.00     0.173 A 
ATOM     67  F   UNL A   1      43.637  28.408  26.978  1.00  0.00    -0.203 F 
ATOM     68  C   UNL A   1      43.716  26.382  25.781  1.00  0.00     0.198 A 
ATOM     69  C   UNL A   1      42.448  24.488  26.538  1.00  0.00     0.198 A 
ATOM     70  F   UNL A   1      41.102  24.665  28.458  1.00  0.00    -0.203 F 
ATOM     71  F   UNL A   1      44.548  26.939  24.892  1.00  0.00    -0.200 F 
ATOM     72  C   UNL A   1      43.326  25.059  25.630  1.00  0.00     0.200 A 
ATOM     73  F   UNL A   1      42.082  23.206  26.400  1.00  0.00    -0.200 F 
ATOM     74  F   UNL A   1      43.798  24.333  24.605  1.00  0.00    -0.200 F 
ENDBRANCH  50  64
BRANCH  51  75
ATOM     75  C   UNL A   1      39.028  31.975  35.482  1.00  0.00     0.064 A 
ATOM     76  C   UNL A   1      39.348  33.332  35.628  1.00  0.00     0.173 A 
ATOM     77  C   UNL A   1      38.248  31.379  36.486  1.00  0.00     0.173 A 
ATOM     78  F   UNL A   1      40.120  33.939  34.714  1.00  0.00    -0.203 F 
ATOM     79  C   UNL A   1      38.921  34.058  36.739  1.00  0.00     0.198 A 
ATOM     80  C   UNL A   1      37.794  32.114  37.578  1.00  0.00     0.198 A 
ATOM     81  F   UNL A   1      37.921  30.081  36.401  1.00  0.00    -0.203 F 
ATOM     82  F   UNL A   1      39.285  35.339  36.879  1.00  0.00    -0.200 F 
ATOM     83  C   UNL A   1      38.137  33.450  37.708  1.00  0.00     0.200 A 
ATOM     84  F   UNL A   1      37.029  31.524  38.507  1.00  0.00    -0.200 F 
ATOM     85  F   UNL A   1      37.724  34.149  38.774  1.00  0.00    -0.200 F 
ENDBRANCH  51  75
BRANCH  63  86
ATOM     86  C   UNL A   1      44.442  27.700  34.576  1.00  0.00     0.064 A 
ATOM     87  C   UNL A   1      45.635  28.424  34.704  1.00  0.00     0.173 A 
ATOM     88  C   UNL A   1      44.279  26.551  35.363  1.00  0.00     0.173 A 
ATOM     89  F   UNL A   1      45.843  29.520  33.958  1.00  0.00    -0.203 F 
ATOM     90  C   UNL A   1      46.635  28.004  35.576  1.00  0.00     0.198 A 
ATOM     91  C   UNL A   1      45.271  26.146  36.252  1.00  0.00     0.198 A 
ATOM     92  F   UNL A   1      43.153  25.826  35.278  1.00  0.00    -0.203 F 
ATOM     93  F   UNL A   1      47.785  28.689  35.655  1.00  0.00    -0.200 F 
ATOM     94  C   UNL A   1      46.450  26.870  36.354  1.00  0.00     0.200 A 
ATOM     95  F   UNL A   1      45.087  25.057  37.009  1.00  0.00    -0.200 F 
ATOM     96  F   UNL A   1      47.412  26.471  37.198  1.00  0.00    -0.200 F 
ENDBRANCH  63  86
ENDBRANCH  37  38
ENDBRANCH  30  32
ENDBRANCH  29  30
ENDBRANCH  28  29
ENDBRANCH   1  28
TORSDOF 16
ENDMDL
MODEL 2
REMARK VINA RESULT:     -12.0      3.968      9.691
REMARK SMILES COC(=O)C1=C(C)NC(C)=C(C(=O)OC)C1c1ccc(C(=O)OCCOC(=O)c2ccc(-c3c4nc(c(-c5c(F)c(F)c(F)c(F)c5F)c5ccc([nH]5)c(-c5c(F)c(F)c(F)c(F)c5F)c5nc(c(-c6c(F)c(F)c(F)c(F)c6F)c6ccc3[nH]6)C=C5)C=C4)cc2)cc1
REMARK SMILES IDX 24 1 23 2 21 3 22 4 20 5 17 6 18 7 93 8 19 9 92 10 16 11
REMARK SMILES IDX 5 12 6 13 7 14 8 15 11 16 9 17 10 19 3 20 4 21 2 22 1 23
REMARK SMILES IDX 12 24 13 25 14 26 15 27 25 28 26 29 27 30 28 31 29 32 30 33
REMARK SMILES IDX 91 34 31 35 90 36 32 37 33 38 34 39 84 40 35 41 89 42 83 43
REMARK SMILES IDX 85 44 36 45 88 46 82 47 81 48 37 50 69 51 49 52 68 53 50 54
REMARK SMILES IDX 53 55 67 56 86 57 51 58 52 59 66 61 87 62 54 63 38 64 39 65
REMARK SMILES IDX 47 66 40 67 41 68 45 69 48 70 42 71 43 72 46 73 44 74 70 75
REMARK SMILES IDX 71 76 79 77 72 78 73 79 77 80 80 81 74 82 75 83 78 84 76 85
REMARK SMILES IDX 55 86 56 87 64 88 57 89 58 90 62 91 65 92 59 93 60 94 63 95
REMARK SMILES IDX 61 96
REMARK H PARENT 8 18 85 49 53 60
REMARK Flexibility Score: inf
ROOT
ATOM      1  C   UNL A   1      34.591  21.086  25.862  1.00  0.00     0.275 C 
ENDROOT
BRANCH   1   2
ATOM      2  O   UNL A   1      34.663  22.221  26.744  1.00  0.00    -0.458 OA
BRANCH   2   3
ATOM      3  C   UNL A   1      33.463  22.728  27.129  1.00  0.00     0.338 C 
ATOM      4  O   UNL A   1      32.709  22.240  27.951  1.00  0.00    -0.246 OA
BRANCH   3   5
ATOM      5  C   UNL A   1      33.202  24.045  26.488  1.00  0.00     0.060 A 
ATOM      6  C   UNL A   1      32.839  26.502  25.162  1.00  0.00    -0.035 A 
ATOM      7  C   UNL A   1      34.056  25.819  25.060  1.00  0.00     0.005 A 
ATOM      8  C   UNL A   1      31.804  25.938  25.935  1.00  0.00     0.005 A 
ATOM      9  C   UNL A   1      34.234  24.602  25.717  1.00  0.00     0.016 A 
ATOM     10  C   UNL A   1      31.984  24.718  26.595  1.00  0.00     0.016 A 
BRANCH   6  11
ATOM     11  C   UNL A   1      32.650  27.895  24.553  1.00  0.00     0.098 C 
ATOM     12  C   UNL A   1      31.518  27.888  23.526  1.00  0.00     0.068 C 
ATOM     13  C   UNL A   1      30.656  28.920  23.407  1.00  0.00     0.023 C 
ATOM     14  C   UNL A   1      29.506  28.973  22.432  1.00  0.00     0.065 C 
ATOM     15  N   UNL A   1      30.778  30.005  24.255  1.00  0.00    -0.362 N 
ATOM     16  C   UNL A   1      32.501  29.037  25.573  1.00  0.00     0.068 C 
ATOM     17  C   UNL A   1      31.610  30.039  25.364  1.00  0.00     0.023 C 
ATOM     18  H   UNL A   1      30.241  30.805  24.059  1.00  0.00     0.166 HD
ATOM     19  C   UNL A   1      31.408  31.236  26.264  1.00  0.00     0.065 C 
BRANCH  12  20
ATOM     20  C   UNL A   1      31.298  26.683  22.709  1.00  0.00     0.336 C 
ATOM     21  O   UNL A   1      30.424  25.862  22.934  1.00  0.00    -0.246 OA
BRANCH  20  22
ATOM     22  O   UNL A   1      32.154  26.688  21.659  1.00  0.00    -0.466 OA
ATOM     23  C   UNL A   1      32.903  25.479  21.508  1.00  0.00     0.282 C 
ENDBRANCH  20  22
ENDBRANCH  12  20
BRANCH  16  24
ATOM     24  C   UNL A   1      33.268  28.978  26.840  1.00  0.00     0.336 C 
ATOM     25  O   UNL A   1      32.804  28.575  27.896  1.00  0.00    -0.246 OA
BRANCH  24  26
ATOM     26  O   UNL A   1      34.553  29.362  26.644  1.00  0.00    -0.466 OA
ATOM     27  C   UNL A   1      35.057  30.233  27.661  1.00  0.00     0.282 C 
ENDBRANCH  24  26
ENDBRANCH  16  24
ENDBRANCH   6  11
ENDBRANCH   3   5
ENDBRANCH   2   3
ENDBRANCH   1   2
BRANCH   1  28
ATOM     28  C   UNL A   1      35.923  20.877  25.141  1.00  0.00     0.275 C 
BRANCH  28  29
ATOM     29  O   UNL A   1      36.849  21.934  25.465  1.00  0.00    -0.458 OA
BRANCH  29  30
ATOM     30  C   UNL A   1      38.110  21.543  25.753  1.00  0.00     0.338 C 
ATOM     31  O   UNL A   1      38.609  20.439  25.600  1.00  0.00    -0.246 OA
BRANCH  30  32
ATOM     32  C   UNL A   1      38.863  22.682  26.298  1.00  0.00     0.060 A 
ATOM     33  C   UNL A   1      38.394  23.975  26.077  1.00  0.00     0.016 A 
ATOM     34  C   UNL A   1      40.089  22.476  26.931  1.00  0.00     0.016 A 
ATOM     35  C   UNL A   1      39.158  25.075  26.462  1.00  0.00     0.010 A 
ATOM     36  C   UNL A   1      40.828  23.581  27.371  1.00  0.00     0.010 A 
ATOM     37  C   UNL A   1      40.377  24.893  27.131  1.00  0.00    -0.014 A 
BRANCH  37  38
ATOM     38  C   UNL A   1      41.187  26.065  27.568  1.00  0.00     0.031 A 
ATOM     39  C   UNL A   1      40.575  27.128  28.439  1.00  0.00     0.074 A 
ATOM     40  C   UNL A   1      42.475  26.182  27.185  1.00  0.00     0.049 A 
ATOM     41  N   UNL A   1      41.042  28.310  28.760  1.00  0.00    -0.248 NA
ATOM     42  C   UNL A   1      39.258  26.826  29.022  1.00  0.00     0.031 C 
ATOM     43  C   UNL A   1      43.216  25.202  26.391  1.00  0.00     0.029 A 
ATOM     44  N   UNL A   1      43.390  27.182  27.412  1.00  0.00    -0.354 N 
ATOM     45  C   UNL A   1      40.065  28.902  29.550  1.00  0.00     0.074 A 
ATOM     46  C   UNL A   1      38.974  27.956  29.653  1.00  0.00     0.031 C 
ATOM     47  C   UNL A   1      44.474  25.634  26.218  1.00  0.00     0.029 A 
ATOM     48  C   UNL A   1      44.606  26.961  26.812  1.00  0.00     0.049 A 
ATOM     49  H   UNL A   1      43.193  27.981  27.953  1.00  0.00     0.167 HD
ATOM     50  C   UNL A   1      40.081  30.124  30.135  1.00  0.00     0.037 A 
ATOM     51  C   UNL A   1      45.689  27.754  26.706  1.00  0.00     0.037 A 
ATOM     52  C   UNL A   1      41.185  31.047  30.064  1.00  0.00     0.049 A 
ATOM     53  C   UNL A   1      45.650  29.137  27.298  1.00  0.00     0.074 A 
ATOM     54  C   UNL A   1      41.293  32.309  30.625  1.00  0.00     0.029 A 
ATOM     55  N   UNL A   1      42.377  30.802  29.403  1.00  0.00    -0.354 N 
ATOM     56  N   UNL A   1      44.700  29.714  27.991  1.00  0.00    -0.248 NA
ATOM     57  C   UNL A   1      46.825  29.990  27.066  1.00  0.00     0.031 C 
ATOM     58  C   UNL A   1      42.538  32.841  30.274  1.00  0.00     0.029 A 
ATOM     59  C   UNL A   1      43.220  31.896  29.527  1.00  0.00     0.049 A 
ATOM     60  H   UNL A   1      42.595  29.974  28.917  1.00  0.00     0.167 HD
ATOM     61  C   UNL A   1      45.163  30.988  28.286  1.00  0.00     0.074 A 
ATOM     62  C   UNL A   1      46.489  31.095  27.716  1.00  0.00     0.031 C 
ATOM     63  C   UNL A   1      44.539  31.985  28.959  1.00  0.00     0.037 A 
BRANCH  50  64
ATOM     64  C   UNL A   1      38.861  30.554  30.894  1.00  0.00     0.064 A 
ATOM     65  C   UNL A   1      38.751  30.372  32.278  1.00  0.00     0.173 A 
ATOM     66  C   UNL A   1      37.818  31.226  30.234  1.00  0.00     0.173 A 
ATOM     67  F   UNL A   1      39.714  29.726  32.954  1.00  0.00    -0.203 F 
ATOM     68  C   UNL A   1      37.637  30.834  32.976  1.00  0.00     0.198 A 
ATOM     69  C   UNL A   1      36.718  31.709  30.937  1.00  0.00     0.198 A 
ATOM     70  F   UNL A   1      37.878  31.433  28.910  1.00  0.00    -0.203 F 
ATOM     71  F   UNL A   1      37.538  30.624  34.296  1.00  0.00    -0.200 F 
ATOM     72  C   UNL A   1      36.627  31.510  32.306  1.00  0.00     0.200 A 
ATOM     73  F   UNL A   1      35.750  32.373  30.291  1.00  0.00    -0.200 F 
ATOM     74  F   UNL A   1      35.563  31.968  32.982  1.00  0.00    -0.200 F 
ENDBRANCH  50  64
BRANCH  51  75
ATOM     75  C   UNL A   1      46.886  27.288  25.956  1.00  0.00     0.064 A 
ATOM     76  C   UNL A   1      47.924  26.605  26.603  1.00  0.00     0.173 A 
ATOM     77  C   UNL A   1      47.029  27.538  24.582  1.00  0.00     0.173 A 
ATOM     78  F   UNL A   1      47.852  26.372  27.922  1.00  0.00    -0.203 F 
ATOM     79  C   UNL A   1      49.065  26.203  25.910  1.00  0.00     0.198 A 
ATOM     80  C   UNL A   1      48.153  27.108  23.884  1.00  0.00     0.198 A 
ATOM     81  F   UNL A   1      46.069  28.198  23.916  1.00  0.00    -0.203 F 
ATOM     82  F   UNL A   1      50.064  25.598  26.563  1.00  0.00    -0.200 F 
ATOM     83  C   UNL A   1      49.174  26.447  24.548  1.00  0.00     0.200 A 
ATOM     84  F   UNL A   1      48.249  27.339  22.566  1.00  0.00    -0.200 F 
ATOM     85  F   UNL A   1      50.269  26.059  23.882  1.00  0.00    -0.200 F 
ENDBRANCH  51  75
BRANCH  63  86
ATOM     86  C   UNL A   1      45.292  33.270  29.133  1.00  0.00     0.064 A 
ATOM     87  C   UNL A   1      46.154  33.468  30.221  1.00  0.00     0.173 A 
ATOM     88  C   UNL A   1      45.181  34.295  28.183  1.00  0.00     0.173 A 
ATOM     89  F   UNL A   1      46.279  32.522  31.164  1.00  0.00    -0.203 F 
ATOM     90  C   UNL A   1      46.865  34.657  30.361  1.00  0.00     0.198 A 
ATOM     91  C   UNL A   1      45.912  35.473  28.313  1.00  0.00     0.198 A 
ATOM     92  F   UNL A   1      44.373  34.151  27.122  1.00  0.00    -0.203 F 
ATOM     93  F   UNL A   1      47.653  34.842  31.429  1.00  0.00    -0.200 F 
ATOM     94  C   UNL A   1      46.749  35.654  29.405  1.00  0.00     0.200 A 
ATOM     95  F   UNL A   1      45.807  36.431  27.384  1.00  0.00    -0.200 F 
ATOM     96  F   UNL A   1      47.440  36.796  29.538  1.00  0.00    -0.200 F 
ENDBRANCH  63  86
ENDBRANCH  37  38
ENDBRANCH  30  32
ENDBRANCH  29  30
ENDBRANCH  28  29
ENDBRANCH   1  28
TORSDOF 16
ENDMDL
MODEL 3
REMARK VINA RESULT:     -11.9      0.356      1.675
REMARK SMILES COC(=O)C1=C(C)NC(C)=C(C(=O)OC)C1c1ccc(C(=O)OCCOC(=O)c2ccc(-c3c4nc(c(-c5c(F)c(F)c(F)c(F)c5F)c5ccc([nH]5)c(-c5c(F)c(F)c(F)c(F)c5F)c5nc(c(-c6c(F)c(F)c(F)c(F)c6F)c6ccc3[nH]6)C=C5)C=C4)cc2)cc1
REMARK SMILES IDX 24 1 23 2 21 3 22 4 20 5 17 6 18 7 93 8 19 9 92 10 16 11
REMARK SMILES IDX 5 12 6 13 7 14 8 15 11 16 9 17 10 19 3 20 4 21 2 22 1 23
REMARK SMILES IDX 12 24 13 25 14 26 15 27 25 28 26 29 27 30 28 31 29 32 30 33
REMARK SMILES IDX 91 34 31 35 90 36 32 37 33 38 34 39 84 40 35 41 89 42 83 43
REMARK SMILES IDX 85 44 36 45 88 46 82 47 81 48 37 50 69 51 49 52 68 53 50 54
REMARK SMILES IDX 53 55 67 56 86 57 51 58 52 59 66 61 87 62 54 63 38 64 39 65
REMARK SMILES IDX 47 66 40 67 41 68 45 69 48 70 42 71 43 72 46 73 44 74 70 75
REMARK SMILES IDX 71 76 79 77 72 78 73 79 77 80 80 81 74 82 75 83 78 84 76 85
REMARK SMILES IDX 55 86 56 87 64 88 57 89 58 90 62 91 65 92 59 93 60 94 63 95
REMARK SMILES IDX 61 96
REMARK H PARENT 8 18 85 49 53 60
REMARK Flexibility Score: inf
ROOT
ATOM      1  C   UNL A   1      31.767  29.664  23.918  1.00  0.00     0.275 C 
ENDROOT
BRANCH   1   2
ATOM      2  O   UNL A   1      31.778  28.247  23.663  1.00  0.00    -0.458 OA
BRANCH   2   3
ATOM      3  C   UNL A   1      32.946  27.759  23.171  1.00  0.00     0.338 C 
ATOM      4  O   UNL A   1      33.645  28.287  22.325  1.00  0.00    -0.246 OA
BRANCH   3   5
ATOM      5  C   UNL A   1      33.348  26.510  23.874  1.00  0.00     0.060 A 
ATOM      6  C   UNL A   1      34.189  24.096  25.054  1.00  0.00    -0.035 A 
ATOM      7  C   UNL A   1      34.122  24.214  23.661  1.00  0.00     0.005 A 
ATOM      8  C   UNL A   1      33.829  25.204  25.849  1.00  0.00     0.005 A 
ATOM      9  C   UNL A   1      33.707  25.411  23.078  1.00  0.00     0.016 A 
ATOM     10  C   UNL A   1      33.411  26.402  25.263  1.00  0.00     0.016 A 
BRANCH   6  11
ATOM     11  C   UNL A   1      34.526  22.762  25.728  1.00  0.00     0.098 C 
ATOM     12  C   UNL A   1      33.429  21.731  25.466  1.00  0.00     0.068 C 
ATOM     13  C   UNL A   1      33.711  20.431  25.235  1.00  0.00     0.023 C 
ATOM     14  C   UNL A   1      32.683  19.364  24.951  1.00  0.00     0.065 C 
ATOM     15  N   UNL A   1      35.031  20.021  25.206  1.00  0.00    -0.362 N 
ATOM     16  C   UNL A   1      35.927  22.210  25.415  1.00  0.00     0.068 C 
ATOM     17  C   UNL A   1      36.117  20.884  25.204  1.00  0.00     0.023 C 
ATOM     18  H   UNL A   1      35.212  19.054  25.184  1.00  0.00     0.166 HD
ATOM     19  C   UNL A   1      37.447  20.218  24.940  1.00  0.00     0.065 C 
BRANCH  12  20
ATOM     20  C   UNL A   1      32.030  22.181  25.365  1.00  0.00     0.336 C 
ATOM     21  O   UNL A   1      31.435  22.311  24.308  1.00  0.00    -0.246 OA
BRANCH  20  22
ATOM     22  O   UNL A   1      31.518  22.344  26.609  1.00  0.00    -0.466 OA
ATOM     23  C   UNL A   1      30.542  23.384  26.708  1.00  0.00     0.282 C 
ENDBRANCH  20  22
ENDBRANCH  12  20
BRANCH  16  24
ATOM     24  C   UNL A   1      37.054  23.157  25.244  1.00  0.00     0.336 C 
ATOM     25  O   UNL A   1      37.512  23.479  24.158  1.00  0.00    -0.246 OA
BRANCH  24  26
ATOM     26  O   UNL A   1      37.449  23.658  26.440  1.00  0.00    -0.466 OA
ATOM     27  C   UNL A   1      38.786  24.167  26.440  1.00  0.00     0.282 C 
ENDBRANCH  24  26
ENDBRANCH  16  24
ENDBRANCH   6  11
ENDBRANCH   3   5
ENDBRANCH   2   3
ENDBRANCH   1   2
BRANCH   1  28
ATOM     28  C   UNL A   1      31.780  29.942  25.421  1.00  0.00     0.275 C 
BRANCH  28  29
ATOM     29  O   UNL A   1      33.131  30.107  25.897  1.00  0.00    -0.458 OA
BRANCH  29  30
ATOM     30  C   UNL A   1      33.297  31.004  26.894  1.00  0.00     0.338 C 
ATOM     31  O   UNL A   1      32.533  31.890  27.243  1.00  0.00    -0.246 OA
BRANCH  30  32
ATOM     32  C   UNL A   1      34.586  30.763  27.559  1.00  0.00     0.060 A 
ATOM     33  C   UNL A   1      34.846  29.508  28.104  1.00  0.00     0.016 A 
ATOM     34  C   UNL A   1      35.490  31.810  27.740  1.00  0.00     0.016 A 
ATOM     35  C   UNL A   1      35.998  29.293  28.857  1.00  0.00     0.010 A 
ATOM     36  C   UNL A   1      36.676  31.577  28.447  1.00  0.00     0.010 A 
ATOM     37  C   UNL A   1      36.939  30.320  29.024  1.00  0.00    -0.014 A 
BRANCH  37  38
ATOM     38  C   UNL A   1      38.184  30.091  29.808  1.00  0.00     0.031 A 
ATOM     39  C   UNL A   1      39.284  29.229  29.250  1.00  0.00     0.074 A 
ATOM     40  C   UNL A   1      38.336  30.653  31.024  1.00  0.00     0.049 A 
ATOM     41  N   UNL A   1      40.348  28.749  29.845  1.00  0.00    -0.248 NA
ATOM     42  C   UNL A   1      39.170  28.849  27.832  1.00  0.00     0.031 C 
ATOM     43  C   UNL A   1      37.381  31.557  31.666  1.00  0.00     0.029 A 
ATOM     44  N   UNL A   1      39.354  30.544  31.941  1.00  0.00    -0.354 N 
ATOM     45  C   UNL A   1      41.007  27.986  28.890  1.00  0.00     0.074 A 
ATOM     46  C   UNL A   1      40.221  28.057  27.677  1.00  0.00     0.031 C 
ATOM     47  C   UNL A   1      37.866  31.938  32.856  1.00  0.00     0.029 A 
ATOM     48  C   UNL A   1      39.124  31.241  33.103  1.00  0.00     0.049 A 
ATOM     49  H   UNL A   1      40.170  30.017  31.781  1.00  0.00     0.167 HD
ATOM     50  C   UNL A   1      42.164  27.292  29.017  1.00  0.00     0.037 A 
ATOM     51  C   UNL A   1      39.817  31.276  34.257  1.00  0.00     0.037 A 
ATOM     52  C   UNL A   1      42.966  27.256  30.214  1.00  0.00     0.049 A 
ATOM     53  C   UNL A   1      41.056  30.433  34.397  1.00  0.00     0.074 A 
ATOM     54  C   UNL A   1      44.153  26.580  30.438  1.00  0.00     0.029 A 
ATOM     55  N   UNL A   1      42.667  27.935  31.385  1.00  0.00    -0.354 N 
ATOM     56  N   UNL A   1      41.640  29.666  33.510  1.00  0.00    -0.248 NA
ATOM     57  C   UNL A   1      41.715  30.438  35.712  1.00  0.00     0.031 C 
ATOM     58  C   UNL A   1      44.556  26.823  31.755  1.00  0.00     0.029 A 
ATOM     59  C   UNL A   1      43.640  27.681  32.339  1.00  0.00     0.049 A 
ATOM     60  H   UNL A   1      41.883  28.514  31.518  1.00  0.00     0.167 HD
ATOM     61  C   UNL A   1      42.736  29.108  34.152  1.00  0.00     0.074 A 
ATOM     62  C   UNL A   1      42.751  29.639  35.498  1.00  0.00     0.031 C 
ATOM     63  C   UNL A   1      43.643  28.223  33.672  1.00  0.00     0.037 A 
BRANCH  50  64
ATOM     64  C   UNL A   1      42.635  26.492  27.839  1.00  0.00     0.064 A 
ATOM     65  C   UNL A   1      42.193  25.182  27.612  1.00  0.00     0.173 A 
ATOM     66  C   UNL A   1      43.487  27.073  26.886  1.00  0.00     0.173 A 
ATOM     67  F   UNL A   1      41.387  24.578  28.499  1.00  0.00    -0.203 F 
ATOM     68  C   UNL A   1      42.594  24.477  26.479  1.00  0.00     0.198 A 
ATOM     69  C   UNL A   1      43.865  26.376  25.742  1.00  0.00     0.198 A 
ATOM     70  F   UNL A   1      43.933  28.328  27.052  1.00  0.00    -0.203 F 
ATOM     71  F   UNL A   1      42.181  23.215  26.296  1.00  0.00    -0.200 F 
ATOM     72  C   UNL A   1      43.422  25.078  25.542  1.00  0.00     0.200 A 
ATOM     73  F   UNL A   1      44.654  26.962  24.831  1.00  0.00    -0.200 F 
ATOM     74  F   UNL A   1      43.793  24.403  24.444  1.00  0.00    -0.200 F 
ENDBRANCH  50  64
BRANCH  51  75
ATOM     75  C   UNL A   1      39.326  32.090  35.399  1.00  0.00     0.064 A 
ATOM     76  C   UNL A   1      38.509  31.528  36.390  1.00  0.00     0.173 A 
ATOM     77  C   UNL A   1      39.639  33.454  35.512  1.00  0.00     0.173 A 
ATOM     78  F   UNL A   1      38.152  30.238  36.310  1.00  0.00    -0.203 F 
ATOM     79  C   UNL A   1      38.015  32.300  37.440  1.00  0.00     0.198 A 
ATOM     80  C   UNL A   1      39.172  34.217  36.578  1.00  0.00     0.198 A 
ATOM     81  F   UNL A   1      40.408  34.045  34.585  1.00  0.00    -0.203 F 
ATOM     82  F   UNL A   1      37.195  31.750  38.344  1.00  0.00    -0.200 F 
ATOM     83  C   UNL A   1      38.353  33.642  37.538  1.00  0.00     0.200 A 
ATOM     84  F   UNL A   1      39.510  35.510  36.673  1.00  0.00    -0.200 F 
ATOM     85  F   UNL A   1      37.879  34.383  38.548  1.00  0.00    -0.200 F 
ENDBRANCH  51  75
BRANCH  63  86
ATOM     86  C   UNL A   1      44.738  27.791  34.602  1.00  0.00     0.064 A 
ATOM     87  C   UNL A   1      45.940  28.507  34.694  1.00  0.00     0.173 A 
ATOM     88  C   UNL A   1      44.567  26.676  35.435  1.00  0.00     0.173 A 
ATOM     89  F   UNL A   1      46.155  29.570  33.905  1.00  0.00    -0.203 F 
ATOM     90  C   UNL A   1      46.940  28.110  35.577  1.00  0.00     0.198 A 
ATOM     91  C   UNL A   1      45.560  26.296  36.333  1.00  0.00     0.198 A 
ATOM     92  F   UNL A   1      43.433  25.961  35.385  1.00  0.00    -0.203 F 
ATOM     93  F   UNL A   1      48.098  28.785  35.622  1.00  0.00    -0.200 F 
ATOM     94  C   UNL A   1      46.748  27.010  36.399  1.00  0.00     0.200 A 
ATOM     95  F   UNL A   1      45.369  25.240  37.134  1.00  0.00    -0.200 F 
ATOM     96  F   UNL A   1      47.711  26.633  37.253  1.00  0.00    -0.200 F 
ENDBRANCH  63  86
ENDBRANCH  37  38
ENDBRANCH  30  32
ENDBRANCH  29  30
ENDBRANCH  28  29
ENDBRANCH   1  28
TORSDOF 16
ENDMDL
