MODEL 1
REMARK VINA RESULT:     -12.2      0.000      0.000
REMARK SMILES C[C@H]1[NH2+]CC[C@H]1C(=O)N1CCC(C(=O)OCCOC(=O)c2ccc(-c3c4nc(c(-c5c(F)c(F)c(F)c(F)c5F)c5ccc([nH]5)c(-c5c(F)c(F)c(F)c(F)c5F)c5nc(c(-c6c(F)c(F)c(F)c(F)c6F)c6ccc3[nH]6)C=C5)C=C4)cc2)CC1
REMARK SMILES IDX 17 1 16 2 15 3 13 4 14 5 12 6 7 7 8 8 9 9 10 10 85 11 11 12
REMARK SMILES IDX 84 13 6 14 1 15 2 16 3 17 4 18 5 21 18 22 19 23 20 24 21 25
REMARK SMILES IDX 22 26 83 27 23 28 82 29 24 30 25 31 26 32 76 33 27 34 81 35
REMARK SMILES IDX 75 36 77 37 28 38 80 39 74 40 73 41 29 43 61 44 41 45 60 46
REMARK SMILES IDX 42 47 45 48 59 49 78 50 43 51 44 52 58 54 79 55 46 56 30 57
REMARK SMILES IDX 31 58 39 59 32 60 33 61 37 62 40 63 34 64 35 65 38 66 36 67
REMARK SMILES IDX 62 68 63 69 71 70 64 71 65 72 69 73 72 74 66 75 67 76 70 77
REMARK SMILES IDX 68 78 47 79 48 80 56 81 49 82 50 83 54 84 57 85 51 86 52 87
REMARK SMILES IDX 55 88 53 89
REMARK H PARENT 3 19 3 20 77 42 45 53
REMARK Flexibility Score: inf
ROOT
ATOM      1  C   UNL A   1      31.754  30.524  25.757  1.00  0.00     0.275 C 
ENDROOT
BRANCH   1   2
ATOM      2  C   UNL A   1      32.011  29.220  24.995  1.00  0.00     0.274 C 
BRANCH   2   3
ATOM      3  O   UNL A   1      33.401  29.083  24.638  1.00  0.00    -0.462 OA
BRANCH   3   4
ATOM      4  C   UNL A   1      33.668  28.264  23.592  1.00  0.00     0.309 C 
ATOM      5  O   UNL A   1      34.396  28.554  22.647  1.00  0.00    -0.252 OA
BRANCH   4   6
ATOM      6  C   UNL A   1      33.066  26.881  23.741  1.00  0.00     0.103 C 
ATOM      7  C   UNL A   1      33.812  23.086  23.387  1.00  0.00     0.231 C 
ATOM      8  O   UNL A   1      34.655  23.364  22.534  1.00  0.00    -0.274 OA
ATOM      9  N   UNL A   1      32.873  24.015  23.810  1.00  0.00    -0.342 N 
ATOM     10  C   UNL A   1      32.137  24.758  22.792  1.00  0.00     0.120 C 
ATOM     11  C   UNL A   1      33.131  24.756  25.034  1.00  0.00     0.120 C 
ATOM     12  C   UNL A   1      32.797  26.098  22.454  1.00  0.00     0.037 C 
ATOM     13  C   UNL A   1      33.892  26.042  24.720  1.00  0.00     0.037 C 
BRANCH   7  14
ATOM     14  C   UNL A   1      33.682  21.672  23.939  1.00  0.00     0.142 C 
ATOM     15  C   UNL A   1      35.280  22.039  25.964  1.00  0.00     0.076 C 
ATOM     16  C   UNL A   1      34.809  21.143  24.822  1.00  0.00     0.192 C 
ATOM     17  N   UNL A   1      34.244  19.899  25.388  1.00  0.00    -0.343 N 
ATOM     18  C   UNL A   1      32.780  19.985  25.341  1.00  0.00     0.261 C 
ATOM     19  H   UNL A   1      34.550  19.792  26.356  1.00  0.00     0.346 HD
ATOM     20  H   UNL A   1      34.565  19.094  24.850  1.00  0.00     0.346 HD
ATOM     21  C   UNL A   1      32.429  21.327  24.720  1.00  0.00     0.081 C 
ENDBRANCH   7  14
ENDBRANCH   4   6
ENDBRANCH   3   4
ENDBRANCH   2   3
ENDBRANCH   1   2
BRANCH   1  22
ATOM     22  O   UNL A   1      32.424  30.559  27.034  1.00  0.00    -0.458 OA
BRANCH  22  23
ATOM     23  C   UNL A   1      33.159  31.672  27.257  1.00  0.00     0.338 C 
ATOM     24  O   UNL A   1      32.788  32.831  27.187  1.00  0.00    -0.246 OA
BRANCH  23  25
ATOM     25  C   UNL A   1      34.508  31.321  27.726  1.00  0.00     0.060 A 
ATOM     26  C   UNL A   1      34.750  29.985  28.040  1.00  0.00     0.016 A 
ATOM     27  C   UNL A   1      35.458  32.297  28.027  1.00  0.00     0.016 A 
ATOM     28  C   UNL A   1      35.904  29.615  28.717  1.00  0.00     0.010 A 
ATOM     29  C   UNL A   1      36.643  31.921  28.677  1.00  0.00     0.010 A 
ATOM     30  C   UNL A   1      36.855  30.582  29.058  1.00  0.00    -0.014 A 
BRANCH  30  31
ATOM     31  C   UNL A   1      38.018  30.175  29.883  1.00  0.00     0.031 A 
ATOM     32  C   UNL A   1      39.076  29.282  29.298  1.00  0.00     0.074 A 
ATOM     33  C   UNL A   1      38.169  30.674  31.123  1.00  0.00     0.049 A 
ATOM     34  N   UNL A   1      40.146  28.782  29.864  1.00  0.00    -0.248 NA
ATOM     35  C   UNL A   1      38.911  28.902  27.886  1.00  0.00     0.031 C 
ATOM     36  C   UNL A   1      37.245  31.599  31.779  1.00  0.00     0.029 A 
ATOM     37  N   UNL A   1      39.167  30.488  32.046  1.00  0.00    -0.354 N 
ATOM     38  C   UNL A   1      40.760  28.003  28.894  1.00  0.00     0.074 A 
ATOM     39  C   UNL A   1      39.944  28.091  27.702  1.00  0.00     0.031 C 
ATOM     40  C   UNL A   1      37.729  31.918  32.990  1.00  0.00     0.029 A 
ATOM     41  C   UNL A   1      38.969  31.181  33.214  1.00  0.00     0.049 A 
ATOM     42  H   UNL A   1      39.950  29.913  31.886  1.00  0.00     0.167 HD
ATOM     43  C   UNL A   1      41.901  27.281  28.989  1.00  0.00     0.037 A 
ATOM     44  C   UNL A   1      39.697  31.204  34.346  1.00  0.00     0.037 A 
ATOM     45  C   UNL A   1      42.731  27.221  30.164  1.00  0.00     0.049 A 
ATOM     46  C   UNL A   1      40.951  30.378  34.433  1.00  0.00     0.074 A 
ATOM     47  C   UNL A   1      43.899  26.506  30.364  1.00  0.00     0.029 A 
ATOM     48  N   UNL A   1      42.485  27.919  31.337  1.00  0.00    -0.354 N 
ATOM     49  N   UNL A   1      41.498  29.609  33.524  1.00  0.00    -0.248 NA
ATOM     50  C   UNL A   1      41.683  30.420  35.705  1.00  0.00     0.031 C 
ATOM     51  C   UNL A   1      44.347  26.752  31.666  1.00  0.00     0.029 A 
ATOM     52  C   UNL A   1      43.477  27.648  32.266  1.00  0.00     0.049 A 
ATOM     53  H   UNL A   1      41.718  28.518  31.488  1.00  0.00     0.167 HD
ATOM     54  C   UNL A   1      42.643  29.086  34.107  1.00  0.00     0.074 A 
ATOM     55  C   UNL A   1      42.724  29.642  35.442  1.00  0.00     0.031 C 
ATOM     56  C   UNL A   1      43.544  28.218  33.586  1.00  0.00     0.037 A 
BRANCH  43  57
ATOM     57  C   UNL A   1      42.302  26.466  27.797  1.00  0.00     0.064 A 
ATOM     58  C   UNL A   1      43.238  26.933  26.863  1.00  0.00     0.173 A 
ATOM     59  C   UNL A   1      41.758  25.188  27.601  1.00  0.00     0.173 A 
ATOM     60  F   UNL A   1      43.773  28.156  26.998  1.00  0.00    -0.203 F 
ATOM     61  C   UNL A   1      43.600  26.157  25.765  1.00  0.00     0.198 A 
ATOM     62  C   UNL A   1      42.139  24.405  26.515  1.00  0.00     0.198 A 
ATOM     63  F   UNL A   1      40.860  24.695  28.467  1.00  0.00    -0.203 F 
ATOM     64  F   UNL A   1      44.467  26.638  24.863  1.00  0.00    -0.200 F 
ATOM     65  C   UNL A   1      43.055  24.892  25.595  1.00  0.00     0.200 A 
ATOM     66  F   UNL A   1      41.617  23.181  26.355  1.00  0.00    -0.200 F 
ATOM     67  F   UNL A   1      43.407  24.146  24.539  1.00  0.00    -0.200 F 
ENDBRANCH  43  57
BRANCH  44  68
ATOM     68  C   UNL A   1      39.248  32.030  35.495  1.00  0.00     0.064 A 
ATOM     69  C   UNL A   1      38.438  31.487  36.501  1.00  0.00     0.173 A 
ATOM     70  C   UNL A   1      39.620  33.377  35.609  1.00  0.00     0.173 A 
ATOM     71  F   UNL A   1      38.037  30.210  36.421  1.00  0.00    -0.203 F 
ATOM     72  C   UNL A   1      38.007  32.265  37.573  1.00  0.00     0.198 A 
ATOM     73  C   UNL A   1      39.209  34.147  36.695  1.00  0.00     0.198 A 
ATOM     74  F   UNL A   1      40.394  33.942  34.671  1.00  0.00    -0.203 F 
ATOM     75  F   UNL A   1      37.201  31.733  38.502  1.00  0.00    -0.200 F 
ATOM     76  C   UNL A   1      38.398  33.591  37.672  1.00  0.00     0.200 A 
ATOM     77  F   UNL A   1      39.599  35.425  36.792  1.00  0.00    -0.200 F 
ATOM     78  F   UNL A   1      37.987  34.338  38.707  1.00  0.00    -0.200 F 
ENDBRANCH  44  68
BRANCH  56  79
ATOM     79  C   UNL A   1      44.707  27.843  34.453  1.00  0.00     0.064 A 
ATOM     80  C   UNL A   1      45.891  28.593  34.454  1.00  0.00     0.173 A 
ATOM     81  C   UNL A   1      44.626  26.733  35.308  1.00  0.00     0.173 A 
ATOM     82  F   UNL A   1      46.020  29.652  33.642  1.00  0.00    -0.203 F 
ATOM     83  C   UNL A   1      46.966  28.230  35.263  1.00  0.00     0.198 A 
ATOM     84  C   UNL A   1      45.694  26.387  36.131  1.00  0.00     0.198 A 
ATOM     85  F   UNL A   1      43.512  25.988  35.344  1.00  0.00    -0.203 F 
ATOM     86  F   UNL A   1      48.105  28.935  35.216  1.00  0.00    -0.200 F 
ATOM     87  C   UNL A   1      46.865  27.131  36.103  1.00  0.00     0.200 A 
ATOM     88  F   UNL A   1      45.593  25.329  36.947  1.00  0.00    -0.200 F 
ATOM     89  F   UNL A   1      47.900  26.783  36.880  1.00  0.00    -0.200 F 
ENDBRANCH  56  79
ENDBRANCH  30  31
ENDBRANCH  23  25
ENDBRANCH  22  23
ENDBRANCH   1  22
TORSDOF 12
ENDMDL
MODEL 2
REMARK VINA RESULT:     -12.2      0.198      1.641
REMARK SMILES C[C@H]1[NH2+]CC[C@H]1C(=O)N1CCC(C(=O)OCCOC(=O)c2ccc(-c3c4nc(c(-c5c(F)c(F)c(F)c(F)c5F)c5ccc([nH]5)c(-c5c(F)c(F)c(F)c(F)c5F)c5nc(c(-c6c(F)c(F)c(F)c(F)c6F)c6ccc3[nH]6)C=C5)C=C4)cc2)CC1
REMARK SMILES IDX 17 1 16 2 15 3 13 4 14 5 12 6 7 7 8 8 9 9 10 10 85 11 11 12
REMARK SMILES IDX 84 13 6 14 1 15 2 16 3 17 4 18 5 21 18 22 19 23 20 24 21 25
REMARK SMILES IDX 22 26 83 27 23 28 82 29 24 30 25 31 26 32 76 33 27 34 81 35
REMARK SMILES IDX 75 36 77 37 28 38 80 39 74 40 73 41 29 43 61 44 41 45 60 46
REMARK SMILES IDX 42 47 45 48 59 49 78 50 43 51 44 52 58 54 79 55 46 56 30 57
REMARK SMILES IDX 31 58 39 59 32 60 33 61 37 62 40 63 34 64 35 65 38 66 36 67
REMARK SMILES IDX 62 68 63 69 71 70 64 71 65 72 69 73 72 74 66 75 67 76 70 77
REMARK SMILES IDX 68 78 47 79 48 80 56 81 49 82 50 83 54 84 57 85 51 86 52 87
REMARK SMILES IDX 55 88 53 89
REMARK H PARENT 3 19 3 20 77 42 45 53
REMARK Flexibility Score: inf
ROOT
ATOM      1  C   UNL A   1      31.735  30.570  25.756  1.00  0.00     0.275 C 
ENDROOT
BRANCH   1   2
ATOM      2  C   UNL A   1      31.942  29.316  24.899  1.00  0.00     0.274 C 
BRANCH   2   3
ATOM      3  O   UNL A   1      33.340  28.993  24.766  1.00  0.00    -0.462 OA
BRANCH   3   4
ATOM      4  C   UNL A   1      33.686  28.295  23.657  1.00  0.00     0.309 C 
ATOM      5  O   UNL A   1      34.432  28.710  22.776  1.00  0.00    -0.252 OA
BRANCH   4   6
ATOM      6  C   UNL A   1      33.149  26.878  23.647  1.00  0.00     0.103 C 
ATOM      7  C   UNL A   1      34.183  23.138  23.469  1.00  0.00     0.231 C 
ATOM      8  O   UNL A   1      35.191  23.480  22.851  1.00  0.00    -0.274 OA
ATOM      9  N   UNL A   1      33.115  24.005  23.652  1.00  0.00    -0.342 N 
ATOM     10  C   UNL A   1      32.609  24.724  22.488  1.00  0.00     0.120 C 
ATOM     11  C   UNL A   1      33.021  24.735  24.906  1.00  0.00     0.120 C 
ATOM     12  C   UNL A   1      33.251  26.105  22.330  1.00  0.00     0.037 C 
ATOM     13  C   UNL A   1      33.758  26.068  24.795  1.00  0.00     0.037 C 
BRANCH   7  14
ATOM     14  C   UNL A   1      34.006  21.709  23.965  1.00  0.00     0.142 C 
ATOM     15  C   UNL A   1      35.092  22.111  26.299  1.00  0.00     0.076 C 
ATOM     16  C   UNL A   1      34.934  21.217  25.073  1.00  0.00     0.192 C 
ATOM     17  N   UNL A   1      34.321  19.936  25.487  1.00  0.00    -0.343 N 
ATOM     18  C   UNL A   1      32.901  19.953  25.115  1.00  0.00     0.261 C 
ATOM     19  H   UNL A   1      34.409  19.824  26.498  1.00  0.00     0.346 HD
ATOM     20  H   UNL A   1      34.793  19.158  25.027  1.00  0.00     0.346 HD
ATOM     21  C   UNL A   1      32.629  21.289  24.444  1.00  0.00     0.081 C 
ENDBRANCH   7  14
ENDBRANCH   4   6
ENDBRANCH   3   4
ENDBRANCH   2   3
ENDBRANCH   1   2
BRANCH   1  22
ATOM     22  O   UNL A   1      32.473  30.520  26.993  1.00  0.00    -0.458 OA
BRANCH  22  23
ATOM     23  C   UNL A   1      33.180  31.638  27.276  1.00  0.00     0.338 C 
ATOM     24  O   UNL A   1      32.784  32.791  27.251  1.00  0.00    -0.246 OA
BRANCH  23  25
ATOM     25  C   UNL A   1      34.531  31.297  27.748  1.00  0.00     0.060 A 
ATOM     26  C   UNL A   1      34.775  29.966  28.082  1.00  0.00     0.016 A 
ATOM     27  C   UNL A   1      35.480  32.278  28.030  1.00  0.00     0.016 A 
ATOM     28  C   UNL A   1      35.931  29.609  28.762  1.00  0.00     0.010 A 
ATOM     29  C   UNL A   1      36.667  31.914  28.684  1.00  0.00     0.010 A 
ATOM     30  C   UNL A   1      36.881  30.582  29.086  1.00  0.00    -0.014 A 
BRANCH  30  31
ATOM     31  C   UNL A   1      38.047  30.189  29.915  1.00  0.00     0.031 A 
ATOM     32  C   UNL A   1      39.125  29.322  29.329  1.00  0.00     0.074 A 
ATOM     33  C   UNL A   1      38.181  30.680  31.160  1.00  0.00     0.049 A 
ATOM     34  N   UNL A   1      40.200  28.837  29.898  1.00  0.00    -0.248 NA
ATOM     35  C   UNL A   1      38.976  28.951  27.913  1.00  0.00     0.031 C 
ATOM     36  C   UNL A   1      37.235  31.582  31.818  1.00  0.00     0.029 A 
ATOM     37  N   UNL A   1      39.175  30.505  32.088  1.00  0.00    -0.354 N 
ATOM     38  C   UNL A   1      40.835  28.079  28.925  1.00  0.00     0.074 A 
ATOM     39  C   UNL A   1      40.025  28.162  27.728  1.00  0.00     0.031 C 
ATOM     40  C   UNL A   1      37.705  31.899  33.035  1.00  0.00     0.029 A 
ATOM     41  C   UNL A   1      38.957  31.183  33.261  1.00  0.00     0.049 A 
ATOM     42  H   UNL A   1      39.970  29.946  31.929  1.00  0.00     0.167 HD
ATOM     43  C   UNL A   1      41.989  27.377  29.021  1.00  0.00     0.037 A 
ATOM     44  C   UNL A   1      39.678  31.211  34.397  1.00  0.00     0.037 A 
ATOM     45  C   UNL A   1      42.813  27.322  30.201  1.00  0.00     0.049 A 
ATOM     46  C   UNL A   1      40.946  30.407  34.486  1.00  0.00     0.074 A 
ATOM     47  C   UNL A   1      43.992  26.627  30.402  1.00  0.00     0.029 A 
ATOM     48  N   UNL A   1      42.546  28.005  31.379  1.00  0.00    -0.354 N 
ATOM     49  N   UNL A   1      41.513  29.656  33.574  1.00  0.00    -0.248 NA
ATOM     50  C   UNL A   1      41.669  30.452  35.763  1.00  0.00     0.031 C 
ATOM     51  C   UNL A   1      44.427  26.870  31.710  1.00  0.00     0.029 A 
ATOM     52  C   UNL A   1      43.537  27.745  32.311  1.00  0.00     0.049 A 
ATOM     53  H   UNL A   1      41.767  28.588  31.530  1.00  0.00     0.167 HD
ATOM     54  C   UNL A   1      42.665  29.150  34.159  1.00  0.00     0.074 A 
ATOM     55  C   UNL A   1      42.726  29.696  35.500  1.00  0.00     0.031 C 
ATOM     56  C   UNL A   1      43.585  28.304  33.636  1.00  0.00     0.037 A 
BRANCH  43  57
ATOM     57  C   UNL A   1      42.413  26.580  27.824  1.00  0.00     0.064 A 
ATOM     58  C   UNL A   1      41.928  25.287  27.588  1.00  0.00     0.173 A 
ATOM     59  C   UNL A   1      43.301  27.133  26.889  1.00  0.00     0.173 A 
ATOM     60  F   UNL A   1      41.091  24.710  28.463  1.00  0.00    -0.203 F 
ATOM     61  C   UNL A   1      42.332  24.567  26.466  1.00  0.00     0.198 A 
ATOM     62  C   UNL A   1      43.686  26.419  25.757  1.00  0.00     0.198 A 
ATOM     63  F   UNL A   1      43.793  28.368  27.070  1.00  0.00    -0.203 F 
ATOM     64  F   UNL A   1      41.887  23.316  26.279  1.00  0.00    -0.200 F 
ATOM     65  C   UNL A   1      43.205  25.135  25.549  1.00  0.00     0.200 A 
ATOM     66  F   UNL A   1      44.524  26.971  24.869  1.00  0.00    -0.200 F 
ATOM     67  F   UNL A   1      43.590  24.441  24.470  1.00  0.00    -0.200 F 
ENDBRANCH  43  57
BRANCH  44  68
ATOM     68  C   UNL A   1      39.206  32.017  35.551  1.00  0.00     0.064 A 
ATOM     69  C   UNL A   1      38.394  31.452  36.543  1.00  0.00     0.173 A 
ATOM     70  C   UNL A   1      39.557  33.369  35.682  1.00  0.00     0.173 A 
ATOM     71  F   UNL A   1      38.013  30.170  36.446  1.00  0.00    -0.203 F 
ATOM     72  C   UNL A   1      37.941  32.212  37.619  1.00  0.00     0.198 A 
ATOM     73  C   UNL A   1      39.125  34.120  36.773  1.00  0.00     0.198 A 
ATOM     74  F   UNL A   1      40.331  33.954  34.758  1.00  0.00    -0.203 F 
ATOM     75  F   UNL A   1      37.135  31.659  38.535  1.00  0.00    -0.200 F 
ATOM     76  C   UNL A   1      38.313  33.543  37.736  1.00  0.00     0.200 A 
ATOM     77  F   UNL A   1      39.495  35.403  36.887  1.00  0.00    -0.200 F 
ATOM     78  F   UNL A   1      37.881  34.273  38.775  1.00  0.00    -0.200 F 
ENDBRANCH  44  68
BRANCH  56  79
ATOM     79  C   UNL A   1      44.749  27.944  34.508  1.00  0.00     0.064 A 
ATOM     80  C   UNL A   1      44.720  26.815  35.340  1.00  0.00     0.173 A 
ATOM     81  C   UNL A   1      45.914  28.726  34.495  1.00  0.00     0.173 A 
ATOM     82  F   UNL A   1      43.622  26.048  35.397  1.00  0.00    -0.203 F 
ATOM     83  C   UNL A   1      45.808  26.496  36.148  1.00  0.00     0.198 A 
ATOM     84  C   UNL A   1      47.008  28.390  35.288  1.00  0.00     0.198 A 
ATOM     85  F   UNL A   1      45.990  29.813  33.713  1.00  0.00    -0.203 F 
ATOM     86  F   UNL A   1      45.743  25.437  36.968  1.00  0.00    -0.200 F 
ATOM     87  C   UNL A   1      46.953  27.280  36.118  1.00  0.00     0.200 A 
ATOM     88  F   UNL A   1      48.115  29.144  35.253  1.00  0.00    -0.200 F 
ATOM     89  F   UNL A   1      47.998  26.971  36.897  1.00  0.00    -0.200 F 
ENDBRANCH  56  79
ENDBRANCH  30  31
ENDBRANCH  23  25
ENDBRANCH  22  23
ENDBRANCH   1  22
TORSDOF 12
ENDMDL
MODEL 3
REMARK VINA RESULT:     -12.1      0.757      7.619
REMARK SMILES C[C@H]1[NH2+]CC[C@H]1C(=O)N1CCC(C(=O)OCCOC(=O)c2ccc(-c3c4nc(c(-c5c(F)c(F)c(F)c(F)c5F)c5ccc([nH]5)c(-c5c(F)c(F)c(F)c(F)c5F)c5nc(c(-c6c(F)c(F)c(F)c(F)c6F)c6ccc3[nH]6)C=C5)C=C4)cc2)CC1
REMARK SMILES IDX 17 1 16 2 15 3 13 4 14 5 12 6 7 7 8 8 9 9 10 10 85 11 11 12
REMARK SMILES IDX 84 13 6 14 1 15 2 16 3 17 4 18 5 21 18 22 19 23 20 24 21 25
REMARK SMILES IDX 22 26 83 27 23 28 82 29 24 30 25 31 26 32 76 33 27 34 81 35
REMARK SMILES IDX 75 36 77 37 28 38 80 39 74 40 73 41 29 43 61 44 41 45 60 46
REMARK SMILES IDX 42 47 45 48 59 49 78 50 43 51 44 52 58 54 79 55 46 56 30 57
REMARK SMILES IDX 31 58 39 59 32 60 33 61 37 62 40 63 34 64 35 65 38 66 36 67
REMARK SMILES IDX 62 68 63 69 71 70 64 71 65 72 69 73 72 74 66 75 67 76 70 77
REMARK SMILES IDX 68 78 47 79 48 80 56 81 49 82 50 83 54 84 57 85 51 86 52 87
REMARK SMILES IDX 55 88 53 89
REMARK H PARENT 3 19 3 20 77 42 45 53
REMARK Flexibility Score: inf
ROOT
ATOM      1  C   UNL A   1      31.507  31.111  26.137  1.00  0.00     0.275 C 
ENDROOT
BRANCH   1   2
ATOM      2  C   UNL A   1      31.407  30.003  25.085  1.00  0.00     0.274 C 
BRANCH   2   3
ATOM      3  O   UNL A   1      32.596  29.189  25.060  1.00  0.00    -0.462 OA
BRANCH   3   4
ATOM      4  C   UNL A   1      32.774  28.430  23.952  1.00  0.00     0.309 C 
ATOM      5  O   UNL A   1      32.485  28.780  22.812  1.00  0.00    -0.252 OA
BRANCH   4   6
ATOM      6  C   UNL A   1      33.481  27.118  24.229  1.00  0.00     0.103 C 
ATOM      7  C   UNL A   1      32.912  23.331  24.881  1.00  0.00     0.231 C 
ATOM      8  O   UNL A   1      31.805  23.609  25.341  1.00  0.00    -0.274 OA
ATOM      9  N   UNL A   1      33.876  24.306  24.668  1.00  0.00    -0.342 N 
ATOM     10  C   UNL A   1      34.152  25.245  25.750  1.00  0.00     0.120 C 
ATOM     11  C   UNL A   1      34.020  24.861  23.331  1.00  0.00     0.120 C 
ATOM     12  C   UNL A   1      33.328  26.530  25.634  1.00  0.00     0.037 C 
ATOM     13  C   UNL A   1      33.113  26.078  23.167  1.00  0.00     0.037 C 
BRANCH   7  14
ATOM     14  C   UNL A   1      33.323  21.887  24.628  1.00  0.00     0.142 C 
ATOM     15  C   UNL A   1      34.383  21.504  26.977  1.00  0.00     0.076 C 
ATOM     16  C   UNL A   1      34.461  21.309  25.466  1.00  0.00     0.192 C 
ATOM     17  N   UNL A   1      34.407  19.862  25.164  1.00  0.00    -0.343 N 
ATOM     18  C   UNL A   1      33.056  19.531  24.696  1.00  0.00     0.261 C 
ATOM     19  H   UNL A   1      34.619  19.328  26.007  1.00  0.00     0.346 HD
ATOM     20  H   UNL A   1      35.093  19.630  24.445  1.00  0.00     0.346 HD
ATOM     21  C   UNL A   1      32.249  20.819  24.705  1.00  0.00     0.081 C 
ENDBRANCH   7  14
ENDBRANCH   4   6
ENDBRANCH   3   4
ENDBRANCH   2   3
ENDBRANCH   1   2
BRANCH   1  22
ATOM     22  O   UNL A   1      32.531  30.849  27.119  1.00  0.00    -0.458 OA
BRANCH  22  23
ATOM     23  C   UNL A   1      33.303  31.915  27.430  1.00  0.00     0.338 C 
ATOM     24  O   UNL A   1      32.963  33.084  27.490  1.00  0.00    -0.246 OA
BRANCH  23  25
ATOM     25  C   UNL A   1      34.655  31.485  27.818  1.00  0.00     0.060 A 
ATOM     26  C   UNL A   1      34.834  30.138  28.130  1.00  0.00     0.016 A 
ATOM     27  C   UNL A   1      35.680  32.402  28.048  1.00  0.00     0.016 A 
ATOM     28  C   UNL A   1      36.004  29.703  28.736  1.00  0.00     0.010 A 
ATOM     29  C   UNL A   1      36.878  31.958  28.627  1.00  0.00     0.010 A 
ATOM     30  C   UNL A   1      37.031  30.612  29.007  1.00  0.00    -0.014 A 
BRANCH  30  31
ATOM     31  C   UNL A   1      38.218  30.138  29.762  1.00  0.00     0.031 A 
ATOM     32  C   UNL A   1      38.418  30.566  31.189  1.00  0.00     0.074 A 
ATOM     33  C   UNL A   1      39.066  29.260  29.198  1.00  0.00     0.049 A 
ATOM     34  N   UNL A   1      39.405  30.295  32.005  1.00  0.00    -0.248 NA
ATOM     35  C   UNL A   1      37.365  31.407  31.778  1.00  0.00     0.031 C 
ATOM     36  C   UNL A   1      38.944  28.721  27.843  1.00  0.00     0.029 A 
ATOM     37  N   UNL A   1      40.187  28.651  29.700  1.00  0.00    -0.354 N 
ATOM     38  C   UNL A   1      39.112  30.959  33.188  1.00  0.00     0.074 A 
ATOM     39  C   UNL A   1      37.857  31.650  32.986  1.00  0.00     0.031 C 
ATOM     40  C   UNL A   1      39.938  27.844  27.629  1.00  0.00     0.029 A 
ATOM     41  C   UNL A   1      40.794  27.799  28.811  1.00  0.00     0.049 A 
ATOM     42  H   UNL A   1      40.525  28.809  30.612  1.00  0.00     0.167 HD
ATOM     43  C   UNL A   1      39.826  30.989  34.338  1.00  0.00     0.037 A 
ATOM     44  C   UNL A   1      41.923  27.076  28.931  1.00  0.00     0.037 A 
ATOM     45  C   UNL A   1      41.057  30.274  34.551  1.00  0.00     0.049 A 
ATOM     46  C   UNL A   1      42.708  27.142  30.212  1.00  0.00     0.074 A 
ATOM     47  C   UNL A   1      41.862  30.252  35.676  1.00  0.00     0.029 A 
ATOM     48  N   UNL A   1      41.654  29.439  33.617  1.00  0.00    -0.354 N 
ATOM     49  N   UNL A   1      42.446  27.810  31.309  1.00  0.00    -0.248 NA
ATOM     50  C   UNL A   1      43.948  26.357  30.268  1.00  0.00     0.031 C 
ATOM     51  C   UNL A   1      42.959  29.423  35.415  1.00  0.00     0.029 A 
ATOM     52  C   UNL A   1      42.818  28.900  34.140  1.00  0.00     0.049 A 
ATOM     53  H   UNL A   1      41.301  29.256  32.716  1.00  0.00     0.167 HD
ATOM     54  C   UNL A   1      43.477  27.517  32.189  1.00  0.00     0.074 A 
ATOM     55  C   UNL A   1      44.360  26.594  31.506  1.00  0.00     0.031 C 
ATOM     56  C   UNL A   1      43.678  27.977  33.448  1.00  0.00     0.037 A 
BRANCH  43  57
ATOM     57  C   UNL A   1      39.309  31.854  35.448  1.00  0.00     0.064 A 
ATOM     58  C   UNL A   1      38.450  31.353  36.437  1.00  0.00     0.173 A 
ATOM     59  C   UNL A   1      39.700  33.198  35.534  1.00  0.00     0.173 A 
ATOM     60  F   UNL A   1      38.035  30.078  36.386  1.00  0.00    -0.203 F 
ATOM     61  C   UNL A   1      37.986  32.173  37.461  1.00  0.00     0.198 A 
ATOM     62  C   UNL A   1      39.252  34.010  36.573  1.00  0.00     0.198 A 
ATOM     63  F   UNL A   1      40.521  33.725  34.613  1.00  0.00    -0.203 F 
ATOM     64  F   UNL A   1      37.134  31.685  38.374  1.00  0.00    -0.200 F 
ATOM     65  C   UNL A   1      38.391  33.498  37.533  1.00  0.00     0.200 A 
ATOM     66  F   UNL A   1      39.649  35.288  36.644  1.00  0.00    -0.200 F 
ATOM     67  F   UNL A   1      37.944  34.285  38.521  1.00  0.00    -0.200 F 
ENDBRANCH  43  57
BRANCH  44  68
ATOM     68  C   UNL A   1      42.387  26.239  27.796  1.00  0.00     0.064 A 
ATOM     69  C   UNL A   1      41.850  24.965  27.572  1.00  0.00     0.173 A 
ATOM     70  C   UNL A   1      43.377  26.697  26.915  1.00  0.00     0.173 A 
ATOM     71  F   UNL A   1      40.918  24.476  28.404  1.00  0.00    -0.203 F 
ATOM     72  C   UNL A   1      42.293  24.174  26.515  1.00  0.00     0.198 A 
ATOM     73  C   UNL A   1      43.802  25.916  25.842  1.00  0.00     0.198 A 
ATOM     74  F   UNL A   1      43.922  27.910  27.089  1.00  0.00    -0.203 F 
ATOM     75  F   UNL A   1      41.792  22.944  26.344  1.00  0.00    -0.200 F 
ATOM     76  C   UNL A   1      43.264  24.654  25.647  1.00  0.00     0.200 A 
ATOM     77  F   UNL A   1      44.732  26.387  25.001  1.00  0.00    -0.200 F 
ATOM     78  F   UNL A   1      43.687  23.894  24.626  1.00  0.00    -0.200 F 
ENDBRANCH  44  68
BRANCH  56  79
ATOM     79  C   UNL A   1      44.884  27.463  34.174  1.00  0.00     0.064 A 
ATOM     80  C   UNL A   1      44.835  26.287  34.935  1.00  0.00     0.173 A 
ATOM     81  C   UNL A   1      46.108  28.145  34.089  1.00  0.00     0.173 A 
ATOM     82  F   UNL A   1      43.684  25.611  35.058  1.00  0.00    -0.203 F 
ATOM     83  C   UNL A   1      45.963  25.824  35.608  1.00  0.00     0.198 A 
ATOM     84  C   UNL A   1      47.239  27.667  34.744  1.00  0.00     0.198 A 
ATOM     85  F   UNL A   1      46.205  29.273  33.369  1.00  0.00    -0.203 F 
ATOM     86  F   UNL A   1      45.884  24.722  36.366  1.00  0.00    -0.200 F 
ATOM     87  C   UNL A   1      47.165  26.512  35.508  1.00  0.00     0.200 A 
ATOM     88  F   UNL A   1      48.400  28.328  34.642  1.00  0.00    -0.200 F 
ATOM     89  F   UNL A   1      48.249  26.065  36.157  1.00  0.00    -0.200 F 
ENDBRANCH  56  79
ENDBRANCH  30  31
ENDBRANCH  23  25
ENDBRANCH  22  23
ENDBRANCH   1  22
TORSDOF 12
ENDMDL
