MODEL 1
REMARK VINA RESULT:     -13.5      0.000      0.000
REMARK SMILES CCc1sc(NC(=O)[C@H]2CC(C)=C(C)C[C@H]2C(=O)OCCOC(=O)c2ccc(-c3c4nc(c(-c5c(F)c(F)c(F)c(F)c5F)c5ccc([nH]5)c(-c5c(F)c(F)c(F)c(F)c5F)c5nc(c(-c6c(F)c(F)c(F)c(F)c6F)c6ccc3[nH]6)C=C5)C=C4)cc2)nc1-c1ccccc1
REMARK SMILES IDX 20 1 19 2 17 3 18 4 16 5 9 6 10 7 11 8 15 9 12 10 13 11
REMARK SMILES IDX 14 12 7 13 6 14 8 16 5 17 3 18 4 19 89 20 88 21 2 22 1 23
REMARK SMILES IDX 90 24 91 25 95 26 92 27 94 28 93 29 21 30 22 31 23 32 24 33
REMARK SMILES IDX 25 34 26 35 87 36 27 37 86 38 28 39 29 40 30 41 80 42 31 43
REMARK SMILES IDX 85 44 79 45 81 46 32 47 84 48 78 49 77 50 33 52 65 53 45 54
REMARK SMILES IDX 64 55 46 56 49 57 63 58 82 59 47 60 48 61 62 63 83 64 50 65
REMARK SMILES IDX 34 66 35 67 43 68 36 69 37 70 41 71 44 72 38 73 39 74 42 75
REMARK SMILES IDX 40 76 66 77 67 78 75 79 68 80 69 81 73 82 76 83 70 84 71 85
REMARK SMILES IDX 74 86 72 87 51 88 52 89 60 90 53 91 54 92 58 93 61 94 55 95
REMARK SMILES IDX 56 96 59 97 57 98
REMARK H PARENT 6 15 81 51 49 62
REMARK Flexibility Score: inf
ROOT
ATOM      1  C   UNL A   1      35.954  21.745  24.402  1.00  0.00     0.274 C 
ENDROOT
BRANCH   1   2
ATOM      2  O   UNL A   1      35.115  20.829  25.132  1.00  0.00    -0.462 OA
BRANCH   2   3
ATOM      3  C   UNL A   1      34.374  21.367  26.134  1.00  0.00     0.310 C 
ATOM      4  O   UNL A   1      34.826  22.107  27.003  1.00  0.00    -0.252 OA
BRANCH   3   5
ATOM      5  C   UNL A   1      32.900  20.972  26.101  1.00  0.00     0.116 C 
ATOM      6  C   UNL A   1      31.896  22.046  25.606  1.00  0.00     0.097 C 
ATOM      7  C   UNL A   1      32.084  22.283  24.104  1.00  0.00     0.045 C 
ATOM      8  C   UNL A   1      32.187  21.008  23.287  1.00  0.00    -0.074 C 
ATOM      9  C   UNL A   1      32.764  19.662  25.319  1.00  0.00     0.046 C 
ATOM     10  C   UNL A   1      31.814  21.198  21.836  1.00  0.00     0.039 C 
ATOM     11  C   UNL A   1      32.503  19.817  23.840  1.00  0.00    -0.073 C 
ATOM     12  C   UNL A   1      32.599  18.524  23.070  1.00  0.00     0.039 C 
BRANCH   6  13
ATOM     13  C   UNL A   1      31.954  23.229  26.589  1.00  0.00     0.230 C 
ATOM     14  N   UNL A   1      32.611  24.386  26.351  1.00  0.00    -0.302 N 
ATOM     15  H   UNL A   1      33.310  24.629  27.001  1.00  0.00     0.172 HD
ATOM     16  O   UNL A   1      31.415  23.104  27.694  1.00  0.00    -0.274 OA
BRANCH  14  17
ATOM     17  C   UNL A   1      32.423  25.260  25.316  1.00  0.00     0.190 A 
ATOM     18  C   UNL A   1      32.696  26.722  23.433  1.00  0.00     0.034 A 
ATOM     19  S   UNL A   1      33.401  25.232  23.924  1.00  0.00    -0.101 S 
ATOM     20  C   UNL A   1      31.500  26.865  24.124  1.00  0.00     0.087 A 
ATOM     21  N   UNL A   1      31.397  26.072  25.257  1.00  0.00    -0.220 NA
BRANCH  18  22
ATOM     22  C   UNL A   1      33.341  27.580  22.389  1.00  0.00     0.046 C 
ATOM     23  C   UNL A   1      34.167  28.714  22.991  1.00  0.00     0.010 C 
ENDBRANCH  18  22
BRANCH  20  24
ATOM     24  C   UNL A   1      30.440  27.794  23.752  1.00  0.00     0.001 A 
ATOM     25  C   UNL A   1      29.172  27.313  23.390  1.00  0.00     0.010 A 
ATOM     26  C   UNL A   1      30.653  29.174  23.806  1.00  0.00     0.010 A 
ATOM     27  C   UNL A   1      28.149  28.197  23.044  1.00  0.00     0.001 A 
ATOM     28  C   UNL A   1      29.626  30.058  23.460  1.00  0.00     0.001 A 
ATOM     29  C   UNL A   1      28.379  29.569  23.072  1.00  0.00     0.000 A 
ENDBRANCH  20  24
ENDBRANCH  14  17
ENDBRANCH   6  13
ENDBRANCH   3   5
ENDBRANCH   2   3
ENDBRANCH   1   2
BRANCH   1  30
ATOM     30  C   UNL A   1      37.429  21.404  24.589  1.00  0.00     0.275 C 
BRANCH  30  31
ATOM     31  O   UNL A   1      37.838  21.698  25.935  1.00  0.00    -0.458 OA
BRANCH  31  32
ATOM     32  C   UNL A   1      39.159  21.543  26.191  1.00  0.00     0.338 C 
ATOM     33  O   UNL A   1      39.854  20.569  25.946  1.00  0.00    -0.246 OA
BRANCH  32  34
ATOM     34  C   UNL A   1      39.693  22.772  26.801  1.00  0.00     0.060 A 
ATOM     35  C   UNL A   1      39.210  24.009  26.379  1.00  0.00     0.016 A 
ATOM     36  C   UNL A   1      40.791  22.701  27.657  1.00  0.00     0.016 A 
ATOM     37  C   UNL A   1      39.896  25.173  26.707  1.00  0.00     0.010 A 
ATOM     38  C   UNL A   1      41.413  23.881  28.077  1.00  0.00     0.010 A 
ATOM     39  C   UNL A   1      40.999  25.126  27.571  1.00  0.00    -0.014 A 
BRANCH  39  40
ATOM     40  C   UNL A   1      41.740  26.368  27.910  1.00  0.00     0.031 A 
ATOM     41  C   UNL A   1      41.092  27.429  28.757  1.00  0.00     0.074 A 
ATOM     42  C   UNL A   1      42.999  26.549  27.468  1.00  0.00     0.049 A 
ATOM     43  N   UNL A   1      41.476  28.661  28.979  1.00  0.00    -0.248 NA
ATOM     44  C   UNL A   1      39.839  27.059  29.435  1.00  0.00     0.031 C 
ATOM     45  C   UNL A   1      43.774  25.578  26.694  1.00  0.00     0.029 A 
ATOM     46  N   UNL A   1      43.850  27.616  27.610  1.00  0.00    -0.354 N 
ATOM     47  C   UNL A   1      40.482  29.231  29.764  1.00  0.00     0.074 A 
ATOM     48  C   UNL A   1      39.484  28.208  29.993  1.00  0.00     0.031 C 
ATOM     49  C   UNL A   1      44.996  26.078  26.459  1.00  0.00     0.029 A 
ATOM     50  C   UNL A   1      45.059  27.437  26.987  1.00  0.00     0.049 A 
ATOM     51  H   UNL A   1      43.616  28.431  28.112  1.00  0.00     0.167 HD
ATOM     52  C   UNL A   1      40.410  30.497  30.239  1.00  0.00     0.037 A 
ATOM     53  C   UNL A   1      46.088  28.286  26.814  1.00  0.00     0.037 A 
ATOM     54  C   UNL A   1      41.437  31.491  30.067  1.00  0.00     0.049 A 
ATOM     55  C   UNL A   1      45.977  29.690  27.330  1.00  0.00     0.074 A 
ATOM     56  C   UNL A   1      41.466  32.797  30.527  1.00  0.00     0.029 A 
ATOM     57  N   UNL A   1      42.632  31.278  29.396  1.00  0.00    -0.354 N 
ATOM     58  N   UNL A   1      44.996  30.250  27.993  1.00  0.00    -0.248 NA
ATOM     59  C   UNL A   1      47.104  30.589  27.046  1.00  0.00     0.031 C 
ATOM     60  C   UNL A   1      42.669  33.380  30.115  1.00  0.00     0.029 A 
ATOM     61  C   UNL A   1      43.402  32.430  29.422  1.00  0.00     0.049 A 
ATOM     62  H   UNL A   1      42.895  30.433  28.963  1.00  0.00     0.167 HD
ATOM     63  C   UNL A   1      45.383  31.565  28.205  1.00  0.00     0.074 A 
ATOM     64  C   UNL A   1      46.699  31.715  27.618  1.00  0.00     0.031 C 
ATOM     65  C   UNL A   1      44.705  32.560  28.825  1.00  0.00     0.037 A 
BRANCH  52  66
ATOM     66  C   UNL A   1      39.156  30.895  30.958  1.00  0.00     0.064 A 
ATOM     67  C   UNL A   1      38.051  31.433  30.285  1.00  0.00     0.173 A 
ATOM     68  C   UNL A   1      39.053  30.702  32.345  1.00  0.00     0.173 A 
ATOM     69  F   UNL A   1      38.106  31.648  28.962  1.00  0.00    -0.203 F 
ATOM     70  C   UNL A   1      36.893  31.781  30.976  1.00  0.00     0.198 A 
ATOM     71  C   UNL A   1      37.887  31.032  33.029  1.00  0.00     0.198 A 
ATOM     72  F   UNL A   1      40.082  30.184  33.033  1.00  0.00    -0.203 F 
ATOM     73  F   UNL A   1      35.860  32.327  30.320  1.00  0.00    -0.200 F 
ATOM     74  C   UNL A   1      36.810  31.575  32.346  1.00  0.00     0.200 A 
ATOM     75  F   UNL A   1      37.806  30.823  34.351  1.00  0.00    -0.200 F 
ATOM     76  F   UNL A   1      35.694  31.907  33.010  1.00  0.00    -0.200 F 
ENDBRANCH  52  66
BRANCH  53  77
ATOM     77  C   UNL A   1      47.293  27.830  26.080  1.00  0.00     0.064 A 
ATOM     78  C   UNL A   1      48.423  27.372  26.771  1.00  0.00     0.173 A 
ATOM     79  C   UNL A   1      47.326  27.807  24.678  1.00  0.00     0.173 A 
ATOM     80  F   UNL A   1      48.443  27.401  28.111  1.00  0.00    -0.203 F 
ATOM     81  C   UNL A   1      49.541  26.904  26.085  1.00  0.00     0.198 A 
ATOM     82  C   UNL A   1      48.435  27.316  23.993  1.00  0.00     0.198 A 
ATOM     83  F   UNL A   1      46.268  28.236  23.974  1.00  0.00    -0.203 F 
ATOM     84  F   UNL A   1      50.617  26.490  26.767  1.00  0.00    -0.200 F 
ATOM     85  C   UNL A   1      49.542  26.866  24.699  1.00  0.00     0.200 A 
ATOM     86  F   UNL A   1      48.428  27.271  22.655  1.00  0.00    -0.200 F 
ATOM     87  F   UNL A   1      50.612  26.401  24.039  1.00  0.00    -0.200 F 
ENDBRANCH  53  77
BRANCH  65  88
ATOM     88  C   UNL A   1      45.382  33.893  28.905  1.00  0.00     0.064 A 
ATOM     89  C   UNL A   1      45.173  34.875  27.927  1.00  0.00     0.173 A 
ATOM     90  C   UNL A   1      46.231  34.197  29.979  1.00  0.00     0.173 A 
ATOM     91  F   UNL A   1      44.383  34.620  26.873  1.00  0.00    -0.203 F 
ATOM     92  C   UNL A   1      45.803  36.113  28.013  1.00  0.00     0.198 A 
ATOM     93  C   UNL A   1      46.845  35.443  30.071  1.00  0.00     0.198 A 
ATOM     94  F   UNL A   1      46.462  33.288  30.937  1.00  0.00    -0.203 F 
ATOM     95  F   UNL A   1      45.617  37.026  27.051  1.00  0.00    -0.200 F 
ATOM     96  C   UNL A   1      46.635  36.397  29.086  1.00  0.00     0.200 A 
ATOM     97  F   UNL A   1      47.646  35.718  31.110  1.00  0.00    -0.200 F 
ATOM     98  F   UNL A   1      47.242  37.590  29.168  1.00  0.00    -0.200 F 
ENDBRANCH  65  88
ENDBRANCH  39  40
ENDBRANCH  32  34
ENDBRANCH  31  32
ENDBRANCH  30  31
ENDBRANCH   1  30
TORSDOF 15
ENDMDL
MODEL 2
REMARK VINA RESULT:     -13.3      4.517      9.945
REMARK SMILES CCc1sc(NC(=O)[C@H]2CC(C)=C(C)C[C@H]2C(=O)OCCOC(=O)c2ccc(-c3c4nc(c(-c5c(F)c(F)c(F)c(F)c5F)c5ccc([nH]5)c(-c5c(F)c(F)c(F)c(F)c5F)c5nc(c(-c6c(F)c(F)c(F)c(F)c6F)c6ccc3[nH]6)C=C5)C=C4)cc2)nc1-c1ccccc1
REMARK SMILES IDX 20 1 19 2 17 3 18 4 16 5 9 6 10 7 11 8 15 9 12 10 13 11
REMARK SMILES IDX 14 12 7 13 6 14 8 16 5 17 3 18 4 19 89 20 88 21 2 22 1 23
REMARK SMILES IDX 90 24 91 25 95 26 92 27 94 28 93 29 21 30 22 31 23 32 24 33
REMARK SMILES IDX 25 34 26 35 87 36 27 37 86 38 28 39 29 40 30 41 80 42 31 43
REMARK SMILES IDX 85 44 79 45 81 46 32 47 84 48 78 49 77 50 33 52 65 53 45 54
REMARK SMILES IDX 64 55 46 56 49 57 63 58 82 59 47 60 48 61 62 63 83 64 50 65
REMARK SMILES IDX 34 66 35 67 43 68 36 69 37 70 41 71 44 72 38 73 39 74 42 75
REMARK SMILES IDX 40 76 66 77 67 78 75 79 68 80 69 81 73 82 76 83 70 84 71 85
REMARK SMILES IDX 74 86 72 87 51 88 52 89 60 90 53 91 54 92 58 93 61 94 55 95
REMARK SMILES IDX 56 96 59 97 57 98
REMARK H PARENT 6 15 81 51 49 62
REMARK Flexibility Score: inf
ROOT
ATOM      1  C   UNL A   1      31.909  29.307  25.258  1.00  0.00     0.274 C 
ENDROOT
BRANCH   1   2
ATOM      2  O   UNL A   1      31.555  29.451  23.869  1.00  0.00    -0.462 OA
BRANCH   2   3
ATOM      3  C   UNL A   1      32.236  28.667  22.995  1.00  0.00     0.310 C 
ATOM      4  O   UNL A   1      33.455  28.690  22.854  1.00  0.00    -0.252 OA
BRANCH   3   5
ATOM      5  C   UNL A   1      31.350  27.731  22.176  1.00  0.00     0.116 C 
ATOM      6  C   UNL A   1      31.551  26.208  22.391  1.00  0.00     0.097 C 
ATOM      7  C   UNL A   1      31.052  25.807  23.783  1.00  0.00     0.045 C 
ATOM      8  C   UNL A   1      29.692  26.378  24.139  1.00  0.00    -0.074 C 
ATOM      9  C   UNL A   1      29.889  28.147  22.375  1.00  0.00     0.046 C 
ATOM     10  C   UNL A   1      28.968  25.580  25.196  1.00  0.00     0.039 C 
ATOM     11  C   UNL A   1      29.166  27.448  23.502  1.00  0.00    -0.073 C 
ATOM     12  C   UNL A   1      27.813  28.037  23.810  1.00  0.00     0.039 C 
BRANCH   6  13
ATOM     13  C   UNL A   1      32.985  25.859  21.953  1.00  0.00     0.230 C 
ATOM     14  N   UNL A   1      33.974  25.498  22.801  1.00  0.00    -0.302 N 
ATOM     15  H   UNL A   1      34.781  26.061  22.789  1.00  0.00     0.172 HD
ATOM     16  O   UNL A   1      33.278  25.966  20.757  1.00  0.00    -0.274 OA
BRANCH  14  17
ATOM     17  C   UNL A   1      33.988  24.445  23.673  1.00  0.00     0.190 A 
ATOM     18  C   UNL A   1      34.336  22.987  25.546  1.00  0.00     0.034 A 
ATOM     19  S   UNL A   1      34.048  24.672  25.358  1.00  0.00    -0.101 S 
ATOM     20  C   UNL A   1      33.923  22.360  24.379  1.00  0.00     0.087 A 
ATOM     21  N   UNL A   1      33.809  23.206  23.286  1.00  0.00    -0.220 NA
BRANCH  18  22
ATOM     22  C   UNL A   1      34.882  22.430  26.825  1.00  0.00     0.046 C 
ATOM     23  C   UNL A   1      33.783  22.055  27.817  1.00  0.00     0.010 C 
ENDBRANCH  18  22
BRANCH  20  24
ATOM     24  C   UNL A   1      33.669  20.930  24.256  1.00  0.00     0.001 A 
ATOM     25  C   UNL A   1      32.529  20.468  23.581  1.00  0.00     0.010 A 
ATOM     26  C   UNL A   1      34.583  20.000  24.759  1.00  0.00     0.010 A 
ATOM     27  C   UNL A   1      32.284  19.100  23.450  1.00  0.00     0.001 A 
ATOM     28  C   UNL A   1      34.338  18.630  24.626  1.00  0.00     0.001 A 
ATOM     29  C   UNL A   1      33.186  18.182  23.980  1.00  0.00     0.000 A 
ENDBRANCH  20  24
ENDBRANCH  14  17
ENDBRANCH   6  13
ENDBRANCH   3   5
ENDBRANCH   2   3
ENDBRANCH   1   2
BRANCH   1  30
ATOM     30  C   UNL A   1      31.704  30.615  26.015  1.00  0.00     0.275 C 
BRANCH  30  31
ATOM     31  O   UNL A   1      32.503  30.627  27.209  1.00  0.00    -0.458 OA
BRANCH  31  32
ATOM     32  C   UNL A   1      33.251  31.739  27.401  1.00  0.00     0.338 C 
ATOM     33  O   UNL A   1      32.905  32.901  27.255  1.00  0.00    -0.246 OA
BRANCH  32  34
ATOM     34  C   UNL A   1      34.595  31.358  27.866  1.00  0.00     0.060 A 
ATOM     35  C   UNL A   1      34.849  30.031  28.206  1.00  0.00     0.016 A 
ATOM     36  C   UNL A   1      35.543  32.345  28.130  1.00  0.00     0.016 A 
ATOM     37  C   UNL A   1      35.993  29.703  28.925  1.00  0.00     0.010 A 
ATOM     38  C   UNL A   1      36.745  31.994  28.754  1.00  0.00     0.010 A 
ATOM     39  C   UNL A   1      36.962  30.677  29.197  1.00  0.00    -0.014 A 
BRANCH  39  40
ATOM     40  C   UNL A   1      38.178  30.330  29.976  1.00  0.00     0.031 A 
ATOM     41  C   UNL A   1      39.240  29.453  29.372  1.00  0.00     0.074 A 
ATOM     42  C   UNL A   1      38.341  30.805  31.226  1.00  0.00     0.049 A 
ATOM     43  N   UNL A   1      40.254  28.859  29.951  1.00  0.00    -0.248 NA
ATOM     44  C   UNL A   1      39.142  29.198  27.926  1.00  0.00     0.031 C 
ATOM     45  C   UNL A   1      37.427  31.717  31.913  1.00  0.00     0.029 A 
ATOM     46  N   UNL A   1      39.340  30.585  32.141  1.00  0.00    -0.354 N 
ATOM     47  C   UNL A   1      40.872  28.111  28.958  1.00  0.00     0.074 A 
ATOM     48  C   UNL A   1      40.130  28.335  27.735  1.00  0.00     0.031 C 
ATOM     49  C   UNL A   1      37.923  32.006  33.125  1.00  0.00     0.029 A 
ATOM     50  C   UNL A   1      39.140  31.230  33.334  1.00  0.00     0.049 A 
ATOM     51  H   UNL A   1      40.126  30.018  31.958  1.00  0.00     0.167 HD
ATOM     52  C   UNL A   1      41.954  27.304  29.065  1.00  0.00     0.037 A 
ATOM     53  C   UNL A   1      39.831  31.170  34.488  1.00  0.00     0.037 A 
ATOM     54  C   UNL A   1      42.729  27.137  30.267  1.00  0.00     0.049 A 
ATOM     55  C   UNL A   1      41.013  30.254  34.590  1.00  0.00     0.074 A 
ATOM     56  C   UNL A   1      43.855  26.358  30.471  1.00  0.00     0.029 A 
ATOM     57  N   UNL A   1      42.469  27.784  31.466  1.00  0.00    -0.354 N 
ATOM     58  N   UNL A   1      41.539  29.480  33.673  1.00  0.00    -0.248 NA
ATOM     59  C   UNL A   1      41.679  30.179  35.898  1.00  0.00     0.031 C 
ATOM     60  C   UNL A   1      44.262  26.515  31.801  1.00  0.00     0.029 A 
ATOM     61  C   UNL A   1      43.407  27.415  32.417  1.00  0.00     0.049 A 
ATOM     62  H   UNL A   1      41.727  28.412  31.620  1.00  0.00     0.167 HD
ATOM     63  C   UNL A   1      42.595  28.824  34.289  1.00  0.00     0.074 A 
ATOM     64  C   UNL A   1      42.649  29.307  35.654  1.00  0.00     0.031 C 
ATOM     65  C   UNL A   1      43.439  27.900  33.771  1.00  0.00     0.037 A 
BRANCH  52  66
ATOM     66  C   UNL A   1      42.342  26.503  27.859  1.00  0.00     0.064 A 
ATOM     67  C   UNL A   1      43.334  26.933  26.969  1.00  0.00     0.173 A 
ATOM     68  C   UNL A   1      41.727  25.265  27.612  1.00  0.00     0.173 A 
ATOM     69  F   UNL A   1      43.943  28.115  27.154  1.00  0.00    -0.203 F 
ATOM     70  C   UNL A   1      43.685  26.163  25.862  1.00  0.00     0.198 A 
ATOM     71  C   UNL A   1      42.094  24.488  26.518  1.00  0.00     0.198 A 
ATOM     72  F   UNL A   1      40.775  24.807  28.439  1.00  0.00    -0.203 F 
ATOM     73  F   UNL A   1      44.612  26.608  25.003  1.00  0.00    -0.200 F 
ATOM     74  C   UNL A   1      43.069  24.939  25.641  1.00  0.00     0.200 A 
ATOM     75  F   UNL A   1      41.504  23.302  26.312  1.00  0.00    -0.200 F 
ATOM     76  F   UNL A   1      43.411  24.196  24.579  1.00  0.00    -0.200 F 
ENDBRANCH  52  66
BRANCH  53  77
ATOM     77  C   UNL A   1      39.382  31.979  35.647  1.00  0.00     0.064 A 
ATOM     78  C   UNL A   1      39.847  33.287  35.831  1.00  0.00     0.173 A 
ATOM     79  C   UNL A   1      38.454  31.475  36.571  1.00  0.00     0.173 A 
ATOM     80  F   UNL A   1      40.753  33.799  34.986  1.00  0.00    -0.203 F 
ATOM     81  C   UNL A   1      39.396  34.065  36.895  1.00  0.00     0.198 A 
ATOM     82  C   UNL A   1      37.986  32.261  37.620  1.00  0.00     0.198 A 
ATOM     83  F   UNL A   1      37.982  30.227  36.436  1.00  0.00    -0.203 F 
ATOM     84  F   UNL A   1      39.870  35.307  37.062  1.00  0.00    -0.200 F 
ATOM     85  C   UNL A   1      38.459  33.555  37.782  1.00  0.00     0.200 A 
ATOM     86  F   UNL A   1      37.073  31.770  38.468  1.00  0.00    -0.200 F 
ATOM     87  F   UNL A   1      38.015  34.309  38.797  1.00  0.00    -0.200 F 
ENDBRANCH  53  77
BRANCH  65  88
ATOM     88  C   UNL A   1      44.495  27.362  34.684  1.00  0.00     0.064 A 
ATOM     89  C   UNL A   1      44.286  26.194  35.430  1.00  0.00     0.173 A 
ATOM     90  C   UNL A   1      45.735  28.008  34.798  1.00  0.00     0.173 A 
ATOM     91  F   UNL A   1      43.108  25.554  35.366  1.00  0.00    -0.203 F 
ATOM     92  C   UNL A   1      45.277  25.698  36.272  1.00  0.00     0.198 A 
ATOM     93  C   UNL A   1      46.730  27.499  35.628  1.00  0.00     0.198 A 
ATOM     94  F   UNL A   1      45.980  29.129  34.104  1.00  0.00    -0.203 F 
ATOM     95  F   UNL A   1      45.046  24.600  37.003  1.00  0.00    -0.200 F 
ATOM     96  C   UNL A   1      46.499  26.349  36.367  1.00  0.00     0.200 A 
ATOM     97  F   UNL A   1      47.911  28.126  35.716  1.00  0.00    -0.200 F 
ATOM     98  F   UNL A   1      47.452  25.871  37.179  1.00  0.00    -0.200 F 
ENDBRANCH  65  88
ENDBRANCH  39  40
ENDBRANCH  32  34
ENDBRANCH  31  32
ENDBRANCH  30  31
ENDBRANCH   1  30
TORSDOF 15
ENDMDL
MODEL 3
REMARK VINA RESULT:     -12.8      0.807      7.130
REMARK SMILES CCc1sc(NC(=O)[C@H]2CC(C)=C(C)C[C@H]2C(=O)OCCOC(=O)c2ccc(-c3c4nc(c(-c5c(F)c(F)c(F)c(F)c5F)c5ccc([nH]5)c(-c5c(F)c(F)c(F)c(F)c5F)c5nc(c(-c6c(F)c(F)c(F)c(F)c6F)c6ccc3[nH]6)C=C5)C=C4)cc2)nc1-c1ccccc1
REMARK SMILES IDX 20 1 19 2 17 3 18 4 16 5 9 6 10 7 11 8 15 9 12 10 13 11
REMARK SMILES IDX 14 12 7 13 6 14 8 16 5 17 3 18 4 19 89 20 88 21 2 22 1 23
REMARK SMILES IDX 90 24 91 25 95 26 92 27 94 28 93 29 21 30 22 31 23 32 24 33
REMARK SMILES IDX 25 34 26 35 87 36 27 37 86 38 28 39 29 40 30 41 80 42 31 43
REMARK SMILES IDX 85 44 79 45 81 46 32 47 84 48 78 49 77 50 33 52 65 53 45 54
REMARK SMILES IDX 64 55 46 56 49 57 63 58 82 59 47 60 48 61 62 63 83 64 50 65
REMARK SMILES IDX 34 66 35 67 43 68 36 69 37 70 41 71 44 72 38 73 39 74 42 75
REMARK SMILES IDX 40 76 66 77 67 78 75 79 68 80 69 81 73 82 76 83 70 84 71 85
REMARK SMILES IDX 74 86 72 87 51 88 52 89 60 90 53 91 54 92 58 93 61 94 55 95
REMARK SMILES IDX 56 96 59 97 57 98
REMARK H PARENT 6 15 81 51 49 62
REMARK Flexibility Score: inf
ROOT
ATOM      1  C   UNL A   1      36.190  21.398  24.731  1.00  0.00     0.274 C 
ENDROOT
BRANCH   1   2
ATOM      2  O   UNL A   1      35.050  20.636  25.176  1.00  0.00    -0.462 OA
BRANCH   2   3
ATOM      3  C   UNL A   1      34.307  21.197  26.163  1.00  0.00     0.310 C 
ATOM      4  O   UNL A   1      34.767  21.903  27.056  1.00  0.00    -0.252 OA
BRANCH   3   5
ATOM      5  C   UNL A   1      32.817  20.872  26.083  1.00  0.00     0.116 C 
ATOM      6  C   UNL A   1      31.881  21.997  25.570  1.00  0.00     0.097 C 
ATOM      7  C   UNL A   1      32.125  22.240  24.077  1.00  0.00     0.045 C 
ATOM      8  C   UNL A   1      32.192  20.970  23.250  1.00  0.00    -0.074 C 
ATOM      9  C   UNL A   1      32.644  19.577  25.283  1.00  0.00     0.046 C 
ATOM     10  C   UNL A   1      31.872  21.191  21.791  1.00  0.00     0.039 C 
ATOM     11  C   UNL A   1      32.435  19.759  23.798  1.00  0.00    -0.073 C 
ATOM     12  C   UNL A   1      32.493  18.470  23.017  1.00  0.00     0.039 C 
BRANCH   6  13
ATOM     13  C   UNL A   1      31.965  23.167  26.568  1.00  0.00     0.230 C 
ATOM     14  N   UNL A   1      32.627  24.322  26.333  1.00  0.00    -0.302 N 
ATOM     15  H   UNL A   1      33.339  24.551  26.974  1.00  0.00     0.172 HD
ATOM     16  O   UNL A   1      31.445  23.031  27.680  1.00  0.00    -0.274 OA
BRANCH  14  17
ATOM     17  C   UNL A   1      32.428  25.211  25.314  1.00  0.00     0.190 A 
ATOM     18  C   UNL A   1      32.684  26.716  23.463  1.00  0.00     0.034 A 
ATOM     19  S   UNL A   1      33.422  25.236  23.933  1.00  0.00    -0.101 S 
ATOM     20  C   UNL A   1      31.477  26.815  24.142  1.00  0.00     0.087 A 
ATOM     21  N   UNL A   1      31.381  25.997  25.258  1.00  0.00    -0.220 NA
BRANCH  18  22
ATOM     22  C   UNL A   1      33.318  27.611  22.443  1.00  0.00     0.046 C 
ATOM     23  C   UNL A   1      34.214  28.675  23.073  1.00  0.00     0.010 C 
ENDBRANCH  18  22
BRANCH  20  24
ATOM     24  C   UNL A   1      30.398  27.723  23.776  1.00  0.00     0.001 A 
ATOM     25  C   UNL A   1      30.627  29.106  23.707  1.00  0.00     0.010 A 
ATOM     26  C   UNL A   1      29.136  27.226  23.435  1.00  0.00     0.010 A 
ATOM     27  C   UNL A   1      29.601  29.980  23.348  1.00  0.00     0.001 A 
ATOM     28  C   UNL A   1      28.109  28.104  23.074  1.00  0.00     0.001 A 
ATOM     29  C   UNL A   1      28.340  29.479  23.038  1.00  0.00     0.000 A 
ENDBRANCH  20  24
ENDBRANCH  14  17
ENDBRANCH   6  13
ENDBRANCH   3   5
ENDBRANCH   2   3
ENDBRANCH   1   2
BRANCH   1  30
ATOM     30  C   UNL A   1      37.491  20.658  25.022  1.00  0.00     0.275 C 
BRANCH  30  31
ATOM     31  O   UNL A   1      38.575  21.592  25.152  1.00  0.00    -0.458 OA
BRANCH  31  32
ATOM     32  C   UNL A   1      39.382  21.406  26.223  1.00  0.00     0.338 C 
ATOM     33  O   UNL A   1      39.784  20.345  26.675  1.00  0.00    -0.246 OA
BRANCH  32  34
ATOM     34  C   UNL A   1      39.768  22.710  26.787  1.00  0.00     0.060 A 
ATOM     35  C   UNL A   1      39.192  23.871  26.274  1.00  0.00     0.016 A 
ATOM     36  C   UNL A   1      40.822  22.789  27.696  1.00  0.00     0.016 A 
ATOM     37  C   UNL A   1      39.750  25.112  26.568  1.00  0.00     0.010 A 
ATOM     38  C   UNL A   1      41.308  24.044  28.076  1.00  0.00     0.010 A 
ATOM     39  C   UNL A   1      40.806  25.215  27.482  1.00  0.00    -0.014 A 
BRANCH  39  40
ATOM     40  C   UNL A   1      41.410  26.538  27.785  1.00  0.00     0.031 A 
ATOM     41  C   UNL A   1      42.830  26.832  27.386  1.00  0.00     0.074 A 
ATOM     42  C   UNL A   1      40.687  27.486  28.413  1.00  0.00     0.049 A 
ATOM     43  N   UNL A   1      43.604  27.825  27.748  1.00  0.00    -0.248 NA
ATOM     44  C   UNL A   1      43.469  25.876  26.469  1.00  0.00     0.031 C 
ATOM     45  C   UNL A   1      39.281  27.363  28.799  1.00  0.00     0.029 A 
ATOM     46  N   UNL A   1      41.039  28.743  28.835  1.00  0.00    -0.354 N 
ATOM     47  C   UNL A   1      44.836  27.577  27.158  1.00  0.00     0.074 A 
ATOM     48  C   UNL A   1      44.706  26.350  26.403  1.00  0.00     0.031 C 
ATOM     49  C   UNL A   1      38.881  28.509  29.369  1.00  0.00     0.029 A 
ATOM     50  C   UNL A   1      40.022  29.411  29.469  1.00  0.00     0.049 A 
ATOM     51  H   UNL A   1      41.935  29.130  28.695  1.00  0.00     0.167 HD
ATOM     52  C   UNL A   1      45.974  28.307  27.251  1.00  0.00     0.037 A 
ATOM     53  C   UNL A   1      40.018  30.597  30.105  1.00  0.00     0.037 A 
ATOM     54  C   UNL A   1      46.081  29.563  27.946  1.00  0.00     0.049 A 
ATOM     55  C   UNL A   1      41.294  31.378  30.213  1.00  0.00     0.074 A 
ATOM     56  C   UNL A   1      47.184  30.388  28.080  1.00  0.00     0.029 A 
ATOM     57  N   UNL A   1      45.033  30.186  28.607  1.00  0.00    -0.354 N 
ATOM     58  N   UNL A   1      42.478  31.095  29.730  1.00  0.00    -0.248 NA
ATOM     59  C   UNL A   1      41.239  32.629  30.982  1.00  0.00     0.031 C 
ATOM     60  C   UNL A   1      46.809  31.501  28.843  1.00  0.00     0.029 A 
ATOM     61  C   UNL A   1      45.466  31.382  29.159  1.00  0.00     0.049 A 
ATOM     62  H   UNL A   1      44.117  29.832  28.676  1.00  0.00     0.167 HD
ATOM     63  C   UNL A   1      43.311  32.128  30.135  1.00  0.00     0.074 A 
ATOM     64  C   UNL A   1      42.491  33.056  30.888  1.00  0.00     0.031 C 
ATOM     65  C   UNL A   1      44.636  32.287  29.911  1.00  0.00     0.037 A 
BRANCH  52  66
ATOM     66  C   UNL A   1      47.210  27.744  26.616  1.00  0.00     0.064 A 
ATOM     67  C   UNL A   1      48.141  26.990  27.342  1.00  0.00     0.173 A 
ATOM     68  C   UNL A   1      47.445  27.940  25.246  1.00  0.00     0.173 A 
ATOM     69  F   UNL A   1      47.967  26.785  28.656  1.00  0.00    -0.203 F 
ATOM     70  C   UNL A   1      49.274  26.467  26.723  1.00  0.00     0.198 A 
ATOM     71  C   UNL A   1      48.568  27.399  24.627  1.00  0.00     0.198 A 
ATOM     72  F   UNL A   1      46.579  28.651  24.507  1.00  0.00    -0.203 F 
ATOM     73  F   UNL A   1      50.171  25.778  27.442  1.00  0.00    -0.200 F 
ATOM     74  C   UNL A   1      49.484  26.667  25.366  1.00  0.00     0.200 A 
ATOM     75  F   UNL A   1      48.763  27.586  23.314  1.00  0.00    -0.200 F 
ATOM     76  F   UNL A   1      50.573  26.160  24.772  1.00  0.00    -0.200 F 
ENDBRANCH  52  66
BRANCH  53  77
ATOM     77  C   UNL A   1      38.762  31.087  30.723  1.00  0.00     0.064 A 
ATOM     78  C   UNL A   1      38.505  30.880  32.084  1.00  0.00     0.173 A 
ATOM     79  C   UNL A   1      37.814  31.803  29.977  1.00  0.00     0.173 A 
ATOM     80  F   UNL A   1      39.373  30.179  32.829  1.00  0.00    -0.203 F 
ATOM     81  C   UNL A   1      37.346  31.374  32.678  1.00  0.00     0.198 A 
ATOM     82  C   UNL A   1      36.668  32.317  30.576  1.00  0.00     0.198 A 
ATOM     83  F   UNL A   1      38.017  32.025  28.670  1.00  0.00    -0.203 F 
ATOM     84  F   UNL A   1      37.113  31.146  33.977  1.00  0.00    -0.200 F 
ATOM     85  C   UNL A   1      36.435  32.101  31.927  1.00  0.00     0.200 A 
ATOM     86  F   UNL A   1      35.795  33.028  29.850  1.00  0.00    -0.200 F 
ATOM     87  F   UNL A   1      35.327  32.589  32.502  1.00  0.00    -0.200 F 
ENDBRANCH  53  77
BRANCH  65  88
ATOM     88  C   UNL A   1      45.276  33.516  30.477  1.00  0.00     0.064 A 
ATOM     89  C   UNL A   1      45.321  34.714  29.750  1.00  0.00     0.173 A 
ATOM     90  C   UNL A   1      45.828  33.502  31.766  1.00  0.00     0.173 A 
ATOM     91  F   UNL A   1      44.821  34.767  28.506  1.00  0.00    -0.203 F 
ATOM     92  C   UNL A   1      45.912  35.853  30.288  1.00  0.00     0.198 A 
ATOM     93  C   UNL A   1      46.403  34.648  32.307  1.00  0.00     0.198 A 
ATOM     94  F   UNL A   1      45.808  32.379  32.499  1.00  0.00    -0.203 F 
ATOM     95  F   UNL A   1      45.977  36.978  29.564  1.00  0.00    -0.200 F 
ATOM     96  C   UNL A   1      46.449  35.821  31.567  1.00  0.00     0.200 A 
ATOM     97  F   UNL A   1      46.918  34.617  33.545  1.00  0.00    -0.200 F 
ATOM     98  F   UNL A   1      47.019  36.918  32.084  1.00  0.00    -0.200 F 
ENDBRANCH  65  88
ENDBRANCH  39  40
ENDBRANCH  32  34
ENDBRANCH  31  32
ENDBRANCH  30  31
ENDBRANCH   1  30
TORSDOF 15
ENDMDL
