MODEL 1
REMARK VINA RESULT:     -13.1      0.000      0.000
REMARK SMILES CC(C)(C)c1ccc(NC(=O)Nc2cccc(C(=O)OCCOC(=O)c3ccc(-c4c5nc(c(-c6c(F)c(F)c(F)c(F)c6F)c6ccc([nH]6)c(-c6c(F)c(F)c(F)c(F)c6F)c6nc(c(-c7c(F)c(F)c(F)c(F)c7F)c7ccc4[nH]7)C=C6)C=C5)cc3)c2)cc1
REMARK SMILES IDX 21 1 20 2 18 3 19 4 17 5 13 6 14 7 89 8 15 9 16 10 12 11
REMARK SMILES IDX 9 12 10 13 11 15 8 17 5 18 6 19 91 20 7 21 90 22 2 23 1 24
REMARK SMILES IDX 3 25 4 26 22 27 23 28 24 29 25 30 26 31 27 32 88 33 28 34
REMARK SMILES IDX 87 35 29 36 30 37 31 38 81 39 32 40 86 41 80 42 82 43 33 44
REMARK SMILES IDX 85 45 79 46 78 47 34 49 66 50 46 51 65 52 47 53 50 54 64 55
REMARK SMILES IDX 83 56 48 57 49 58 63 60 84 61 51 62 35 63 36 64 44 65 37 66
REMARK SMILES IDX 38 67 42 68 45 69 39 70 40 71 43 72 41 73 67 74 68 75 76 76
REMARK SMILES IDX 69 77 70 78 74 79 77 80 71 81 72 82 75 83 73 84 52 85 53 86
REMARK SMILES IDX 61 87 54 88 55 89 59 90 62 91 56 92 57 93 60 94 58 95
REMARK H PARENT 9 14 12 16 82 48 50 59
REMARK Flexibility Score: inf
ROOT
ATOM      1  C   UNL A   1      31.726  29.582  24.781  1.00  0.00     0.275 C 
ENDROOT
BRANCH   1   2
ATOM      2  O   UNL A   1      32.627  28.520  25.165  1.00  0.00    -0.458 OA
BRANCH   2   3
ATOM      3  C   UNL A   1      33.068  27.792  24.112  1.00  0.00     0.338 C 
ATOM      4  O   UNL A   1      33.856  28.190  23.274  1.00  0.00    -0.246 OA
BRANCH   3   5
ATOM      5  C   UNL A   1      32.464  26.450  24.012  1.00  0.00     0.062 A 
ATOM      6  C   UNL A   1      31.177  24.805  25.176  1.00  0.00     0.043 A 
ATOM      7  C   UNL A   1      30.717  24.265  23.971  1.00  0.00     0.026 A 
ATOM      8  C   UNL A   1      32.160  25.792  25.194  1.00  0.00     0.041 A 
ATOM      9  C   UNL A   1      31.064  24.885  22.779  1.00  0.00     0.003 A 
ATOM     10  C   UNL A   1      31.887  26.010  22.809  1.00  0.00     0.016 A 
BRANCH   6  11
ATOM     11  N   UNL A   1      30.489  24.448  26.340  1.00  0.00    -0.308 N 
ATOM     12  N   UNL A   1      31.344  22.265  26.813  1.00  0.00    -0.308 N 
ATOM     13  C   UNL A   1      30.413  23.245  26.960  1.00  0.00     0.323 C 
ATOM     14  H   UNL A   1      30.975  21.367  26.980  1.00  0.00     0.171 HD
ATOM     15  O   UNL A   1      29.434  23.020  27.677  1.00  0.00    -0.248 OA
ATOM     16  H   UNL A   1      29.987  25.177  26.772  1.00  0.00     0.171 HD
BRANCH  12  17
ATOM     17  C   UNL A   1      32.718  22.232  26.475  1.00  0.00     0.042 A 
ATOM     18  C   UNL A   1      35.416  22.171  25.485  1.00  0.00    -0.042 A 
ATOM     19  C   UNL A   1      35.050  22.943  26.606  1.00  0.00     0.006 A 
ATOM     20  C   UNL A   1      34.406  21.362  24.938  1.00  0.00     0.006 A 
ATOM     21  C   UNL A   1      33.726  22.964  27.100  1.00  0.00     0.026 A 
ATOM     22  C   UNL A   1      33.088  21.388  25.427  1.00  0.00     0.026 A 
BRANCH  18  23
ATOM     23  C   UNL A   1      36.850  22.210  24.904  1.00  0.00    -0.013 C 
ATOM     24  C   UNL A   1      36.807  22.870  23.513  1.00  0.00     0.016 C 
ATOM     25  C   UNL A   1      37.485  20.806  24.736  1.00  0.00     0.016 C 
ATOM     26  C   UNL A   1      37.842  23.013  25.783  1.00  0.00     0.016 C 
ENDBRANCH  18  23
ENDBRANCH  12  17
ENDBRANCH   6  11
ENDBRANCH   3   5
ENDBRANCH   2   3
ENDBRANCH   1   2
BRANCH   1  27
ATOM     27  C   UNL A   1      31.507  30.601  25.905  1.00  0.00     0.275 C 
BRANCH  27  28
ATOM     28  O   UNL A   1      32.502  30.482  26.945  1.00  0.00    -0.458 OA
BRANCH  28  29
ATOM     29  C   UNL A   1      33.170  31.616  27.260  1.00  0.00     0.338 C 
ATOM     30  O   UNL A   1      32.744  32.760  27.232  1.00  0.00    -0.246 OA
BRANCH  29  31
ATOM     31  C   UNL A   1      34.534  31.304  27.731  1.00  0.00     0.060 A 
ATOM     32  C   UNL A   1      34.820  30.000  28.116  1.00  0.00     0.016 A 
ATOM     33  C   UNL A   1      35.470  32.303  27.979  1.00  0.00     0.016 A 
ATOM     34  C   UNL A   1      35.974  29.678  28.814  1.00  0.00     0.010 A 
ATOM     35  C   UNL A   1      36.682  31.972  28.609  1.00  0.00     0.010 A 
ATOM     36  C   UNL A   1      36.928  30.660  29.062  1.00  0.00    -0.014 A 
BRANCH  36  37
ATOM     37  C   UNL A   1      38.127  30.309  29.862  1.00  0.00     0.031 A 
ATOM     38  C   UNL A   1      39.179  29.417  29.268  1.00  0.00     0.074 A 
ATOM     39  C   UNL A   1      38.320  30.851  31.080  1.00  0.00     0.049 A 
ATOM     40  N   UNL A   1      40.224  28.872  29.837  1.00  0.00    -0.248 NA
ATOM     41  C   UNL A   1      39.043  29.106  27.836  1.00  0.00     0.031 C 
ATOM     42  C   UNL A   1      37.441  31.829  31.725  1.00  0.00     0.029 A 
ATOM     43  N   UNL A   1      39.328  30.659  31.994  1.00  0.00    -0.354 N 
ATOM     44  C   UNL A   1      40.843  28.120  28.848  1.00  0.00     0.074 A 
ATOM     45  C   UNL A   1      40.058  28.277  27.641  1.00  0.00     0.031 C 
ATOM     46  C   UNL A   1      37.949  32.154  32.925  1.00  0.00     0.029 A 
ATOM     47  C   UNL A   1      39.139  31.347  33.169  1.00  0.00     0.049 A 
ATOM     48  H   UNL A   1      40.109  30.086  31.823  1.00  0.00     0.167 HD
ATOM     49  C   UNL A   1      41.962  27.363  28.944  1.00  0.00     0.037 A 
ATOM     50  C   UNL A   1      39.817  31.289  34.331  1.00  0.00     0.037 A 
ATOM     51  C   UNL A   1      42.752  27.234  30.140  1.00  0.00     0.049 A 
ATOM     52  C   UNL A   1      40.993  30.356  34.444  1.00  0.00     0.074 A 
ATOM     53  C   UNL A   1      43.890  26.475  30.347  1.00  0.00     0.029 A 
ATOM     54  N   UNL A   1      42.488  27.890  31.334  1.00  0.00    -0.354 N 
ATOM     55  N   UNL A   1      41.535  29.589  33.529  1.00  0.00    -0.248 NA
ATOM     56  C   UNL A   1      41.642  30.268  35.760  1.00  0.00     0.031 C 
ATOM     57  C   UNL A   1      44.288  26.634  31.678  1.00  0.00     0.029 A 
ATOM     58  C   UNL A   1      43.429  27.535  32.287  1.00  0.00     0.049 A 
ATOM     59  H   UNL A   1      41.742  28.516  31.482  1.00  0.00     0.167 HD
ATOM     60  C   UNL A   1      42.598  28.946  34.150  1.00  0.00     0.074 A 
ATOM     61  C   UNL A   1      42.639  29.431  35.514  1.00  0.00     0.031 C 
ATOM     62  C   UNL A   1      43.459  28.033  33.640  1.00  0.00     0.037 A 
BRANCH  49  63
ATOM     63  C   UNL A   1      42.366  26.570  27.736  1.00  0.00     0.064 A 
ATOM     64  C   UNL A   1      43.337  27.028  26.834  1.00  0.00     0.173 A 
ATOM     65  C   UNL A   1      41.787  25.314  27.496  1.00  0.00     0.173 A 
ATOM     66  F   UNL A   1      43.906  28.230  27.007  1.00  0.00    -0.203 F 
ATOM     67  C   UNL A   1      43.695  26.267  25.723  1.00  0.00     0.198 A 
ATOM     68  C   UNL A   1      42.169  24.543  26.403  1.00  0.00     0.198 A 
ATOM     69  F   UNL A   1      40.856  24.828  28.331  1.00  0.00    -0.203 F 
ATOM     70  F   UNL A   1      44.592  26.743  24.847  1.00  0.00    -0.200 F 
ATOM     71  C   UNL A   1      43.118  25.023  25.512  1.00  0.00     0.200 A 
ATOM     72  F   UNL A   1      41.618  23.337  26.208  1.00  0.00    -0.200 F 
ATOM     73  F   UNL A   1      43.469  24.291  24.447  1.00  0.00    -0.200 F 
ENDBRANCH  49  63
BRANCH  50  74
ATOM     74  C   UNL A   1      39.364  32.082  35.505  1.00  0.00     0.064 A 
ATOM     75  C   UNL A   1      39.856  33.373  35.744  1.00  0.00     0.173 A 
ATOM     76  C   UNL A   1      38.460  31.548  36.438  1.00  0.00     0.173 A 
ATOM     77  F   UNL A   1      40.745  33.917  34.898  1.00  0.00    -0.203 F 
ATOM     78  C   UNL A   1      39.482  34.088  36.879  1.00  0.00     0.198 A 
ATOM     79  C   UNL A   1      38.060  32.279  37.554  1.00  0.00     0.198 A 
ATOM     80  F   UNL A   1      37.963  30.316  36.263  1.00  0.00    -0.203 F 
ATOM     81  F   UNL A   1      40.015  35.295  37.114  1.00  0.00    -0.200 F 
ATOM     82  C   UNL A   1      38.580  33.543  37.781  1.00  0.00     0.200 A 
ATOM     83  F   UNL A   1      37.179  31.752  38.415  1.00  0.00    -0.200 F 
ATOM     84  F   UNL A   1      38.222  34.230  38.874  1.00  0.00    -0.200 F 
ENDBRANCH  50  74
BRANCH  62  85
ATOM     85  C   UNL A   1      44.541  27.528  34.550  1.00  0.00     0.064 A 
ATOM     86  C   UNL A   1      44.357  26.396  35.358  1.00  0.00     0.173 A 
ATOM     87  C   UNL A   1      45.786  28.174  34.599  1.00  0.00     0.173 A 
ATOM     88  F   UNL A   1      43.180  25.753  35.360  1.00  0.00    -0.203 F 
ATOM     89  C   UNL A   1      45.368  25.949  36.204  1.00  0.00     0.198 A 
ATOM     90  C   UNL A   1      46.806  27.705  35.422  1.00  0.00     0.198 A 
ATOM     91  F   UNL A   1      46.017  29.258  33.842  1.00  0.00    -0.203 F 
ATOM     92  F   UNL A   1      45.150  24.899  37.009  1.00  0.00    -0.200 F 
ATOM     93  C   UNL A   1      46.593  26.599  36.231  1.00  0.00     0.200 A 
ATOM     94  F   UNL A   1      47.994  28.326  35.436  1.00  0.00    -0.200 F 
ATOM     95  F   UNL A   1      47.566  26.165  37.043  1.00  0.00    -0.200 F 
ENDBRANCH  62  85
ENDBRANCH  36  37
ENDBRANCH  29  31
ENDBRANCH  28  29
ENDBRANCH  27  28
ENDBRANCH   1  27
TORSDOF 14
ENDMDL
MODEL 2
REMARK VINA RESULT:     -13.0      0.495      1.718
REMARK SMILES CC(C)(C)c1ccc(NC(=O)Nc2cccc(C(=O)OCCOC(=O)c3ccc(-c4c5nc(c(-c6c(F)c(F)c(F)c(F)c6F)c6ccc([nH]6)c(-c6c(F)c(F)c(F)c(F)c6F)c6nc(c(-c7c(F)c(F)c(F)c(F)c7F)c7ccc4[nH]7)C=C6)C=C5)cc3)c2)cc1
REMARK SMILES IDX 21 1 20 2 18 3 19 4 17 5 13 6 14 7 89 8 15 9 16 10 12 11
REMARK SMILES IDX 9 12 10 13 11 15 8 17 5 18 6 19 91 20 7 21 90 22 2 23 1 24
REMARK SMILES IDX 3 25 4 26 22 27 23 28 24 29 25 30 26 31 27 32 88 33 28 34
REMARK SMILES IDX 87 35 29 36 30 37 31 38 81 39 32 40 86 41 80 42 82 43 33 44
REMARK SMILES IDX 85 45 79 46 78 47 34 49 66 50 46 51 65 52 47 53 50 54 64 55
REMARK SMILES IDX 83 56 48 57 49 58 63 60 84 61 51 62 35 63 36 64 44 65 37 66
REMARK SMILES IDX 38 67 42 68 45 69 39 70 40 71 43 72 41 73 67 74 68 75 76 76
REMARK SMILES IDX 69 77 70 78 74 79 77 80 71 81 72 82 75 83 73 84 52 85 53 86
REMARK SMILES IDX 61 87 54 88 55 89 59 90 62 91 56 92 57 93 60 94 58 95
REMARK H PARENT 9 14 12 16 82 48 50 59
REMARK Flexibility Score: inf
ROOT
ATOM      1  C   UNL A   1      31.459  29.739  25.573  1.00  0.00     0.275 C 
ENDROOT
BRANCH   1   2
ATOM      2  O   UNL A   1      32.493  29.246  24.693  1.00  0.00    -0.458 OA
BRANCH   2   3
ATOM      3  C   UNL A   1      33.104  28.133  25.164  1.00  0.00     0.338 C 
ATOM      4  O   UNL A   1      34.139  28.127  25.803  1.00  0.00    -0.246 OA
BRANCH   3   5
ATOM      5  C   UNL A   1      32.436  26.873  24.786  1.00  0.00     0.062 A 
ATOM      6  C   UNL A   1      31.098  25.063  25.595  1.00  0.00     0.043 A 
ATOM      7  C   UNL A   1      30.589  24.825  24.315  1.00  0.00     0.026 A 
ATOM      8  C   UNL A   1      32.127  25.981  25.801  1.00  0.00     0.041 A 
ATOM      9  C   UNL A   1      30.938  25.682  23.281  1.00  0.00     0.003 A 
ATOM     10  C   UNL A   1      31.813  26.737  23.535  1.00  0.00     0.016 A 
BRANCH   6  11
ATOM     11  N   UNL A   1      30.419  24.484  26.672  1.00  0.00    -0.308 N 
ATOM     12  N   UNL A   1      31.217  22.230  26.649  1.00  0.00    -0.308 N 
ATOM     13  C   UNL A   1      30.318  23.178  27.023  1.00  0.00     0.323 C 
ATOM     14  H   UNL A   1      30.824  21.326  26.629  1.00  0.00     0.171 HD
ATOM     15  O   UNL A   1      29.345  22.831  27.697  1.00  0.00    -0.248 OA
ATOM     16  H   UNL A   1      29.947  25.116  27.260  1.00  0.00     0.171 HD
BRANCH  12  17
ATOM     17  C   UNL A   1      32.583  22.234  26.281  1.00  0.00     0.042 A 
ATOM     18  C   UNL A   1      35.266  22.368  25.257  1.00  0.00    -0.042 A 
ATOM     19  C   UNL A   1      34.961  22.689  26.595  1.00  0.00     0.006 A 
ATOM     20  C   UNL A   1      34.197  21.890  24.480  1.00  0.00     0.006 A 
ATOM     21  C   UNL A   1      33.644  22.612  27.102  1.00  0.00     0.026 A 
ATOM     22  C   UNL A   1      32.887  21.818  24.983  1.00  0.00     0.026 A 
BRANCH  18  23
ATOM     23  C   UNL A   1      36.697  22.526  24.689  1.00  0.00    -0.013 C 
ATOM     24  C   UNL A   1      37.432  21.178  24.807  1.00  0.00     0.016 C 
ATOM     25  C   UNL A   1      37.543  23.587  25.437  1.00  0.00     0.016 C 
ATOM     26  C   UNL A   1      36.717  22.951  23.199  1.00  0.00     0.016 C 
ENDBRANCH  18  23
ENDBRANCH  12  17
ENDBRANCH   6  11
ENDBRANCH   3   5
ENDBRANCH   2   3
ENDBRANCH   1   2
BRANCH   1  27
ATOM     27  C   UNL A   1      31.775  31.132  26.129  1.00  0.00     0.275 C 
BRANCH  27  28
ATOM     28  O   UNL A   1      32.636  31.070  27.286  1.00  0.00    -0.458 OA
BRANCH  28  29
ATOM     29  C   UNL A   1      33.425  32.149  27.499  1.00  0.00     0.338 C 
ATOM     30  O   UNL A   1      33.115  33.325  27.396  1.00  0.00    -0.246 OA
BRANCH  29  31
ATOM     31  C   UNL A   1      34.766  31.734  27.955  1.00  0.00     0.060 A 
ATOM     32  C   UNL A   1      34.949  30.418  28.362  1.00  0.00     0.016 A 
ATOM     33  C   UNL A   1      35.786  32.656  28.169  1.00  0.00     0.016 A 
ATOM     34  C   UNL A   1      36.084  30.014  29.048  1.00  0.00     0.010 A 
ATOM     35  C   UNL A   1      36.976  32.237  28.786  1.00  0.00     0.010 A 
ATOM     36  C   UNL A   1      37.120  30.918  29.262  1.00  0.00    -0.014 A 
BRANCH  36  37
ATOM     37  C   UNL A   1      38.299  30.484  30.051  1.00  0.00     0.031 A 
ATOM     38  C   UNL A   1      39.306  29.558  29.431  1.00  0.00     0.074 A 
ATOM     39  C   UNL A   1      38.519  30.980  31.284  1.00  0.00     0.049 A 
ATOM     40  N   UNL A   1      40.322  28.944  29.983  1.00  0.00    -0.248 NA
ATOM     41  C   UNL A   1      39.155  29.295  27.991  1.00  0.00     0.031 C 
ATOM     42  C   UNL A   1      37.690  31.982  31.958  1.00  0.00     0.029 A 
ATOM     43  N   UNL A   1      39.514  30.711  32.192  1.00  0.00    -0.354 N 
ATOM     44  C   UNL A   1      40.902  28.191  28.972  1.00  0.00     0.074 A 
ATOM     45  C   UNL A   1      40.128  28.423  27.771  1.00  0.00     0.031 C 
ATOM     46  C   UNL A   1      38.212  32.246  33.166  1.00  0.00     0.029 A 
ATOM     47  C   UNL A   1      39.360  31.372  33.386  1.00  0.00     0.049 A 
ATOM     48  H   UNL A   1      40.266  30.104  32.004  1.00  0.00     0.167 HD
ATOM     49  C   UNL A   1      41.981  27.376  29.045  1.00  0.00     0.037 A 
ATOM     50  C   UNL A   1      40.033  31.247  34.545  1.00  0.00     0.037 A 
ATOM     51  C   UNL A   1      42.763  27.173  30.237  1.00  0.00     0.049 A 
ATOM     52  C   UNL A   1      41.160  30.252  34.631  1.00  0.00     0.074 A 
ATOM     53  C   UNL A   1      43.861  26.352  30.421  1.00  0.00     0.029 A 
ATOM     54  N   UNL A   1      42.531  27.806  31.449  1.00  0.00    -0.354 N 
ATOM     55  N   UNL A   1      41.664  29.487  33.694  1.00  0.00    -0.248 NA
ATOM     56  C   UNL A   1      41.802  30.093  35.943  1.00  0.00     0.031 C 
ATOM     57  C   UNL A   1      44.265  26.451  31.756  1.00  0.00     0.029 A 
ATOM     58  C   UNL A   1      43.452  27.376  32.391  1.00  0.00     0.049 A 
ATOM     59  H   UNL A   1      41.818  28.464  31.616  1.00  0.00     0.167 HD
ATOM     60  C   UNL A   1      42.692  28.773  34.295  1.00  0.00     0.074 A 
ATOM     61  C   UNL A   1      42.756  29.215  35.673  1.00  0.00     0.031 C 
ATOM     62  C   UNL A   1      43.506  27.833  33.757  1.00  0.00     0.037 A 
BRANCH  49  63
ATOM     63  C   UNL A   1      42.346  26.599  27.815  1.00  0.00     0.064 A 
ATOM     64  C   UNL A   1      43.332  27.038  26.920  1.00  0.00     0.173 A 
ATOM     65  C   UNL A   1      41.712  25.376  27.543  1.00  0.00     0.173 A 
ATOM     66  F   UNL A   1      43.955  28.209  27.123  1.00  0.00    -0.203 F 
ATOM     67  C   UNL A   1      43.653  26.293  25.788  1.00  0.00     0.198 A 
ATOM     68  C   UNL A   1      42.055  24.620  26.428  1.00  0.00     0.198 A 
ATOM     69  F   UNL A   1      40.763  24.910  28.370  1.00  0.00    -0.203 F 
ATOM     70  F   UNL A   1      44.567  26.753  24.921  1.00  0.00    -0.200 F 
ATOM     71  C   UNL A   1      43.021  25.082  25.546  1.00  0.00     0.200 A 
ATOM     72  F   UNL A   1      41.451  23.445  26.203  1.00  0.00    -0.200 F 
ATOM     73  F   UNL A   1      43.337  24.364  24.460  1.00  0.00    -0.200 F 
ENDBRANCH  49  63
BRANCH  50  74
ATOM     74  C   UNL A   1      39.619  32.027  35.743  1.00  0.00     0.064 A 
ATOM     75  C   UNL A   1      38.598  31.574  36.589  1.00  0.00     0.173 A 
ATOM     76  C   UNL A   1      40.210  33.266  36.042  1.00  0.00     0.173 A 
ATOM     77  F   UNL A   1      37.982  30.411  36.329  1.00  0.00    -0.203 F 
ATOM     78  C   UNL A   1      38.167  32.338  37.672  1.00  0.00     0.198 A 
ATOM     79  C   UNL A   1      39.802  34.012  37.145  1.00  0.00     0.198 A 
ATOM     80  F   UNL A   1      41.187  33.751  35.263  1.00  0.00    -0.203 F 
ATOM     81  F   UNL A   1      37.148  31.909  38.428  1.00  0.00    -0.200 F 
ATOM     82  C   UNL A   1      38.773  33.553  37.952  1.00  0.00     0.200 A 
ATOM     83  F   UNL A   1      40.400  35.179  37.419  1.00  0.00    -0.200 F 
ATOM     84  F   UNL A   1      38.357  34.289  38.992  1.00  0.00    -0.200 F 
ENDBRANCH  50  74
BRANCH  62  85
ATOM     85  C   UNL A   1      44.561  27.248  34.652  1.00  0.00     0.064 A 
ATOM     86  C   UNL A   1      45.822  27.845  34.795  1.00  0.00     0.173 A 
ATOM     87  C   UNL A   1      44.298  26.084  35.393  1.00  0.00     0.173 A 
ATOM     88  F   UNL A   1      46.128  28.948  34.096  1.00  0.00    -0.203 F 
ATOM     89  C   UNL A   1      46.791  27.282  35.621  1.00  0.00     0.198 A 
ATOM     90  C   UNL A   1      45.258  25.543  36.242  1.00  0.00     0.198 A 
ATOM     91  F   UNL A   1      43.106  25.477  35.297  1.00  0.00    -0.203 F 
ATOM     92  F   UNL A   1      48.009  27.839  35.697  1.00  0.00    -0.200 F 
ATOM     93  C   UNL A   1      46.507  26.136  36.349  1.00  0.00     0.200 A 
ATOM     94  F   UNL A   1      44.976  24.444  36.956  1.00  0.00    -0.200 F 
ATOM     95  F   UNL A   1      47.439  25.598  37.146  1.00  0.00    -0.200 F 
ENDBRANCH  62  85
ENDBRANCH  36  37
ENDBRANCH  29  31
ENDBRANCH  28  29
ENDBRANCH  27  28
ENDBRANCH   1  27
TORSDOF 14
ENDMDL
MODEL 3
REMARK VINA RESULT:     -13.0      4.369      9.647
REMARK SMILES CC(C)(C)c1ccc(NC(=O)Nc2cccc(C(=O)OCCOC(=O)c3ccc(-c4c5nc(c(-c6c(F)c(F)c(F)c(F)c6F)c6ccc([nH]6)c(-c6c(F)c(F)c(F)c(F)c6F)c6nc(c(-c7c(F)c(F)c(F)c(F)c7F)c7ccc4[nH]7)C=C6)C=C5)cc3)c2)cc1
REMARK SMILES IDX 21 1 20 2 18 3 19 4 17 5 13 6 14 7 89 8 15 9 16 10 12 11
REMARK SMILES IDX 9 12 10 13 11 15 8 17 5 18 6 19 91 20 7 21 90 22 2 23 1 24
REMARK SMILES IDX 3 25 4 26 22 27 23 28 24 29 25 30 26 31 27 32 88 33 28 34
REMARK SMILES IDX 87 35 29 36 30 37 31 38 81 39 32 40 86 41 80 42 82 43 33 44
REMARK SMILES IDX 85 45 79 46 78 47 34 49 66 50 46 51 65 52 47 53 50 54 64 55
REMARK SMILES IDX 83 56 48 57 49 58 63 60 84 61 51 62 35 63 36 64 44 65 37 66
REMARK SMILES IDX 38 67 42 68 45 69 39 70 40 71 43 72 41 73 67 74 68 75 76 76
REMARK SMILES IDX 69 77 70 78 74 79 77 80 71 81 72 82 75 83 73 84 52 85 53 86
REMARK SMILES IDX 61 87 54 88 55 89 59 90 62 91 56 92 57 93 60 94 58 95
REMARK H PARENT 9 14 12 16 82 48 50 59
REMARK Flexibility Score: inf
ROOT
ATOM      1  C   UNL A   1      36.047  20.491  25.018  1.00  0.00     0.275 C 
ENDROOT
BRANCH   1   2
ATOM      2  O   UNL A   1      35.651  21.415  26.055  1.00  0.00    -0.458 OA
BRANCH   2   3
ATOM      3  C   UNL A   1      35.163  22.580  25.569  1.00  0.00     0.338 C 
ATOM      4  O   UNL A   1      35.665  23.674  25.752  1.00  0.00    -0.246 OA
BRANCH   3   5
ATOM      5  C   UNL A   1      33.901  22.439  24.819  1.00  0.00     0.062 A 
ATOM      6  C   UNL A   1      31.525  22.253  25.028  1.00  0.00     0.043 A 
ATOM      7  C   UNL A   1      31.340  22.775  23.744  1.00  0.00     0.026 A 
ATOM      8  C   UNL A   1      32.799  21.947  25.503  1.00  0.00     0.041 A 
ATOM      9  C   UNL A   1      32.445  23.218  23.030  1.00  0.00     0.003 A 
ATOM     10  C   UNL A   1      33.713  23.102  23.596  1.00  0.00     0.016 A 
BRANCH   6  11
ATOM     11  N   UNL A   1      30.411  22.222  25.872  1.00  0.00    -0.308 N 
ATOM     12  N   UNL A   1      30.553  24.318  27.014  1.00  0.00    -0.308 N 
ATOM     13  C   UNL A   1      30.085  23.047  26.897  1.00  0.00     0.323 C 
ATOM     14  H   UNL A   1      30.563  24.630  27.949  1.00  0.00     0.171 HD
ATOM     15  O   UNL A   1      29.341  22.613  27.780  1.00  0.00    -0.248 OA
ATOM     16  H   UNL A   1      29.771  21.495  25.696  1.00  0.00     0.171 HD
BRANCH  12  17
ATOM     17  C   UNL A   1      31.032  25.297  26.112  1.00  0.00     0.042 A 
ATOM     18  C   UNL A   1      32.248  27.089  24.221  1.00  0.00    -0.042 A 
ATOM     19  C   UNL A   1      30.855  26.884  24.264  1.00  0.00     0.006 A 
ATOM     20  C   UNL A   1      32.998  26.438  25.216  1.00  0.00     0.006 A 
ATOM     21  C   UNL A   1      30.255  26.012  25.201  1.00  0.00     0.026 A 
ATOM     22  C   UNL A   1      32.401  25.567  26.144  1.00  0.00     0.026 A 
BRANCH  18  23
ATOM     23  C   UNL A   1      32.905  27.988  23.146  1.00  0.00    -0.013 C 
ATOM     24  C   UNL A   1      34.011  28.830  23.807  1.00  0.00     0.016 C 
ATOM     25  C   UNL A   1      31.911  28.968  22.472  1.00  0.00     0.016 C 
ATOM     26  C   UNL A   1      33.546  27.182  21.988  1.00  0.00     0.016 C 
ENDBRANCH  18  23
ENDBRANCH  12  17
ENDBRANCH   6  11
ENDBRANCH   3   5
ENDBRANCH   2   3
ENDBRANCH   1   2
BRANCH   1  27
ATOM     27  C   UNL A   1      37.563  20.261  24.983  1.00  0.00     0.275 C 
BRANCH  27  28
ATOM     28  O   UNL A   1      38.296  21.421  25.434  1.00  0.00    -0.458 OA
BRANCH  28  29
ATOM     29  C   UNL A   1      39.387  21.174  26.196  1.00  0.00     0.338 C 
ATOM     30  O   UNL A   1      39.947  20.103  26.363  1.00  0.00    -0.246 OA
BRANCH  29  31
ATOM     31  C   UNL A   1      39.900  22.423  26.794  1.00  0.00     0.060 A 
ATOM     32  C   UNL A   1      39.471  23.634  26.265  1.00  0.00     0.016 A 
ATOM     33  C   UNL A   1      40.930  22.420  27.728  1.00  0.00     0.016 A 
ATOM     34  C   UNL A   1      40.095  24.832  26.577  1.00  0.00     0.010 A 
ATOM     35  C   UNL A   1      41.512  23.638  28.118  1.00  0.00     0.010 A 
ATOM     36  C   UNL A   1      41.120  24.852  27.518  1.00  0.00    -0.014 A 
BRANCH  36  37
ATOM     37  C   UNL A   1      41.815  26.134  27.795  1.00  0.00     0.031 A 
ATOM     38  C   UNL A   1      41.132  27.183  28.624  1.00  0.00     0.074 A 
ATOM     39  C   UNL A   1      43.084  26.328  27.383  1.00  0.00     0.049 A 
ATOM     40  N   UNL A   1      41.493  28.419  28.863  1.00  0.00    -0.248 NA
ATOM     41  C   UNL A   1      39.878  26.786  29.281  1.00  0.00     0.031 C 
ATOM     42  C   UNL A   1      43.909  25.344  26.678  1.00  0.00     0.029 A 
ATOM     43  N   UNL A   1      43.905  27.422  27.504  1.00  0.00    -0.354 N 
ATOM     44  C   UNL A   1      40.492  28.957  29.659  1.00  0.00     0.074 A 
ATOM     45  C   UNL A   1      39.507  27.916  29.865  1.00  0.00     0.031 C 
ATOM     46  C   UNL A   1      45.117  25.877  26.435  1.00  0.00     0.029 A 
ATOM     47  C   UNL A   1      45.123  27.263  26.888  1.00  0.00     0.049 A 
ATOM     48  H   UNL A   1      43.646  28.240  27.987  1.00  0.00     0.167 HD
ATOM     49  C   UNL A   1      40.404  30.209  30.166  1.00  0.00     0.037 A 
ATOM     50  C   UNL A   1      46.109  28.152  26.665  1.00  0.00     0.037 A 
ATOM     51  C   UNL A   1      41.403  31.230  29.981  1.00  0.00     0.049 A 
ATOM     52  C   UNL A   1      45.937  29.569  27.145  1.00  0.00     0.074 A 
ATOM     53  C   UNL A   1      41.397  32.537  30.435  1.00  0.00     0.029 A 
ATOM     54  N   UNL A   1      42.591  31.053  29.288  1.00  0.00    -0.354 N 
ATOM     55  N   UNL A   1      44.957  30.098  27.836  1.00  0.00    -0.248 NA
ATOM     56  C   UNL A   1      47.004  30.518  26.798  1.00  0.00     0.031 C 
ATOM     57  C   UNL A   1      42.560  33.165  29.976  1.00  0.00     0.029 A 
ATOM     58  C   UNL A   1      43.317  32.234  29.283  1.00  0.00     0.049 A 
ATOM     59  H   UNL A   1      42.878  30.213  28.862  1.00  0.00     0.167 HD
ATOM     60  C   UNL A   1      45.297  31.431  28.025  1.00  0.00     0.074 A 
ATOM     61  C   UNL A   1      46.587  31.624  27.395  1.00  0.00     0.031 C 
ATOM     62  C   UNL A   1      44.603  32.408  28.657  1.00  0.00     0.037 A 
BRANCH  49  63
ATOM     63  C   UNL A   1      39.158  30.563  30.924  1.00  0.00     0.064 A 
ATOM     64  C   UNL A   1      39.072  30.436  32.318  1.00  0.00     0.173 A 
ATOM     65  C   UNL A   1      38.040  31.065  30.240  1.00  0.00     0.173 A 
ATOM     66  F   UNL A   1      40.106  29.943  33.016  1.00  0.00    -0.203 F 
ATOM     67  C   UNL A   1      37.904  30.776  32.995  1.00  0.00     0.198 A 
ATOM     68  C   UNL A   1      36.885  31.432  30.923  1.00  0.00     0.198 A 
ATOM     69  F   UNL A   1      38.073  31.209  28.906  1.00  0.00    -0.203 F 
ATOM     70  F   UNL A   1      37.826  30.604  34.323  1.00  0.00    -0.200 F 
ATOM     71  C   UNL A   1      36.814  31.281  32.299  1.00  0.00     0.200 A 
ATOM     72  F   UNL A   1      35.839  31.930  30.249  1.00  0.00    -0.200 F 
ATOM     73  F   UNL A   1      35.694  31.614  32.955  1.00  0.00    -0.200 F 
ENDBRANCH  49  63
BRANCH  50  74
ATOM     74  C   UNL A   1      47.317  27.756  25.892  1.00  0.00     0.064 A 
ATOM     75  C   UNL A   1      47.313  27.752  24.490  1.00  0.00     0.173 A 
ATOM     76  C   UNL A   1      48.488  27.333  26.540  1.00  0.00     0.173 A 
ATOM     77  F   UNL A   1      46.208  28.119  23.823  1.00  0.00    -0.203 F 
ATOM     78  C   UNL A   1      48.423  27.318  23.768  1.00  0.00     0.198 A 
ATOM     79  C   UNL A   1      49.609  26.933  25.817  1.00  0.00     0.198 A 
ATOM     80  F   UNL A   1      48.545  27.311  27.879  1.00  0.00    -0.203 F 
ATOM     81  F   UNL A   1      48.370  27.266  22.430  1.00  0.00    -0.200 F 
ATOM     82  C   UNL A   1      49.572  26.913  24.432  1.00  0.00     0.200 A 
ATOM     83  F   UNL A   1      50.720  26.555  26.463  1.00  0.00    -0.200 F 
ATOM     84  F   UNL A   1      50.638  26.493  23.737  1.00  0.00    -0.200 F 
ENDBRANCH  50  74
BRANCH  62  85
ATOM     85  C   UNL A   1      45.243  33.764  28.731  1.00  0.00     0.064 A 
ATOM     86  C   UNL A   1      46.072  34.131  29.803  1.00  0.00     0.173 A 
ATOM     87  C   UNL A   1      45.042  34.701  27.706  1.00  0.00     0.173 A 
ATOM     88  F   UNL A   1      46.282  33.277  30.816  1.00  0.00    -0.203 F 
ATOM     89  C   UNL A   1      46.648  35.397  29.860  1.00  0.00     0.198 A 
ATOM     90  C   UNL A   1      45.646  35.954  27.751  1.00  0.00     0.198 A 
ATOM     91  F   UNL A   1      44.264  34.398  26.656  1.00  0.00    -0.203 F 
ATOM     92  F   UNL A   1      47.389  35.746  30.922  1.00  0.00    -0.200 F 
ATOM     93  C   UNL A   1      46.441  36.305  28.832  1.00  0.00     0.200 A 
ATOM     94  F   UNL A   1      45.457  36.824  26.750  1.00  0.00    -0.200 F 
ATOM     95  F   UNL A   1      47.000  37.521  28.887  1.00  0.00    -0.200 F 
ENDBRANCH  62  85
ENDBRANCH  36  37
ENDBRANCH  29  31
ENDBRANCH  28  29
ENDBRANCH  27  28
ENDBRANCH   1  27
TORSDOF 14
ENDMDL
