MODEL 1
REMARK VINA RESULT:     -11.5      0.000      0.000
REMARK SMILES Cc1cc(C)c2c(OCCCC(=O)OCCOC(=O)c3ccc(-c4c5nc(c(-c6c(F)c(F)c(F)c(F)c6F)c6ccc([nH]6)c(-c6c(F)c(F)c(F)c(F)c6F)c6nc(c(-c7c(F)c(F)c(F)c(F)c7F)c7ccc4[nH]7)C=C6)C=C5)cc3)nsc2n1
REMARK SMILES IDX 15 1 14 2 12 3 13 4 11 5 10 6 9 7 8 8 7 9 1 10 2 11 3 12
REMARK SMILES IDX 86 13 4 14 85 15 5 16 6 17 84 18 83 19 16 20 17 21 18 22
REMARK SMILES IDX 19 23 20 24 21 25 82 26 22 27 81 28 23 29 24 30 25 31 75 32
REMARK SMILES IDX 26 33 80 34 74 35 76 36 27 37 79 38 73 39 72 40 28 42 60 43
REMARK SMILES IDX 40 44 59 45 41 46 44 47 58 48 77 49 42 50 43 51 57 53 78 54
REMARK SMILES IDX 45 55 29 56 30 57 38 58 31 59 32 60 36 61 39 62 33 63 34 64
REMARK SMILES IDX 37 65 35 66 61 67 62 68 70 69 63 70 64 71 68 72 71 73 65 74
REMARK SMILES IDX 66 75 69 76 67 77 46 78 47 79 55 80 48 81 49 82 53 83 56 84
REMARK SMILES IDX 50 85 51 86 54 87 52 88
REMARK H PARENT 76 41 44 52
REMARK Flexibility Score: inf
ROOT
ATOM      1  C   UNL A   1      41.009  21.104  26.407  1.00  0.00     0.274 C 
ENDROOT
BRANCH   1   2
ATOM      2  O   UNL A   1      39.677  20.864  25.876  1.00  0.00    -0.462 OA
BRANCH   2   3
ATOM      3  C   UNL A   1      38.788  21.884  25.862  1.00  0.00     0.306 C 
ATOM      4  O   UNL A   1      38.891  22.875  26.579  1.00  0.00    -0.252 OA
BRANCH   3   5
ATOM      5  C   UNL A   1      37.577  21.651  24.965  1.00  0.00     0.126 C 
BRANCH   5   6
ATOM      6  C   UNL A   1      36.534  22.749  24.725  1.00  0.00     0.053 C 
BRANCH   6   7
ATOM      7  C   UNL A   1      35.990  23.053  23.317  1.00  0.00     0.232 C 
BRANCH   7   8
ATOM      8  O   UNL A   1      34.588  23.030  23.056  1.00  0.00    -0.477 OA
BRANCH   8   9
ATOM      9  C   UNL A   1      33.915  24.202  23.038  1.00  0.00     0.235 A 
ATOM     10  C   UNL A   1      34.130  28.782  26.031  1.00  0.00     0.067 C 
ATOM     11  C   UNL A   1      33.621  27.518  25.401  1.00  0.00     0.039 A 
ATOM     12  C   UNL A   1      33.564  26.343  26.145  1.00  0.00     0.027 A 
ATOM     13  N   UNL A   1      33.391  27.559  24.080  1.00  0.00    -0.240 NA
ATOM     14  C   UNL A   1      33.495  25.082  25.517  1.00  0.00    -0.034 A 
ATOM     15  C   UNL A   1      33.355  26.348  23.498  1.00  0.00     0.147 A 
ATOM     16  C   UNL A   1      33.426  23.839  26.363  1.00  0.00     0.045 C 
ATOM     17  C   UNL A   1      33.557  25.106  24.102  1.00  0.00     0.078 A 
ATOM     18  S   UNL A   1      33.100  26.140  21.829  1.00  0.00    -0.012 S 
ATOM     19  N   UNL A   1      33.576  24.553  21.798  1.00  0.00    -0.153 NA
ENDBRANCH   8   9
ENDBRANCH   7   8
ENDBRANCH   6   7
ENDBRANCH   5   6
ENDBRANCH   3   5
ENDBRANCH   2   3
ENDBRANCH   1   2
BRANCH   1  20
ATOM     20  C   UNL A   1      41.947  19.958  26.007  1.00  0.00     0.275 C 
BRANCH  20  21
ATOM     21  O   UNL A   1      43.300  20.299  26.268  1.00  0.00    -0.458 OA
BRANCH  21  22
ATOM     22  C   UNL A   1      44.034  20.426  25.129  1.00  0.00     0.338 C 
ATOM     23  O   UNL A   1      44.256  19.578  24.319  1.00  0.00    -0.246 OA
BRANCH  22  24
ATOM     24  C   UNL A   1      44.544  21.811  25.131  1.00  0.00     0.060 A 
ATOM     25  C   UNL A   1      45.368  22.142  26.197  1.00  0.00     0.016 A 
ATOM     26  C   UNL A   1      43.933  22.778  24.312  1.00  0.00     0.016 A 
ATOM     27  C   UNL A   1      45.254  23.419  26.679  1.00  0.00     0.010 A 
ATOM     28  C   UNL A   1      43.798  24.042  24.805  1.00  0.00     0.010 A 
ATOM     29  C   UNL A   1      44.353  24.290  26.048  1.00  0.00    -0.014 A 
BRANCH  29  30
ATOM     30  C   UNL A   1      44.015  25.502  26.742  1.00  0.00     0.031 A 
ATOM     31  C   UNL A   1      45.015  26.546  26.528  1.00  0.00     0.074 A 
ATOM     32  C   UNL A   1      42.905  25.622  27.490  1.00  0.00     0.049 A 
ATOM     33  N   UNL A   1      45.952  26.888  27.343  1.00  0.00    -0.248 NA
ATOM     34  C   UNL A   1      45.126  27.121  25.181  1.00  0.00     0.031 C 
ATOM     35  C   UNL A   1      41.726  24.751  27.505  1.00  0.00     0.029 A 
ATOM     36  N   UNL A   1      42.572  26.619  28.353  1.00  0.00    -0.354 N 
ATOM     37  C   UNL A   1      46.631  27.903  26.688  1.00  0.00     0.074 A 
ATOM     38  C   UNL A   1      46.245  27.835  25.304  1.00  0.00     0.031 C 
ATOM     39  C   UNL A   1      40.728  25.371  28.178  1.00  0.00     0.029 A 
ATOM     40  C   UNL A   1      41.247  26.597  28.762  1.00  0.00     0.049 A 
ATOM     41  H   UNL A   1      43.215  27.296  28.663  1.00  0.00     0.167 HD
ATOM     42  C   UNL A   1      47.172  28.919  27.408  1.00  0.00     0.037 A 
ATOM     43  C   UNL A   1      40.634  27.563  29.485  1.00  0.00     0.037 A 
ATOM     44  C   UNL A   1      47.237  28.591  28.810  1.00  0.00     0.049 A 
ATOM     45  C   UNL A   1      41.686  28.333  30.192  1.00  0.00     0.074 A 
ATOM     46  C   UNL A   1      48.070  27.867  29.634  1.00  0.00     0.029 A 
ATOM     47  N   UNL A   1      46.058  28.776  29.484  1.00  0.00    -0.354 N 
ATOM     48  N   UNL A   1      42.403  27.847  31.166  1.00  0.00    -0.248 NA
ATOM     49  C   UNL A   1      42.182  29.578  29.609  1.00  0.00     0.031 C 
ATOM     50  C   UNL A   1      47.309  27.540  30.796  1.00  0.00     0.029 A 
ATOM     51  C   UNL A   1      46.032  28.074  30.660  1.00  0.00     0.049 A 
ATOM     52  H   UNL A   1      45.320  29.343  29.162  1.00  0.00     0.167 HD
ATOM     53  C   UNL A   1      43.622  28.480  31.039  1.00  0.00     0.074 A 
ATOM     54  C   UNL A   1      43.376  29.645  30.204  1.00  0.00     0.031 C 
ATOM     55  C   UNL A   1      44.778  27.825  31.331  1.00  0.00     0.037 A 
BRANCH  42  56
ATOM     56  C   UNL A   1      47.180  30.352  26.947  1.00  0.00     0.064 A 
ATOM     57  C   UNL A   1      48.375  31.087  27.048  1.00  0.00     0.173 A 
ATOM     58  C   UNL A   1      46.015  31.112  26.697  1.00  0.00     0.173 A 
ATOM     59  F   UNL A   1      49.534  30.468  27.318  1.00  0.00    -0.203 F 
ATOM     60  C   UNL A   1      48.391  32.480  26.952  1.00  0.00     0.198 A 
ATOM     61  C   UNL A   1      46.045  32.494  26.541  1.00  0.00     0.198 A 
ATOM     62  F   UNL A   1      44.789  30.575  26.712  1.00  0.00    -0.203 F 
ATOM     63  F   UNL A   1      49.533  33.146  27.169  1.00  0.00    -0.200 F 
ATOM     64  C   UNL A   1      47.227  33.182  26.697  1.00  0.00     0.200 A 
ATOM     65  F   UNL A   1      44.899  33.157  26.321  1.00  0.00    -0.200 F 
ATOM     66  F   UNL A   1      47.233  34.520  26.652  1.00  0.00    -0.200 F 
ENDBRANCH  42  56
BRANCH  43  67
ATOM     67  C   UNL A   1      39.235  28.038  29.435  1.00  0.00     0.064 A 
ATOM     68  C   UNL A   1      38.491  28.168  30.621  1.00  0.00     0.173 A 
ATOM     69  C   UNL A   1      38.719  28.680  28.295  1.00  0.00     0.173 A 
ATOM     70  F   UNL A   1      38.926  27.600  31.755  1.00  0.00    -0.203 F 
ATOM     71  C   UNL A   1      37.341  28.956  30.682  1.00  0.00     0.198 A 
ATOM     72  C   UNL A   1      37.563  29.460  28.354  1.00  0.00     0.198 A 
ATOM     73  F   UNL A   1      39.382  28.651  27.130  1.00  0.00    -0.203 F 
ATOM     74  F   UNL A   1      36.715  29.133  31.853  1.00  0.00    -0.200 F 
ATOM     75  C   UNL A   1      36.890  29.617  29.552  1.00  0.00     0.200 A 
ATOM     76  F   UNL A   1      37.150  30.118  27.262  1.00  0.00    -0.200 F 
ATOM     77  F   UNL A   1      35.836  30.443  29.629  1.00  0.00    -0.200 F 
ENDBRANCH  43  67
BRANCH  55  78
ATOM     78  C   UNL A   1      44.682  26.673  32.277  1.00  0.00     0.064 A 
ATOM     79  C   UNL A   1      44.663  26.800  33.675  1.00  0.00     0.173 A 
ATOM     80  C   UNL A   1      44.558  25.388  31.736  1.00  0.00     0.173 A 
ATOM     81  F   UNL A   1      44.714  28.006  34.257  1.00  0.00    -0.203 F 
ATOM     82  C   UNL A   1      44.556  25.676  34.494  1.00  0.00     0.198 A 
ATOM     83  C   UNL A   1      44.419  24.272  32.553  1.00  0.00     0.198 A 
ATOM     84  F   UNL A   1      44.541  25.219  30.404  1.00  0.00    -0.203 F 
ATOM     85  F   UNL A   1      44.558  25.813  35.827  1.00  0.00    -0.200 F 
ATOM     86  C   UNL A   1      44.428  24.415  33.931  1.00  0.00     0.200 A 
ATOM     87  F   UNL A   1      44.260  23.060  32.004  1.00  0.00    -0.200 F 
ATOM     88  F   UNL A   1      44.295  23.337  34.718  1.00  0.00    -0.200 F 
ENDBRANCH  55  78
ENDBRANCH  29  30
ENDBRANCH  22  24
ENDBRANCH  21  22
ENDBRANCH  20  21
ENDBRANCH   1  20
TORSDOF 15
ENDMDL
MODEL 2
REMARK VINA RESULT:     -11.4      1.304      1.948
REMARK SMILES Cc1cc(C)c2c(OCCCC(=O)OCCOC(=O)c3ccc(-c4c5nc(c(-c6c(F)c(F)c(F)c(F)c6F)c6ccc([nH]6)c(-c6c(F)c(F)c(F)c(F)c6F)c6nc(c(-c7c(F)c(F)c(F)c(F)c7F)c7ccc4[nH]7)C=C6)C=C5)cc3)nsc2n1
REMARK SMILES IDX 15 1 14 2 12 3 13 4 11 5 10 6 9 7 8 8 7 9 1 10 2 11 3 12
REMARK SMILES IDX 86 13 4 14 85 15 5 16 6 17 84 18 83 19 16 20 17 21 18 22
REMARK SMILES IDX 19 23 20 24 21 25 82 26 22 27 81 28 23 29 24 30 25 31 75 32
REMARK SMILES IDX 26 33 80 34 74 35 76 36 27 37 79 38 73 39 72 40 28 42 60 43
REMARK SMILES IDX 40 44 59 45 41 46 44 47 58 48 77 49 42 50 43 51 57 53 78 54
REMARK SMILES IDX 45 55 29 56 30 57 38 58 31 59 32 60 36 61 39 62 33 63 34 64
REMARK SMILES IDX 37 65 35 66 61 67 62 68 70 69 63 70 64 71 68 72 71 73 65 74
REMARK SMILES IDX 66 75 69 76 67 77 46 78 47 79 55 80 48 81 49 82 53 83 56 84
REMARK SMILES IDX 50 85 51 86 54 87 52 88
REMARK H PARENT 76 41 44 52
REMARK Flexibility Score: inf
ROOT
ATOM      1  C   UNL A   1      41.285  20.986  27.087  1.00  0.00     0.274 C 
ENDROOT
BRANCH   1   2
ATOM      2  O   UNL A   1      40.621  21.718  26.021  1.00  0.00    -0.462 OA
BRANCH   2   3
ATOM      3  C   UNL A   1      39.270  21.778  26.016  1.00  0.00     0.306 C 
ATOM      4  O   UNL A   1      38.563  20.951  25.445  1.00  0.00    -0.252 OA
BRANCH   3   5
ATOM      5  C   UNL A   1      38.692  23.024  26.680  1.00  0.00     0.126 C 
BRANCH   5   6
ATOM      6  C   UNL A   1      37.683  23.922  25.955  1.00  0.00     0.053 C 
BRANCH   6   7
ATOM      7  C   UNL A   1      36.193  23.546  25.853  1.00  0.00     0.232 C 
BRANCH   7   8
ATOM      8  O   UNL A   1      35.225  24.507  25.437  1.00  0.00    -0.477 OA
BRANCH   8   9
ATOM      9  C   UNL A   1      33.978  24.432  25.952  1.00  0.00     0.235 A 
ATOM     10  C   UNL A   1      29.077  26.315  24.396  1.00  0.00     0.067 C 
ATOM     11  C   UNL A   1      30.327  26.096  25.199  1.00  0.00     0.039 A 
ATOM     12  C   UNL A   1      31.345  27.045  25.177  1.00  0.00     0.027 A 
ATOM     13  N   UNL A   1      30.459  24.896  25.784  1.00  0.00    -0.240 NA
ATOM     14  C   UNL A   1      32.662  26.714  25.560  1.00  0.00    -0.034 A 
ATOM     15  C   UNL A   1      31.725  24.590  26.117  1.00  0.00     0.147 A 
ATOM     16  C   UNL A   1      33.728  27.776  25.527  1.00  0.00     0.045 C 
ATOM     17  C   UNL A   1      32.871  25.354  25.894  1.00  0.00     0.078 A 
ATOM     18  S   UNL A   1      32.150  23.116  26.851  1.00  0.00    -0.012 S 
ATOM     19  N   UNL A   1      33.778  23.275  26.583  1.00  0.00    -0.153 NA
ENDBRANCH   8   9
ENDBRANCH   7   8
ENDBRANCH   6   7
ENDBRANCH   5   6
ENDBRANCH   3   5
ENDBRANCH   2   3
ENDBRANCH   1   2
BRANCH   1  20
ATOM     20  C   UNL A   1      42.301  20.002  26.494  1.00  0.00     0.275 C 
BRANCH  20  21
ATOM     21  O   UNL A   1      42.824  20.493  25.269  1.00  0.00    -0.458 OA
BRANCH  21  22
ATOM     22  C   UNL A   1      44.184  20.484  25.242  1.00  0.00     0.338 C 
ATOM     23  O   UNL A   1      44.898  19.531  25.319  1.00  0.00    -0.246 OA
BRANCH  22  24
ATOM     24  C   UNL A   1      44.595  21.900  25.153  1.00  0.00     0.060 A 
ATOM     25  C   UNL A   1      45.511  22.315  26.108  1.00  0.00     0.016 A 
ATOM     26  C   UNL A   1      43.829  22.799  24.390  1.00  0.00     0.016 A 
ATOM     27  C   UNL A   1      45.366  23.596  26.571  1.00  0.00     0.010 A 
ATOM     28  C   UNL A   1      43.665  24.066  24.867  1.00  0.00     0.010 A 
ATOM     29  C   UNL A   1      44.341  24.387  26.031  1.00  0.00    -0.014 A 
BRANCH  29  30
ATOM     30  C   UNL A   1      44.003  25.595  26.732  1.00  0.00     0.031 A 
ATOM     31  C   UNL A   1      44.998  26.643  26.517  1.00  0.00     0.074 A 
ATOM     32  C   UNL A   1      42.897  25.707  27.487  1.00  0.00     0.049 A 
ATOM     33  N   UNL A   1      45.939  26.985  27.328  1.00  0.00    -0.248 NA
ATOM     34  C   UNL A   1      45.098  27.225  25.172  1.00  0.00     0.031 C 
ATOM     35  C   UNL A   1      41.721  24.831  27.506  1.00  0.00     0.029 A 
ATOM     36  N   UNL A   1      42.566  26.698  28.358  1.00  0.00    -0.354 N 
ATOM     37  C   UNL A   1      46.610  28.005  26.673  1.00  0.00     0.074 A 
ATOM     38  C   UNL A   1      46.215  27.942  25.291  1.00  0.00     0.031 C 
ATOM     39  C   UNL A   1      40.726  25.444  28.189  1.00  0.00     0.029 A 
ATOM     40  C   UNL A   1      41.244  26.670  28.775  1.00  0.00     0.049 A 
ATOM     41  H   UNL A   1      43.209  27.377  28.667  1.00  0.00     0.167 HD
ATOM     42  C   UNL A   1      47.151  29.020  27.395  1.00  0.00     0.037 A 
ATOM     43  C   UNL A   1      40.632  27.630  29.506  1.00  0.00     0.037 A 
ATOM     44  C   UNL A   1      47.226  28.686  28.794  1.00  0.00     0.049 A 
ATOM     45  C   UNL A   1      41.685  28.401  30.210  1.00  0.00     0.074 A 
ATOM     46  C   UNL A   1      48.067  27.961  29.609  1.00  0.00     0.029 A 
ATOM     47  N   UNL A   1      46.051  28.863  29.476  1.00  0.00    -0.354 N 
ATOM     48  N   UNL A   1      42.410  27.913  31.177  1.00  0.00    -0.248 NA
ATOM     49  C   UNL A   1      42.173  29.650  29.630  1.00  0.00     0.031 C 
ATOM     50  C   UNL A   1      47.315  27.626  30.775  1.00  0.00     0.029 A 
ATOM     51  C   UNL A   1      46.035  28.156  30.650  1.00  0.00     0.049 A 
ATOM     52  H   UNL A   1      45.309  29.429  29.162  1.00  0.00     0.167 HD
ATOM     53  C   UNL A   1      43.626  28.552  31.046  1.00  0.00     0.074 A 
ATOM     54  C   UNL A   1      43.370  29.719  30.218  1.00  0.00     0.031 C 
ATOM     55  C   UNL A   1      44.787  27.899  31.327  1.00  0.00     0.037 A 
BRANCH  42  56
ATOM     56  C   UNL A   1      47.151  30.456  26.940  1.00  0.00     0.064 A 
ATOM     57  C   UNL A   1      48.347  31.191  27.027  1.00  0.00     0.173 A 
ATOM     58  C   UNL A   1      45.981  31.215  26.709  1.00  0.00     0.173 A 
ATOM     59  F   UNL A   1      49.510  30.573  27.278  1.00  0.00    -0.203 F 
ATOM     60  C   UNL A   1      48.359  32.585  26.938  1.00  0.00     0.198 A 
ATOM     61  C   UNL A   1      46.007  32.598  26.560  1.00  0.00     0.198 A 
ATOM     62  F   UNL A   1      44.757  30.676  26.740  1.00  0.00    -0.203 F 
ATOM     63  F   UNL A   1      49.503  33.252  27.141  1.00  0.00    -0.200 F 
ATOM     64  C   UNL A   1      47.191  33.287  26.702  1.00  0.00     0.200 A 
ATOM     65  F   UNL A   1      44.858  33.260  26.359  1.00  0.00    -0.200 F 
ATOM     66  F   UNL A   1      47.195  34.625  26.664  1.00  0.00    -0.200 F 
ENDBRANCH  42  56
BRANCH  43  67
ATOM     67  C   UNL A   1      39.230  28.100  29.467  1.00  0.00     0.064 A 
ATOM     68  C   UNL A   1      38.492  28.217  30.658  1.00  0.00     0.173 A 
ATOM     69  C   UNL A   1      38.706  28.749  28.335  1.00  0.00     0.173 A 
ATOM     70  F   UNL A   1      38.935  27.642  31.786  1.00  0.00    -0.203 F 
ATOM     71  C   UNL A   1      37.340  29.000  30.731  1.00  0.00     0.198 A 
ATOM     72  C   UNL A   1      37.548  29.524  28.407  1.00  0.00     0.198 A 
ATOM     73  F   UNL A   1      39.364  28.732  27.167  1.00  0.00    -0.203 F 
ATOM     74  F   UNL A   1      36.719  29.165  31.907  1.00  0.00    -0.200 F 
ATOM     75  C   UNL A   1      36.880  29.669  29.610  1.00  0.00     0.200 A 
ATOM     76  F   UNL A   1      37.126  30.189  27.323  1.00  0.00    -0.200 F 
ATOM     77  F   UNL A   1      35.824  30.490  29.698  1.00  0.00    -0.200 F 
ENDBRANCH  43  67
BRANCH  55  78
ATOM     78  C   UNL A   1      44.701  26.743  32.269  1.00  0.00     0.064 A 
ATOM     79  C   UNL A   1      44.507  25.412  31.867  1.00  0.00     0.173 A 
ATOM     80  C   UNL A   1      44.871  26.995  33.636  1.00  0.00     0.173 A 
ATOM     81  F   UNL A   1      44.401  25.093  30.570  1.00  0.00    -0.203 F 
ATOM     82  C   UNL A   1      44.452  24.382  32.806  1.00  0.00     0.198 A 
ATOM     83  C   UNL A   1      44.849  25.963  34.566  1.00  0.00     0.198 A 
ATOM     84  F   UNL A   1      45.089  28.248  34.065  1.00  0.00    -0.203 F 
ATOM     85  F   UNL A   1      44.247  23.119  32.408  1.00  0.00    -0.200 F 
ATOM     86  C   UNL A   1      44.630  24.659  34.153  1.00  0.00     0.200 A 
ATOM     87  F   UNL A   1      45.056  26.232  35.863  1.00  0.00    -0.200 F 
ATOM     88  F   UNL A   1      44.608  23.665  35.054  1.00  0.00    -0.200 F 
ENDBRANCH  55  78
ENDBRANCH  29  30
ENDBRANCH  22  24
ENDBRANCH  21  22
ENDBRANCH  20  21
ENDBRANCH   1  20
TORSDOF 15
ENDMDL
MODEL 3
REMARK VINA RESULT:     -11.2      4.171      6.711
REMARK SMILES Cc1cc(C)c2c(OCCCC(=O)OCCOC(=O)c3ccc(-c4c5nc(c(-c6c(F)c(F)c(F)c(F)c6F)c6ccc([nH]6)c(-c6c(F)c(F)c(F)c(F)c6F)c6nc(c(-c7c(F)c(F)c(F)c(F)c7F)c7ccc4[nH]7)C=C6)C=C5)cc3)nsc2n1
REMARK SMILES IDX 15 1 14 2 12 3 13 4 11 5 10 6 9 7 8 8 7 9 1 10 2 11 3 12
REMARK SMILES IDX 86 13 4 14 85 15 5 16 6 17 84 18 83 19 16 20 17 21 18 22
REMARK SMILES IDX 19 23 20 24 21 25 82 26 22 27 81 28 23 29 24 30 25 31 75 32
REMARK SMILES IDX 26 33 80 34 74 35 76 36 27 37 79 38 73 39 72 40 28 42 60 43
REMARK SMILES IDX 40 44 59 45 41 46 44 47 58 48 77 49 42 50 43 51 57 53 78 54
REMARK SMILES IDX 45 55 29 56 30 57 38 58 31 59 32 60 36 61 39 62 33 63 34 64
REMARK SMILES IDX 37 65 35 66 61 67 62 68 70 69 63 70 64 71 68 72 71 73 65 74
REMARK SMILES IDX 66 75 69 76 67 77 46 78 47 79 55 80 48 81 49 82 53 83 56 84
REMARK SMILES IDX 50 85 51 86 54 87 52 88
REMARK H PARENT 76 41 44 52
REMARK Flexibility Score: inf
ROOT
ATOM      1  C   UNL A   1      42.723  20.343  25.967  1.00  0.00     0.274 C 
ENDROOT
BRANCH   1   2
ATOM      2  O   UNL A   1      43.585  20.624  24.831  1.00  0.00    -0.462 OA
BRANCH   2   3
ATOM      3  C   UNL A   1      44.768  19.977  24.735  1.00  0.00     0.306 C 
ATOM      4  O   UNL A   1      44.866  18.803  24.387  1.00  0.00    -0.252 OA
BRANCH   3   5
ATOM      5  C   UNL A   1      45.970  20.789  25.206  1.00  0.00     0.126 C 
BRANCH   5   6
ATOM      6  C   UNL A   1      45.938  22.322  25.235  1.00  0.00     0.053 C 
BRANCH   6   7
ATOM      7  C   UNL A   1      46.700  23.165  24.195  1.00  0.00     0.232 C 
BRANCH   7   8
ATOM      8  O   UNL A   1      46.837  24.575  24.358  1.00  0.00    -0.477 OA
BRANCH   8   9
ATOM      9  C   UNL A   1      47.253  25.050  25.552  1.00  0.00     0.235 A 
ATOM     10  C   UNL A   1      44.878  25.723  30.440  1.00  0.00     0.067 C 
ATOM     11  C   UNL A   1      45.562  26.025  29.137  1.00  0.00     0.039 A 
ATOM     12  C   UNL A   1      44.828  26.522  28.065  1.00  0.00     0.027 A 
ATOM     13  N   UNL A   1      46.843  25.641  29.033  1.00  0.00    -0.240 NA
ATOM     14  C   UNL A   1      45.313  26.432  26.743  1.00  0.00    -0.034 A 
ATOM     15  C   UNL A   1      47.276  25.537  27.764  1.00  0.00     0.147 A 
ATOM     16  C   UNL A   1      44.488  26.992  25.615  1.00  0.00     0.045 C 
ATOM     17  C   UNL A   1      46.545  25.748  26.595  1.00  0.00     0.078 A 
ATOM     18  S   UNL A   1      48.858  25.047  27.372  1.00  0.00    -0.012 S 
ATOM     19  N   UNL A   1      48.538  24.768  25.770  1.00  0.00    -0.153 NA
ENDBRANCH   8   9
ENDBRANCH   7   8
ENDBRANCH   6   7
ENDBRANCH   5   6
ENDBRANCH   3   5
ENDBRANCH   2   3
ENDBRANCH   1   2
BRANCH   1  20
ATOM     20  C   UNL A   1      41.895  21.586  26.319  1.00  0.00     0.275 C 
BRANCH  20  21
ATOM     21  O   UNL A   1      42.734  22.645  26.751  1.00  0.00    -0.458 OA
BRANCH  21  22
ATOM     22  C   UNL A   1      42.507  23.801  26.071  1.00  0.00     0.338 C 
ATOM     23  O   UNL A   1      43.003  24.136  25.038  1.00  0.00    -0.246 OA
BRANCH  22  24
ATOM     24  C   UNL A   1      41.564  24.579  26.899  1.00  0.00     0.060 A 
ATOM     25  C   UNL A   1      40.672  25.376  26.198  1.00  0.00     0.016 A 
ATOM     26  C   UNL A   1      41.822  24.750  28.271  1.00  0.00     0.016 A 
ATOM     27  C   UNL A   1      40.351  26.579  26.771  1.00  0.00     0.010 A 
ATOM     28  C   UNL A   1      41.525  25.956  28.834  1.00  0.00     0.010 A 
ATOM     29  C   UNL A   1      40.913  26.892  28.017  1.00  0.00    -0.014 A 
BRANCH  29  30
ATOM     30  C   UNL A   1      40.825  28.258  28.454  1.00  0.00     0.031 A 
ATOM     31  C   UNL A   1      41.948  29.055  27.968  1.00  0.00     0.074 A 
ATOM     32  C   UNL A   1      39.817  28.709  29.219  1.00  0.00     0.049 A 
ATOM     33  N   UNL A   1      42.996  29.394  28.638  1.00  0.00    -0.248 NA
ATOM     34  C   UNL A   1      42.025  29.321  26.525  1.00  0.00     0.031 C 
ATOM     35  C   UNL A   1      38.525  28.067  29.485  1.00  0.00     0.029 A 
ATOM     36  N   UNL A   1      39.716  29.901  29.868  1.00  0.00    -0.354 N 
ATOM     37  C   UNL A   1      43.759  30.128  27.746  1.00  0.00     0.074 A 
ATOM     38  C   UNL A   1      43.246  29.848  26.432  1.00  0.00     0.031 C 
ATOM     39  C   UNL A   1      37.697  28.967  30.065  1.00  0.00     0.029 A 
ATOM     40  C   UNL A   1      38.445  30.182  30.344  1.00  0.00     0.049 A 
ATOM     41  H   UNL A   1      40.480  30.510  29.990  1.00  0.00     0.167 HD
ATOM     42  C   UNL A   1      44.509  31.164  28.202  1.00  0.00     0.037 A 
ATOM     43  C   UNL A   1      38.052  31.362  30.877  1.00  0.00     0.037 A 
ATOM     44  C   UNL A   1      44.648  31.119  29.636  1.00  0.00     0.049 A 
ATOM     45  C   UNL A   1      39.267  32.073  31.345  1.00  0.00     0.074 A 
ATOM     46  C   UNL A   1      45.431  30.447  30.548  1.00  0.00     0.029 A 
ATOM     47  N   UNL A   1      43.575  31.629  30.319  1.00  0.00    -0.354 N 
ATOM     48  N   UNL A   1      39.985  31.680  32.359  1.00  0.00    -0.248 NA
ATOM     49  C   UNL A   1      39.892  33.075  30.484  1.00  0.00     0.031 C 
ATOM     50  C   UNL A   1      44.736  30.493  31.793  1.00  0.00     0.029 A 
ATOM     51  C   UNL A   1      43.547  31.194  31.617  1.00  0.00     0.049 A 
ATOM     52  H   UNL A   1      42.906  32.235  29.925  1.00  0.00     0.167 HD
ATOM     53  C   UNL A   1      41.270  32.063  32.033  1.00  0.00     0.074 A 
ATOM     54  C   UNL A   1      41.130  33.061  30.984  1.00  0.00     0.031 C 
ATOM     55  C   UNL A   1      42.335  31.297  32.394  1.00  0.00     0.037 A 
BRANCH  42  56
ATOM     56  C   UNL A   1      44.693  32.453  27.447  1.00  0.00     0.064 A 
ATOM     57  C   UNL A   1      45.884  32.648  26.724  1.00  0.00     0.173 A 
ATOM     58  C   UNL A   1      43.900  33.608  27.641  1.00  0.00     0.173 A 
ATOM     59  F   UNL A   1      46.726  31.626  26.512  1.00  0.00    -0.203 F 
ATOM     60  C   UNL A   1      46.271  33.912  26.273  1.00  0.00     0.198 A 
ATOM     61  C   UNL A   1      44.261  34.853  27.137  1.00  0.00     0.198 A 
ATOM     62  F   UNL A   1      42.814  33.610  28.423  1.00  0.00    -0.203 F 
ATOM     63  F   UNL A   1      47.467  34.070  25.691  1.00  0.00    -0.200 F 
ATOM     64  C   UNL A   1      45.459  35.013  26.478  1.00  0.00     0.200 A 
ATOM     65  F   UNL A   1      43.470  35.911  27.371  1.00  0.00    -0.200 F 
ATOM     66  F   UNL A   1      45.851  36.232  26.089  1.00  0.00    -0.200 F 
ENDBRANCH  42  56
BRANCH  43  67
ATOM     67  C   UNL A   1      36.742  32.044  30.805  1.00  0.00     0.064 A 
ATOM     68  C   UNL A   1      35.905  32.086  31.933  1.00  0.00     0.173 A 
ATOM     69  C   UNL A   1      36.436  32.935  29.760  1.00  0.00     0.173 A 
ATOM     70  F   UNL A   1      36.141  31.281  32.979  1.00  0.00    -0.203 F 
ATOM     71  C   UNL A   1      34.872  33.017  32.044  1.00  0.00     0.198 A 
ATOM     72  C   UNL A   1      35.396  33.860  29.868  1.00  0.00     0.198 A 
ATOM     73  F   UNL A   1      37.206  33.000  28.664  1.00  0.00    -0.203 F 
ATOM     74  F   UNL A   1      34.158  33.091  33.176  1.00  0.00    -0.200 F 
ATOM     75  C   UNL A   1      34.631  33.917  31.019  1.00  0.00     0.200 A 
ATOM     76  F   UNL A   1      35.189  34.743  28.882  1.00  0.00    -0.200 F 
ATOM     77  F   UNL A   1      33.696  34.867  31.159  1.00  0.00    -0.200 F 
ENDBRANCH  43  67
BRANCH  55  78
ATOM     78  C   UNL A   1      42.150  30.392  33.568  1.00  0.00     0.064 A 
ATOM     79  C   UNL A   1      42.334  30.784  34.903  1.00  0.00     0.173 A 
ATOM     80  C   UNL A   1      41.722  29.081  33.324  1.00  0.00     0.173 A 
ATOM     81  F   UNL A   1      42.681  32.041  35.208  1.00  0.00    -0.203 F 
ATOM     82  C   UNL A   1      42.128  29.883  35.947  1.00  0.00     0.198 A 
ATOM     83  C   UNL A   1      41.485  28.195  34.369  1.00  0.00     0.198 A 
ATOM     84  F   UNL A   1      41.504  28.669  32.065  1.00  0.00    -0.203 F 
ATOM     85  F   UNL A   1      42.327  30.268  37.216  1.00  0.00    -0.200 F 
ATOM     86  C   UNL A   1      41.698  28.593  35.679  1.00  0.00     0.200 A 
ATOM     87  F   UNL A   1      41.036  26.960  34.105  1.00  0.00    -0.200 F 
ATOM     88  F   UNL A   1      41.470  27.736  36.685  1.00  0.00    -0.200 F 
ENDBRANCH  55  78
ENDBRANCH  29  30
ENDBRANCH  22  24
ENDBRANCH  21  22
ENDBRANCH  20  21
ENDBRANCH   1  20
TORSDOF 15
ENDMDL
