MODEL 1
REMARK VINA RESULT:     -10.4      0.000      0.000
REMARK SMILES C[C@@H](O)[C@@H](NC(=O)CSc1ccncc1)C(=O)OCCOC(=O)c1ccc(-c2c3nc(c(-c4c(F)c(F)c(F)c(F)c4F)c4ccc([nH]4)c(-c4c(F)c(F)c(F)c(F)c4F)c4nc(c(-c5c(F)c(F)c(F)c(F)c5F)c5ccc2[nH]5)C=C4)C=C3)cc1
REMARK SMILES IDX 19 1 18 2 16 3 17 4 4 5 2 6 1 7 3 8 5 10 6 11 7 13 8 14 9 15
REMARK SMILES IDX 10 16 11 17 15 18 12 19 14 20 13 21 20 22 21 23 22 24 23 25
REMARK SMILES IDX 24 26 25 27 86 28 26 29 85 30 27 31 28 32 29 33 79 34 30 35
REMARK SMILES IDX 84 36 78 37 80 38 31 39 83 40 77 41 76 42 32 44 64 45 44 46
REMARK SMILES IDX 63 47 45 48 48 49 62 50 81 51 46 52 47 53 61 55 82 56 49 57
REMARK SMILES IDX 33 58 34 59 42 60 35 61 36 62 40 63 43 64 37 65 38 66 41 67
REMARK SMILES IDX 39 68 65 69 66 70 74 71 67 72 68 73 72 74 75 75 69 76 70 77
REMARK SMILES IDX 73 78 71 79 50 80 51 81 59 82 52 83 53 84 57 85 60 86 54 87
REMARK SMILES IDX 55 88 58 89 56 90
REMARK H PARENT 3 9 5 12 80 43 48 54
REMARK Flexibility Score: inf
ROOT
ATOM      1  C   UNL A   1      33.350  33.803  27.937  1.00  0.00     0.274 C 
ENDROOT
BRANCH   1   2
ATOM      2  O   UNL A   1      32.653  34.232  29.127  1.00  0.00    -0.460 OA
BRANCH   2   3
ATOM      3  C   UNL A   1      32.907  35.505  29.530  1.00  0.00     0.331 C 
ATOM      4  O   UNL A   1      32.712  36.500  28.836  1.00  0.00    -0.250 OA
BRANCH   3   5
ATOM      5  C   UNL A   1      33.584  35.605  30.903  1.00  0.00     0.221 C 
BRANCH   5   6
ATOM      6  C   UNL A   1      32.981  36.756  31.761  1.00  0.00     0.145 C 
ATOM      7  C   UNL A   1      33.776  37.023  33.043  1.00  0.00     0.041 C 
BRANCH   6   8
ATOM      8  O   UNL A   1      33.034  37.996  31.059  1.00  0.00    -0.391 OA
ATOM      9  H   UNL A   1      32.768  37.856  30.136  1.00  0.00     0.211 HD
ENDBRANCH   6   8
ENDBRANCH   5   6
BRANCH   5  10
ATOM     10  N   UNL A   1      33.673  34.353  31.681  1.00  0.00    -0.340 N 
ATOM     11  C   UNL A   1      34.697  33.710  32.293  1.00  0.00     0.231 C 
ATOM     12  H   UNL A   1      32.810  33.889  31.774  1.00  0.00     0.164 HD
ATOM     13  O   UNL A   1      34.402  33.078  33.315  1.00  0.00    -0.274 OA
BRANCH  11  14
ATOM     14  C   UNL A   1      36.101  33.669  31.760  1.00  0.00     0.174 C 
BRANCH  14  15
ATOM     15  S   UNL A   1      37.473  34.015  32.920  1.00  0.00    -0.116 SA
BRANCH  15  16
ATOM     16  C   UNL A   1      38.143  32.495  33.572  1.00  0.00     0.011 A 
ATOM     17  C   UNL A   1      39.302  32.355  34.326  1.00  0.00     0.035 A 
ATOM     18  C   UNL A   1      37.470  31.325  33.196  1.00  0.00     0.035 A 
ATOM     19  C   UNL A   1      39.684  31.085  34.741  1.00  0.00     0.112 A 
ATOM     20  C   UNL A   1      37.944  30.096  33.629  1.00  0.00     0.112 A 
ATOM     21  N   UNL A   1      39.026  29.954  34.415  1.00  0.00    -0.265 NA
ENDBRANCH  15  16
ENDBRANCH  14  15
ENDBRANCH  11  14
ENDBRANCH   5  10
ENDBRANCH   3   5
ENDBRANCH   2   3
ENDBRANCH   1   2
BRANCH   1  22
ATOM     22  C   UNL A   1      34.704  33.158  28.238  1.00  0.00     0.275 C 
BRANCH  22  23
ATOM     23  O   UNL A   1      34.557  31.893  28.903  1.00  0.00    -0.458 OA
BRANCH  23  24
ATOM     24  C   UNL A   1      34.738  30.815  28.110  1.00  0.00     0.338 C 
ATOM     25  O   UNL A   1      34.010  30.442  27.201  1.00  0.00    -0.246 OA
BRANCH  24  26
ATOM     26  C   UNL A   1      36.052  30.220  28.395  1.00  0.00     0.060 A 
ATOM     27  C   UNL A   1      36.278  29.664  29.659  1.00  0.00     0.016 A 
ATOM     28  C   UNL A   1      37.068  30.255  27.440  1.00  0.00     0.016 A 
ATOM     29  C   UNL A   1      37.524  29.142  29.982  1.00  0.00     0.010 A 
ATOM     30  C   UNL A   1      38.322  29.736  27.766  1.00  0.00     0.010 A 
ATOM     31  C   UNL A   1      38.556  29.189  29.041  1.00  0.00    -0.014 A 
BRANCH  31  32
ATOM     32  C   UNL A   1      39.921  28.756  29.408  1.00  0.00     0.031 A 
ATOM     33  C   UNL A   1      40.789  29.691  30.191  1.00  0.00     0.074 A 
ATOM     34  C   UNL A   1      40.376  27.554  29.017  1.00  0.00     0.049 A 
ATOM     35  N   UNL A   1      42.066  29.611  30.459  1.00  0.00    -0.248 NA
ATOM     36  C   UNL A   1      40.128  30.886  30.740  1.00  0.00     0.031 C 
ATOM     37  C   UNL A   1      39.593  26.544  28.307  1.00  0.00     0.029 A 
ATOM     38  N   UNL A   1      41.621  26.993  29.140  1.00  0.00    -0.354 N 
ATOM     39  C   UNL A   1      42.369  30.756  31.181  1.00  0.00     0.074 A 
ATOM     40  C   UNL A   1      41.145  31.520  31.304  1.00  0.00     0.031 C 
ATOM     41  C   UNL A   1      40.384  25.493  28.034  1.00  0.00     0.029 A 
ATOM     42  C   UNL A   1      41.736  25.782  28.504  1.00  0.00     0.049 A 
ATOM     43  H   UNL A   1      42.358  27.416  29.636  1.00  0.00     0.167 HD
ATOM     44  C   UNL A   1      43.565  31.133  31.689  1.00  0.00     0.037 A 
ATOM     45  C   UNL A   1      42.826  25.020  28.288  1.00  0.00     0.037 A 
ATOM     46  C   UNL A   1      44.770  30.357  31.563  1.00  0.00     0.049 A 
ATOM     47  C   UNL A   1      44.159  25.493  28.804  1.00  0.00     0.074 A 
ATOM     48  C   UNL A   1      46.035  30.639  32.043  1.00  0.00     0.029 A 
ATOM     49  N   UNL A   1      44.853  29.138  30.904  1.00  0.00    -0.354 N 
ATOM     50  N   UNL A   1      44.450  26.583  29.472  1.00  0.00    -0.248 NA
ATOM     51  C   UNL A   1      45.320  24.636  28.526  1.00  0.00     0.031 C 
ATOM     52  C   UNL A   1      46.894  29.611  31.638  1.00  0.00     0.029 A 
ATOM     53  C   UNL A   1      46.153  28.665  30.948  1.00  0.00     0.049 A 
ATOM     54  H   UNL A   1      44.099  28.678  30.469  1.00  0.00     0.167 HD
ATOM     55  C   UNL A   1      45.815  26.531  29.717  1.00  0.00     0.074 A 
ATOM     56  C   UNL A   1      46.296  25.297  29.132  1.00  0.00     0.031 C 
ATOM     57  C   UNL A   1      46.601  27.424  30.368  1.00  0.00     0.037 A 
BRANCH  44  58
ATOM     58  C   UNL A   1      43.634  32.458  32.388  1.00  0.00     0.064 A 
ATOM     59  C   UNL A   1      43.967  33.637  31.708  1.00  0.00     0.173 A 
ATOM     60  C   UNL A   1      43.344  32.548  33.759  1.00  0.00     0.173 A 
ATOM     61  F   UNL A   1      44.270  33.601  30.401  1.00  0.00    -0.203 F 
ATOM     62  C   UNL A   1      44.032  34.856  32.379  1.00  0.00     0.198 A 
ATOM     63  C   UNL A   1      43.384  33.772  34.420  1.00  0.00     0.198 A 
ATOM     64  F   UNL A   1      43.019  31.449  34.456  1.00  0.00    -0.203 F 
ATOM     65  F   UNL A   1      44.399  35.963  31.719  1.00  0.00    -0.200 F 
ATOM     66  C   UNL A   1      43.736  34.924  33.732  1.00  0.00     0.200 A 
ATOM     67  F   UNL A   1      43.088  33.837  35.726  1.00  0.00    -0.200 F 
ATOM     68  F   UNL A   1      43.795  36.098  34.375  1.00  0.00    -0.200 F 
ENDBRANCH  44  58
BRANCH  45  69
ATOM     69  C   UNL A   1      42.706  23.752  27.525  1.00  0.00     0.064 A 
ATOM     70  C   UNL A   1      43.044  23.692  26.167  1.00  0.00     0.173 A 
ATOM     71  C   UNL A   1      42.244  22.574  28.135  1.00  0.00     0.173 A 
ATOM     72  F   UNL A   1      43.465  24.797  25.533  1.00  0.00    -0.203 F 
ATOM     73  C   UNL A   1      42.913  22.508  25.444  1.00  0.00     0.198 A 
ATOM     74  C   UNL A   1      42.141  21.384  27.418  1.00  0.00     0.198 A 
ATOM     75  F   UNL A   1      41.904  22.578  29.432  1.00  0.00    -0.203 F 
ATOM     76  F   UNL A   1      43.204  22.490  24.136  1.00  0.00    -0.200 F 
ATOM     77  C   UNL A   1      42.468  21.354  26.071  1.00  0.00     0.200 A 
ATOM     78  F   UNL A   1      41.720  20.270  28.030  1.00  0.00    -0.200 F 
ATOM     79  F   UNL A   1      42.348  20.215  25.376  1.00  0.00    -0.200 F 
ENDBRANCH  45  69
BRANCH  57  80
ATOM     80  C   UNL A   1      48.053  27.077  30.520  1.00  0.00     0.064 A 
ATOM     81  C   UNL A   1      49.020  27.558  29.626  1.00  0.00     0.173 A 
ATOM     82  C   UNL A   1      48.484  26.301  31.605  1.00  0.00     0.173 A 
ATOM     83  F   UNL A   1      48.654  28.292  28.564  1.00  0.00    -0.203 F 
ATOM     84  C   UNL A   1      50.368  27.259  29.806  1.00  0.00     0.198 A 
ATOM     85  C   UNL A   1      49.835  26.026  31.797  1.00  0.00     0.198 A 
ATOM     86  F   UNL A   1      47.596  25.823  32.491  1.00  0.00    -0.203 F 
ATOM     87  F   UNL A   1      51.274  27.697  28.921  1.00  0.00    -0.200 F 
ATOM     88  C   UNL A   1      50.774  26.501  30.894  1.00  0.00     0.200 A 
ATOM     89  F   UNL A   1      50.227  25.304  32.856  1.00  0.00    -0.200 F 
ATOM     90  F   UNL A   1      52.074  26.224  31.071  1.00  0.00    -0.200 F 
ENDBRANCH  57  80
ENDBRANCH  31  32
ENDBRANCH  24  26
ENDBRANCH  23  24
ENDBRANCH  22  23
ENDBRANCH   1  22
TORSDOF 17
ENDMDL
MODEL 2
REMARK VINA RESULT:     -10.2      4.559      9.600
REMARK SMILES C[C@@H](O)[C@@H](NC(=O)CSc1ccncc1)C(=O)OCCOC(=O)c1ccc(-c2c3nc(c(-c4c(F)c(F)c(F)c(F)c4F)c4ccc([nH]4)c(-c4c(F)c(F)c(F)c(F)c4F)c4nc(c(-c5c(F)c(F)c(F)c(F)c5F)c5ccc2[nH]5)C=C4)C=C3)cc1
REMARK SMILES IDX 19 1 18 2 16 3 17 4 4 5 2 6 1 7 3 8 5 10 6 11 7 13 8 14 9 15
REMARK SMILES IDX 10 16 11 17 15 18 12 19 14 20 13 21 20 22 21 23 22 24 23 25
REMARK SMILES IDX 24 26 25 27 86 28 26 29 85 30 27 31 28 32 29 33 79 34 30 35
REMARK SMILES IDX 84 36 78 37 80 38 31 39 83 40 77 41 76 42 32 44 64 45 44 46
REMARK SMILES IDX 63 47 45 48 48 49 62 50 81 51 46 52 47 53 61 55 82 56 49 57
REMARK SMILES IDX 33 58 34 59 42 60 35 61 36 62 40 63 43 64 37 65 38 66 41 67
REMARK SMILES IDX 39 68 65 69 66 70 74 71 67 72 68 73 72 74 75 75 69 76 70 77
REMARK SMILES IDX 73 78 71 79 50 80 51 81 59 82 52 83 53 84 57 85 60 86 54 87
REMARK SMILES IDX 55 88 58 89 56 90
REMARK H PARENT 3 9 5 12 80 43 48 54
REMARK Flexibility Score: inf
ROOT
ATOM      1  C   UNL A   1      31.757  28.559  26.246  1.00  0.00     0.274 C 
ENDROOT
BRANCH   1   2
ATOM      2  O   UNL A   1      31.901  28.162  24.864  1.00  0.00    -0.460 OA
BRANCH   2   3
ATOM      3  C   UNL A   1      30.909  27.373  24.373  1.00  0.00     0.331 C 
ATOM      4  O   UNL A   1      30.222  26.621  25.060  1.00  0.00    -0.250 OA
BRANCH   3   5
ATOM      5  C   UNL A   1      30.789  27.397  22.844  1.00  0.00     0.221 C 
BRANCH   5   6
ATOM      6  C   UNL A   1      30.163  28.729  22.336  1.00  0.00     0.145 C 
ATOM      7  C   UNL A   1      28.720  28.928  22.808  1.00  0.00     0.041 C 
BRANCH   6   8
ATOM      8  O   UNL A   1      30.857  29.854  22.870  1.00  0.00    -0.391 OA
ATOM      9  H   UNL A   1      30.989  29.729  23.824  1.00  0.00     0.211 HD
ENDBRANCH   6   8
ENDBRANCH   5   6
BRANCH   5  10
ATOM     10  N   UNL A   1      32.011  27.062  22.086  1.00  0.00    -0.340 N 
ATOM     11  C   UNL A   1      32.689  25.907  21.880  1.00  0.00     0.231 C 
ATOM     12  H   UNL A   1      32.418  27.838  21.639  1.00  0.00     0.164 HD
ATOM     13  O   UNL A   1      33.260  25.805  20.787  1.00  0.00    -0.274 OA
BRANCH  11  14
ATOM     14  C   UNL A   1      32.838  24.824  22.911  1.00  0.00     0.174 C 
BRANCH  14  15
ATOM     15  S   UNL A   1      34.052  25.075  24.256  1.00  0.00    -0.116 SA
BRANCH  15  16
ATOM     16  C   UNL A   1      33.616  24.099  25.686  1.00  0.00     0.011 A 
ATOM     17  C   UNL A   1      34.477  23.327  26.457  1.00  0.00     0.035 A 
ATOM     18  C   UNL A   1      32.250  24.045  25.989  1.00  0.00     0.035 A 
ATOM     19  C   UNL A   1      33.960  22.616  27.532  1.00  0.00     0.112 A 
ATOM     20  C   UNL A   1      31.819  23.280  27.062  1.00  0.00     0.112 A 
ATOM     21  N   UNL A   1      32.651  22.582  27.856  1.00  0.00    -0.265 NA
ENDBRANCH  15  16
ENDBRANCH  14  15
ENDBRANCH  11  14
ENDBRANCH   5  10
ENDBRANCH   3   5
ENDBRANCH   2   3
ENDBRANCH   1   2
BRANCH   1  22
ATOM     22  C   UNL A   1      31.847  30.073  26.444  1.00  0.00     0.275 C 
BRANCH  22  23
ATOM     23  O   UNL A   1      33.195  30.551  26.303  1.00  0.00    -0.458 OA
BRANCH  23  24
ATOM     24  C   UNL A   1      33.534  31.543  27.154  1.00  0.00     0.338 C 
ATOM     25  O   UNL A   1      32.841  32.497  27.481  1.00  0.00    -0.246 OA
BRANCH  24  26
ATOM     26  C   UNL A   1      34.829  31.229  27.774  1.00  0.00     0.060 A 
ATOM     27  C   UNL A   1      35.058  29.925  28.226  1.00  0.00     0.016 A 
ATOM     28  C   UNL A   1      35.789  32.224  27.953  1.00  0.00     0.016 A 
ATOM     29  C   UNL A   1      36.250  29.604  28.866  1.00  0.00     0.010 A 
ATOM     30  C   UNL A   1      36.983  31.905  28.601  1.00  0.00     0.010 A 
ATOM     31  C   UNL A   1      37.212  30.598  29.069  1.00  0.00    -0.014 A 
BRANCH  31  32
ATOM     32  C   UNL A   1      38.427  30.308  29.858  1.00  0.00     0.031 A 
ATOM     33  C   UNL A   1      39.456  29.383  29.286  1.00  0.00     0.074 A 
ATOM     34  C   UNL A   1      38.584  30.847  31.079  1.00  0.00     0.049 A 
ATOM     35  N   UNL A   1      40.495  28.838  29.862  1.00  0.00    -0.248 NA
ATOM     36  C   UNL A   1      39.285  29.016  27.871  1.00  0.00     0.031 C 
ATOM     37  C   UNL A   1      37.675  31.807  31.702  1.00  0.00     0.029 A 
ATOM     38  N   UNL A   1      39.556  30.638  32.023  1.00  0.00    -0.354 N 
ATOM     39  C   UNL A   1      41.085  28.041  28.892  1.00  0.00     0.074 A 
ATOM     40  C   UNL A   1      40.286  28.167  27.691  1.00  0.00     0.031 C 
ATOM     41  C   UNL A   1      38.118  32.087  32.939  1.00  0.00     0.029 A 
ATOM     42  C   UNL A   1      39.310  31.286  33.208  1.00  0.00     0.049 A 
ATOM     43  H   UNL A   1      40.351  30.080  31.867  1.00  0.00     0.167 HD
ATOM     44  C   UNL A   1      42.192  27.271  29.002  1.00  0.00     0.037 A 
ATOM     45  C   UNL A   1      39.952  31.201  34.389  1.00  0.00     0.037 A 
ATOM     46  C   UNL A   1      42.979  27.164  30.202  1.00  0.00     0.049 A 
ATOM     47  C   UNL A   1      41.142  30.285  34.507  1.00  0.00     0.074 A 
ATOM     48  C   UNL A   1      44.122  26.420  30.424  1.00  0.00     0.029 A 
ATOM     49  N   UNL A   1      42.696  27.828  31.388  1.00  0.00    -0.354 N 
ATOM     50  N   UNL A   1      41.690  29.518  33.595  1.00  0.00    -0.248 NA
ATOM     51  C   UNL A   1      41.796  30.213  35.820  1.00  0.00     0.031 C 
ATOM     52  C   UNL A   1      44.508  26.600  31.757  1.00  0.00     0.029 A 
ATOM     53  C   UNL A   1      43.632  27.495  32.351  1.00  0.00     0.049 A 
ATOM     54  H   UNL A   1      41.940  28.445  31.523  1.00  0.00     0.167 HD
ATOM     55  C   UNL A   1      42.765  28.896  34.213  1.00  0.00     0.074 A 
ATOM     56  C   UNL A   1      42.798  29.379  35.578  1.00  0.00     0.031 C 
ATOM     57  C   UNL A   1      43.648  28.004  33.699  1.00  0.00     0.037 A 
BRANCH  44  58
ATOM     58  C   UNL A   1      42.590  26.457  27.807  1.00  0.00     0.064 A 
ATOM     59  C   UNL A   1      43.532  26.920  26.877  1.00  0.00     0.173 A 
ATOM     60  C   UNL A   1      42.032  25.186  27.601  1.00  0.00     0.173 A 
ATOM     61  F   UNL A   1      44.081  28.136  27.020  1.00  0.00    -0.203 F 
ATOM     62  C   UNL A   1      43.882  26.151  25.770  1.00  0.00     0.198 A 
ATOM     63  C   UNL A   1      42.404  24.409  26.507  1.00  0.00     0.198 A 
ATOM     64  F   UNL A   1      41.127  24.697  28.461  1.00  0.00    -0.203 F 
ATOM     65  F   UNL A   1      44.749  26.633  24.868  1.00  0.00    -0.200 F 
ATOM     66  C   UNL A   1      43.323  24.895  25.589  1.00  0.00     0.200 A 
ATOM     67  F   UNL A   1      41.870  23.192  26.339  1.00  0.00    -0.200 F 
ATOM     68  F   UNL A   1      43.663  24.155  24.525  1.00  0.00    -0.200 F 
ENDBRANCH  44  58
BRANCH  45  69
ATOM     69  C   UNL A   1      39.466  31.979  35.557  1.00  0.00     0.064 A 
ATOM     70  C   UNL A   1      39.951  33.267  35.818  1.00  0.00     0.173 A 
ATOM     71  C   UNL A   1      38.511  31.449  36.439  1.00  0.00     0.173 A 
ATOM     72  F   UNL A   1      40.883  33.806  35.018  1.00  0.00    -0.203 F 
ATOM     73  C   UNL A   1      39.510  33.991  36.925  1.00  0.00     0.198 A 
ATOM     74  C   UNL A   1      38.051  32.185  37.529  1.00  0.00     0.198 A 
ATOM     75  F   UNL A   1      38.017  30.219  36.236  1.00  0.00    -0.203 F 
ATOM     76  F   UNL A   1      40.022  35.204  37.175  1.00  0.00    -0.200 F 
ATOM     77  C   UNL A   1      38.557  33.453  37.775  1.00  0.00     0.200 A 
ATOM     78  F   UNL A   1      37.123  31.665  38.342  1.00  0.00    -0.200 F 
ATOM     79  F   UNL A   1      38.131  34.152  38.835  1.00  0.00    -0.200 F 
ENDBRANCH  45  69
BRANCH  57  80
ATOM     80  C   UNL A   1      44.747  27.527  34.602  1.00  0.00     0.064 A 
ATOM     81  C   UNL A   1      45.917  28.274  34.793  1.00  0.00     0.173 A 
ATOM     82  C   UNL A   1      44.598  26.335  35.327  1.00  0.00     0.173 A 
ATOM     83  F   UNL A   1      46.111  29.413  34.110  1.00  0.00    -0.203 F 
ATOM     84  C   UNL A   1      46.909  27.835  35.666  1.00  0.00     0.198 A 
ATOM     85  C   UNL A   1      45.580  25.914  36.220  1.00  0.00     0.198 A 
ATOM     86  F   UNL A   1      43.492  25.589  35.184  1.00  0.00    -0.203 F 
ATOM     87  F   UNL A   1      48.037  28.545  35.807  1.00  0.00    -0.200 F 
ATOM     88  C   UNL A   1      46.736  26.662  36.384  1.00  0.00     0.200 A 
ATOM     89  F   UNL A   1      45.405  24.786  36.922  1.00  0.00    -0.200 F 
ATOM     90  F   UNL A   1      47.687  26.247  37.233  1.00  0.00    -0.200 F 
ENDBRANCH  57  80
ENDBRANCH  31  32
ENDBRANCH  24  26
ENDBRANCH  23  24
ENDBRANCH  22  23
ENDBRANCH   1  22
TORSDOF 17
ENDMDL
MODEL 3
REMARK VINA RESULT:     -10.0      5.519      9.511
REMARK SMILES C[C@@H](O)[C@@H](NC(=O)CSc1ccncc1)C(=O)OCCOC(=O)c1ccc(-c2c3nc(c(-c4c(F)c(F)c(F)c(F)c4F)c4ccc([nH]4)c(-c4c(F)c(F)c(F)c(F)c4F)c4nc(c(-c5c(F)c(F)c(F)c(F)c5F)c5ccc2[nH]5)C=C4)C=C3)cc1
REMARK SMILES IDX 19 1 18 2 16 3 17 4 4 5 2 6 1 7 3 8 5 10 6 11 7 13 8 14 9 15
REMARK SMILES IDX 10 16 11 17 15 18 12 19 14 20 13 21 20 22 21 23 22 24 23 25
REMARK SMILES IDX 24 26 25 27 86 28 26 29 85 30 27 31 28 32 29 33 79 34 30 35
REMARK SMILES IDX 84 36 78 37 80 38 31 39 83 40 77 41 76 42 32 44 64 45 44 46
REMARK SMILES IDX 63 47 45 48 48 49 62 50 81 51 46 52 47 53 61 55 82 56 49 57
REMARK SMILES IDX 33 58 34 59 42 60 35 61 36 62 40 63 43 64 37 65 38 66 41 67
REMARK SMILES IDX 39 68 65 69 66 70 74 71 67 72 68 73 72 74 75 75 69 76 70 77
REMARK SMILES IDX 73 78 71 79 50 80 51 81 59 82 52 83 53 84 57 85 60 86 54 87
REMARK SMILES IDX 55 88 58 89 56 90
REMARK H PARENT 3 9 5 12 80 43 48 54
REMARK Flexibility Score: inf
ROOT
ATOM      1  C   UNL A   1      35.889  20.429  25.040  1.00  0.00     0.274 C 
ENDROOT
BRANCH   1   2
ATOM      2  O   UNL A   1      34.862  21.337  25.495  1.00  0.00    -0.460 OA
BRANCH   2   3
ATOM      3  C   UNL A   1      33.890  21.626  24.589  1.00  0.00     0.331 C 
ATOM      4  O   UNL A   1      34.095  22.177  23.510  1.00  0.00    -0.250 OA
BRANCH   3   5
ATOM      5  C   UNL A   1      32.469  21.317  25.076  1.00  0.00     0.221 C 
BRANCH   5   6
ATOM      6  C   UNL A   1      32.223  19.784  25.202  1.00  0.00     0.145 C 
ATOM      7  C   UNL A   1      32.720  18.998  23.985  1.00  0.00     0.041 C 
BRANCH   6   8
ATOM      8  O   UNL A   1      32.967  19.238  26.290  1.00  0.00    -0.391 OA
ATOM      9  H   UNL A   1      32.365  18.769  26.890  1.00  0.00     0.211 HD
ENDBRANCH   6   8
ENDBRANCH   5   6
BRANCH   5  10
ATOM     10  N   UNL A   1      32.025  22.027  26.291  1.00  0.00    -0.340 N 
ATOM     11  C   UNL A   1      31.159  23.047  26.507  1.00  0.00     0.231 C 
ATOM     12  H   UNL A   1      32.444  21.691  27.115  1.00  0.00     0.164 HD
ATOM     13  O   UNL A   1      30.551  23.020  27.584  1.00  0.00    -0.274 OA
BRANCH  11  14
ATOM     14  C   UNL A   1      30.973  24.205  25.567  1.00  0.00     0.174 C 
BRANCH  14  15
ATOM     15  S   UNL A   1      32.170  25.585  25.652  1.00  0.00    -0.116 SA
BRANCH  15  16
ATOM     16  C   UNL A   1      32.739  26.026  24.019  1.00  0.00     0.011 A 
ATOM     17  C   UNL A   1      33.220  27.266  23.614  1.00  0.00     0.035 A 
ATOM     18  C   UNL A   1      32.588  25.038  23.038  1.00  0.00     0.035 A 
ATOM     19  C   UNL A   1      33.608  27.436  22.292  1.00  0.00     0.112 A 
ATOM     20  C   UNL A   1      32.971  25.308  21.733  1.00  0.00     0.112 A 
ATOM     21  N   UNL A   1      33.501  26.482  21.344  1.00  0.00    -0.265 NA
ENDBRANCH  15  16
ENDBRANCH  14  15
ENDBRANCH  11  14
ENDBRANCH   5  10
ENDBRANCH   3   5
ENDBRANCH   2   3
ENDBRANCH   1   2
BRANCH   1  22
ATOM     22  C   UNL A   1      37.216  21.131  24.739  1.00  0.00     0.275 C 
BRANCH  22  23
ATOM     23  O   UNL A   1      37.711  21.849  25.881  1.00  0.00    -0.458 OA
BRANCH  23  24
ATOM     24  C   UNL A   1      38.985  21.560  26.220  1.00  0.00     0.338 C 
ATOM     25  O   UNL A   1      39.575  20.506  26.024  1.00  0.00    -0.246 OA
BRANCH  24  26
ATOM     26  C   UNL A   1      39.638  22.772  26.733  1.00  0.00     0.060 A 
ATOM     27  C   UNL A   1      39.263  24.012  26.204  1.00  0.00     0.016 A 
ATOM     28  C   UNL A   1      40.647  22.683  27.691  1.00  0.00     0.016 A 
ATOM     29  C   UNL A   1      39.896  25.175  26.626  1.00  0.00     0.010 A 
ATOM     30  C   UNL A   1      41.289  23.850  28.111  1.00  0.00     0.010 A 
ATOM     31  C   UNL A   1      40.923  25.097  27.571  1.00  0.00    -0.014 A 
BRANCH  31  32
ATOM     32  C   UNL A   1      41.693  26.303  27.937  1.00  0.00     0.031 A 
ATOM     33  C   UNL A   1      41.019  27.377  28.733  1.00  0.00     0.074 A 
ATOM     34  C   UNL A   1      42.968  26.440  27.532  1.00  0.00     0.049 A 
ATOM     35  N   UNL A   1      41.425  28.589  29.003  1.00  0.00    -0.248 NA
ATOM     36  C   UNL A   1      39.701  27.039  29.294  1.00  0.00     0.031 C 
ATOM     37  C   UNL A   1      43.737  25.429  26.809  1.00  0.00     0.029 A 
ATOM     38  N   UNL A   1      43.829  27.499  27.653  1.00  0.00    -0.354 N 
ATOM     39  C   UNL A   1      40.403  29.170  29.740  1.00  0.00     0.074 A 
ATOM     40  C   UNL A   1      39.353  28.181  29.869  1.00  0.00     0.031 C 
ATOM     41  C   UNL A   1      44.951  25.927  26.526  1.00  0.00     0.029 A 
ATOM     42  C   UNL A   1      45.022  27.305  27.003  1.00  0.00     0.049 A 
ATOM     43  H   UNL A   1      43.613  28.317  28.156  1.00  0.00     0.167 HD
ATOM     44  C   UNL A   1      40.349  30.420  30.256  1.00  0.00     0.037 A 
ATOM     45  C   UNL A   1      46.035  28.166  26.781  1.00  0.00     0.037 A 
ATOM     46  C   UNL A   1      41.406  31.388  30.124  1.00  0.00     0.049 A 
ATOM     47  C   UNL A   1      45.923  29.573  27.306  1.00  0.00     0.074 A 
ATOM     48  C   UNL A   1      41.460  32.680  30.611  1.00  0.00     0.029 A 
ATOM     49  N   UNL A   1      42.598  31.161  29.450  1.00  0.00    -0.354 N 
ATOM     50  N   UNL A   1      44.950  30.128  27.988  1.00  0.00    -0.248 NA
ATOM     51  C   UNL A   1      47.045  30.478  27.021  1.00  0.00     0.031 C 
ATOM     52  C   UNL A   1      42.669  33.251  30.196  1.00  0.00     0.029 A 
ATOM     53  C   UNL A   1      43.388  32.297  29.492  1.00  0.00     0.049 A 
ATOM     54  H   UNL A   1      42.846  30.317  29.008  1.00  0.00     0.167 HD
ATOM     55  C   UNL A   1      45.351  31.433  28.236  1.00  0.00     0.074 A 
ATOM     56  C   UNL A   1      46.661  31.587  27.638  1.00  0.00     0.031 C 
ATOM     57  C   UNL A   1      44.696  32.417  28.900  1.00  0.00     0.037 A 
BRANCH  44  58
ATOM     58  C   UNL A   1      39.093  30.820  30.971  1.00  0.00     0.064 A 
ATOM     59  C   UNL A   1      38.003  31.383  30.293  1.00  0.00     0.173 A 
ATOM     60  C   UNL A   1      38.975  30.620  32.355  1.00  0.00     0.173 A 
ATOM     61  F   UNL A   1      38.073  31.611  28.972  1.00  0.00    -0.203 F 
ATOM     62  C   UNL A   1      36.849  31.754  30.978  1.00  0.00     0.198 A 
ATOM     63  C   UNL A   1      37.810  30.969  33.032  1.00  0.00     0.198 A 
ATOM     64  F   UNL A   1      39.990  30.085  33.051  1.00  0.00    -0.203 F 
ATOM     65  F   UNL A   1      35.837  32.334  30.317  1.00  0.00    -0.200 F 
ATOM     66  C   UNL A   1      36.751  31.542  32.345  1.00  0.00     0.200 A 
ATOM     67  F   UNL A   1      37.713  30.754  34.352  1.00  0.00    -0.200 F 
ATOM     68  F   UNL A   1      35.638  31.897  33.002  1.00  0.00    -0.200 F 
ENDBRANCH  44  58
BRANCH  45  69
ATOM     69  C   UNL A   1      47.222  27.731  26.003  1.00  0.00     0.064 A 
ATOM     70  C   UNL A   1      48.381  27.280  26.648  1.00  0.00     0.173 A 
ATOM     71  C   UNL A   1      47.226  27.761  24.600  1.00  0.00     0.173 A 
ATOM     72  F   UNL A   1      48.436  27.257  27.988  1.00  0.00    -0.203 F 
ATOM     73  C   UNL A   1      49.505  26.890  25.920  1.00  0.00     0.198 A 
ATOM     74  C   UNL A   1      48.339  27.344  23.873  1.00  0.00     0.198 A 
ATOM     75  F   UNL A   1      46.142  28.187  23.934  1.00  0.00    -0.203 F 
ATOM     76  F   UNL A   1      50.615  26.503  26.563  1.00  0.00    -0.200 F 
ATOM     77  C   UNL A   1      49.480  26.916  24.534  1.00  0.00     0.200 A 
ATOM     78  F   UNL A   1      48.307  27.362  22.534  1.00  0.00    -0.200 F 
ATOM     79  F   UNL A   1      50.558  26.536  23.836  1.00  0.00    -0.200 F 
ENDBRANCH  45  69
BRANCH  57  80
ATOM     80  C   UNL A   1      45.402  33.732  29.051  1.00  0.00     0.064 A 
ATOM     81  C   UNL A   1      46.277  33.977  30.119  1.00  0.00     0.173 A 
ATOM     82  C   UNL A   1      45.244  34.734  28.083  1.00  0.00     0.173 A 
ATOM     83  F   UNL A   1      46.448  33.055  31.078  1.00  0.00    -0.203 F 
ATOM     84  C   UNL A   1      46.955  35.189  30.221  1.00  0.00     0.198 A 
ATOM     85  C   UNL A   1      45.944  35.934  28.174  1.00  0.00     0.198 A 
ATOM     86  F   UNL A   1      44.424  34.543  27.039  1.00  0.00    -0.203 F 
ATOM     87  F   UNL A   1      47.757  35.419  31.269  1.00  0.00    -0.200 F 
ATOM     88  C   UNL A   1      46.795  36.161  29.245  1.00  0.00     0.200 A 
ATOM     89  F   UNL A   1      45.798  36.867  27.223  1.00  0.00    -0.200 F 
ATOM     90  F   UNL A   1      47.457  37.323  29.340  1.00  0.00    -0.200 F 
ENDBRANCH  57  80
ENDBRANCH  31  32
ENDBRANCH  24  26
ENDBRANCH  23  24
ENDBRANCH  22  23
ENDBRANCH   1  22
TORSDOF 17
ENDMDL
