MODEL 1
REMARK VINA RESULT:     -12.8      0.000      0.000
REMARK SMILES O=C(OCCOC(=O)c1cc(-c2cccc(C(F)(F)F)c2)nc2c(F)cccc12)c1ccc(-c2c3nc(c(-c4c(F)c(F)c(F)c(F)c4F)c4ccc([nH]4)c(-c4c(F)c(F)c(F)c(F)c4F)c4nc(c(-c5c(F)c(F)c(F)c(F)c5F)c5ccc2[nH]5)C=C4)C=C3)cc1
REMARK SMILES IDX 4 1 3 2 2 3 1 4 30 5 31 6 92 7 32 8 91 9 33 10 34 11 35 12
REMARK SMILES IDX 85 13 36 14 90 15 84 16 86 17 37 18 89 19 83 20 82 21 38 23
REMARK SMILES IDX 70 24 50 25 69 26 51 27 54 28 68 29 87 30 52 31 53 32 67 34
REMARK SMILES IDX 88 35 55 36 39 37 40 38 48 39 41 40 42 41 46 42 49 43 43 44
REMARK SMILES IDX 44 45 47 46 45 47 71 48 72 49 80 50 73 51 74 52 78 53 81 54
REMARK SMILES IDX 75 55 76 56 79 57 77 58 56 59 57 60 65 61 58 62 59 63 63 64
REMARK SMILES IDX 66 65 60 66 61 67 64 68 62 69 5 70 6 71 7 72 8 73 9 74 10 75
REMARK SMILES IDX 29 76 11 77 23 78 28 79 22 80 24 81 27 82 25 83 26 84 12 85
REMARK SMILES IDX 13 86 21 87 14 88 16 89 15 90 17 91 18 92 19 93 20 94
REMARK H PARENT 86 22 54 33
REMARK Flexibility Score: inf
ROOT
ATOM      1  C   UNL A   1      31.875  29.866  26.345  1.00  0.00     0.275 C 
ENDROOT
BRANCH   1   2
ATOM      2  O   UNL A   1      33.057  30.678  26.303  1.00  0.00    -0.458 OA
BRANCH   2   3
ATOM      3  C   UNL A   1      33.622  31.418  27.280  1.00  0.00     0.338 C 
ATOM      4  O   UNL A   1      33.067  32.466  27.614  1.00  0.00    -0.246 OA
BRANCH   3   5
ATOM      5  C   UNL A   1      34.968  31.130  27.882  1.00  0.00     0.060 A 
ATOM      6  C   UNL A   1      36.056  31.990  28.002  1.00  0.00     0.016 A 
ATOM      7  C   UNL A   1      35.108  29.846  28.426  1.00  0.00     0.016 A 
ATOM      8  C   UNL A   1      37.197  31.615  28.722  1.00  0.00     0.010 A 
ATOM      9  C   UNL A   1      36.209  29.483  29.206  1.00  0.00     0.010 A 
ATOM     10  C   UNL A   1      37.274  30.372  29.354  1.00  0.00    -0.014 A 
BRANCH  10  11
ATOM     11  C   UNL A   1      38.525  29.963  30.034  1.00  0.00     0.031 A 
ATOM     12  C   UNL A   1      38.852  30.572  31.367  1.00  0.00     0.074 A 
ATOM     13  C   UNL A   1      39.310  28.997  29.520  1.00  0.00     0.049 A 
ATOM     14  N   UNL A   1      39.828  30.281  32.186  1.00  0.00    -0.248 NA
ATOM     15  C   UNL A   1      37.935  31.610  31.871  1.00  0.00     0.031 C 
ATOM     16  C   UNL A   1      39.046  28.261  28.287  1.00  0.00     0.029 A 
ATOM     17  N   UNL A   1      40.491  28.462  29.971  1.00  0.00    -0.354 N 
ATOM     18  C   UNL A   1      39.595  31.038  33.322  1.00  0.00     0.074 A 
ATOM     19  C   UNL A   1      38.463  31.890  33.051  1.00  0.00     0.031 C 
ATOM     20  C   UNL A   1      40.058  27.409  28.052  1.00  0.00     0.029 A 
ATOM     21  C   UNL A   1      41.049  27.553  29.104  1.00  0.00     0.049 A 
ATOM     22  H   UNL A   1      40.899  28.705  30.834  1.00  0.00     0.167 HD
ATOM     23  C   UNL A   1      40.225  30.970  34.517  1.00  0.00     0.037 A 
ATOM     24  C   UNL A   1      42.234  26.917  29.148  1.00  0.00     0.037 A 
ATOM     25  C   UNL A   1      41.372  30.144  34.770  1.00  0.00     0.049 A 
ATOM     26  C   UNL A   1      43.048  27.030  30.402  1.00  0.00     0.074 A 
ATOM     27  C   UNL A   1      42.099  30.009  35.936  1.00  0.00     0.029 A 
ATOM     28  N   UNL A   1      41.971  29.322  33.823  1.00  0.00    -0.354 N 
ATOM     29  N   UNL A   1      42.785  27.704  31.494  1.00  0.00    -0.248 NA
ATOM     30  C   UNL A   1      44.282  26.238  30.460  1.00  0.00     0.031 C 
ATOM     31  C   UNL A   1      43.175  29.151  35.680  1.00  0.00     0.029 A 
ATOM     32  C   UNL A   1      43.082  28.704  34.371  1.00  0.00     0.049 A 
ATOM     33  H   UNL A   1      41.654  29.199  32.900  1.00  0.00     0.167 HD
ATOM     34  C   UNL A   1      43.784  27.372  32.394  1.00  0.00     0.074 A 
ATOM     35  C   UNL A   1      44.660  26.438  31.714  1.00  0.00     0.031 C 
ATOM     36  C   UNL A   1      43.945  27.783  33.675  1.00  0.00     0.037 A 
BRANCH  23  37
ATOM     37  C   UNL A   1      39.661  31.806  35.625  1.00  0.00     0.064 A 
ATOM     38  C   UNL A   1      40.152  33.097  35.884  1.00  0.00     0.173 A 
ATOM     39  C   UNL A   1      38.635  31.317  36.442  1.00  0.00     0.173 A 
ATOM     40  F   UNL A   1      41.155  33.600  35.147  1.00  0.00    -0.203 F 
ATOM     41  C   UNL A   1      39.653  33.856  36.939  1.00  0.00     0.198 A 
ATOM     42  C   UNL A   1      38.118  32.089  37.480  1.00  0.00     0.198 A 
ATOM     43  F   UNL A   1      38.140  30.086  36.242  1.00  0.00    -0.203 F 
ATOM     44  F   UNL A   1      40.175  35.061  37.202  1.00  0.00    -0.200 F 
ATOM     45  C   UNL A   1      38.632  33.353  37.731  1.00  0.00     0.200 A 
ATOM     46  F   UNL A   1      37.130  31.604  38.244  1.00  0.00    -0.200 F 
ATOM     47  F   UNL A   1      38.151  34.083  38.747  1.00  0.00    -0.200 F 
ENDBRANCH  23  37
BRANCH  24  48
ATOM     48  C   UNL A   1      42.722  26.125  27.990  1.00  0.00     0.064 A 
ATOM     49  C   UNL A   1      42.475  24.751  27.871  1.00  0.00     0.173 A 
ATOM     50  C   UNL A   1      43.510  26.731  26.999  1.00  0.00     0.173 A 
ATOM     51  F   UNL A   1      41.747  24.120  28.804  1.00  0.00    -0.203 F 
ATOM     52  C   UNL A   1      43.019  24.009  26.823  1.00  0.00     0.198 A 
ATOM     53  C   UNL A   1      44.033  25.994  25.939  1.00  0.00     0.198 A 
ATOM     54  F   UNL A   1      43.779  28.042  27.066  1.00  0.00    -0.203 F 
ATOM     55  F   UNL A   1      42.810  22.687  26.762  1.00  0.00    -0.200 F 
ATOM     56  C   UNL A   1      43.798  24.630  25.858  1.00  0.00     0.200 A 
ATOM     57  F   UNL A   1      44.772  26.602  25.001  1.00  0.00    -0.200 F 
ATOM     58  F   UNL A   1      44.326  23.915  24.855  1.00  0.00    -0.200 F 
ENDBRANCH  24  48
BRANCH  36  59
ATOM     59  C   UNL A   1      45.087  27.181  34.433  1.00  0.00     0.064 A 
ATOM     60  C   UNL A   1      46.355  27.778  34.458  1.00  0.00     0.173 A 
ATOM     61  C   UNL A   1      44.909  25.983  35.141  1.00  0.00     0.173 A 
ATOM     62  F   UNL A   1      46.581  28.913  33.777  1.00  0.00    -0.203 F 
ATOM     63  C   UNL A   1      47.414  27.177  35.130  1.00  0.00     0.198 A 
ATOM     64  C   UNL A   1      45.958  25.406  35.847  1.00  0.00     0.198 A 
ATOM     65  F   UNL A   1      43.714  25.373  35.151  1.00  0.00    -0.203 F 
ATOM     66  F   UNL A   1      48.635  27.725  35.078  1.00  0.00    -0.200 F 
ATOM     67  C   UNL A   1      47.213  25.996  35.829  1.00  0.00     0.200 A 
ATOM     68  F   UNL A   1      45.759  24.273  36.534  1.00  0.00    -0.200 F 
ATOM     69  F   UNL A   1      48.234  25.418  36.476  1.00  0.00    -0.200 F 
ENDBRANCH  36  59
ENDBRANCH  10  11
ENDBRANCH   3   5
ENDBRANCH   2   3
ENDBRANCH   1   2
BRANCH   1  70
ATOM     70  C   UNL A   1      31.932  28.710  27.350  1.00  0.00     0.275 C 
BRANCH  70  71
ATOM     71  O   UNL A   1      32.692  27.575  26.896  1.00  0.00    -0.458 OA
BRANCH  71  72
ATOM     72  C   UNL A   1      31.967  26.503  26.481  1.00  0.00     0.339 C 
ATOM     73  O   UNL A   1      30.859  26.175  26.879  1.00  0.00    -0.246 OA
BRANCH  72  74
ATOM     74  C   UNL A   1      32.663  25.813  25.375  1.00  0.00     0.071 A 
ATOM     75  C   UNL A   1      33.766  25.022  25.723  1.00  0.00     0.045 A 
ATOM     76  C   UNL A   1      32.288  25.982  24.023  1.00  0.00     0.018 A 
ATOM     77  C   UNL A   1      34.430  24.338  24.721  1.00  0.00     0.072 A 
ATOM     78  C   UNL A   1      33.031  25.248  23.077  1.00  0.00     0.107 A 
ATOM     79  C   UNL A   1      31.263  26.858  23.569  1.00  0.00     0.011 A 
ATOM     80  N   UNL A   1      34.049  24.436  23.429  1.00  0.00    -0.245 NA
ATOM     81  C   UNL A   1      32.714  25.405  21.729  1.00  0.00     0.149 A 
ATOM     82  C   UNL A   1      31.000  27.020  22.209  1.00  0.00     0.004 A 
ATOM     83  F   UNL A   1      33.379  24.699  20.800  1.00  0.00    -0.205 F 
ATOM     84  C   UNL A   1      31.735  26.291  21.286  1.00  0.00     0.041 A 
BRANCH  77  85
ATOM     85  C   UNL A   1      35.623  23.506  24.947  1.00  0.00     0.001 A 
ATOM     86  C   UNL A   1      35.767  22.220  24.408  1.00  0.00     0.010 A 
ATOM     87  C   UNL A   1      36.693  24.011  25.702  1.00  0.00     0.023 A 
ATOM     88  C   UNL A   1      36.910  21.449  24.628  1.00  0.00     0.001 A 
ATOM     89  C   UNL A   1      37.853  23.249  25.938  1.00  0.00     0.056 A 
ATOM     90  C   UNL A   1      37.945  21.959  25.399  1.00  0.00     0.013 A 
BRANCH  89  91
ATOM     91  C   UNL A   1      38.980  23.792  26.775  1.00  0.00     0.416 C 
ATOM     92  F   UNL A   1      38.529  24.435  27.888  1.00  0.00    -0.166 F 
ATOM     93  F   UNL A   1      39.817  22.815  27.222  1.00  0.00    -0.166 F 
ATOM     94  F   UNL A   1      39.768  24.689  26.120  1.00  0.00    -0.166 F 
ENDBRANCH  89  91
ENDBRANCH  77  85
ENDBRANCH  72  74
ENDBRANCH  71  72
ENDBRANCH  70  71
ENDBRANCH   1  70
TORSDOF 13
ENDMDL
MODEL 2
REMARK VINA RESULT:     -12.5      4.702      9.725
REMARK SMILES O=C(OCCOC(=O)c1cc(-c2cccc(C(F)(F)F)c2)nc2c(F)cccc12)c1ccc(-c2c3nc(c(-c4c(F)c(F)c(F)c(F)c4F)c4ccc([nH]4)c(-c4c(F)c(F)c(F)c(F)c4F)c4nc(c(-c5c(F)c(F)c(F)c(F)c5F)c5ccc2[nH]5)C=C4)C=C3)cc1
REMARK SMILES IDX 4 1 3 2 2 3 1 4 30 5 31 6 92 7 32 8 91 9 33 10 34 11 35 12
REMARK SMILES IDX 85 13 36 14 90 15 84 16 86 17 37 18 89 19 83 20 82 21 38 23
REMARK SMILES IDX 70 24 50 25 69 26 51 27 54 28 68 29 87 30 52 31 53 32 67 34
REMARK SMILES IDX 88 35 55 36 39 37 40 38 48 39 41 40 42 41 46 42 49 43 43 44
REMARK SMILES IDX 44 45 47 46 45 47 71 48 72 49 80 50 73 51 74 52 78 53 81 54
REMARK SMILES IDX 75 55 76 56 79 57 77 58 56 59 57 60 65 61 58 62 59 63 63 64
REMARK SMILES IDX 66 65 60 66 61 67 64 68 62 69 5 70 6 71 7 72 8 73 9 74 10 75
REMARK SMILES IDX 29 76 11 77 23 78 28 79 22 80 24 81 27 82 25 83 26 84 12 85
REMARK SMILES IDX 13 86 21 87 14 88 16 89 15 90 17 91 18 92 19 93 20 94
REMARK H PARENT 86 22 54 33
REMARK Flexibility Score: inf
ROOT
ATOM      1  C   UNL A   1      36.916  21.548  25.627  1.00  0.00     0.275 C 
ENDROOT
BRANCH   1   2
ATOM      2  O   UNL A   1      38.332  21.669  25.429  1.00  0.00    -0.458 OA
BRANCH   2   3
ATOM      3  C   UNL A   1      39.325  21.696  26.342  1.00  0.00     0.338 C 
ATOM      4  O   UNL A   1      39.658  20.635  26.872  1.00  0.00    -0.246 OA
BRANCH   3   5
ATOM      5  C   UNL A   1      39.948  22.956  26.870  1.00  0.00     0.060 A 
ATOM      6  C   UNL A   1      40.798  23.099  27.964  1.00  0.00     0.016 A 
ATOM      7  C   UNL A   1      39.664  24.111  26.129  1.00  0.00     0.016 A 
ATOM      8  C   UNL A   1      41.415  24.325  28.243  1.00  0.00     0.010 A 
ATOM      9  C   UNL A   1      40.326  25.321  26.352  1.00  0.00     0.010 A 
ATOM     10  C   UNL A   1      41.209  25.438  27.426  1.00  0.00    -0.014 A 
BRANCH  10  11
ATOM     11  C   UNL A   1      41.801  26.746  27.793  1.00  0.00     0.031 A 
ATOM     12  C   UNL A   1      43.236  27.011  27.438  1.00  0.00     0.074 A 
ATOM     13  C   UNL A   1      41.050  27.717  28.347  1.00  0.00     0.049 A 
ATOM     14  N   UNL A   1      43.922  28.117  27.561  1.00  0.00    -0.248 NA
ATOM     15  C   UNL A   1      43.986  25.905  26.818  1.00  0.00     0.031 C 
ATOM     16  C   UNL A   1      39.624  27.616  28.644  1.00  0.00     0.029 A 
ATOM     17  N   UNL A   1      41.378  28.986  28.756  1.00  0.00    -0.354 N 
ATOM     18  C   UNL A   1      45.146  27.860  26.966  1.00  0.00     0.074 A 
ATOM     19  C   UNL A   1      45.162  26.466  26.590  1.00  0.00     0.031 C 
ATOM     20  C   UNL A   1      39.211  28.749  29.235  1.00  0.00     0.029 A 
ATOM     21  C   UNL A   1      40.345  29.647  29.376  1.00  0.00     0.049 A 
ATOM     22  H   UNL A   1      42.268  29.384  28.618  1.00  0.00     0.167 HD
ATOM     23  C   UNL A   1      46.140  28.733  26.687  1.00  0.00     0.037 A 
ATOM     24  C   UNL A   1      40.320  30.840  29.997  1.00  0.00     0.037 A 
ATOM     25  C   UNL A   1      46.132  30.110  27.092  1.00  0.00     0.049 A 
ATOM     26  C   UNL A   1      41.526  31.723  29.878  1.00  0.00     0.074 A 
ATOM     27  C   UNL A   1      47.093  31.079  26.879  1.00  0.00     0.029 A 
ATOM     28  N   UNL A   1      45.109  30.708  27.819  1.00  0.00    -0.354 N 
ATOM     29  N   UNL A   1      42.656  31.489  29.259  1.00  0.00    -0.248 NA
ATOM     30  C   UNL A   1      41.425  33.060  30.475  1.00  0.00     0.031 C 
ATOM     31  C   UNL A   1      46.679  32.249  27.526  1.00  0.00     0.029 A 
ATOM     32  C   UNL A   1      45.433  32.026  28.091  1.00  0.00     0.049 A 
ATOM     33  H   UNL A   1      44.279  30.261  28.098  1.00  0.00     0.167 HD
ATOM     34  C   UNL A   1      43.381  32.667  29.337  1.00  0.00     0.074 A 
ATOM     35  C   UNL A   1      42.558  33.612  30.067  1.00  0.00     0.031 C 
ATOM     36  C   UNL A   1      44.604  32.948  28.825  1.00  0.00     0.037 A 
BRANCH  23  37
ATOM     37  C   UNL A   1      47.298  28.206  25.895  1.00  0.00     0.064 A 
ATOM     38  C   UNL A   1      47.188  27.976  24.512  1.00  0.00     0.173 A 
ATOM     39  C   UNL A   1      48.520  27.916  26.514  1.00  0.00     0.173 A 
ATOM     40  F   UNL A   1      46.029  28.211  23.877  1.00  0.00    -0.203 F 
ATOM     41  C   UNL A   1      48.253  27.450  23.786  1.00  0.00     0.198 A 
ATOM     42  C   UNL A   1      49.592  27.415  25.780  1.00  0.00     0.198 A 
ATOM     43  F   UNL A   1      48.671  28.108  27.833  1.00  0.00    -0.203 F 
ATOM     44  F   UNL A   1      48.107  27.186  22.481  1.00  0.00    -0.200 F 
ATOM     45  C   UNL A   1      49.455  27.176  24.420  1.00  0.00     0.200 A 
ATOM     46  F   UNL A   1      50.755  27.153  26.392  1.00  0.00    -0.200 F 
ATOM     47  F   UNL A   1      50.481  26.669  23.722  1.00  0.00    -0.200 F 
ENDBRANCH  23  37
BRANCH  24  48
ATOM     48  C   UNL A   1      39.132  31.272  30.779  1.00  0.00     0.064 A 
ATOM     49  C   UNL A   1      38.958  30.919  32.123  1.00  0.00     0.173 A 
ATOM     50  C   UNL A   1      38.106  32.003  30.161  1.00  0.00     0.173 A 
ATOM     51  F   UNL A   1      39.899  30.200  32.753  1.00  0.00    -0.203 F 
ATOM     52  C   UNL A   1      37.793  31.257  32.812  1.00  0.00     0.198 A 
ATOM     53  C   UNL A   1      36.953  32.362  30.856  1.00  0.00     0.198 A 
ATOM     54  F   UNL A   1      38.221  32.364  28.876  1.00  0.00    -0.203 F 
ATOM     55  F   UNL A   1      37.629  30.863  34.082  1.00  0.00    -0.200 F 
ATOM     56  C   UNL A   1      36.792  31.978  32.178  1.00  0.00     0.200 A 
ATOM     57  F   UNL A   1      35.996  33.072  30.243  1.00  0.00    -0.200 F 
ATOM     58  F   UNL A   1      35.670  32.297  32.839  1.00  0.00    -0.200 F 
ENDBRANCH  24  48
BRANCH  36  59
ATOM     59  C   UNL A   1      45.097  34.351  29.001  1.00  0.00     0.064 A 
ATOM     60  C   UNL A   1      44.763  35.371  28.100  1.00  0.00     0.173 A 
ATOM     61  C   UNL A   1      45.922  34.675  30.089  1.00  0.00     0.173 A 
ATOM     62  F   UNL A   1      43.996  35.104  27.031  1.00  0.00    -0.203 F 
ATOM     63  C   UNL A   1      45.271  36.656  28.257  1.00  0.00     0.198 A 
ATOM     64  C   UNL A   1      46.393  35.971  30.267  1.00  0.00     0.198 A 
ATOM     65  F   UNL A   1      46.268  33.736  30.982  1.00  0.00    -0.203 F 
ATOM     66  F   UNL A   1      45.000  37.597  27.343  1.00  0.00    -0.200 F 
ATOM     67  C   UNL A   1      46.079  36.957  29.344  1.00  0.00     0.200 A 
ATOM     68  F   UNL A   1      47.162  36.263  31.326  1.00  0.00    -0.200 F 
ATOM     69  F   UNL A   1      46.566  38.195  29.494  1.00  0.00    -0.200 F 
ENDBRANCH  36  59
ENDBRANCH  10  11
ENDBRANCH   3   5
ENDBRANCH   2   3
ENDBRANCH   1   2
BRANCH   1  70
ATOM     70  C   UNL A   1      36.205  22.863  25.964  1.00  0.00     0.275 C 
BRANCH  70  71
ATOM     71  O   UNL A   1      36.285  23.857  24.927  1.00  0.00    -0.458 OA
BRANCH  71  72
ATOM     72  C   UNL A   1      35.213  23.934  24.095  1.00  0.00     0.339 C 
ATOM     73  O   UNL A   1      35.149  23.518  22.948  1.00  0.00    -0.246 OA
BRANCH  72  74
ATOM     74  C   UNL A   1      34.055  24.512  24.809  1.00  0.00     0.071 A 
ATOM     75  C   UNL A   1      34.154  25.858  25.182  1.00  0.00     0.045 A 
ATOM     76  C   UNL A   1      32.924  23.741  25.163  1.00  0.00     0.018 A 
ATOM     77  C   UNL A   1      33.081  26.445  25.829  1.00  0.00     0.072 A 
ATOM     78  C   UNL A   1      31.888  24.429  25.826  1.00  0.00     0.107 A 
ATOM     79  C   UNL A   1      32.790  22.344  24.935  1.00  0.00     0.011 A 
ATOM     80  N   UNL A   1      31.965  25.743  26.121  1.00  0.00    -0.245 NA
ATOM     81  C   UNL A   1      30.764  23.704  26.218  1.00  0.00     0.149 A 
ATOM     82  C   UNL A   1      31.669  21.642  25.377  1.00  0.00     0.004 A 
ATOM     83  F   UNL A   1      29.743  24.331  26.825  1.00  0.00    -0.205 F 
ATOM     84  C   UNL A   1      30.654  22.329  26.026  1.00  0.00     0.041 A 
BRANCH  77  85
ATOM     85  C   UNL A   1      33.073  27.837  26.305  1.00  0.00     0.001 A 
ATOM     86  C   UNL A   1      31.916  28.629  26.321  1.00  0.00     0.010 A 
ATOM     87  C   UNL A   1      34.253  28.412  26.804  1.00  0.00     0.023 A 
ATOM     88  C   UNL A   1      31.928  29.946  26.785  1.00  0.00     0.001 A 
ATOM     89  C   UNL A   1      34.286  29.738  27.273  1.00  0.00     0.056 A 
ATOM     90  C   UNL A   1      33.112  30.502  27.250  1.00  0.00     0.013 A 
BRANCH  89  91
ATOM     91  C   UNL A   1      35.566  30.350  27.777  1.00  0.00     0.416 C 
ATOM     92  F   UNL A   1      36.655  29.893  27.100  1.00  0.00    -0.166 F 
ATOM     93  F   UNL A   1      35.585  31.706  27.644  1.00  0.00    -0.166 F 
ATOM     94  F   UNL A   1      35.813  30.100  29.093  1.00  0.00    -0.166 F 
ENDBRANCH  89  91
ENDBRANCH  77  85
ENDBRANCH  72  74
ENDBRANCH  71  72
ENDBRANCH  70  71
ENDBRANCH   1  70
TORSDOF 13
ENDMDL
MODEL 3
REMARK VINA RESULT:     -12.4      4.577      9.702
REMARK SMILES O=C(OCCOC(=O)c1cc(-c2cccc(C(F)(F)F)c2)nc2c(F)cccc12)c1ccc(-c2c3nc(c(-c4c(F)c(F)c(F)c(F)c4F)c4ccc([nH]4)c(-c4c(F)c(F)c(F)c(F)c4F)c4nc(c(-c5c(F)c(F)c(F)c(F)c5F)c5ccc2[nH]5)C=C4)C=C3)cc1
REMARK SMILES IDX 4 1 3 2 2 3 1 4 30 5 31 6 92 7 32 8 91 9 33 10 34 11 35 12
REMARK SMILES IDX 85 13 36 14 90 15 84 16 86 17 37 18 89 19 83 20 82 21 38 23
REMARK SMILES IDX 70 24 50 25 69 26 51 27 54 28 68 29 87 30 52 31 53 32 67 34
REMARK SMILES IDX 88 35 55 36 39 37 40 38 48 39 41 40 42 41 46 42 49 43 43 44
REMARK SMILES IDX 44 45 47 46 45 47 71 48 72 49 80 50 73 51 74 52 78 53 81 54
REMARK SMILES IDX 75 55 76 56 79 57 77 58 56 59 57 60 65 61 58 62 59 63 63 64
REMARK SMILES IDX 66 65 60 66 61 67 64 68 62 69 5 70 6 71 7 72 8 73 9 74 10 75
REMARK SMILES IDX 29 76 11 77 23 78 28 79 22 80 24 81 27 82 25 83 26 84 12 85
REMARK SMILES IDX 13 86 21 87 14 88 16 89 15 90 17 91 18 92 19 93 20 94
REMARK H PARENT 86 22 54 33
REMARK Flexibility Score: inf
ROOT
ATOM      1  C   UNL A   1      36.691  21.470  25.525  1.00  0.00     0.275 C 
ENDROOT
BRANCH   1   2
ATOM      2  O   UNL A   1      38.094  21.617  25.266  1.00  0.00    -0.458 OA
BRANCH   2   3
ATOM      3  C   UNL A   1      39.133  21.582  26.128  1.00  0.00     0.338 C 
ATOM      4  O   UNL A   1      39.476  20.490  26.582  1.00  0.00    -0.246 OA
BRANCH   3   5
ATOM      5  C   UNL A   1      39.800  22.804  26.690  1.00  0.00     0.060 A 
ATOM      6  C   UNL A   1      40.791  22.867  27.667  1.00  0.00     0.016 A 
ATOM      7  C   UNL A   1      39.394  24.016  26.115  1.00  0.00     0.016 A 
ATOM      8  C   UNL A   1      41.418  24.079  27.981  1.00  0.00     0.010 A 
ATOM      9  C   UNL A   1      40.058  25.219  26.367  1.00  0.00     0.010 A 
ATOM     10  C   UNL A   1      41.079  25.259  27.317  1.00  0.00    -0.014 A 
BRANCH  10  11
ATOM     11  C   UNL A   1      41.693  26.544  27.729  1.00  0.00     0.031 A 
ATOM     12  C   UNL A   1      43.135  26.793  27.394  1.00  0.00     0.074 A 
ATOM     13  C   UNL A   1      40.955  27.511  28.307  1.00  0.00     0.049 A 
ATOM     14  N   UNL A   1      43.840  27.881  27.557  1.00  0.00    -0.248 NA
ATOM     15  C   UNL A   1      43.870  25.693  26.746  1.00  0.00     0.031 C 
ATOM     16  C   UNL A   1      39.525  27.427  28.590  1.00  0.00     0.029 A 
ATOM     17  N   UNL A   1      41.303  28.760  28.759  1.00  0.00    -0.354 N 
ATOM     18  C   UNL A   1      45.064  27.620  26.964  1.00  0.00     0.074 A 
ATOM     19  C   UNL A   1      45.058  26.239  26.545  1.00  0.00     0.031 C 
ATOM     20  C   UNL A   1      39.128  28.549  29.213  1.00  0.00     0.029 A 
ATOM     21  C   UNL A   1      40.277  29.421  29.391  1.00  0.00     0.049 A 
ATOM     22  H   UNL A   1      42.202  29.145  28.641  1.00  0.00     0.167 HD
ATOM     23  C   UNL A   1      46.077  28.483  26.721  1.00  0.00     0.037 A 
ATOM     24  C   UNL A   1      40.269  30.594  30.050  1.00  0.00     0.037 A 
ATOM     25  C   UNL A   1      46.091  29.846  27.170  1.00  0.00     0.049 A 
ATOM     26  C   UNL A   1      41.491  31.457  29.968  1.00  0.00     0.074 A 
ATOM     27  C   UNL A   1      47.071  30.804  26.994  1.00  0.00     0.029 A 
ATOM     28  N   UNL A   1      45.073  30.440  27.906  1.00  0.00    -0.354 N 
ATOM     29  N   UNL A   1      42.623  31.222  29.351  1.00  0.00    -0.248 NA
ATOM     30  C   UNL A   1      41.410  32.776  30.606  1.00  0.00     0.031 C 
ATOM     31  C   UNL A   1      46.674  31.960  27.675  1.00  0.00     0.029 A 
ATOM     32  C   UNL A   1      45.419  31.743  28.223  1.00  0.00     0.049 A 
ATOM     33  H   UNL A   1      44.232  30.000  28.165  1.00  0.00     0.167 HD
ATOM     34  C   UNL A   1      43.368  32.382  29.472  1.00  0.00     0.074 A 
ATOM     35  C   UNL A   1      42.557  33.319  30.225  1.00  0.00     0.031 C 
ATOM     36  C   UNL A   1      44.601  32.656  28.979  1.00  0.00     0.037 A 
BRANCH  23  37
ATOM     37  C   UNL A   1      47.231  27.959  25.922  1.00  0.00     0.064 A 
ATOM     38  C   UNL A   1      48.433  27.580  26.543  1.00  0.00     0.173 A 
ATOM     39  C   UNL A   1      47.147  27.845  24.529  1.00  0.00     0.173 A 
ATOM     40  F   UNL A   1      48.574  27.696  27.873  1.00  0.00    -0.203 F 
ATOM     41  C   UNL A   1      49.517  27.130  25.794  1.00  0.00     0.198 A 
ATOM     42  C   UNL A   1      48.223  27.369  23.784  1.00  0.00     0.198 A 
ATOM     43  F   UNL A   1      46.025  28.205  23.888  1.00  0.00    -0.203 F 
ATOM     44  F   UNL A   1      50.672  26.827  26.403  1.00  0.00    -0.200 F 
ATOM     45  C   UNL A   1      49.409  27.020  24.416  1.00  0.00     0.200 A 
ATOM     46  F   UNL A   1      48.118  27.260  22.453  1.00  0.00    -0.200 F 
ATOM     47  F   UNL A   1      50.451  26.587  23.694  1.00  0.00    -0.200 F 
ENDBRANCH  23  37
BRANCH  24  48
ATOM     48  C   UNL A   1      39.082  31.023  30.835  1.00  0.00     0.064 A 
ATOM     49  C   UNL A   1      38.093  31.854  30.294  1.00  0.00     0.173 A 
ATOM     50  C   UNL A   1      38.953  30.650  32.182  1.00  0.00     0.173 A 
ATOM     51  F   UNL A   1      38.183  32.257  29.018  1.00  0.00    -0.203 F 
ATOM     52  C   UNL A   1      37.035  32.319  31.076  1.00  0.00     0.198 A 
ATOM     53  C   UNL A   1      37.883  31.095  32.957  1.00  0.00     0.198 A 
ATOM     54  F   UNL A   1      39.873  29.859  32.750  1.00  0.00    -0.203 F 
ATOM     55  F   UNL A   1      36.131  33.154  30.548  1.00  0.00    -0.200 F 
ATOM     56  C   UNL A   1      36.931  31.939  32.406  1.00  0.00     0.200 A 
ATOM     57  F   UNL A   1      37.779  30.712  34.236  1.00  0.00    -0.200 F 
ATOM     58  F   UNL A   1      35.918  32.391  33.158  1.00  0.00    -0.200 F 
ENDBRANCH  24  48
BRANCH  36  59
ATOM     59  C   UNL A   1      45.118  34.044  29.204  1.00  0.00     0.064 A 
ATOM     60  C   UNL A   1      45.883  34.375  30.331  1.00  0.00     0.173 A 
ATOM     61  C   UNL A   1      44.839  35.057  28.275  1.00  0.00     0.173 A 
ATOM     62  F   UNL A   1      46.157  33.444  31.259  1.00  0.00    -0.203 F 
ATOM     63  C   UNL A   1      46.314  35.680  30.542  1.00  0.00     0.198 A 
ATOM     64  C   UNL A   1      45.306  36.352  28.468  1.00  0.00     0.198 A 
ATOM     65  F   UNL A   1      44.114  34.792  27.178  1.00  0.00    -0.203 F 
ATOM     66  F   UNL A   1      46.978  35.991  31.663  1.00  0.00    -0.200 F 
ATOM     67  C   UNL A   1      46.031  36.666  29.608  1.00  0.00     0.200 A 
ATOM     68  F   UNL A   1      45.045  37.300  27.556  1.00  0.00    -0.200 F 
ATOM     69  F   UNL A   1      46.448  37.923  29.812  1.00  0.00    -0.200 F 
ENDBRANCH  36  59
ENDBRANCH  10  11
ENDBRANCH   3   5
ENDBRANCH   2   3
ENDBRANCH   1   2
BRANCH   1  70
ATOM     70  C   UNL A   1      35.980  22.764  25.936  1.00  0.00     0.275 C 
BRANCH  70  71
ATOM     71  O   UNL A   1      36.127  23.840  24.991  1.00  0.00    -0.458 OA
BRANCH  71  72
ATOM     72  C   UNL A   1      35.087  24.024  24.136  1.00  0.00     0.339 C 
ATOM     73  O   UNL A   1      35.032  23.671  22.968  1.00  0.00    -0.246 OA
BRANCH  72  74
ATOM     74  C   UNL A   1      33.944  24.635  24.847  1.00  0.00     0.071 A 
ATOM     75  C   UNL A   1      34.076  25.983  25.207  1.00  0.00     0.045 A 
ATOM     76  C   UNL A   1      32.797  23.895  25.211  1.00  0.00     0.018 A 
ATOM     77  C   UNL A   1      33.019  26.600  25.851  1.00  0.00     0.072 A 
ATOM     78  C   UNL A   1      31.779  24.613  25.871  1.00  0.00     0.107 A 
ATOM     79  C   UNL A   1      32.630  22.499  24.997  1.00  0.00     0.011 A 
ATOM     80  N   UNL A   1      31.888  25.927  26.153  1.00  0.00    -0.245 NA
ATOM     81  C   UNL A   1      30.640  23.918  26.272  1.00  0.00     0.149 A 
ATOM     82  C   UNL A   1      31.493  21.828  25.448  1.00  0.00     0.004 A 
ATOM     83  F   UNL A   1      29.635  24.574  26.876  1.00  0.00    -0.205 F 
ATOM     84  C   UNL A   1      30.497  22.544  26.093  1.00  0.00     0.041 A 
BRANCH  77  85
ATOM     85  C   UNL A   1      33.045  27.996  26.315  1.00  0.00     0.001 A 
ATOM     86  C   UNL A   1      31.913  28.825  26.299  1.00  0.00     0.010 A 
ATOM     87  C   UNL A   1      34.231  28.538  26.834  1.00  0.00     0.023 A 
ATOM     88  C   UNL A   1      31.957  30.145  26.751  1.00  0.00     0.001 A 
ATOM     89  C   UNL A   1      34.296  29.868  27.292  1.00  0.00     0.056 A 
ATOM     90  C   UNL A   1      33.147  30.667  27.237  1.00  0.00     0.013 A 
BRANCH  89  91
ATOM     91  C   UNL A   1      35.584  30.444  27.818  1.00  0.00     0.416 C 
ATOM     92  F   UNL A   1      35.652  31.793  27.640  1.00  0.00    -0.166 F 
ATOM     93  F   UNL A   1      35.743  30.236  29.155  1.00  0.00    -0.166 F 
ATOM     94  F   UNL A   1      36.698  29.933  27.225  1.00  0.00    -0.166 F 
ENDBRANCH  89  91
ENDBRANCH  77  85
ENDBRANCH  72  74
ENDBRANCH  71  72
ENDBRANCH  70  71
ENDBRANCH   1  70
TORSDOF 13
ENDMDL
