MODEL 1
REMARK VINA RESULT:     -12.6      0.000      0.000
REMARK SMILES Cc1ncccc1C(=O)Nc1ccccc1C(=O)OCCOC(=O)c1ccc(-c2c3nc(c(-c4c(F)c(F)c(F)c(F)c4F)c4ccc([nH]4)c(-c4c(F)c(F)c(F)c(F)c4F)c4nc(c(-c5c(F)c(F)c(F)c(F)c5F)c5ccc2[nH]5)C=C4)C=C3)cc1
REMARK SMILES IDX 20 1 19 2 17 3 18 4 16 5 11 6 12 7 13 8 15 9 14 10 10 11
REMARK SMILES IDX 8 12 9 13 7 15 1 16 2 17 3 18 4 19 6 20 5 21 21 22 22 23
REMARK SMILES IDX 23 24 24 25 25 26 26 27 87 28 27 29 86 30 28 31 29 32 30 33
REMARK SMILES IDX 80 34 31 35 85 36 79 37 81 38 32 39 84 40 78 41 77 42 33 44
REMARK SMILES IDX 65 45 45 46 64 47 46 48 49 49 63 50 82 51 47 52 48 53 62 55
REMARK SMILES IDX 83 56 50 57 34 58 35 59 43 60 36 61 37 62 41 63 44 64 38 65
REMARK SMILES IDX 39 66 42 67 40 68 66 69 67 70 75 71 68 72 69 73 73 74 76 75
REMARK SMILES IDX 70 76 71 77 74 78 72 79 51 80 52 81 60 82 53 83 54 84 58 85
REMARK SMILES IDX 61 86 55 87 56 88 59 89 57 90
REMARK H PARENT 10 14 81 43 49 54
REMARK Flexibility Score: inf
ROOT
ATOM      1  C   UNL A   1      31.488  29.141  24.841  1.00  0.00     0.275 C 
ENDROOT
BRANCH   1   2
ATOM      2  O   UNL A   1      31.140  27.845  25.378  1.00  0.00    -0.458 OA
BRANCH   2   3
ATOM      3  C   UNL A   1      30.483  27.046  24.505  1.00  0.00     0.340 C 
ATOM      4  O   UNL A   1      29.875  27.421  23.519  1.00  0.00    -0.246 OA
BRANCH   3   5
ATOM      5  C   UNL A   1      30.541  25.620  24.868  1.00  0.00     0.083 A 
ATOM      6  C   UNL A   1      31.208  24.665  24.096  1.00  0.00     0.056 A 
ATOM      7  C   UNL A   1      31.211  23.325  24.529  1.00  0.00     0.027 A 
ATOM      8  C   UNL A   1      30.704  22.968  25.780  1.00  0.00     0.002 A 
ATOM      9  C   UNL A   1      29.988  25.237  26.104  1.00  0.00     0.018 A 
ATOM     10  C   UNL A   1      30.105  23.931  26.579  1.00  0.00     0.001 A 
BRANCH   6  11
ATOM     11  N   UNL A   1      31.949  24.903  22.929  1.00  0.00    -0.321 N 
ATOM     12  C   UNL A   1      33.293  24.961  22.650  1.00  0.00     0.257 C 
ATOM     13  O   UNL A   1      33.613  25.449  21.561  1.00  0.00    -0.269 OA
ATOM     14  H   UNL A   1      31.384  25.062  22.139  1.00  0.00     0.170 HD
BRANCH  12  15
ATOM     15  C   UNL A   1      34.384  24.429  23.510  1.00  0.00     0.061 A 
ATOM     16  C   UNL A   1      34.155  26.002  25.536  1.00  0.00     0.067 C 
ATOM     17  C   UNL A   1      34.769  24.864  24.785  1.00  0.00     0.050 A 
ATOM     18  N   UNL A   1      35.797  24.280  25.473  1.00  0.00    -0.261 NA
ATOM     19  C   UNL A   1      36.440  23.237  24.908  1.00  0.00     0.111 A 
ATOM     20  C   UNL A   1      35.041  23.294  22.996  1.00  0.00     0.017 A 
ATOM     21  C   UNL A   1      36.088  22.698  23.690  1.00  0.00     0.021 A 
ENDBRANCH  12  15
ENDBRANCH   6  11
ENDBRANCH   3   5
ENDBRANCH   2   3
ENDBRANCH   1   2
BRANCH   1  22
ATOM     22  C   UNL A   1      32.755  29.742  25.453  1.00  0.00     0.275 C 
BRANCH  22  23
ATOM     23  O   UNL A   1      32.589  30.052  26.850  1.00  0.00    -0.458 OA
BRANCH  23  24
ATOM     24  C   UNL A   1      33.234  31.167  27.250  1.00  0.00     0.338 C 
ATOM     25  O   UNL A   1      32.760  32.282  27.414  1.00  0.00    -0.246 OA
BRANCH  24  26
ATOM     26  C   UNL A   1      34.647  30.896  27.538  1.00  0.00     0.060 A 
ATOM     27  C   UNL A   1      35.026  29.596  27.860  1.00  0.00     0.016 A 
ATOM     28  C   UNL A   1      35.514  31.957  27.779  1.00  0.00     0.016 A 
ATOM     29  C   UNL A   1      36.189  29.358  28.569  1.00  0.00     0.010 A 
ATOM     30  C   UNL A   1      36.749  31.701  28.376  1.00  0.00     0.010 A 
ATOM     31  C   UNL A   1      37.070  30.407  28.828  1.00  0.00    -0.014 A 
BRANCH  31  32
ATOM     32  C   UNL A   1      38.286  30.160  29.635  1.00  0.00     0.031 A 
ATOM     33  C   UNL A   1      39.385  29.309  29.069  1.00  0.00     0.074 A 
ATOM     34  C   UNL A   1      38.410  30.714  30.855  1.00  0.00     0.049 A 
ATOM     35  N   UNL A   1      40.412  28.770  29.671  1.00  0.00    -0.248 NA
ATOM     36  C   UNL A   1      39.304  29.006  27.631  1.00  0.00     0.031 C 
ATOM     37  C   UNL A   1      37.455  31.639  31.471  1.00  0.00     0.029 A 
ATOM     38  N   UNL A   1      39.392  30.577  31.801  1.00  0.00    -0.354 N 
ATOM     39  C   UNL A   1      41.060  28.012  28.704  1.00  0.00     0.074 A 
ATOM     40  C   UNL A   1      40.303  28.151  27.478  1.00  0.00     0.031 C 
ATOM     41  C   UNL A   1      37.909  32.003  32.679  1.00  0.00     0.029 A 
ATOM     42  C   UNL A   1      39.125  31.254  32.963  1.00  0.00     0.049 A 
ATOM     43  H   UNL A   1      40.209  30.044  31.659  1.00  0.00     0.167 HD
ATOM     44  C   UNL A   1      42.183  27.267  28.838  1.00  0.00     0.037 A 
ATOM     45  C   UNL A   1      39.757  31.225  34.149  1.00  0.00     0.037 A 
ATOM     46  C   UNL A   1      42.933  27.177  30.065  1.00  0.00     0.049 A 
ATOM     47  C   UNL A   1      40.951  30.327  34.301  1.00  0.00     0.074 A 
ATOM     48  C   UNL A   1      44.082  26.454  30.328  1.00  0.00     0.029 A 
ATOM     49  N   UNL A   1      42.606  27.847  31.238  1.00  0.00    -0.354 N 
ATOM     50  N   UNL A   1      41.526  29.556  33.410  1.00  0.00    -0.248 NA
ATOM     51  C   UNL A   1      41.574  30.285  35.629  1.00  0.00     0.031 C 
ATOM     52  C   UNL A   1      44.419  26.644  31.673  1.00  0.00     0.029 A 
ATOM     53  C   UNL A   1      43.520  27.539  32.233  1.00  0.00     0.049 A 
ATOM     54  H   UNL A   1      41.836  28.452  31.347  1.00  0.00     0.167 HD
ATOM     55  C   UNL A   1      42.598  28.960  34.057  1.00  0.00     0.074 A 
ATOM     56  C   UNL A   1      42.597  29.469  35.414  1.00  0.00     0.031 C 
ATOM     57  C   UNL A   1      43.502  28.072  33.573  1.00  0.00     0.037 A 
BRANCH  44  58
ATOM     58  C   UNL A   1      42.622  26.455  27.652  1.00  0.00     0.064 A 
ATOM     59  C   UNL A   1      42.107  25.177  27.385  1.00  0.00     0.173 A 
ATOM     60  C   UNL A   1      43.590  26.963  26.770  1.00  0.00     0.173 A 
ATOM     61  F   UNL A   1      41.191  24.634  28.201  1.00  0.00    -0.203 F 
ATOM     62  C   UNL A   1      42.575  24.422  26.310  1.00  0.00     0.198 A 
ATOM     63  C   UNL A   1      44.028  26.221  25.675  1.00  0.00     0.198 A 
ATOM     64  F   UNL A   1      44.117  28.181  26.970  1.00  0.00    -0.203 F 
ATOM     65  F   UNL A   1      42.120  23.177  26.121  1.00  0.00    -0.200 F 
ATOM     66  C   UNL A   1      43.531  24.947  25.454  1.00  0.00     0.200 A 
ATOM     67  F   UNL A   1      44.941  26.737  24.840  1.00  0.00    -0.200 F 
ATOM     68  F   UNL A   1      43.983  24.219  24.424  1.00  0.00    -0.200 F 
ENDBRANCH  44  58
BRANCH  45  69
ATOM     69  C   UNL A   1      39.250  32.047  35.278  1.00  0.00     0.064 A 
ATOM     70  C   UNL A   1      38.467  31.471  36.287  1.00  0.00     0.173 A 
ATOM     71  C   UNL A   1      39.555  33.413  35.390  1.00  0.00     0.173 A 
ATOM     72  F   UNL A   1      38.133  30.174  36.215  1.00  0.00    -0.203 F 
ATOM     73  C   UNL A   1      38.000  32.230  37.358  1.00  0.00     0.198 A 
ATOM     74  C   UNL A   1      39.116  34.163  36.478  1.00  0.00     0.198 A 
ATOM     75  F   UNL A   1      40.304  34.014  34.454  1.00  0.00    -0.203 F 
ATOM     76  F   UNL A   1      37.220  31.662  38.287  1.00  0.00    -0.200 F 
ATOM     77  C   UNL A   1      38.332  33.573  37.457  1.00  0.00     0.200 A 
ATOM     78  F   UNL A   1      39.456  35.455  36.580  1.00  0.00    -0.200 F 
ATOM     79  F   UNL A   1      37.892  34.300  38.494  1.00  0.00    -0.200 F 
ENDBRANCH  45  69
BRANCH  57  80
ATOM     80  C   UNL A   1      44.601  27.649  34.503  1.00  0.00     0.064 A 
ATOM     81  C   UNL A   1      44.484  26.522  35.329  1.00  0.00     0.173 A 
ATOM     82  C   UNL A   1      45.803  28.374  34.545  1.00  0.00     0.173 A 
ATOM     83  F   UNL A   1      43.348  25.808  35.340  1.00  0.00    -0.203 F 
ATOM     84  C   UNL A   1      45.517  26.154  36.187  1.00  0.00     0.198 A 
ATOM     85  C   UNL A   1      46.847  27.981  35.376  1.00  0.00     0.198 A 
ATOM     86  F   UNL A   1      45.968  29.456  33.771  1.00  0.00    -0.203 F 
ATOM     87  F   UNL A   1      45.359  25.109  37.011  1.00  0.00    -0.200 F 
ATOM     88  C   UNL A   1      46.699  26.878  36.203  1.00  0.00     0.200 A 
ATOM     89  F   UNL A   1      47.995  28.672  35.379  1.00  0.00    -0.200 F 
ATOM     90  F   UNL A   1      47.696  26.518  37.025  1.00  0.00    -0.200 F 
ENDBRANCH  57  80
ENDBRANCH  31  32
ENDBRANCH  24  26
ENDBRANCH  23  24
ENDBRANCH  22  23
ENDBRANCH   1  22
TORSDOF 13
ENDMDL
MODEL 2
REMARK VINA RESULT:     -12.5      1.255      2.206
REMARK SMILES Cc1ncccc1C(=O)Nc1ccccc1C(=O)OCCOC(=O)c1ccc(-c2c3nc(c(-c4c(F)c(F)c(F)c(F)c4F)c4ccc([nH]4)c(-c4c(F)c(F)c(F)c(F)c4F)c4nc(c(-c5c(F)c(F)c(F)c(F)c5F)c5ccc2[nH]5)C=C4)C=C3)cc1
REMARK SMILES IDX 20 1 19 2 17 3 18 4 16 5 11 6 12 7 13 8 15 9 14 10 10 11
REMARK SMILES IDX 8 12 9 13 7 15 1 16 2 17 3 18 4 19 6 20 5 21 21 22 22 23
REMARK SMILES IDX 23 24 24 25 25 26 26 27 87 28 27 29 86 30 28 31 29 32 30 33
REMARK SMILES IDX 80 34 31 35 85 36 79 37 81 38 32 39 84 40 78 41 77 42 33 44
REMARK SMILES IDX 65 45 45 46 64 47 46 48 49 49 63 50 82 51 47 52 48 53 62 55
REMARK SMILES IDX 83 56 50 57 34 58 35 59 43 60 36 61 37 62 41 63 44 64 38 65
REMARK SMILES IDX 39 66 42 67 40 68 66 69 67 70 75 71 68 72 69 73 73 74 76 75
REMARK SMILES IDX 70 76 71 77 74 78 72 79 51 80 52 81 60 82 53 83 54 84 58 85
REMARK SMILES IDX 61 86 55 87 56 88 59 89 57 90
REMARK H PARENT 10 14 81 43 49 54
REMARK Flexibility Score: inf
ROOT
ATOM      1  C   UNL A   1      31.820  29.594  25.219  1.00  0.00     0.275 C 
ENDROOT
BRANCH   1   2
ATOM      2  O   UNL A   1      33.160  29.212  24.836  1.00  0.00    -0.458 OA
BRANCH   2   3
ATOM      3  C   UNL A   1      33.481  27.935  25.153  1.00  0.00     0.340 C 
ATOM      4  O   UNL A   1      34.021  27.575  26.184  1.00  0.00    -0.246 OA
BRANCH   3   5
ATOM      5  C   UNL A   1      33.133  26.970  24.097  1.00  0.00     0.083 A 
ATOM      6  C   UNL A   1      32.465  25.770  24.353  1.00  0.00     0.056 A 
ATOM      7  C   UNL A   1      32.172  24.914  23.274  1.00  0.00     0.027 A 
ATOM      8  C   UNL A   1      32.391  25.313  21.954  1.00  0.00     0.002 A 
ATOM      9  C   UNL A   1      33.395  27.338  22.764  1.00  0.00     0.018 A 
ATOM     10  C   UNL A   1      32.989  26.537  21.696  1.00  0.00     0.001 A 
BRANCH   6  11
ATOM     11  N   UNL A   1      31.986  25.329  25.595  1.00  0.00    -0.321 N 
ATOM     12  C   UNL A   1      31.887  24.096  26.194  1.00  0.00     0.257 C 
ATOM     13  O   UNL A   1      31.175  24.023  27.200  1.00  0.00    -0.269 OA
ATOM     14  H   UNL A   1      31.647  26.060  26.160  1.00  0.00     0.170 HD
BRANCH  12  15
ATOM     15  C   UNL A   1      32.611  22.865  25.776  1.00  0.00     0.061 A 
ATOM     16  C   UNL A   1      35.037  23.612  26.208  1.00  0.00     0.067 C 
ATOM     17  C   UNL A   1      33.992  22.629  25.789  1.00  0.00     0.050 A 
ATOM     18  N   UNL A   1      34.530  21.440  25.378  1.00  0.00    -0.261 NA
ATOM     19  C   UNL A   1      33.695  20.461  24.972  1.00  0.00     0.111 A 
ATOM     20  C   UNL A   1      31.781  21.788  25.411  1.00  0.00     0.017 A 
ATOM     21  C   UNL A   1      32.322  20.578  24.990  1.00  0.00     0.021 A 
ENDBRANCH  12  15
ENDBRANCH   6  11
ENDBRANCH   3   5
ENDBRANCH   2   3
ENDBRANCH   1   2
BRANCH   1  22
ATOM     22  C   UNL A   1      31.768  30.798  26.163  1.00  0.00     0.275 C 
BRANCH  22  23
ATOM     23  O   UNL A   1      32.661  30.647  27.284  1.00  0.00    -0.458 OA
BRANCH  23  24
ATOM     24  C   UNL A   1      33.424  31.731  27.533  1.00  0.00     0.338 C 
ATOM     25  O   UNL A   1      33.064  32.899  27.584  1.00  0.00    -0.246 OA
BRANCH  24  26
ATOM     26  C   UNL A   1      34.817  31.357  27.805  1.00  0.00     0.060 A 
ATOM     27  C   UNL A   1      35.102  30.034  28.130  1.00  0.00     0.016 A 
ATOM     28  C   UNL A   1      35.764  32.351  28.027  1.00  0.00     0.016 A 
ATOM     29  C   UNL A   1      36.253  29.714  28.826  1.00  0.00     0.010 A 
ATOM     30  C   UNL A   1      36.984  32.007  28.610  1.00  0.00     0.010 A 
ATOM     31  C   UNL A   1      37.214  30.695  29.066  1.00  0.00    -0.014 A 
BRANCH  31  32
ATOM     32  C   UNL A   1      38.419  30.363  29.859  1.00  0.00     0.031 A 
ATOM     33  C   UNL A   1      39.470  29.473  29.262  1.00  0.00     0.074 A 
ATOM     34  C   UNL A   1      38.576  30.874  31.093  1.00  0.00     0.049 A 
ATOM     35  N   UNL A   1      40.470  28.864  29.842  1.00  0.00    -0.248 NA
ATOM     36  C   UNL A   1      39.367  29.216  27.816  1.00  0.00     0.031 C 
ATOM     37  C   UNL A   1      37.673  31.829  31.741  1.00  0.00     0.029 A 
ATOM     38  N   UNL A   1      39.554  30.659  32.029  1.00  0.00    -0.354 N 
ATOM     39  C   UNL A   1      41.074  28.102  28.850  1.00  0.00     0.074 A 
ATOM     40  C   UNL A   1      40.320  28.315  27.634  1.00  0.00     0.031 C 
ATOM     41  C   UNL A   1      38.151  32.134  32.955  1.00  0.00     0.029 A 
ATOM     42  C   UNL A   1      39.328  31.316  33.211  1.00  0.00     0.049 A 
ATOM     43  H   UNL A   1      40.342  30.089  31.867  1.00  0.00     0.167 HD
ATOM     44  C   UNL A   1      42.157  27.296  28.957  1.00  0.00     0.037 A 
ATOM     45  C   UNL A   1      39.962  31.220  34.392  1.00  0.00     0.037 A 
ATOM     46  C   UNL A   1      42.907  27.132  30.177  1.00  0.00     0.049 A 
ATOM     47  C   UNL A   1      41.109  30.258  34.512  1.00  0.00     0.074 A 
ATOM     48  C   UNL A   1      44.018  26.344  30.412  1.00  0.00     0.029 A 
ATOM     49  N   UNL A   1      42.620  27.784  31.370  1.00  0.00    -0.354 N 
ATOM     50  N   UNL A   1      41.639  29.483  33.596  1.00  0.00    -0.248 NA
ATOM     51  C   UNL A   1      41.735  30.145  35.834  1.00  0.00     0.031 C 
ATOM     52  C   UNL A   1      44.369  26.477  31.760  1.00  0.00     0.029 A 
ATOM     53  C   UNL A   1      43.521  27.401  32.350  1.00  0.00     0.049 A 
ATOM     54  H   UNL A   1      41.883  28.425  31.500  1.00  0.00     0.167 HD
ATOM     55  C   UNL A   1      42.681  28.814  34.220  1.00  0.00     0.074 A 
ATOM     56  C   UNL A   1      42.712  29.284  35.590  1.00  0.00     0.031 C 
ATOM     57  C   UNL A   1      43.536  27.895  33.705  1.00  0.00     0.037 A 
BRANCH  44  58
ATOM     58  C   UNL A   1      42.549  26.497  27.746  1.00  0.00     0.064 A 
ATOM     59  C   UNL A   1      41.997  25.237  27.467  1.00  0.00     0.173 A 
ATOM     60  C   UNL A   1      43.507  26.999  26.850  1.00  0.00     0.173 A 
ATOM     61  F   UNL A   1      41.087  24.700  28.295  1.00  0.00    -0.203 F 
ATOM     62  C   UNL A   1      42.421  24.492  26.368  1.00  0.00     0.198 A 
ATOM     63  C   UNL A   1      43.901  26.268  25.731  1.00  0.00     0.198 A 
ATOM     64  F   UNL A   1      44.067  28.200  27.060  1.00  0.00    -0.203 F 
ATOM     65  F   UNL A   1      41.932  23.262  26.166  1.00  0.00    -0.200 F 
ATOM     66  C   UNL A   1      43.368  25.011  25.499  1.00  0.00     0.200 A 
ATOM     67  F   UNL A   1      44.806  26.779  24.884  1.00  0.00    -0.200 F 
ATOM     68  F   UNL A   1      43.778  24.292  24.444  1.00  0.00    -0.200 F 
ENDBRANCH  44  58
BRANCH  45  69
ATOM     69  C   UNL A   1      39.503  32.034  35.548  1.00  0.00     0.064 A 
ATOM     70  C   UNL A   1      38.552  31.531  36.444  1.00  0.00     0.173 A 
ATOM     71  C   UNL A   1      40.020  33.316  35.797  1.00  0.00     0.173 A 
ATOM     72  F   UNL A   1      38.015  30.320  36.238  1.00  0.00    -0.203 F 
ATOM     73  C   UNL A   1      38.126  32.281  37.539  1.00  0.00     0.198 A 
ATOM     74  C   UNL A   1      39.620  34.051  36.910  1.00  0.00     0.198 A 
ATOM     75  F   UNL A   1      40.936  33.844  34.972  1.00  0.00    -0.203 F 
ATOM     76  F   UNL A   1      37.186  31.791  38.358  1.00  0.00    -0.200 F 
ATOM     77  C   UNL A   1      38.667  33.536  37.776  1.00  0.00     0.200 A 
ATOM     78  F   UNL A   1      40.159  35.254  37.146  1.00  0.00    -0.200 F 
ATOM     79  F   UNL A   1      38.267  34.251  38.836  1.00  0.00    -0.200 F 
ENDBRANCH  45  69
BRANCH  57  80
ATOM     80  C   UNL A   1      44.616  27.390  34.616  1.00  0.00     0.064 A 
ATOM     81  C   UNL A   1      45.844  28.053  34.754  1.00  0.00     0.173 A 
ATOM     82  C   UNL A   1      44.403  26.233  35.384  1.00  0.00     0.173 A 
ATOM     83  F   UNL A   1      46.104  29.151  34.028  1.00  0.00    -0.203 F 
ATOM     84  C   UNL A   1      46.831  27.560  35.602  1.00  0.00     0.198 A 
ATOM     85  C   UNL A   1      45.378  25.765  36.259  1.00  0.00     0.198 A 
ATOM     86  F   UNL A   1      43.244  25.566  35.294  1.00  0.00    -0.203 F 
ATOM     87  F   UNL A   1      48.019  28.176  35.673  1.00  0.00    -0.200 F 
ATOM     88  C   UNL A   1      46.594  26.423  36.360  1.00  0.00     0.200 A 
ATOM     89  F   UNL A   1      45.141  24.675  37.001  1.00  0.00    -0.200 F 
ATOM     90  F   UNL A   1      47.544  25.954  37.182  1.00  0.00    -0.200 F 
ENDBRANCH  57  80
ENDBRANCH  31  32
ENDBRANCH  24  26
ENDBRANCH  23  24
ENDBRANCH  22  23
ENDBRANCH   1  22
TORSDOF 13
ENDMDL
MODEL 3
REMARK VINA RESULT:     -12.5      1.166      2.241
REMARK SMILES Cc1ncccc1C(=O)Nc1ccccc1C(=O)OCCOC(=O)c1ccc(-c2c3nc(c(-c4c(F)c(F)c(F)c(F)c4F)c4ccc([nH]4)c(-c4c(F)c(F)c(F)c(F)c4F)c4nc(c(-c5c(F)c(F)c(F)c(F)c5F)c5ccc2[nH]5)C=C4)C=C3)cc1
REMARK SMILES IDX 20 1 19 2 17 3 18 4 16 5 11 6 12 7 13 8 15 9 14 10 10 11
REMARK SMILES IDX 8 12 9 13 7 15 1 16 2 17 3 18 4 19 6 20 5 21 21 22 22 23
REMARK SMILES IDX 23 24 24 25 25 26 26 27 87 28 27 29 86 30 28 31 29 32 30 33
REMARK SMILES IDX 80 34 31 35 85 36 79 37 81 38 32 39 84 40 78 41 77 42 33 44
REMARK SMILES IDX 65 45 45 46 64 47 46 48 49 49 63 50 82 51 47 52 48 53 62 55
REMARK SMILES IDX 83 56 50 57 34 58 35 59 43 60 36 61 37 62 41 63 44 64 38 65
REMARK SMILES IDX 39 66 42 67 40 68 66 69 67 70 75 71 68 72 69 73 73 74 76 75
REMARK SMILES IDX 70 76 71 77 74 78 72 79 51 80 52 81 60 82 53 83 54 84 58 85
REMARK SMILES IDX 61 86 55 87 56 88 59 89 57 90
REMARK H PARENT 10 14 81 43 49 54
REMARK Flexibility Score: inf
ROOT
ATOM      1  C   UNL A   1      32.463  28.397  27.675  1.00  0.00     0.275 C 
ENDROOT
BRANCH   1   2
ATOM      2  O   UNL A   1      31.752  27.270  27.115  1.00  0.00    -0.458 OA
BRANCH   2   3
ATOM      3  C   UNL A   1      32.015  27.048  25.806  1.00  0.00     0.340 C 
ATOM      4  O   UNL A   1      33.122  26.892  25.322  1.00  0.00    -0.246 OA
BRANCH   3   5
ATOM      5  C   UNL A   1      30.806  27.034  24.965  1.00  0.00     0.083 A 
ATOM      6  C   UNL A   1      29.751  26.140  25.166  1.00  0.00     0.056 A 
ATOM      7  C   UNL A   1      28.634  26.208  24.311  1.00  0.00     0.027 A 
ATOM      8  C   UNL A   1      28.495  27.241  23.383  1.00  0.00     0.002 A 
ATOM      9  C   UNL A   1      30.676  28.040  23.990  1.00  0.00     0.018 A 
ATOM     10  C   UNL A   1      29.512  28.172  23.233  1.00  0.00     0.001 A 
BRANCH   6  11
ATOM     11  N   UNL A   1      29.645  25.188  26.190  1.00  0.00    -0.321 N 
ATOM     12  C   UNL A   1      30.317  24.026  26.483  1.00  0.00     0.257 C 
ATOM     13  O   UNL A   1      29.801  23.283  27.323  1.00  0.00    -0.269 OA
ATOM     14  H   UNL A   1      28.936  25.398  26.840  1.00  0.00     0.170 HD
BRANCH  12  15
ATOM     15  C   UNL A   1      31.637  23.620  25.927  1.00  0.00     0.061 A 
ATOM     16  C   UNL A   1      31.006  23.345  23.446  1.00  0.00     0.067 C 
ATOM     17  C   UNL A   1      31.962  23.331  24.595  1.00  0.00     0.050 A 
ATOM     18  N   UNL A   1      33.226  22.970  24.218  1.00  0.00    -0.261 NA
ATOM     19  C   UNL A   1      34.190  22.917  25.160  1.00  0.00     0.111 A 
ATOM     20  C   UNL A   1      32.693  23.618  26.859  1.00  0.00     0.017 A 
ATOM     21  C   UNL A   1      33.980  23.250  26.480  1.00  0.00     0.021 A 
ENDBRANCH  12  15
ENDBRANCH   6  11
ENDBRANCH   3   5
ENDBRANCH   2   3
ENDBRANCH   1   2
BRANCH   1  22
ATOM     22  C   UNL A   1      32.035  29.747  27.095  1.00  0.00     0.275 C 
BRANCH  22  23
ATOM     23  O   UNL A   1      33.140  30.460  26.506  1.00  0.00    -0.458 OA
BRANCH  23  24
ATOM     24  C   UNL A   1      33.668  31.415  27.299  1.00  0.00     0.338 C 
ATOM     25  O   UNL A   1      33.098  32.385  27.776  1.00  0.00    -0.246 OA
BRANCH  24  26
ATOM     26  C   UNL A   1      35.078  31.142  27.602  1.00  0.00     0.060 A 
ATOM     27  C   UNL A   1      35.482  29.821  27.774  1.00  0.00     0.016 A 
ATOM     28  C   UNL A   1      35.907  32.185  28.003  1.00  0.00     0.016 A 
ATOM     29  C   UNL A   1      36.627  29.524  28.489  1.00  0.00     0.010 A 
ATOM     30  C   UNL A   1      37.129  31.885  28.608  1.00  0.00     0.010 A 
ATOM     31  C   UNL A   1      37.470  30.552  28.907  1.00  0.00    -0.014 A 
BRANCH  31  32
ATOM     32  C   UNL A   1      38.666  30.235  29.720  1.00  0.00     0.031 A 
ATOM     33  C   UNL A   1      39.735  29.352  29.144  1.00  0.00     0.074 A 
ATOM     34  C   UNL A   1      38.799  30.753  30.955  1.00  0.00     0.049 A 
ATOM     35  N   UNL A   1      40.731  28.755  29.743  1.00  0.00    -0.248 NA
ATOM     36  C   UNL A   1      39.656  29.086  27.699  1.00  0.00     0.031 C 
ATOM     37  C   UNL A   1      37.877  31.703  31.583  1.00  0.00     0.029 A 
ATOM     38  N   UNL A   1      39.765  30.552  31.906  1.00  0.00    -0.354 N 
ATOM     39  C   UNL A   1      41.357  27.994  28.765  1.00  0.00     0.074 A 
ATOM     40  C   UNL A   1      40.620  28.193  27.536  1.00  0.00     0.031 C 
ATOM     41  C   UNL A   1      38.333  32.019  32.803  1.00  0.00     0.029 A 
ATOM     42  C   UNL A   1      39.513  31.212  33.082  1.00  0.00     0.049 A 
ATOM     43  H   UNL A   1      40.559  29.989  31.760  1.00  0.00     0.167 HD
ATOM     44  C   UNL A   1      42.446  27.198  28.893  1.00  0.00     0.037 A 
ATOM     45  C   UNL A   1      40.130  31.128  34.273  1.00  0.00     0.037 A 
ATOM     46  C   UNL A   1      43.178  27.048  30.125  1.00  0.00     0.049 A 
ATOM     47  C   UNL A   1      41.284  30.177  34.416  1.00  0.00     0.074 A 
ATOM     48  C   UNL A   1      44.292  26.271  30.381  1.00  0.00     0.029 A 
ATOM     49  N   UNL A   1      42.866  27.703  31.310  1.00  0.00    -0.354 N 
ATOM     50  N   UNL A   1      41.835  29.403  33.512  1.00  0.00    -0.248 NA
ATOM     51  C   UNL A   1      41.890  30.076  35.748  1.00  0.00     0.031 C 
ATOM     52  C   UNL A   1      44.622  26.414  31.734  1.00  0.00     0.029 A 
ATOM     53  C   UNL A   1      43.755  27.333  32.306  1.00  0.00     0.049 A 
ATOM     54  H   UNL A   1      42.122  28.337  31.425  1.00  0.00     0.167 HD
ATOM     55  C   UNL A   1      42.874  28.747  34.155  1.00  0.00     0.074 A 
ATOM     56  C   UNL A   1      42.879  29.224  35.524  1.00  0.00     0.031 C 
ATOM     57  C   UNL A   1      43.745  27.834  33.658  1.00  0.00     0.037 A 
BRANCH  44  58
ATOM     58  C   UNL A   1      42.864  26.397  27.691  1.00  0.00     0.064 A 
ATOM     59  C   UNL A   1      42.349  25.119  27.426  1.00  0.00     0.173 A 
ATOM     60  C   UNL A   1      43.809  26.916  26.792  1.00  0.00     0.173 A 
ATOM     61  F   UNL A   1      41.454  24.565  28.258  1.00  0.00    -0.203 F 
ATOM     62  C   UNL A   1      42.798  24.374  26.337  1.00  0.00     0.198 A 
ATOM     63  C   UNL A   1      44.228  26.184  25.683  1.00  0.00     0.198 A 
ATOM     64  F   UNL A   1      44.334  28.136  26.990  1.00  0.00    -0.203 F 
ATOM     65  F   UNL A   1      42.345  23.127  26.148  1.00  0.00    -0.200 F 
ATOM     66  C   UNL A   1      43.732  24.909  25.464  1.00  0.00     0.200 A 
ATOM     67  F   UNL A   1      45.121  26.711  24.832  1.00  0.00    -0.200 F 
ATOM     68  F   UNL A   1      44.166  24.191  24.419  1.00  0.00    -0.200 F 
ENDBRANCH  44  58
BRANCH  45  69
ATOM     69  C   UNL A   1      39.645  31.944  35.417  1.00  0.00     0.064 A 
ATOM     70  C   UNL A   1      40.133  33.239  35.629  1.00  0.00     0.173 A 
ATOM     71  C   UNL A   1      38.670  31.462  36.304  1.00  0.00     0.173 A 
ATOM     72  F   UNL A   1      41.080  33.738  34.820  1.00  0.00    -0.203 F 
ATOM     73  C   UNL A   1      39.674  34.017  36.690  1.00  0.00     0.198 A 
ATOM     74  C   UNL A   1      38.186  32.251  37.343  1.00  0.00     0.198 A 
ATOM     75  F   UNL A   1      38.166  30.229  36.144  1.00  0.00    -0.203 F 
ATOM     76  F   UNL A   1      40.187  35.238  36.892  1.00  0.00    -0.200 F 
ATOM     77  C   UNL A   1      38.695  33.526  37.540  1.00  0.00     0.200 A 
ATOM     78  F   UNL A   1      37.227  31.781  38.151  1.00  0.00    -0.200 F 
ATOM     79  F   UNL A   1      38.244  34.280  38.553  1.00  0.00    -0.200 F 
ENDBRANCH  45  69
BRANCH  57  80
ATOM     80  C   UNL A   1      44.815  27.342  34.589  1.00  0.00     0.064 A 
ATOM     81  C   UNL A   1      44.668  26.164  35.334  1.00  0.00     0.173 A 
ATOM     82  C   UNL A   1      46.019  28.055  34.713  1.00  0.00     0.173 A 
ATOM     83  F   UNL A   1      43.530  25.458  35.266  1.00  0.00    -0.203 F 
ATOM     84  C   UNL A   1      45.674  25.733  36.195  1.00  0.00     0.198 A 
ATOM     85  C   UNL A   1      47.036  27.600  35.546  1.00  0.00     0.198 A 
ATOM     86  F   UNL A   1      46.211  29.184  34.018  1.00  0.00    -0.203 F 
ATOM     87  F   UNL A   1      45.488  24.636  36.943  1.00  0.00    -0.200 F 
ATOM     88  C   UNL A   1      46.859  26.446  36.293  1.00  0.00     0.200 A 
ATOM     89  F   UNL A   1      48.187  28.282  35.627  1.00  0.00    -0.200 F 
ATOM     90  F   UNL A   1      47.830  26.025  37.117  1.00  0.00    -0.200 F 
ENDBRANCH  57  80
ENDBRANCH  31  32
ENDBRANCH  24  26
ENDBRANCH  23  24
ENDBRANCH  22  23
ENDBRANCH   1  22
TORSDOF 13
ENDMDL
