MODEL 1
REMARK VINA RESULT:     -11.6      0.000      0.000
REMARK SMILES CC1(C)CCSC[C@@]1(Nc1ccccc1Br)C(=O)OCCOC(=O)c1ccc(-c2c3nc(c(-c4c(F)c(F)c(F)c(F)c4F)c4ccc([nH]4)c(-c4c(F)c(F)c(F)c(F)c4F)c4nc(c(-c5c(F)c(F)c(F)c(F)c5F)c5ccc2[nH]5)C=C4)C=C3)cc1
REMARK SMILES IDX 20 1 19 2 17 3 18 4 8 5 1 6 2 7 3 8 4 9 5 10 7 11 6 12 9 13
REMARK SMILES IDX 10 15 11 16 15 17 12 18 14 19 16 20 13 21 21 22 22 23 23 24
REMARK SMILES IDX 24 25 25 26 26 27 87 28 27 29 86 30 28 31 29 32 30 33 80 34
REMARK SMILES IDX 31 35 85 36 79 37 81 38 32 39 84 40 78 41 77 42 33 44 65 45
REMARK SMILES IDX 45 46 64 47 46 48 49 49 63 50 82 51 47 52 48 53 62 55 83 56
REMARK SMILES IDX 50 57 34 58 35 59 43 60 36 61 37 62 41 63 44 64 38 65 39 66
REMARK SMILES IDX 42 67 40 68 66 69 67 70 75 71 68 72 69 73 73 74 76 75 70 76
REMARK SMILES IDX 71 77 74 78 72 79 51 80 52 81 60 82 53 83 54 84 58 85 61 86
REMARK SMILES IDX 55 87 56 88 59 89 57 90
REMARK H PARENT 9 14 81 43 49 54
REMARK Flexibility Score: inf
ROOT
ATOM      1  C   UNL A   1      31.775  29.022  27.250  1.00  0.00     0.274 C 
ENDROOT
BRANCH   1   2
ATOM      2  O   UNL A   1      32.341  27.926  26.501  1.00  0.00    -0.460 OA
BRANCH   2   3
ATOM      3  C   UNL A   1      31.490  26.912  26.184  1.00  0.00     0.333 C 
ATOM      4  O   UNL A   1      30.599  26.522  26.937  1.00  0.00    -0.249 OA
BRANCH   3   5
ATOM      5  C   UNL A   1      31.832  26.196  24.834  1.00  0.00     0.150 C 
ATOM      6  C   UNL A   1      30.417  28.134  23.810  1.00  0.00     0.014 C 
ATOM      7  C   UNL A   1      30.715  26.608  23.767  1.00  0.00     0.000 C 
ATOM      8  C   UNL A   1      29.362  25.897  24.032  1.00  0.00     0.014 C 
ATOM      9  C   UNL A   1      31.132  26.236  22.311  1.00  0.00     0.020 C 
ATOM     10  C   UNL A   1      32.412  26.886  21.803  1.00  0.00     0.070 C 
ATOM     11  C   UNL A   1      33.227  26.757  24.415  1.00  0.00     0.110 C 
ATOM     12  S   UNL A   1      33.830  26.315  22.751  1.00  0.00    -0.159 SA
BRANCH   5  13
ATOM     13  N   UNL A   1      31.861  24.699  24.970  1.00  0.00    -0.368 N 
ATOM     14  H   UNL A   1      31.317  24.181  24.333  1.00  0.00     0.161 HD
BRANCH  13  15
ATOM     15  C   UNL A   1      32.586  23.976  25.913  1.00  0.00     0.049 A 
ATOM     16  C   UNL A   1      33.978  23.849  25.785  1.00  0.00     0.027 A 
ATOM     17  C   UNL A   1      31.977  23.143  26.873  1.00  0.00     0.041 A 
ATOM     18  C   UNL A   1      34.744  23.061  26.650  1.00  0.00     0.002 A 
ATOM     19  C   UNL A   1      32.737  22.373  27.767  1.00  0.00     0.018 A 
ATOM     20  Br  UNL A   1      30.089  22.920  26.958  1.00  0.00    -0.049 Br
ATOM     21  C   UNL A   1      34.126  22.343  27.664  1.00  0.00     0.001 A 
ENDBRANCH  13  15
ENDBRANCH   5  13
ENDBRANCH   3   5
ENDBRANCH   2   3
ENDBRANCH   1   2
BRANCH   1  22
ATOM     22  C   UNL A   1      31.807  30.323  26.447  1.00  0.00     0.275 C 
BRANCH  22  23
ATOM     23  O   UNL A   1      33.163  30.778  26.341  1.00  0.00    -0.458 OA
BRANCH  23  24
ATOM     24  C   UNL A   1      33.522  31.778  27.179  1.00  0.00     0.338 C 
ATOM     25  O   UNL A   1      32.927  32.826  27.359  1.00  0.00    -0.246 OA
BRANCH  24  26
ATOM     26  C   UNL A   1      34.780  31.413  27.879  1.00  0.00     0.060 A 
ATOM     27  C   UNL A   1      34.985  30.124  28.375  1.00  0.00     0.016 A 
ATOM     28  C   UNL A   1      35.757  32.386  28.090  1.00  0.00     0.016 A 
ATOM     29  C   UNL A   1      36.125  29.812  29.115  1.00  0.00     0.010 A 
ATOM     30  C   UNL A   1      36.940  32.055  28.764  1.00  0.00     0.010 A 
ATOM     31  C   UNL A   1      37.131  30.767  29.294  1.00  0.00    -0.014 A 
BRANCH  31  32
ATOM     32  C   UNL A   1      38.381  30.425  30.024  1.00  0.00     0.031 A 
ATOM     33  C   UNL A   1      39.395  29.507  29.401  1.00  0.00     0.074 A 
ATOM     34  C   UNL A   1      38.602  30.917  31.260  1.00  0.00     0.049 A 
ATOM     35  N   UNL A   1      40.429  28.919  29.948  1.00  0.00    -0.248 NA
ATOM     36  C   UNL A   1      39.215  29.200  27.974  1.00  0.00     0.031 C 
ATOM     37  C   UNL A   1      37.725  31.849  31.971  1.00  0.00     0.029 A 
ATOM     38  N   UNL A   1      39.629  30.691  32.144  1.00  0.00    -0.354 N 
ATOM     39  C   UNL A   1      40.988  28.131  28.950  1.00  0.00     0.074 A 
ATOM     40  C   UNL A   1      40.187  28.323  27.760  1.00  0.00     0.031 C 
ATOM     41  C   UNL A   1      38.257  32.129  33.170  1.00  0.00     0.029 A 
ATOM     42  C   UNL A   1      39.467  31.333  33.348  1.00  0.00     0.049 A 
ATOM     43  H   UNL A   1      40.406  30.124  31.934  1.00  0.00     0.167 HD
ATOM     44  C   UNL A   1      42.066  27.314  29.029  1.00  0.00     0.037 A 
ATOM     45  C   UNL A   1      40.177  31.252  34.488  1.00  0.00     0.037 A 
ATOM     46  C   UNL A   1      42.886  27.159  30.202  1.00  0.00     0.049 A 
ATOM     47  C   UNL A   1      41.357  30.325  34.555  1.00  0.00     0.074 A 
ATOM     48  C   UNL A   1      44.011  26.368  30.372  1.00  0.00     0.029 A 
ATOM     49  N   UNL A   1      42.678  27.818  31.405  1.00  0.00    -0.354 N 
ATOM     50  N   UNL A   1      41.844  29.539  33.626  1.00  0.00    -0.248 NA
ATOM     51  C   UNL A   1      42.073  30.257  35.836  1.00  0.00     0.031 C 
ATOM     52  C   UNL A   1      44.464  26.527  31.687  1.00  0.00     0.029 A 
ATOM     53  C   UNL A   1      43.645  27.444  32.324  1.00  0.00     0.049 A 
ATOM     54  H   UNL A   1      41.950  28.459  31.579  1.00  0.00     0.167 HD
ATOM     55  C   UNL A   1      42.919  28.884  34.208  1.00  0.00     0.074 A 
ATOM     56  C   UNL A   1      43.032  29.384  35.563  1.00  0.00     0.031 C 
ATOM     57  C   UNL A   1      43.734  27.944  33.671  1.00  0.00     0.037 A 
BRANCH  44  58
ATOM     58  C   UNL A   1      42.406  26.490  27.823  1.00  0.00     0.064 A 
ATOM     59  C   UNL A   1      43.370  26.902  26.893  1.00  0.00     0.173 A 
ATOM     60  C   UNL A   1      41.795  25.242  27.630  1.00  0.00     0.173 A 
ATOM     61  F   UNL A   1      43.970  28.094  27.025  1.00  0.00    -0.203 F 
ATOM     62  C   UNL A   1      43.703  26.096  25.806  1.00  0.00     0.198 A 
ATOM     63  C   UNL A   1      42.147  24.431  26.555  1.00  0.00     0.198 A 
ATOM     64  F   UNL A   1      40.867  24.802  28.493  1.00  0.00    -0.203 F 
ATOM     65  F   UNL A   1      44.607  26.521  24.912  1.00  0.00    -0.200 F 
ATOM     66  C   UNL A   1      43.098  24.859  25.643  1.00  0.00     0.200 A 
ATOM     67  F   UNL A   1      41.567  23.231  26.405  1.00  0.00    -0.200 F 
ATOM     68  F   UNL A   1      43.429  24.081  24.602  1.00  0.00    -0.200 F 
ENDBRANCH  44  58
BRANCH  45  69
ATOM     69  C   UNL A   1      39.754  32.037  35.675  1.00  0.00     0.064 A 
ATOM     70  C   UNL A   1      40.331  33.281  35.961  1.00  0.00     0.173 A 
ATOM     71  C   UNL A   1      38.750  31.569  36.536  1.00  0.00     0.173 A 
ATOM     72  F   UNL A   1      41.315  33.757  35.183  1.00  0.00    -0.203 F 
ATOM     73  C   UNL A   1      39.921  34.026  37.065  1.00  0.00     0.198 A 
ATOM     74  C   UNL A   1      38.322  32.327  37.623  1.00  0.00     0.198 A 
ATOM     75  F   UNL A   1      38.170  30.381  36.308  1.00  0.00    -0.203 F 
ATOM     76  F   UNL A   1      40.513  35.198  37.335  1.00  0.00    -0.200 F 
ATOM     77  C   UNL A   1      38.911  33.553  37.889  1.00  0.00     0.200 A 
ATOM     78  F   UNL A   1      37.336  31.872  38.408  1.00  0.00    -0.200 F 
ATOM     79  F   UNL A   1      38.508  34.278  38.942  1.00  0.00    -0.200 F 
ENDBRANCH  45  69
BRANCH  57  80
ATOM     80  C   UNL A   1      44.820  27.406  34.552  1.00  0.00     0.064 A 
ATOM     81  C   UNL A   1      46.074  28.029  34.626  1.00  0.00     0.173 A 
ATOM     82  C   UNL A   1      44.603  26.264  35.336  1.00  0.00     0.173 A 
ATOM     83  F   UNL A   1      46.334  29.114  33.881  1.00  0.00    -0.203 F 
ATOM     84  C   UNL A   1      47.081  27.512  35.435  1.00  0.00     0.198 A 
ATOM     85  C   UNL A   1      45.605  25.762  36.161  1.00  0.00     0.198 A 
ATOM     86  F   UNL A   1      43.417  25.635  35.301  1.00  0.00    -0.203 F 
ATOM     87  F   UNL A   1      48.288  28.095  35.456  1.00  0.00    -0.200 F 
ATOM     88  C   UNL A   1      46.846  26.382  36.204  1.00  0.00     0.200 A 
ATOM     89  F   UNL A   1      45.374  24.674  36.909  1.00  0.00    -0.200 F 
ATOM     90  F   UNL A   1      47.818  25.882  36.979  1.00  0.00    -0.200 F 
ENDBRANCH  57  80
ENDBRANCH  31  32
ENDBRANCH  24  26
ENDBRANCH  23  24
ENDBRANCH  22  23
ENDBRANCH   1  22
TORSDOF 13
ENDMDL
MODEL 2
REMARK VINA RESULT:     -11.6      0.229      1.626
REMARK SMILES CC1(C)CCSC[C@@]1(Nc1ccccc1Br)C(=O)OCCOC(=O)c1ccc(-c2c3nc(c(-c4c(F)c(F)c(F)c(F)c4F)c4ccc([nH]4)c(-c4c(F)c(F)c(F)c(F)c4F)c4nc(c(-c5c(F)c(F)c(F)c(F)c5F)c5ccc2[nH]5)C=C4)C=C3)cc1
REMARK SMILES IDX 20 1 19 2 17 3 18 4 8 5 1 6 2 7 3 8 4 9 5 10 7 11 6 12 9 13
REMARK SMILES IDX 10 15 11 16 15 17 12 18 14 19 16 20 13 21 21 22 22 23 23 24
REMARK SMILES IDX 24 25 25 26 26 27 87 28 27 29 86 30 28 31 29 32 30 33 80 34
REMARK SMILES IDX 31 35 85 36 79 37 81 38 32 39 84 40 78 41 77 42 33 44 65 45
REMARK SMILES IDX 45 46 64 47 46 48 49 49 63 50 82 51 47 52 48 53 62 55 83 56
REMARK SMILES IDX 50 57 34 58 35 59 43 60 36 61 37 62 41 63 44 64 38 65 39 66
REMARK SMILES IDX 42 67 40 68 66 69 67 70 75 71 68 72 69 73 73 74 76 75 70 76
REMARK SMILES IDX 71 77 74 78 72 79 51 80 52 81 60 82 53 83 54 84 58 85 61 86
REMARK SMILES IDX 55 87 56 88 59 89 57 90
REMARK H PARENT 9 14 81 43 49 54
REMARK Flexibility Score: inf
ROOT
ATOM      1  C   UNL A   1      31.779  28.858  27.325  1.00  0.00     0.274 C 
ENDROOT
BRANCH   1   2
ATOM      2  O   UNL A   1      32.348  27.669  26.737  1.00  0.00    -0.460 OA
BRANCH   2   3
ATOM      3  C   UNL A   1      31.466  26.780  26.206  1.00  0.00     0.333 C 
ATOM      4  O   UNL A   1      30.450  26.409  26.793  1.00  0.00    -0.249 OA
BRANCH   3   5
ATOM      5  C   UNL A   1      31.927  26.168  24.841  1.00  0.00     0.150 C 
ATOM      6  C   UNL A   1      30.453  28.076  23.845  1.00  0.00     0.014 C 
ATOM      7  C   UNL A   1      30.847  26.576  23.735  1.00  0.00     0.000 C 
ATOM      8  C   UNL A   1      29.529  25.771  23.878  1.00  0.00     0.014 C 
ATOM      9  C   UNL A   1      31.368  26.317  22.287  1.00  0.00     0.020 C 
ATOM     10  C   UNL A   1      32.630  27.072  21.893  1.00  0.00     0.070 C 
ATOM     11  C   UNL A   1      33.305  26.835  24.538  1.00  0.00     0.110 C 
ATOM     12  S   UNL A   1      34.026  26.530  22.890  1.00  0.00    -0.159 SA
BRANCH   5  13
ATOM     13  N   UNL A   1      32.042  24.669  24.893  1.00  0.00    -0.368 N 
ATOM     14  H   UNL A   1      31.582  24.160  24.187  1.00  0.00     0.161 HD
BRANCH  13  15
ATOM     15  C   UNL A   1      32.739  23.935  25.849  1.00  0.00     0.049 A 
ATOM     16  C   UNL A   1      34.128  23.771  25.735  1.00  0.00     0.027 A 
ATOM     17  C   UNL A   1      32.098  23.125  26.808  1.00  0.00     0.041 A 
ATOM     18  C   UNL A   1      34.865  22.969  26.614  1.00  0.00     0.002 A 
ATOM     19  C   UNL A   1      32.830  22.342  27.715  1.00  0.00     0.018 A 
ATOM     20  Br  UNL A   1      30.205  22.951  26.876  1.00  0.00    -0.049 Br
ATOM     21  C   UNL A   1      34.218  22.275  27.626  1.00  0.00     0.001 A 
ENDBRANCH  13  15
ENDBRANCH   5  13
ENDBRANCH   3   5
ENDBRANCH   2   3
ENDBRANCH   1   2
BRANCH   1  22
ATOM     22  C   UNL A   1      31.841  30.043  26.361  1.00  0.00     0.275 C 
BRANCH  22  23
ATOM     23  O   UNL A   1      33.192  30.514  26.279  1.00  0.00    -0.458 OA
BRANCH  23  24
ATOM     24  C   UNL A   1      33.518  31.536  27.104  1.00  0.00     0.338 C 
ATOM     25  O   UNL A   1      32.901  32.577  27.250  1.00  0.00    -0.246 OA
BRANCH  24  26
ATOM     26  C   UNL A   1      34.767  31.207  27.836  1.00  0.00     0.060 A 
ATOM     27  C   UNL A   1      34.981  29.933  28.366  1.00  0.00     0.016 A 
ATOM     28  C   UNL A   1      35.725  32.200  28.044  1.00  0.00     0.016 A 
ATOM     29  C   UNL A   1      36.111  29.657  29.135  1.00  0.00     0.010 A 
ATOM     30  C   UNL A   1      36.898  31.903  28.749  1.00  0.00     0.010 A 
ATOM     31  C   UNL A   1      37.099  30.631  29.312  1.00  0.00    -0.014 A 
BRANCH  31  32
ATOM     32  C   UNL A   1      38.339  30.325  30.074  1.00  0.00     0.031 A 
ATOM     33  C   UNL A   1      39.384  29.419  29.487  1.00  0.00     0.074 A 
ATOM     34  C   UNL A   1      38.523  30.839  31.306  1.00  0.00     0.049 A 
ATOM     35  N   UNL A   1      40.418  28.859  30.065  1.00  0.00    -0.248 NA
ATOM     36  C   UNL A   1      39.242  29.086  28.061  1.00  0.00     0.031 C 
ATOM     37  C   UNL A   1      37.612  31.764  31.984  1.00  0.00     0.029 A 
ATOM     38  N   UNL A   1      39.535  30.648  32.215  1.00  0.00    -0.354 N 
ATOM     39  C   UNL A   1      41.014  28.068  29.091  1.00  0.00     0.074 A 
ATOM     40  C   UNL A   1      40.236  28.226  27.881  1.00  0.00     0.031 C 
ATOM     41  C   UNL A   1      38.113  32.072  33.190  1.00  0.00     0.029 A 
ATOM     42  C   UNL A   1      39.333  31.304  33.406  1.00  0.00     0.049 A 
ATOM     43  H   UNL A   1      40.328  30.094  32.031  1.00  0.00     0.167 HD
ATOM     44  C   UNL A   1      42.106  27.275  29.206  1.00  0.00     0.037 A 
ATOM     45  C   UNL A   1      40.021  31.254  34.562  1.00  0.00     0.037 A 
ATOM     46  C   UNL A   1      42.903  27.154  30.399  1.00  0.00     0.049 A 
ATOM     47  C   UNL A   1      41.217  30.353  34.669  1.00  0.00     0.074 A 
ATOM     48  C   UNL A   1      44.039  26.389  30.605  1.00  0.00     0.029 A 
ATOM     49  N   UNL A   1      42.656  27.826  31.586  1.00  0.00    -0.354 N 
ATOM     50  N   UNL A   1      41.739  29.563  33.763  1.00  0.00    -0.248 NA
ATOM     51  C   UNL A   1      41.906  30.317  35.966  1.00  0.00     0.031 C 
ATOM     52  C   UNL A   1      44.461  26.576  31.927  1.00  0.00     0.029 A 
ATOM     53  C   UNL A   1      43.610  27.485  32.532  1.00  0.00     0.049 A 
ATOM     54  H   UNL A   1      41.912  28.454  31.735  1.00  0.00     0.167 HD
ATOM     55  C   UNL A   1      42.815  28.938  34.377  1.00  0.00     0.074 A 
ATOM     56  C   UNL A   1      42.888  29.460  35.727  1.00  0.00     0.031 C 
ATOM     57  C   UNL A   1      43.659  28.007  33.872  1.00  0.00     0.037 A 
BRANCH  44  58
ATOM     58  C   UNL A   1      42.489  26.440  28.020  1.00  0.00     0.064 A 
ATOM     59  C   UNL A   1      41.942  25.169  27.801  1.00  0.00     0.173 A 
ATOM     60  C   UNL A   1      43.376  26.950  27.060  1.00  0.00     0.173 A 
ATOM     61  F   UNL A   1      41.103  24.632  28.699  1.00  0.00    -0.203 F 
ATOM     62  C   UNL A   1      42.278  24.433  26.666  1.00  0.00     0.198 A 
ATOM     63  C   UNL A   1      43.691  26.221  25.917  1.00  0.00     0.198 A 
ATOM     64  F   UNL A   1      43.926  28.163  27.222  1.00  0.00    -0.203 F 
ATOM     65  F   UNL A   1      41.765  23.207  26.490  1.00  0.00    -0.200 F 
ATOM     66  C   UNL A   1      43.144  24.963  25.723  1.00  0.00     0.200 A 
ATOM     67  F   UNL A   1      44.522  26.739  25.001  1.00  0.00    -0.200 F 
ATOM     68  F   UNL A   1      43.457  24.257  24.626  1.00  0.00    -0.200 F 
ENDBRANCH  44  58
BRANCH  45  69
ATOM     69  C   UNL A   1      39.555  32.048  35.728  1.00  0.00     0.064 A 
ATOM     70  C   UNL A   1      40.074  33.323  35.985  1.00  0.00     0.173 A 
ATOM     71  C   UNL A   1      38.570  31.556  36.596  1.00  0.00     0.173 A 
ATOM     72  F   UNL A   1      41.039  33.825  35.199  1.00  0.00    -0.203 F 
ATOM     73  C   UNL A   1      39.625  34.076  37.068  1.00  0.00     0.198 A 
ATOM     74  C   UNL A   1      38.102  32.320  37.662  1.00  0.00     0.198 A 
ATOM     75  F   UNL A   1      38.045  30.338  36.395  1.00  0.00    -0.203 F 
ATOM     76  F   UNL A   1      40.161  35.280  37.312  1.00  0.00    -0.200 F 
ATOM     77  C   UNL A   1      38.633  33.578  37.900  1.00  0.00     0.200 A 
ATOM     78  F   UNL A   1      37.133  31.840  38.454  1.00  0.00    -0.200 F 
ATOM     79  F   UNL A   1      38.192  34.309  38.933  1.00  0.00    -0.200 F 
ENDBRANCH  45  69
BRANCH  57  80
ATOM     80  C   UNL A   1      44.737  27.505  34.785  1.00  0.00     0.064 A 
ATOM     81  C   UNL A   1      44.545  26.368  35.582  1.00  0.00     0.173 A 
ATOM     82  C   UNL A   1      45.973  28.162  34.857  1.00  0.00     0.173 A 
ATOM     83  F   UNL A   1      43.372  25.717  35.561  1.00  0.00    -0.203 F 
ATOM     84  C   UNL A   1      45.547  25.920  36.439  1.00  0.00     0.198 A 
ATOM     85  C   UNL A   1      46.981  27.698  35.698  1.00  0.00     0.198 A 
ATOM     86  F   UNL A   1      46.205  29.252  34.110  1.00  0.00    -0.203 F 
ATOM     87  F   UNL A   1      45.327  24.858  37.228  1.00  0.00    -0.200 F 
ATOM     88  C   UNL A   1      46.763  26.583  36.494  1.00  0.00     0.200 A 
ATOM     89  F   UNL A   1      48.159  28.335  35.745  1.00  0.00    -0.200 F 
ATOM     90  F   UNL A   1      47.725  26.153  37.323  1.00  0.00    -0.200 F 
ENDBRANCH  57  80
ENDBRANCH  31  32
ENDBRANCH  24  26
ENDBRANCH  23  24
ENDBRANCH  22  23
ENDBRANCH   1  22
TORSDOF 13
ENDMDL
MODEL 3
REMARK VINA RESULT:     -11.5      1.371      2.231
REMARK SMILES CC1(C)CCSC[C@@]1(Nc1ccccc1Br)C(=O)OCCOC(=O)c1ccc(-c2c3nc(c(-c4c(F)c(F)c(F)c(F)c4F)c4ccc([nH]4)c(-c4c(F)c(F)c(F)c(F)c4F)c4nc(c(-c5c(F)c(F)c(F)c(F)c5F)c5ccc2[nH]5)C=C4)C=C3)cc1
REMARK SMILES IDX 20 1 19 2 17 3 18 4 8 5 1 6 2 7 3 8 4 9 5 10 7 11 6 12 9 13
REMARK SMILES IDX 10 15 11 16 15 17 12 18 14 19 16 20 13 21 21 22 22 23 23 24
REMARK SMILES IDX 24 25 25 26 26 27 87 28 27 29 86 30 28 31 29 32 30 33 80 34
REMARK SMILES IDX 31 35 85 36 79 37 81 38 32 39 84 40 78 41 77 42 33 44 65 45
REMARK SMILES IDX 45 46 64 47 46 48 49 49 63 50 82 51 47 52 48 53 62 55 83 56
REMARK SMILES IDX 50 57 34 58 35 59 43 60 36 61 37 62 41 63 44 64 38 65 39 66
REMARK SMILES IDX 42 67 40 68 66 69 67 70 75 71 68 72 69 73 73 74 76 75 70 76
REMARK SMILES IDX 71 77 74 78 72 79 51 80 52 81 60 82 53 83 54 84 58 85 61 86
REMARK SMILES IDX 55 87 56 88 59 89 57 90
REMARK H PARENT 9 14 81 43 49 54
REMARK Flexibility Score: inf
ROOT
ATOM      1  C   UNL A   1      32.302  28.537  23.831  1.00  0.00     0.274 C 
ENDROOT
BRANCH   1   2
ATOM      2  O   UNL A   1      33.057  27.379  24.244  1.00  0.00    -0.460 OA
BRANCH   2   3
ATOM      3  C   UNL A   1      32.712  26.198  23.662  1.00  0.00     0.333 C 
ATOM      4  O   UNL A   1      32.368  26.104  22.485  1.00  0.00    -0.249 OA
BRANCH   3   5
ATOM      5  C   UNL A   1      32.663  24.992  24.659  1.00  0.00     0.150 C 
ATOM      6  C   UNL A   1      30.182  25.743  24.954  1.00  0.00     0.014 C 
ATOM      7  C   UNL A   1      31.465  25.257  25.685  1.00  0.00     0.000 C 
ATOM      8  C   UNL A   1      31.815  26.357  26.721  1.00  0.00     0.014 C 
ATOM      9  C   UNL A   1      31.103  23.979  26.503  1.00  0.00     0.020 C 
ATOM     10  C   UNL A   1      30.653  22.776  25.685  1.00  0.00     0.070 C 
ATOM     11  C   UNL A   1      32.362  23.741  23.774  1.00  0.00     0.110 C 
ATOM     12  S   UNL A   1      31.996  22.182  24.646  1.00  0.00    -0.159 SA
BRANCH   5  13
ATOM     13  N   UNL A   1      33.946  24.828  25.426  1.00  0.00    -0.368 N 
ATOM     14  H   UNL A   1      34.080  25.414  26.205  1.00  0.00     0.161 HD
BRANCH  13  15
ATOM     15  C   UNL A   1      34.963  23.922  25.135  1.00  0.00     0.049 A 
ATOM     16  C   UNL A   1      35.528  23.887  23.850  1.00  0.00     0.027 A 
ATOM     17  C   UNL A   1      35.302  22.853  25.988  1.00  0.00     0.041 A 
ATOM     18  C   UNL A   1      36.486  22.938  23.477  1.00  0.00     0.002 A 
ATOM     19  C   UNL A   1      36.285  21.915  25.636  1.00  0.00     0.018 A 
ATOM     20  Br  UNL A   1      34.383  22.541  27.624  1.00  0.00    -0.049 Br
ATOM     21  C   UNL A   1      36.889  21.967  24.382  1.00  0.00     0.001 A 
ENDBRANCH  13  15
ENDBRANCH   5  13
ENDBRANCH   3   5
ENDBRANCH   2   3
ENDBRANCH   1   2
BRANCH   1  22
ATOM     22  C   UNL A   1      32.003  29.461  25.012  1.00  0.00     0.275 C 
BRANCH  22  23
ATOM     23  O   UNL A   1      33.219  30.090  25.438  1.00  0.00    -0.458 OA
BRANCH  23  24
ATOM     24  C   UNL A   1      33.145  30.822  26.573  1.00  0.00     0.338 C 
ATOM     25  O   UNL A   1      32.219  31.537  26.918  1.00  0.00    -0.246 OA
BRANCH  24  26
ATOM     26  C   UNL A   1      34.380  30.628  27.374  1.00  0.00     0.060 A 
ATOM     27  C   UNL A   1      35.253  31.688  27.627  1.00  0.00     0.016 A 
ATOM     28  C   UNL A   1      34.703  29.354  27.842  1.00  0.00     0.016 A 
ATOM     29  C   UNL A   1      36.458  31.481  28.297  1.00  0.00     0.010 A 
ATOM     30  C   UNL A   1      35.875  29.158  28.584  1.00  0.00     0.010 A 
ATOM     31  C   UNL A   1      36.771  30.218  28.809  1.00  0.00    -0.014 A 
BRANCH  31  32
ATOM     32  C   UNL A   1      38.023  30.001  29.583  1.00  0.00     0.031 A 
ATOM     33  C   UNL A   1      39.115  29.131  29.028  1.00  0.00     0.074 A 
ATOM     34  C   UNL A   1      38.176  30.565  30.797  1.00  0.00     0.049 A 
ATOM     35  N   UNL A   1      40.174  28.645  29.627  1.00  0.00    -0.248 NA
ATOM     36  C   UNL A   1      38.995  28.744  27.614  1.00  0.00     0.031 C 
ATOM     37  C   UNL A   1      37.217  31.464  31.443  1.00  0.00     0.029 A 
ATOM     38  N   UNL A   1      39.193  30.457  31.714  1.00  0.00    -0.354 N 
ATOM     39  C   UNL A   1      40.814  27.853  28.681  1.00  0.00     0.074 A 
ATOM     40  C   UNL A   1      40.032  27.931  27.465  1.00  0.00     0.031 C 
ATOM     41  C   UNL A   1      37.697  31.838  32.638  1.00  0.00     0.029 A 
ATOM     42  C   UNL A   1      38.955  31.141  32.882  1.00  0.00     0.049 A 
ATOM     43  H   UNL A   1      40.014  29.938  31.550  1.00  0.00     0.167 HD
ATOM     44  C   UNL A   1      41.944  27.121  28.825  1.00  0.00     0.037 A 
ATOM     45  C   UNL A   1      39.639  31.165  34.041  1.00  0.00     0.037 A 
ATOM     46  C   UNL A   1      42.742  27.081  30.022  1.00  0.00     0.049 A 
ATOM     47  C   UNL A   1      40.880  30.330  34.180  1.00  0.00     0.074 A 
ATOM     48  C   UNL A   1      43.915  26.383  30.256  1.00  0.00     0.029 A 
ATOM     49  N   UNL A   1      42.457  27.780  31.186  1.00  0.00    -0.354 N 
ATOM     50  N   UNL A   1      41.445  29.539  33.301  1.00  0.00    -0.248 NA
ATOM     51  C   UNL A   1      41.565  30.374  35.478  1.00  0.00     0.031 C 
ATOM     52  C   UNL A   1      44.322  26.635  31.571  1.00  0.00     0.029 A 
ATOM     53  C   UNL A   1      43.424  27.519  32.144  1.00  0.00     0.049 A 
ATOM     54  H   UNL A   1      41.681  28.373  31.312  1.00  0.00     0.167 HD
ATOM     55  C   UNL A   1      42.549  28.991  33.938  1.00  0.00     0.074 A 
ATOM     56  C   UNL A   1      42.591  29.561  35.270  1.00  0.00     0.031 C 
ATOM     57  C   UNL A   1      43.442  28.087  33.466  1.00  0.00     0.037 A 
BRANCH  44  58
ATOM     58  C   UNL A   1      42.374  26.268  27.668  1.00  0.00     0.064 A 
ATOM     59  C   UNL A   1      43.354  26.690  26.761  1.00  0.00     0.173 A 
ATOM     60  C   UNL A   1      41.832  24.984  27.503  1.00  0.00     0.173 A 
ATOM     61  F   UNL A   1      43.890  27.915  26.867  1.00  0.00    -0.203 F 
ATOM     62  C   UNL A   1      43.771  25.860  25.722  1.00  0.00     0.198 A 
ATOM     63  C   UNL A   1      42.266  24.150  26.478  1.00  0.00     0.198 A 
ATOM     64  F   UNL A   1      40.891  24.533  28.347  1.00  0.00    -0.203 F 
ATOM     65  F   UNL A   1      44.689  26.293  24.847  1.00  0.00    -0.200 F 
ATOM     66  C   UNL A   1      43.233  24.589  25.587  1.00  0.00     0.200 A 
ATOM     67  F   UNL A   1      41.752  22.918  26.355  1.00  0.00    -0.200 F 
ATOM     68  F   UNL A   1      43.643  23.787  24.593  1.00  0.00    -0.200 F 
ENDBRANCH  44  58
BRANCH  45  69
ATOM     69  C   UNL A   1      39.130  31.973  35.178  1.00  0.00     0.064 A 
ATOM     70  C   UNL A   1      38.381  31.384  36.204  1.00  0.00     0.173 A 
ATOM     71  C   UNL A   1      39.398  33.347  35.270  1.00  0.00     0.173 A 
ATOM     72  F   UNL A   1      38.074  30.079  36.144  1.00  0.00    -0.203 F 
ATOM     73  C   UNL A   1      37.917  32.138  37.280  1.00  0.00     0.198 A 
ATOM     74  C   UNL A   1      38.959  34.095  36.359  1.00  0.00     0.198 A 
ATOM     75  F   UNL A   1      40.107  33.959  34.310  1.00  0.00    -0.203 F 
ATOM     76  F   UNL A   1      37.175  31.558  38.232  1.00  0.00    -0.200 F 
ATOM     77  C   UNL A   1      38.215  33.491  37.362  1.00  0.00     0.200 A 
ATOM     78  F   UNL A   1      39.261  35.398  36.441  1.00  0.00    -0.200 F 
ATOM     79  F   UNL A   1      37.781  34.212  38.404  1.00  0.00    -0.200 F 
ENDBRANCH  45  69
BRANCH  57  80
ATOM     80  C   UNL A   1      44.540  27.672  34.397  1.00  0.00     0.064 A 
ATOM     81  C   UNL A   1      45.744  28.386  34.469  1.00  0.00     0.173 A 
ATOM     82  C   UNL A   1      44.384  26.555  35.230  1.00  0.00     0.173 A 
ATOM     83  F   UNL A   1      45.946  29.451  33.678  1.00  0.00    -0.203 F 
ATOM     84  C   UNL A   1      46.764  27.982  35.325  1.00  0.00     0.198 A 
ATOM     85  C   UNL A   1      45.397  26.166  36.102  1.00  0.00     0.198 A 
ATOM     86  F   UNL A   1      43.248  25.841  35.200  1.00  0.00    -0.203 F 
ATOM     87  F   UNL A   1      47.926  28.651  35.345  1.00  0.00    -0.200 F 
ATOM     88  C   UNL A   1      46.589  26.875  36.142  1.00  0.00     0.200 A 
ATOM     89  F   UNL A   1      45.225  25.101  36.896  1.00  0.00    -0.200 F 
ATOM     90  F   UNL A   1      47.574  26.484  36.963  1.00  0.00    -0.200 F 
ENDBRANCH  57  80
ENDBRANCH  31  32
ENDBRANCH  24  26
ENDBRANCH  23  24
ENDBRANCH  22  23
ENDBRANCH   1  22
TORSDOF 13
ENDMDL
