MODEL 1
REMARK VINA RESULT:     -13.0      0.000      0.000
REMARK SMILES Cc1cc(C(=O)OCCOC(=O)c2ccc(-c3c4nc(c(-c5c(F)c(F)c(F)c(F)c5F)c5ccc([nH]5)c(-c5c(F)c(F)c(F)c(F)c5F)c5nc(c(-c6c(F)c(F)c(F)c(F)c6F)c6ccc3[nH]6)C=C5)C=C4)cc2)c(O)c(S(=O)(=O)N2CCCc3cc(F)cc(F)c32)c1
REMARK SMILES IDX 8 1 7 2 5 3 6 4 4 5 1 6 2 7 3 8 94 9 78 10 76 11 79 12 80 13
REMARK SMILES IDX 81 14 82 15 83 16 93 17 84 18 86 19 91 20 85 21 87 22 90 23
REMARK SMILES IDX 92 24 88 25 89 26 77 27 9 29 10 30 11 31 12 32 13 33 14 34
REMARK SMILES IDX 75 35 15 36 74 37 16 38 17 39 18 40 68 41 19 42 73 43 67 44
REMARK SMILES IDX 69 45 20 46 72 47 66 48 65 49 21 51 53 52 33 53 52 54 34 55
REMARK SMILES IDX 37 56 51 57 70 58 35 59 36 60 50 62 71 63 38 64 22 65 23 66
REMARK SMILES IDX 31 67 24 68 25 69 29 70 32 71 26 72 27 73 30 74 28 75 54 76
REMARK SMILES IDX 55 77 63 78 56 79 57 80 61 81 64 82 58 83 59 84 62 85 60 86
REMARK SMILES IDX 39 87 40 88 48 89 41 90 42 91 46 92 49 93 43 94 44 95 47 96
REMARK SMILES IDX 45 97
REMARK H PARENT 77 28 69 50 37 61
REMARK Flexibility Score: inf
ROOT
ATOM      1  C   UNL A   1      34.174  35.016  28.761  1.00  0.00     0.275 C 
ENDROOT
BRANCH   1   2
ATOM      2  O   UNL A   1      33.832  33.631  28.965  1.00  0.00    -0.458 OA
BRANCH   2   3
ATOM      3  C   UNL A   1      33.170  33.011  27.958  1.00  0.00     0.342 C 
ATOM      4  O   UNL A   1      32.246  33.467  27.299  1.00  0.00    -0.246 OA
BRANCH   3   5
ATOM      5  C   UNL A   1      33.739  31.670  27.696  1.00  0.00     0.103 A 
ATOM      6  C   UNL A   1      37.116  29.943  27.841  1.00  0.00     0.044 C 
ATOM      7  C   UNL A   1      35.665  30.168  27.519  1.00  0.00    -0.049 A 
ATOM      8  C   UNL A   1      35.103  31.413  27.863  1.00  0.00     0.023 A 
ATOM      9  C   UNL A   1      34.871  29.195  26.890  1.00  0.00     0.029 A 
ATOM     10  C   UNL A   1      33.516  29.462  26.708  1.00  0.00     0.130 A 
ATOM     11  C   UNL A   1      32.941  30.674  27.163  1.00  0.00     0.150 A 
BRANCH  10  12
ATOM     12  S   UNL A   1      32.359  28.443  25.882  1.00  0.00     0.268 S 
ATOM     13  O   UNL A   1      31.516  28.011  26.990  1.00  0.00    -0.201 OA
ATOM     14  O   UNL A   1      31.795  29.295  24.853  1.00  0.00    -0.201 OA
BRANCH  12  15
ATOM     15  N   UNL A   1      32.944  26.996  25.086  1.00  0.00    -0.263 N 
ATOM     16  C   UNL A   1      33.463  25.887  25.935  1.00  0.00     0.136 C 
ATOM     17  C   UNL A   1      31.805  26.595  24.217  1.00  0.00     0.091 A 
ATOM     18  C   UNL A   1      32.540  24.670  26.019  1.00  0.00     0.028 C 
ATOM     19  C   UNL A   1      30.750  25.933  24.883  1.00  0.00    -0.018 A 
ATOM     20  C   UNL A   1      31.524  27.359  23.073  1.00  0.00     0.150 A 
ATOM     21  C   UNL A   1      31.070  25.067  26.072  1.00  0.00     0.040 C 
ATOM     22  C   UNL A   1      29.432  26.291  24.575  1.00  0.00     0.045 A 
ATOM     23  C   UNL A   1      30.212  27.673  22.740  1.00  0.00     0.080 A 
ATOM     24  F   UNL A   1      32.523  27.934  22.386  1.00  0.00    -0.205 F 
ATOM     25  C   UNL A   1      29.184  27.193  23.541  1.00  0.00     0.126 A 
ATOM     26  F   UNL A   1      27.936  27.638  23.348  1.00  0.00    -0.207 F 
ENDBRANCH  12  15
ENDBRANCH  10  12
BRANCH  11  27
ATOM     27  O   UNL A   1      31.597  30.940  27.054  1.00  0.00    -0.506 OA
ATOM     28  H   UNL A   1      31.149  31.387  27.746  1.00  0.00     0.293 HD
ENDBRANCH  11  27
ENDBRANCH   3   5
ENDBRANCH   2   3
ENDBRANCH   1   2
BRANCH   1  29
ATOM     29  C   UNL A   1      33.194  35.933  29.487  1.00  0.00     0.275 C 
BRANCH  29  30
ATOM     30  O   UNL A   1      32.538  35.216  30.547  1.00  0.00    -0.458 OA
BRANCH  30  31
ATOM     31  C   UNL A   1      32.702  35.753  31.775  1.00  0.00     0.338 C 
ATOM     32  O   UNL A   1      32.040  36.623  32.314  1.00  0.00    -0.246 OA
BRANCH  31  33
ATOM     33  C   UNL A   1      33.772  35.045  32.483  1.00  0.00     0.060 A 
ATOM     34  C   UNL A   1      35.023  35.647  32.522  1.00  0.00     0.016 A 
ATOM     35  C   UNL A   1      33.612  33.738  32.924  1.00  0.00     0.016 A 
ATOM     36  C   UNL A   1      36.149  34.918  32.872  1.00  0.00     0.010 A 
ATOM     37  C   UNL A   1      34.729  33.039  33.397  1.00  0.00     0.010 A 
ATOM     38  C   UNL A   1      36.017  33.606  33.334  1.00  0.00    -0.014 A 
BRANCH  38  39
ATOM     39  C   UNL A   1      37.231  32.829  33.710  1.00  0.00     0.031 A 
ATOM     40  C   UNL A   1      37.888  33.056  35.045  1.00  0.00     0.074 A 
ATOM     41  C   UNL A   1      37.731  31.902  32.869  1.00  0.00     0.049 A 
ATOM     42  N   UNL A   1      39.039  32.617  35.489  1.00  0.00    -0.248 NA
ATOM     43  C   UNL A   1      37.161  33.902  36.005  1.00  0.00     0.031 C 
ATOM     44  C   UNL A   1      37.159  31.536  31.570  1.00  0.00     0.029 A 
ATOM     45  N   UNL A   1      38.832  31.090  32.981  1.00  0.00    -0.354 N 
ATOM     46  C   UNL A   1      39.203  33.186  36.746  1.00  0.00     0.074 A 
ATOM     47  C   UNL A   1      38.037  34.005  36.994  1.00  0.00     0.031 C 
ATOM     48  C   UNL A   1      37.885  30.550  31.028  1.00  0.00     0.029 A 
ATOM     49  C   UNL A   1      39.034  30.288  31.884  1.00  0.00     0.049 A 
ATOM     50  H   UNL A   1      39.421  31.084  33.770  1.00  0.00     0.167 HD
ATOM     51  C   UNL A   1      40.237  33.037  37.609  1.00  0.00     0.037 A 
ATOM     52  C   UNL A   1      40.057  29.471  31.572  1.00  0.00     0.037 A 
ATOM     53  C   UNL A   1      41.369  32.177  37.370  1.00  0.00     0.049 A 
ATOM     54  C   UNL A   1      41.217  29.363  32.521  1.00  0.00     0.074 A 
ATOM     55  C   UNL A   1      42.457  31.934  38.192  1.00  0.00     0.029 A 
ATOM     56  N   UNL A   1      41.555  31.413  36.226  1.00  0.00    -0.354 N 
ATOM     57  N   UNL A   1      41.385  29.936  33.687  1.00  0.00    -0.248 NA
ATOM     58  C   UNL A   1      42.336  28.511  32.099  1.00  0.00     0.031 C 
ATOM     59  C   UNL A   1      43.326  31.065  37.522  1.00  0.00     0.029 A 
ATOM     60  C   UNL A   1      42.751  30.718  36.310  1.00  0.00     0.049 A 
ATOM     61  H   UNL A   1      40.929  31.371  35.468  1.00  0.00     0.167 HD
ATOM     62  C   UNL A   1      42.618  29.500  34.150  1.00  0.00     0.074 A 
ATOM     63  C   UNL A   1      43.145  28.599  33.146  1.00  0.00     0.031 C 
ATOM     64  C   UNL A   1      43.257  29.821  35.302  1.00  0.00     0.037 A 
BRANCH  51  65
ATOM     65  C   UNL A   1      40.218  33.856  38.870  1.00  0.00     0.064 A 
ATOM     66  C   UNL A   1      39.565  33.427  40.034  1.00  0.00     0.173 A 
ATOM     67  C   UNL A   1      40.889  35.089  38.915  1.00  0.00     0.173 A 
ATOM     68  F   UNL A   1      38.897  32.263  40.044  1.00  0.00    -0.203 F 
ATOM     69  C   UNL A   1      39.555  34.214  41.184  1.00  0.00     0.198 A 
ATOM     70  C   UNL A   1      40.907  35.858  40.076  1.00  0.00     0.198 A 
ATOM     71  F   UNL A   1      41.537  35.547  37.834  1.00  0.00    -0.203 F 
ATOM     72  F   UNL A   1      38.876  33.809  42.266  1.00  0.00    -0.200 F 
ATOM     73  C   UNL A   1      40.232  35.425  41.206  1.00  0.00     0.200 A 
ATOM     74  F   UNL A   1      41.575  37.020  40.100  1.00  0.00    -0.200 F 
ATOM     75  F   UNL A   1      40.224  36.178  42.315  1.00  0.00    -0.200 F 
ENDBRANCH  51  65
BRANCH  52  76
ATOM     76  C   UNL A   1      40.045  28.729  30.283  1.00  0.00     0.064 A 
ATOM     77  C   UNL A   1      40.665  29.256  29.142  1.00  0.00     0.173 A 
ATOM     78  C   UNL A   1      39.428  27.473  30.167  1.00  0.00     0.173 A 
ATOM     79  F   UNL A   1      41.247  30.463  29.195  1.00  0.00    -0.203 F 
ATOM     80  C   UNL A   1      40.661  28.561  27.934  1.00  0.00     0.198 A 
ATOM     81  C   UNL A   1      39.455  26.765  28.969  1.00  0.00     0.198 A 
ATOM     82  F   UNL A   1      38.819  26.923  31.227  1.00  0.00    -0.203 F 
ATOM     83  F   UNL A   1      41.224  29.108  26.848  1.00  0.00    -0.200 F 
ATOM     84  C   UNL A   1      40.065  27.312  27.851  1.00  0.00     0.200 A 
ATOM     85  F   UNL A   1      38.893  25.550  28.899  1.00  0.00    -0.200 F 
ATOM     86  F   UNL A   1      40.072  26.639  26.693  1.00  0.00    -0.200 F 
ENDBRANCH  52  76
BRANCH  64  87
ATOM     87  C   UNL A   1      44.579  29.155  35.556  1.00  0.00     0.064 A 
ATOM     88  C   UNL A   1      45.790  29.739  35.154  1.00  0.00     0.173 A 
ATOM     89  C   UNL A   1      44.634  27.928  36.236  1.00  0.00     0.173 A 
ATOM     90  F   UNL A   1      45.790  30.902  34.486  1.00  0.00    -0.203 F 
ATOM     91  C   UNL A   1      47.006  29.103  35.397  1.00  0.00     0.198 A 
ATOM     92  C   UNL A   1      45.853  27.314  36.506  1.00  0.00     0.198 A 
ATOM     93  F   UNL A   1      43.505  27.331  36.646  1.00  0.00    -0.203 F 
ATOM     94  F   UNL A   1      48.145  29.652  34.956  1.00  0.00    -0.200 F 
ATOM     95  C   UNL A   1      47.035  27.896  36.081  1.00  0.00     0.200 A 
ATOM     96  F   UNL A   1      45.881  26.154  37.178  1.00  0.00    -0.200 F 
ATOM     97  F   UNL A   1      48.206  27.289  36.319  1.00  0.00    -0.200 F 
ENDBRANCH  64  87
ENDBRANCH  38  39
ENDBRANCH  31  33
ENDBRANCH  30  31
ENDBRANCH  29  30
ENDBRANCH   1  29
TORSDOF 14
ENDMDL
MODEL 2
REMARK VINA RESULT:     -13.0      0.086      1.552
REMARK SMILES Cc1cc(C(=O)OCCOC(=O)c2ccc(-c3c4nc(c(-c5c(F)c(F)c(F)c(F)c5F)c5ccc([nH]5)c(-c5c(F)c(F)c(F)c(F)c5F)c5nc(c(-c6c(F)c(F)c(F)c(F)c6F)c6ccc3[nH]6)C=C5)C=C4)cc2)c(O)c(S(=O)(=O)N2CCCc3cc(F)cc(F)c32)c1
REMARK SMILES IDX 8 1 7 2 5 3 6 4 4 5 1 6 2 7 3 8 94 9 78 10 76 11 79 12 80 13
REMARK SMILES IDX 81 14 82 15 83 16 93 17 84 18 86 19 91 20 85 21 87 22 90 23
REMARK SMILES IDX 92 24 88 25 89 26 77 27 9 29 10 30 11 31 12 32 13 33 14 34
REMARK SMILES IDX 75 35 15 36 74 37 16 38 17 39 18 40 68 41 19 42 73 43 67 44
REMARK SMILES IDX 69 45 20 46 72 47 66 48 65 49 21 51 53 52 33 53 52 54 34 55
REMARK SMILES IDX 37 56 51 57 70 58 35 59 36 60 50 62 71 63 38 64 22 65 23 66
REMARK SMILES IDX 31 67 24 68 25 69 29 70 32 71 26 72 27 73 30 74 28 75 54 76
REMARK SMILES IDX 55 77 63 78 56 79 57 80 61 81 64 82 58 83 59 84 62 85 60 86
REMARK SMILES IDX 39 87 40 88 48 89 41 90 42 91 46 92 49 93 43 94 44 95 47 96
REMARK SMILES IDX 45 97
REMARK H PARENT 77 28 69 50 37 61
REMARK Flexibility Score: inf
ROOT
ATOM      1  C   UNL A   1      34.203  34.991  28.826  1.00  0.00     0.275 C 
ENDROOT
BRANCH   1   2
ATOM      2  O   UNL A   1      33.859  33.603  29.003  1.00  0.00    -0.458 OA
BRANCH   2   3
ATOM      3  C   UNL A   1      33.217  32.997  27.975  1.00  0.00     0.342 C 
ATOM      4  O   UNL A   1      32.328  33.475  27.283  1.00  0.00    -0.246 OA
BRANCH   3   5
ATOM      5  C   UNL A   1      33.760  31.641  27.736  1.00  0.00     0.103 A 
ATOM      6  C   UNL A   1      37.086  29.830  27.996  1.00  0.00     0.044 C 
ATOM      7  C   UNL A   1      35.652  30.091  27.626  1.00  0.00    -0.049 A 
ATOM      8  C   UNL A   1      35.110  31.350  27.948  1.00  0.00     0.023 A 
ATOM      9  C   UNL A   1      34.854  29.135  26.975  1.00  0.00     0.029 A 
ATOM     10  C   UNL A   1      33.513  29.436  26.749  1.00  0.00     0.130 A 
ATOM     11  C   UNL A   1      32.955  30.663  27.181  1.00  0.00     0.150 A 
BRANCH  10  12
ATOM     12  S   UNL A   1      32.358  28.442  25.889  1.00  0.00     0.268 S 
ATOM     13  O   UNL A   1      31.476  28.027  26.972  1.00  0.00    -0.201 OA
ATOM     14  O   UNL A   1      31.841  29.308  24.846  1.00  0.00    -0.201 OA
BRANCH  12  15
ATOM     15  N   UNL A   1      32.934  26.984  25.106  1.00  0.00    -0.263 N 
ATOM     16  C   UNL A   1      33.423  25.871  25.966  1.00  0.00     0.136 C 
ATOM     17  C   UNL A   1      31.803  26.598  24.220  1.00  0.00     0.091 A 
ATOM     18  C   UNL A   1      32.481  24.668  26.040  1.00  0.00     0.028 C 
ATOM     19  C   UNL A   1      30.728  25.954  24.872  1.00  0.00    -0.018 A 
ATOM     20  C   UNL A   1      31.550  27.363  23.070  1.00  0.00     0.150 A 
ATOM     21  C   UNL A   1      31.016  25.086  26.069  1.00  0.00     0.040 C 
ATOM     22  C   UNL A   1      29.420  26.330  24.543  1.00  0.00     0.045 A 
ATOM     23  C   UNL A   1      30.248  27.695  22.716  1.00  0.00     0.080 A 
ATOM     24  F   UNL A   1      32.569  27.920  22.397  1.00  0.00    -0.205 F 
ATOM     25  C   UNL A   1      29.202  27.232  23.502  1.00  0.00     0.126 A 
ATOM     26  F   UNL A   1      27.963  27.695  23.288  1.00  0.00    -0.207 F 
ENDBRANCH  12  15
ENDBRANCH  10  12
BRANCH  11  27
ATOM     27  O   UNL A   1      31.622  30.962  27.027  1.00  0.00    -0.506 OA
ATOM     28  H   UNL A   1      31.158  31.406  27.711  1.00  0.00     0.293 HD
ENDBRANCH  11  27
ENDBRANCH   3   5
ENDBRANCH   2   3
ENDBRANCH   1   2
BRANCH   1  29
ATOM     29  C   UNL A   1      33.162  35.898  29.475  1.00  0.00     0.275 C 
BRANCH  29  30
ATOM     30  O   UNL A   1      32.529  35.219  30.573  1.00  0.00    -0.458 OA
BRANCH  30  31
ATOM     31  C   UNL A   1      32.724  35.795  31.779  1.00  0.00     0.338 C 
ATOM     32  O   UNL A   1      32.091  36.699  32.295  1.00  0.00    -0.246 OA
BRANCH  31  33
ATOM     33  C   UNL A   1      33.786  35.085  32.498  1.00  0.00     0.060 A 
ATOM     34  C   UNL A   1      35.037  35.684  32.547  1.00  0.00     0.016 A 
ATOM     35  C   UNL A   1      33.619  33.779  32.938  1.00  0.00     0.016 A 
ATOM     36  C   UNL A   1      36.159  34.953  32.908  1.00  0.00     0.010 A 
ATOM     37  C   UNL A   1      34.730  33.078  33.423  1.00  0.00     0.010 A 
ATOM     38  C   UNL A   1      36.020  33.642  33.371  1.00  0.00    -0.014 A 
BRANCH  38  39
ATOM     39  C   UNL A   1      37.228  32.863  33.758  1.00  0.00     0.031 A 
ATOM     40  C   UNL A   1      37.872  33.087  35.100  1.00  0.00     0.074 A 
ATOM     41  C   UNL A   1      37.735  31.935  32.921  1.00  0.00     0.049 A 
ATOM     42  N   UNL A   1      39.017  32.646  35.556  1.00  0.00    -0.248 NA
ATOM     43  C   UNL A   1      37.137  33.933  36.053  1.00  0.00     0.031 C 
ATOM     44  C   UNL A   1      37.176  31.572  31.617  1.00  0.00     0.029 A 
ATOM     45  N   UNL A   1      38.834  31.122  33.044  1.00  0.00    -0.354 N 
ATOM     46  C   UNL A   1      39.169  33.213  36.815  1.00  0.00     0.074 A 
ATOM     47  C   UNL A   1      38.002  34.034  37.051  1.00  0.00     0.031 C 
ATOM     48  C   UNL A   1      37.906  30.585  31.081  1.00  0.00     0.029 A 
ATOM     49  C   UNL A   1      39.047  30.320  31.949  1.00  0.00     0.049 A 
ATOM     50  H   UNL A   1      39.415  31.114  33.839  1.00  0.00     0.167 HD
ATOM     51  C   UNL A   1      40.194  33.062  37.689  1.00  0.00     0.037 A 
ATOM     52  C   UNL A   1      40.072  29.502  31.646  1.00  0.00     0.037 A 
ATOM     53  C   UNL A   1      41.327  32.200  37.461  1.00  0.00     0.049 A 
ATOM     54  C   UNL A   1      41.221  29.392  32.607  1.00  0.00     0.074 A 
ATOM     55  C   UNL A   1      42.406  31.954  38.294  1.00  0.00     0.029 A 
ATOM     56  N   UNL A   1      41.523  31.437  36.318  1.00  0.00    -0.354 N 
ATOM     57  N   UNL A   1      41.378  29.962  33.776  1.00  0.00    -0.248 NA
ATOM     58  C   UNL A   1      42.343  28.538  32.197  1.00  0.00     0.031 C 
ATOM     59  C   UNL A   1      43.280  31.085  37.631  1.00  0.00     0.029 A 
ATOM     60  C   UNL A   1      42.718  30.740  36.413  1.00  0.00     0.049 A 
ATOM     61  H   UNL A   1      40.905  31.397  35.553  1.00  0.00     0.167 HD
ATOM     62  C   UNL A   1      42.606  29.525  34.251  1.00  0.00     0.074 A 
ATOM     63  C   UNL A   1      43.142  28.624  33.251  1.00  0.00     0.031 C 
ATOM     64  C   UNL A   1      43.233  29.843  35.410  1.00  0.00     0.037 A 
BRANCH  51  65
ATOM     65  C   UNL A   1      40.163  33.880  38.950  1.00  0.00     0.064 A 
ATOM     66  C   UNL A   1      39.503  33.447  40.109  1.00  0.00     0.173 A 
ATOM     67  C   UNL A   1      40.830  35.115  39.001  1.00  0.00     0.173 A 
ATOM     68  F   UNL A   1      38.840  32.281  40.114  1.00  0.00    -0.203 F 
ATOM     69  C   UNL A   1      39.483  34.233  41.260  1.00  0.00     0.198 A 
ATOM     70  C   UNL A   1      40.837  35.883  40.163  1.00  0.00     0.198 A 
ATOM     71  F   UNL A   1      41.483  35.577  37.924  1.00  0.00    -0.203 F 
ATOM     72  F   UNL A   1      38.798  33.824  42.336  1.00  0.00    -0.200 F 
ATOM     73  C   UNL A   1      40.155  35.446  41.288  1.00  0.00     0.200 A 
ATOM     74  F   UNL A   1      41.500  37.047  40.192  1.00  0.00    -0.200 F 
ATOM     75  F   UNL A   1      40.137  36.199  42.397  1.00  0.00    -0.200 F 
ENDBRANCH  51  65
BRANCH  52  76
ATOM     76  C   UNL A   1      40.071  28.761  30.356  1.00  0.00     0.064 A 
ATOM     77  C   UNL A   1      39.462  27.504  30.247  1.00  0.00     0.173 A 
ATOM     78  C   UNL A   1      40.666  29.300  29.204  1.00  0.00     0.173 A 
ATOM     79  F   UNL A   1      38.902  26.937  31.325  1.00  0.00    -0.203 F 
ATOM     80  C   UNL A   1      39.455  26.811  29.038  1.00  0.00     0.198 A 
ATOM     81  C   UNL A   1      40.627  28.621  27.989  1.00  0.00     0.198 A 
ATOM     82  F   UNL A   1      41.264  30.499  29.253  1.00  0.00    -0.203 F 
ATOM     83  F   UNL A   1      38.903  25.591  28.972  1.00  0.00    -0.200 F 
ATOM     84  C   UNL A   1      40.028  27.374  27.908  1.00  0.00     0.200 A 
ATOM     85  F   UNL A   1      41.167  29.178  26.896  1.00  0.00    -0.200 F 
ATOM     86  F   UNL A   1      40.010  26.711  26.744  1.00  0.00    -0.200 F 
ENDBRANCH  52  76
BRANCH  64  87
ATOM     87  C   UNL A   1      44.551  29.175  35.677  1.00  0.00     0.064 A 
ATOM     88  C   UNL A   1      44.634  27.940  36.337  1.00  0.00     0.173 A 
ATOM     89  C   UNL A   1      45.745  29.768  35.239  1.00  0.00     0.173 A 
ATOM     90  F   UNL A   1      43.522  27.340  36.790  1.00  0.00    -0.203 F 
ATOM     91  C   UNL A   1      45.867  27.338  36.577  1.00  0.00     0.198 A 
ATOM     92  C   UNL A   1      46.973  29.147  35.451  1.00  0.00     0.198 A 
ATOM     93  F   UNL A   1      45.720  30.946  34.598  1.00  0.00    -0.203 F 
ATOM     94  F   UNL A   1      45.927  26.186  37.258  1.00  0.00    -0.200 F 
ATOM     95  C   UNL A   1      47.034  27.939  36.125  1.00  0.00     0.200 A 
ATOM     96  F   UNL A   1      48.098  29.722  35.003  1.00  0.00    -0.200 F 
ATOM     97  F   UNL A   1      48.219  27.355  36.352  1.00  0.00    -0.200 F 
ENDBRANCH  64  87
ENDBRANCH  38  39
ENDBRANCH  31  33
ENDBRANCH  30  31
ENDBRANCH  29  30
ENDBRANCH   1  29
TORSDOF 14
ENDMDL
MODEL 3
REMARK VINA RESULT:     -12.9      7.532     12.757
REMARK SMILES Cc1cc(C(=O)OCCOC(=O)c2ccc(-c3c4nc(c(-c5c(F)c(F)c(F)c(F)c5F)c5ccc([nH]5)c(-c5c(F)c(F)c(F)c(F)c5F)c5nc(c(-c6c(F)c(F)c(F)c(F)c6F)c6ccc3[nH]6)C=C5)C=C4)cc2)c(O)c(S(=O)(=O)N2CCCc3cc(F)cc(F)c32)c1
REMARK SMILES IDX 8 1 7 2 5 3 6 4 4 5 1 6 2 7 3 8 94 9 78 10 76 11 79 12 80 13
REMARK SMILES IDX 81 14 82 15 83 16 93 17 84 18 86 19 91 20 85 21 87 22 90 23
REMARK SMILES IDX 92 24 88 25 89 26 77 27 9 29 10 30 11 31 12 32 13 33 14 34
REMARK SMILES IDX 75 35 15 36 74 37 16 38 17 39 18 40 68 41 19 42 73 43 67 44
REMARK SMILES IDX 69 45 20 46 72 47 66 48 65 49 21 51 53 52 33 53 52 54 34 55
REMARK SMILES IDX 37 56 51 57 70 58 35 59 36 60 50 62 71 63 38 64 22 65 23 66
REMARK SMILES IDX 31 67 24 68 25 69 29 70 32 71 26 72 27 73 30 74 28 75 54 76
REMARK SMILES IDX 55 77 63 78 56 79 57 80 61 81 64 82 58 83 59 84 62 85 60 86
REMARK SMILES IDX 39 87 40 88 48 89 41 90 42 91 46 92 49 93 43 94 44 95 47 96
REMARK SMILES IDX 45 97
REMARK H PARENT 77 28 69 50 37 61
REMARK Flexibility Score: inf
ROOT
ATOM      1  C   UNL A   1      42.185  19.586  26.938  1.00  0.00     0.275 C 
ENDROOT
BRANCH   1   2
ATOM      2  O   UNL A   1      41.449  20.553  26.164  1.00  0.00    -0.458 OA
BRANCH   2   3
ATOM      3  C   UNL A   1      40.137  20.292  25.948  1.00  0.00     0.342 C 
ATOM      4  O   UNL A   1      39.632  19.195  25.751  1.00  0.00    -0.246 OA
BRANCH   3   5
ATOM      5  C   UNL A   1      39.331  21.531  26.020  1.00  0.00     0.103 A 
ATOM      6  C   UNL A   1      39.452  24.899  27.765  1.00  0.00     0.044 C 
ATOM      7  C   UNL A   1      38.903  23.745  26.974  1.00  0.00    -0.049 A 
ATOM      8  C   UNL A   1      39.718  22.606  26.824  1.00  0.00     0.023 A 
ATOM      9  C   UNL A   1      37.622  23.765  26.397  1.00  0.00     0.029 A 
ATOM     10  C   UNL A   1      37.233  22.684  25.610  1.00  0.00     0.130 A 
ATOM     11  C   UNL A   1      38.108  21.596  25.376  1.00  0.00     0.150 A 
BRANCH  10  12
ATOM     12  S   UNL A   1      35.667  22.454  24.864  1.00  0.00     0.268 S 
ATOM     13  O   UNL A   1      35.988  22.660  23.458  1.00  0.00    -0.201 OA
ATOM     14  O   UNL A   1      35.242  21.141  25.309  1.00  0.00    -0.201 OA
BRANCH  12  15
ATOM     15  N   UNL A   1      34.380  23.573  25.268  1.00  0.00    -0.263 N 
ATOM     16  C   UNL A   1      34.497  24.980  24.791  1.00  0.00     0.136 C 
ATOM     17  C   UNL A   1      33.156  22.881  24.783  1.00  0.00     0.091 A 
ATOM     18  C   UNL A   1      33.551  25.339  23.643  1.00  0.00     0.028 C 
ATOM     19  C   UNL A   1      32.936  22.961  23.391  1.00  0.00    -0.018 A 
ATOM     20  C   UNL A   1      32.685  21.762  25.490  1.00  0.00     0.150 A 
ATOM     21  C   UNL A   1      33.391  24.192  22.652  1.00  0.00     0.040 C 
ATOM     22  C   UNL A   1      32.531  21.809  22.707  1.00  0.00     0.045 A 
ATOM     23  C   UNL A   1      32.236  20.637  24.810  1.00  0.00     0.080 A 
ATOM     24  F   UNL A   1      32.820  21.705  26.824  1.00  0.00    -0.205 F 
ATOM     25  C   UNL A   1      32.234  20.650  23.422  1.00  0.00     0.126 A 
ATOM     26  F   UNL A   1      31.987  19.515  22.754  1.00  0.00    -0.207 F 
ENDBRANCH  12  15
ENDBRANCH  10  12
BRANCH  11  27
ATOM     27  O   UNL A   1      37.776  20.545  24.555  1.00  0.00    -0.506 OA
ATOM     28  H   UNL A   1      37.929  19.663  24.836  1.00  0.00     0.293 HD
ENDBRANCH  11  27
ENDBRANCH   3   5
ENDBRANCH   2   3
ENDBRANCH   1   2
BRANCH   1  29
ATOM     29  C   UNL A   1      42.964  18.639  26.029  1.00  0.00     0.275 C 
BRANCH  29  30
ATOM     30  O   UNL A   1      43.186  19.253  24.748  1.00  0.00    -0.458 OA
BRANCH  30  31
ATOM     31  C   UNL A   1      44.485  19.369  24.397  1.00  0.00     0.338 C 
ATOM     32  O   UNL A   1      45.215  18.522  23.914  1.00  0.00    -0.246 OA
BRANCH  31  33
ATOM     33  C   UNL A   1      44.919  20.759  24.567  1.00  0.00     0.060 A 
ATOM     34  C   UNL A   1      45.564  21.088  25.751  1.00  0.00     0.016 A 
ATOM     35  C   UNL A   1      44.528  21.756  23.683  1.00  0.00     0.016 A 
ATOM     36  C   UNL A   1      45.710  22.413  26.133  1.00  0.00     0.010 A 
ATOM     37  C   UNL A   1      44.788  23.093  24.009  1.00  0.00     0.010 A 
ATOM     38  C   UNL A   1      45.341  23.438  25.258  1.00  0.00    -0.014 A 
BRANCH  38  39
ATOM     39  C   UNL A   1      45.503  24.859  25.674  1.00  0.00     0.031 A 
ATOM     40  C   UNL A   1      46.830  25.547  25.508  1.00  0.00     0.074 A 
ATOM     41  C   UNL A   1      44.455  25.542  26.177  1.00  0.00     0.049 A 
ATOM     42  N   UNL A   1      47.226  26.710  25.962  1.00  0.00    -0.248 NA
ATOM     43  C   UNL A   1      47.858  24.827  24.740  1.00  0.00     0.031 C 
ATOM     44  C   UNL A   1      43.096  25.017  26.336  1.00  0.00     0.029 A 
ATOM     45  N   UNL A   1      44.364  26.830  26.643  1.00  0.00    -0.354 N 
ATOM     46  C   UNL A   1      48.560  26.828  25.594  1.00  0.00     0.074 A 
ATOM     47  C   UNL A   1      48.910  25.618  24.884  1.00  0.00     0.031 C 
ATOM     48  C   UNL A   1      42.302  25.982  26.820  1.00  0.00     0.029 A 
ATOM     49  C   UNL A   1      43.114  27.157  27.110  1.00  0.00     0.049 A 
ATOM     50  H   UNL A   1      45.121  27.460  26.643  1.00  0.00     0.167 HD
ATOM     51  C   UNL A   1      49.413  27.854  25.835  1.00  0.00     0.037 A 
ATOM     52  C   UNL A   1      42.677  28.257  27.750  1.00  0.00     0.037 A 
ATOM     53  C   UNL A   1      49.036  29.076  26.501  1.00  0.00     0.049 A 
ATOM     54  C   UNL A   1      43.653  29.358  28.052  1.00  0.00     0.074 A 
ATOM     55  C   UNL A   1      49.815  30.188  26.770  1.00  0.00     0.029 A 
ATOM     56  N   UNL A   1      47.768  29.348  26.996  1.00  0.00    -0.354 N 
ATOM     57  N   UNL A   1      44.922  29.445  27.739  1.00  0.00    -0.248 NA
ATOM     58  C   UNL A   1      43.139  30.504  28.812  1.00  0.00     0.031 C 
ATOM     59  C   UNL A   1      49.034  31.110  27.475  1.00  0.00     0.029 A 
ATOM     60  C   UNL A   1      47.751  30.600  27.591  1.00  0.00     0.049 A 
ATOM     61  H   UNL A   1      46.995  28.742  26.933  1.00  0.00     0.167 HD
ATOM     62  C   UNL A   1      45.357  30.661  28.246  1.00  0.00     0.074 A 
ATOM     63  C   UNL A   1      44.208  31.286  28.869  1.00  0.00     0.031 C 
ATOM     64  C   UNL A   1      46.596  31.209  28.202  1.00  0.00     0.037 A 
BRANCH  51  65
ATOM     65  C   UNL A   1      50.847  27.682  25.420  1.00  0.00     0.064 A 
ATOM     66  C   UNL A   1      51.287  27.941  24.114  1.00  0.00     0.173 A 
ATOM     67  C   UNL A   1      51.805  27.269  26.361  1.00  0.00     0.173 A 
ATOM     68  F   UNL A   1      50.414  28.328  23.171  1.00  0.00    -0.203 F 
ATOM     69  C   UNL A   1      52.623  27.762  23.757  1.00  0.00     0.198 A 
ATOM     70  C   UNL A   1      53.145  27.123  26.010  1.00  0.00     0.198 A 
ATOM     71  F   UNL A   1      51.443  27.012  27.627  1.00  0.00    -0.203 F 
ATOM     72  F   UNL A   1      53.007  27.961  22.489  1.00  0.00    -0.200 F 
ATOM     73  C   UNL A   1      53.550  27.359  24.706  1.00  0.00     0.200 A 
ATOM     74  F   UNL A   1      54.042  26.749  26.933  1.00  0.00    -0.200 F 
ATOM     75  F   UNL A   1      54.834  27.191  24.361  1.00  0.00    -0.200 F 
ENDBRANCH  51  65
BRANCH  52  76
ATOM     76  C   UNL A   1      41.257  28.344  28.186  1.00  0.00     0.064 A 
ATOM     77  C   UNL A   1      40.864  27.899  29.455  1.00  0.00     0.173 A 
ATOM     78  C   UNL A   1      40.268  28.888  27.351  1.00  0.00     0.173 A 
ATOM     79  F   UNL A   1      41.768  27.350  30.281  1.00  0.00    -0.203 F 
ATOM     80  C   UNL A   1      39.537  27.985  29.869  1.00  0.00     0.198 A 
ATOM     81  C   UNL A   1      38.948  29.005  27.779  1.00  0.00     0.198 A 
ATOM     82  F   UNL A   1      40.589  29.328  26.126  1.00  0.00    -0.203 F 
ATOM     83  F   UNL A   1      39.180  27.513  31.071  1.00  0.00    -0.200 F 
ATOM     84  C   UNL A   1      38.582  28.547  29.034  1.00  0.00     0.200 A 
ATOM     85  F   UNL A   1      38.034  29.566  26.976  1.00  0.00    -0.200 F 
ATOM     86  F   UNL A   1      37.308  28.641  29.439  1.00  0.00    -0.200 F 
ENDBRANCH  52  76
BRANCH  64  87
ATOM     87  C   UNL A   1      46.760  32.573  28.807  1.00  0.00     0.064 A 
ATOM     88  C   UNL A   1      47.143  32.747  30.145  1.00  0.00     0.173 A 
ATOM     89  C   UNL A   1      46.558  33.722  28.026  1.00  0.00     0.173 A 
ATOM     90  F   UNL A   1      47.331  31.681  30.938  1.00  0.00    -0.203 F 
ATOM     91  C   UNL A   1      47.287  34.022  30.688  1.00  0.00     0.198 A 
ATOM     92  C   UNL A   1      46.736  34.993  28.563  1.00  0.00     0.198 A 
ATOM     93  F   UNL A   1      46.196  33.610  26.739  1.00  0.00    -0.203 F 
ATOM     94  F   UNL A   1      47.599  34.165  31.983  1.00  0.00    -0.200 F 
ATOM     95  C   UNL A   1      47.092  35.143  29.894  1.00  0.00     0.200 A 
ATOM     96  F   UNL A   1      46.560  36.075  27.791  1.00  0.00    -0.200 F 
ATOM     97  F   UNL A   1      47.237  36.368  30.416  1.00  0.00    -0.200 F 
ENDBRANCH  64  87
ENDBRANCH  38  39
ENDBRANCH  31  33
ENDBRANCH  30  31
ENDBRANCH  29  30
ENDBRANCH   1  29
TORSDOF 14
ENDMDL
