MODEL 1
REMARK VINA RESULT:     -12.3      0.000      0.000
REMARK SMILES Cc1cscc1-c1nc(C)c(C(=O)OCCOC(=O)c2ccc(-c3c4nc(c(-c5c(F)c(F)c(F)c(F)c5F)c5ccc([nH]5)c(-c5c(F)c(F)c(F)c(F)c5F)c5nc(c(-c6c(F)c(F)c(F)c(F)c6F)c6ccc3[nH]6)C=C5)C=C4)cc2)c(C)n1
REMARK SMILES IDX 16 1 15 2 14 3 12 4 13 5 11 6 7 7 8 8 85 9 9 10 83 11 10 12
REMARK SMILES IDX 84 13 6 14 1 15 2 16 3 17 4 18 5 19 17 20 18 21 19 22 20 23
REMARK SMILES IDX 21 24 82 25 22 26 81 27 23 28 24 29 25 30 75 31 26 32 80 33
REMARK SMILES IDX 74 34 76 35 27 36 79 37 73 38 72 39 28 41 60 42 40 43 59 44
REMARK SMILES IDX 41 45 44 46 58 47 77 48 42 49 43 50 57 52 78 53 45 54 29 55
REMARK SMILES IDX 30 56 38 57 31 58 32 59 36 60 39 61 33 62 34 63 37 64 35 65
REMARK SMILES IDX 61 66 62 67 70 68 63 69 64 70 68 71 71 72 65 73 66 74 69 75
REMARK SMILES IDX 67 76 46 77 47 78 55 79 48 80 49 81 53 82 56 83 50 84 51 85
REMARK SMILES IDX 54 86 52 87
REMARK H PARENT 76 40 44 51
REMARK Flexibility Score: inf
ROOT
ATOM      1  C   UNL A   1      31.811  30.127  25.702  1.00  0.00     0.275 C 
ENDROOT
BRANCH   1   2
ATOM      2  C   UNL A   1      32.756  29.388  24.758  1.00  0.00     0.275 C 
BRANCH   2   3
ATOM      3  O   UNL A   1      32.013  28.699  23.724  1.00  0.00    -0.458 OA
BRANCH   3   4
ATOM      4  C   UNL A   1      31.506  27.482  24.042  1.00  0.00     0.341 C 
ATOM      5  O   UNL A   1      30.328  27.180  24.045  1.00  0.00    -0.246 OA
BRANCH   4   6
ATOM      6  C   UNL A   1      32.581  26.524  24.385  1.00  0.00     0.102 A 
ATOM      7  C   UNL A   1      34.426  24.614  24.938  1.00  0.00     0.160 A 
ATOM      8  N   UNL A   1      33.730  25.110  25.973  1.00  0.00    -0.232 NA
ATOM      9  N   UNL A   1      34.276  24.981  23.667  1.00  0.00    -0.232 NA
ATOM     10  C   UNL A   1      32.823  26.085  25.686  1.00  0.00     0.056 A 
ATOM     11  C   UNL A   1      33.333  25.902  23.395  1.00  0.00     0.056 A 
ATOM     12  C   UNL A   1      32.074  26.619  26.874  1.00  0.00     0.068 C 
ATOM     13  C   UNL A   1      33.268  26.199  21.940  1.00  0.00     0.068 C 
BRANCH   7  14
ATOM     14  C   UNL A   1      35.226  23.418  25.102  1.00  0.00     0.033 A 
ATOM     15  C   UNL A   1      33.356  21.689  24.632  1.00  0.00     0.046 C 
ATOM     16  C   UNL A   1      34.776  22.065  24.902  1.00  0.00    -0.029 A 
ATOM     17  C   UNL A   1      35.839  21.182  24.923  1.00  0.00     0.069 A 
ATOM     18  S   UNL A   1      37.346  21.962  25.144  1.00  0.00    -0.151 S 
ATOM     19  C   UNL A   1      36.602  23.499  25.188  1.00  0.00     0.077 A 
ENDBRANCH   7  14
ENDBRANCH   4   6
ENDBRANCH   3   4
ENDBRANCH   2   3
ENDBRANCH   1   2
BRANCH   1  20
ATOM     20  O   UNL A   1      32.419  30.241  27.002  1.00  0.00    -0.458 OA
BRANCH  20  21
ATOM     21  C   UNL A   1      33.060  31.405  27.240  1.00  0.00     0.338 C 
ATOM     22  O   UNL A   1      32.577  32.524  27.310  1.00  0.00    -0.246 OA
BRANCH  21  23
ATOM     23  C   UNL A   1      34.471  31.140  27.553  1.00  0.00     0.060 A 
ATOM     24  C   UNL A   1      34.840  29.824  27.777  1.00  0.00     0.016 A 
ATOM     25  C   UNL A   1      35.352  32.171  27.873  1.00  0.00     0.016 A 
ATOM     26  C   UNL A   1      35.998  29.553  28.504  1.00  0.00     0.010 A 
ATOM     27  C   UNL A   1      36.597  31.869  28.451  1.00  0.00     0.010 A 
ATOM     28  C   UNL A   1      36.915  30.556  28.847  1.00  0.00    -0.014 A 
BRANCH  28  29
ATOM     29  C   UNL A   1      38.137  30.231  29.662  1.00  0.00     0.031 A 
ATOM     30  C   UNL A   1      39.251  29.378  29.085  1.00  0.00     0.074 A 
ATOM     31  C   UNL A   1      38.307  30.728  30.909  1.00  0.00     0.049 A 
ATOM     32  N   UNL A   1      40.241  28.775  29.700  1.00  0.00    -0.248 NA
ATOM     33  C   UNL A   1      39.242  29.161  27.630  1.00  0.00     0.031 C 
ATOM     34  C   UNL A   1      37.388  31.634  31.603  1.00  0.00     0.029 A 
ATOM     35  N   UNL A   1      39.329  30.559  31.817  1.00  0.00    -0.354 N 
ATOM     36  C   UNL A   1      40.913  28.044  28.725  1.00  0.00     0.074 A 
ATOM     37  C   UNL A   1      40.223  28.283  27.475  1.00  0.00     0.031 C 
ATOM     38  C   UNL A   1      37.921  32.007  32.771  1.00  0.00     0.029 A 
ATOM     39  C   UNL A   1      39.130  31.232  33.001  1.00  0.00     0.049 A 
ATOM     40  H   UNL A   1      40.126  30.009  31.637  1.00  0.00     0.167 HD
ATOM     41  C   UNL A   1      41.999  27.242  28.862  1.00  0.00     0.037 A 
ATOM     42  C   UNL A   1      39.782  31.177  34.179  1.00  0.00     0.037 A 
ATOM     43  C   UNL A   1      42.737  27.077  30.091  1.00  0.00     0.049 A 
ATOM     44  C   UNL A   1      40.935  30.229  34.331  1.00  0.00     0.074 A 
ATOM     45  C   UNL A   1      43.852  26.290  30.330  1.00  0.00     0.029 A 
ATOM     46  N   UNL A   1      42.449  27.729  31.281  1.00  0.00    -0.354 N 
ATOM     47  N   UNL A   1      41.488  29.450  33.437  1.00  0.00    -0.248 NA
ATOM     48  C   UNL A   1      41.533  30.130  35.670  1.00  0.00     0.031 C 
ATOM     49  C   UNL A   1      44.207  26.427  31.676  1.00  0.00     0.029 A 
ATOM     50  C   UNL A   1      43.354  27.348  32.260  1.00  0.00     0.049 A 
ATOM     51  H   UNL A   1      41.713  28.369  31.411  1.00  0.00     0.167 HD
ATOM     52  C   UNL A   1      42.508  28.779  34.096  1.00  0.00     0.074 A 
ATOM     53  C   UNL A   1      42.512  29.262  35.461  1.00  0.00     0.031 C 
ATOM     54  C   UNL A   1      43.359  27.842  33.614  1.00  0.00     0.037 A 
BRANCH  41  55
ATOM     55  C   UNL A   1      42.438  26.433  27.671  1.00  0.00     0.064 A 
ATOM     56  C   UNL A   1      43.452  26.858  26.800  1.00  0.00     0.173 A 
ATOM     57  C   UNL A   1      41.863  25.172  27.433  1.00  0.00     0.173 A 
ATOM     58  F   UNL A   1      44.032  28.054  26.973  1.00  0.00    -0.203 F 
ATOM     59  C   UNL A   1      43.852  26.067  25.724  1.00  0.00     0.198 A 
ATOM     60  C   UNL A   1      42.290  24.370  26.378  1.00  0.00     0.198 A 
ATOM     61  F   UNL A   1      40.897  24.706  28.241  1.00  0.00    -0.203 F 
ATOM     62  F   UNL A   1      44.789  26.515  24.876  1.00  0.00    -0.200 F 
ATOM     63  C   UNL A   1      43.277  24.821  25.519  1.00  0.00     0.200 A 
ATOM     64  F   UNL A   1      41.746  23.157  26.197  1.00  0.00    -0.200 F 
ATOM     65  F   UNL A   1      43.672  24.058  24.490  1.00  0.00    -0.200 F 
ENDBRANCH  41  55
BRANCH  42  66
ATOM     66  C   UNL A   1      39.291  31.975  35.339  1.00  0.00     0.064 A 
ATOM     67  C   UNL A   1      39.670  33.313  35.512  1.00  0.00     0.173 A 
ATOM     68  C   UNL A   1      38.437  31.412  36.302  1.00  0.00     0.173 A 
ATOM     69  F   UNL A   1      40.508  33.890  34.640  1.00  0.00    -0.203 F 
ATOM     70  C   UNL A   1      39.222  34.051  36.607  1.00  0.00     0.198 A 
ATOM     71  C   UNL A   1      37.956  32.164  37.371  1.00  0.00     0.198 A 
ATOM     72  F   UNL A   1      38.048  30.133  36.192  1.00  0.00    -0.203 F 
ATOM     73  F   UNL A   1      39.643  35.312  36.778  1.00  0.00    -0.200 F 
ATOM     74  C   UNL A   1      38.357  33.480  37.528  1.00  0.00     0.200 A 
ATOM     75  F   UNL A   1      37.102  31.612  38.243  1.00  0.00    -0.200 F 
ATOM     76  F   UNL A   1      37.917  34.195  38.572  1.00  0.00    -0.200 F 
ENDBRANCH  42  66
BRANCH  54  77
ATOM     77  C   UNL A   1      44.404  27.318  34.555  1.00  0.00     0.064 A 
ATOM     78  C   UNL A   1      45.632  27.970  34.735  1.00  0.00     0.173 A 
ATOM     79  C   UNL A   1      44.163  26.152  35.299  1.00  0.00     0.173 A 
ATOM     80  F   UNL A   1      45.920  29.076  34.032  1.00  0.00    -0.203 F 
ATOM     81  C   UNL A   1      46.594  27.457  35.602  1.00  0.00     0.198 A 
ATOM     82  C   UNL A   1      45.113  25.661  36.190  1.00  0.00     0.198 A 
ATOM     83  F   UNL A   1      43.003  25.492  35.168  1.00  0.00    -0.203 F 
ATOM     84  F   UNL A   1      47.784  28.063  35.714  1.00  0.00    -0.200 F 
ATOM     85  C   UNL A   1      46.331  26.309  36.334  1.00  0.00     0.200 A 
ATOM     86  F   UNL A   1      44.851  24.560  36.907  1.00  0.00    -0.200 F 
ATOM     87  F   UNL A   1      47.256  25.819  37.171  1.00  0.00    -0.200 F 
ENDBRANCH  54  77
ENDBRANCH  28  29
ENDBRANCH  21  23
ENDBRANCH  20  21
ENDBRANCH   1  20
TORSDOF 12
ENDMDL
MODEL 2
REMARK VINA RESULT:     -12.2      0.442      1.364
REMARK SMILES Cc1cscc1-c1nc(C)c(C(=O)OCCOC(=O)c2ccc(-c3c4nc(c(-c5c(F)c(F)c(F)c(F)c5F)c5ccc([nH]5)c(-c5c(F)c(F)c(F)c(F)c5F)c5nc(c(-c6c(F)c(F)c(F)c(F)c6F)c6ccc3[nH]6)C=C5)C=C4)cc2)c(C)n1
REMARK SMILES IDX 16 1 15 2 14 3 12 4 13 5 11 6 7 7 8 8 85 9 9 10 83 11 10 12
REMARK SMILES IDX 84 13 6 14 1 15 2 16 3 17 4 18 5 19 17 20 18 21 19 22 20 23
REMARK SMILES IDX 21 24 82 25 22 26 81 27 23 28 24 29 25 30 75 31 26 32 80 33
REMARK SMILES IDX 74 34 76 35 27 36 79 37 73 38 72 39 28 41 60 42 40 43 59 44
REMARK SMILES IDX 41 45 44 46 58 47 77 48 42 49 43 50 57 52 78 53 45 54 29 55
REMARK SMILES IDX 30 56 38 57 31 58 32 59 36 60 39 61 33 62 34 63 37 64 35 65
REMARK SMILES IDX 61 66 62 67 70 68 63 69 64 70 68 71 71 72 65 73 66 74 69 75
REMARK SMILES IDX 67 76 46 77 47 78 55 79 48 80 49 81 53 82 56 83 50 84 51 85
REMARK SMILES IDX 54 86 52 87
REMARK H PARENT 76 40 44 51
REMARK Flexibility Score: inf
ROOT
ATOM      1  C   UNL A   1      31.923  30.132  25.692  1.00  0.00     0.275 C 
ENDROOT
BRANCH   1   2
ATOM      2  C   UNL A   1      32.871  29.323  24.810  1.00  0.00     0.275 C 
BRANCH   2   3
ATOM      3  O   UNL A   1      32.184  28.828  23.636  1.00  0.00    -0.458 OA
BRANCH   3   4
ATOM      4  C   UNL A   1      31.465  27.688  23.782  1.00  0.00     0.341 C 
ATOM      5  O   UNL A   1      30.257  27.588  23.678  1.00  0.00    -0.246 OA
BRANCH   4   6
ATOM      6  C   UNL A   1      32.342  26.533  24.082  1.00  0.00     0.102 A 
ATOM      7  C   UNL A   1      33.808  24.295  24.528  1.00  0.00     0.160 A 
ATOM      8  N   UNL A   1      33.115  24.788  25.565  1.00  0.00    -0.232 NA
ATOM      9  N   UNL A   1      33.826  24.814  23.301  1.00  0.00    -0.232 NA
ATOM     10  C   UNL A   1      32.401  25.926  25.335  1.00  0.00     0.056 A 
ATOM     11  C   UNL A   1      33.067  25.902  23.077  1.00  0.00     0.056 A 
ATOM     12  C   UNL A   1      31.648  26.450  26.525  1.00  0.00     0.068 C 
ATOM     13  C   UNL A   1      33.173  26.356  21.666  1.00  0.00     0.068 C 
BRANCH   7  14
ATOM     14  C   UNL A   1      34.392  22.972  24.603  1.00  0.00     0.033 A 
ATOM     15  C   UNL A   1      36.841  23.703  25.021  1.00  0.00     0.046 C 
ATOM     16  C   UNL A   1      35.770  22.670  24.895  1.00  0.00    -0.029 A 
ATOM     17  C   UNL A   1      35.944  21.316  25.109  1.00  0.00     0.069 A 
ATOM     18  S   UNL A   1      34.484  20.432  24.997  1.00  0.00    -0.151 S 
ATOM     19  C   UNL A   1      33.587  21.852  24.686  1.00  0.00     0.077 A 
ENDBRANCH   7  14
ENDBRANCH   4   6
ENDBRANCH   3   4
ENDBRANCH   2   3
ENDBRANCH   1   2
BRANCH   1  20
ATOM     20  O   UNL A   1      32.480  30.257  27.013  1.00  0.00    -0.458 OA
BRANCH  20  21
ATOM     21  C   UNL A   1      33.117  31.420  27.265  1.00  0.00     0.338 C 
ATOM     22  O   UNL A   1      32.629  32.536  27.350  1.00  0.00    -0.246 OA
BRANCH  21  23
ATOM     23  C   UNL A   1      34.529  31.158  27.571  1.00  0.00     0.060 A 
ATOM     24  C   UNL A   1      34.905  29.840  27.774  1.00  0.00     0.016 A 
ATOM     25  C   UNL A   1      35.406  32.187  27.905  1.00  0.00     0.016 A 
ATOM     26  C   UNL A   1      36.065  29.563  28.494  1.00  0.00     0.010 A 
ATOM     27  C   UNL A   1      36.653  31.882  28.477  1.00  0.00     0.010 A 
ATOM     28  C   UNL A   1      36.978  30.564  28.851  1.00  0.00    -0.014 A 
BRANCH  28  29
ATOM     29  C   UNL A   1      38.203  30.232  29.659  1.00  0.00     0.031 A 
ATOM     30  C   UNL A   1      39.306  29.369  29.077  1.00  0.00     0.074 A 
ATOM     31  C   UNL A   1      38.385  30.732  30.903  1.00  0.00     0.049 A 
ATOM     32  N   UNL A   1      40.296  28.761  29.687  1.00  0.00    -0.248 NA
ATOM     33  C   UNL A   1      39.286  29.148  27.623  1.00  0.00     0.031 C 
ATOM     34  C   UNL A   1      37.478  31.648  31.600  1.00  0.00     0.029 A 
ATOM     35  N   UNL A   1      39.412  30.558  31.805  1.00  0.00    -0.354 N 
ATOM     36  C   UNL A   1      40.956  28.021  28.709  1.00  0.00     0.074 A 
ATOM     37  C   UNL A   1      40.259  28.262  27.464  1.00  0.00     0.031 C 
ATOM     38  C   UNL A   1      38.022  32.019  32.764  1.00  0.00     0.029 A 
ATOM     39  C   UNL A   1      39.227  31.236  32.988  1.00  0.00     0.049 A 
ATOM     40  H   UNL A   1      40.203  30.001  31.621  1.00  0.00     0.167 HD
ATOM     41  C   UNL A   1      42.036  27.211  28.842  1.00  0.00     0.037 A 
ATOM     42  C   UNL A   1      39.886  31.180  34.162  1.00  0.00     0.037 A 
ATOM     43  C   UNL A   1      42.782  27.044  30.066  1.00  0.00     0.049 A 
ATOM     44  C   UNL A   1      41.033  30.223  34.309  1.00  0.00     0.074 A 
ATOM     45  C   UNL A   1      43.892  26.250  30.300  1.00  0.00     0.029 A 
ATOM     46  N   UNL A   1      42.507  27.702  31.256  1.00  0.00    -0.354 N 
ATOM     47  N   UNL A   1      41.573  29.436  33.413  1.00  0.00    -0.248 NA
ATOM     48  C   UNL A   1      41.639  30.123  35.644  1.00  0.00     0.031 C 
ATOM     49  C   UNL A   1      44.257  26.388  31.644  1.00  0.00     0.029 A 
ATOM     50  C   UNL A   1      43.415  27.317  32.231  1.00  0.00     0.049 A 
ATOM     51  H   UNL A   1      41.776  28.348  31.389  1.00  0.00     0.167 HD
ATOM     52  C   UNL A   1      42.593  28.760  34.068  1.00  0.00     0.074 A 
ATOM     53  C   UNL A   1      42.610  29.247  35.431  1.00  0.00     0.031 C 
ATOM     54  C   UNL A   1      43.433  27.815  33.582  1.00  0.00     0.037 A 
BRANCH  41  55
ATOM     55  C   UNL A   1      42.462  26.395  27.651  1.00  0.00     0.064 A 
ATOM     56  C   UNL A   1      43.463  26.817  26.764  1.00  0.00     0.173 A 
ATOM     57  C   UNL A   1      41.885  25.133  27.428  1.00  0.00     0.173 A 
ATOM     58  F   UNL A   1      44.044  28.014  26.922  1.00  0.00    -0.203 F 
ATOM     59  C   UNL A   1      43.851  26.019  25.688  1.00  0.00     0.198 A 
ATOM     60  C   UNL A   1      42.298  24.324  26.372  1.00  0.00     0.198 A 
ATOM     61  F   UNL A   1      40.930  24.671  28.250  1.00  0.00    -0.203 F 
ATOM     62  F   UNL A   1      44.776  26.463  24.825  1.00  0.00    -0.200 F 
ATOM     63  C   UNL A   1      43.274  24.771  25.498  1.00  0.00     0.200 A 
ATOM     64  F   UNL A   1      41.753  23.111  26.205  1.00  0.00    -0.200 F 
ATOM     65  F   UNL A   1      43.657  24.002  24.469  1.00  0.00    -0.200 F 
ENDBRANCH  41  55
BRANCH  42  66
ATOM     66  C   UNL A   1      39.409  31.984  35.323  1.00  0.00     0.064 A 
ATOM     67  C   UNL A   1      38.533  31.441  36.272  1.00  0.00     0.173 A 
ATOM     68  C   UNL A   1      39.814  33.317  35.502  1.00  0.00     0.173 A 
ATOM     69  F   UNL A   1      38.089  30.184  36.131  1.00  0.00    -0.203 F 
ATOM     70  C   UNL A   1      38.076  32.201  37.348  1.00  0.00     0.198 A 
ATOM     71  C   UNL A   1      39.392  34.061  36.601  1.00  0.00     0.198 A 
ATOM     72  F   UNL A   1      40.645  33.892  34.621  1.00  0.00    -0.203 F 
ATOM     73  F   UNL A   1      37.196  31.674  38.211  1.00  0.00    -0.200 F 
ATOM     74  C   UNL A   1      38.514  33.505  37.518  1.00  0.00     0.200 A 
ATOM     75  F   UNL A   1      39.839  35.312  36.771  1.00  0.00    -0.200 F 
ATOM     76  F   UNL A   1      38.085  34.230  38.559  1.00  0.00    -0.200 F 
ENDBRANCH  42  66
BRANCH  54  77
ATOM     77  C   UNL A   1      44.481  27.285  34.519  1.00  0.00     0.064 A 
ATOM     78  C   UNL A   1      45.727  27.912  34.666  1.00  0.00     0.173 A 
ATOM     79  C   UNL A   1      44.224  26.142  35.290  1.00  0.00     0.173 A 
ATOM     80  F   UNL A   1      46.029  28.996  33.935  1.00  0.00    -0.203 F 
ATOM     81  C   UNL A   1      46.689  27.394  35.528  1.00  0.00     0.198 A 
ATOM     82  C   UNL A   1      45.177  25.647  36.176  1.00  0.00     0.198 A 
ATOM     83  F   UNL A   1      43.047  25.507  35.190  1.00  0.00    -0.203 F 
ATOM     84  F   UNL A   1      47.895  27.974  35.609  1.00  0.00    -0.200 F 
ATOM     85  C   UNL A   1      46.412  26.268  36.288  1.00  0.00     0.200 A 
ATOM     86  F   UNL A   1      44.900  24.566  36.920  1.00  0.00    -0.200 F 
ATOM     87  F   UNL A   1      47.338  25.774  37.120  1.00  0.00    -0.200 F 
ENDBRANCH  54  77
ENDBRANCH  28  29
ENDBRANCH  21  23
ENDBRANCH  20  21
ENDBRANCH   1  20
TORSDOF 12
ENDMDL
MODEL 3
REMARK VINA RESULT:     -12.1      0.909      2.192
REMARK SMILES Cc1cscc1-c1nc(C)c(C(=O)OCCOC(=O)c2ccc(-c3c4nc(c(-c5c(F)c(F)c(F)c(F)c5F)c5ccc([nH]5)c(-c5c(F)c(F)c(F)c(F)c5F)c5nc(c(-c6c(F)c(F)c(F)c(F)c6F)c6ccc3[nH]6)C=C5)C=C4)cc2)c(C)n1
REMARK SMILES IDX 16 1 15 2 14 3 12 4 13 5 11 6 7 7 8 8 85 9 9 10 83 11 10 12
REMARK SMILES IDX 84 13 6 14 1 15 2 16 3 17 4 18 5 19 17 20 18 21 19 22 20 23
REMARK SMILES IDX 21 24 82 25 22 26 81 27 23 28 24 29 25 30 75 31 26 32 80 33
REMARK SMILES IDX 74 34 76 35 27 36 79 37 73 38 72 39 28 41 60 42 40 43 59 44
REMARK SMILES IDX 41 45 44 46 58 47 77 48 42 49 43 50 57 52 78 53 45 54 29 55
REMARK SMILES IDX 30 56 38 57 31 58 32 59 36 60 39 61 33 62 34 63 37 64 35 65
REMARK SMILES IDX 61 66 62 67 70 68 63 69 64 70 68 71 71 72 65 73 66 74 69 75
REMARK SMILES IDX 67 76 46 77 47 78 55 79 48 80 49 81 53 82 56 83 50 84 51 85
REMARK SMILES IDX 54 86 52 87
REMARK H PARENT 76 40 44 51
REMARK Flexibility Score: inf
ROOT
ATOM      1  C   UNL A   1      32.175  29.729  25.544  1.00  0.00     0.275 C 
ENDROOT
BRANCH   1   2
ATOM      2  C   UNL A   1      31.397  28.422  25.408  1.00  0.00     0.275 C 
BRANCH   2   3
ATOM      3  O   UNL A   1      31.690  27.779  24.145  1.00  0.00    -0.458 OA
BRANCH   3   4
ATOM      4  C   UNL A   1      30.766  26.905  23.674  1.00  0.00     0.341 C 
ATOM      5  O   UNL A   1      29.648  27.189  23.289  1.00  0.00    -0.246 OA
BRANCH   4   6
ATOM      6  C   UNL A   1      31.289  25.520  23.667  1.00  0.00     0.102 A 
ATOM      7  C   UNL A   1      32.395  23.046  23.794  1.00  0.00     0.160 A 
ATOM      8  N   UNL A   1      32.649  23.774  22.696  1.00  0.00    -0.232 NA
ATOM      9  N   UNL A   1      31.650  23.446  24.824  1.00  0.00    -0.232 NA
ATOM     10  C   UNL A   1      32.069  25.006  22.633  1.00  0.00     0.056 A 
ATOM     11  C   UNL A   1      31.136  24.689  24.771  1.00  0.00     0.056 A 
ATOM     12  C   UNL A   1      32.371  25.782  21.383  1.00  0.00     0.068 C 
ATOM     13  C   UNL A   1      30.347  25.001  25.991  1.00  0.00     0.068 C 
BRANCH   7  14
ATOM     14  C   UNL A   1      33.152  21.843  24.064  1.00  0.00     0.033 A 
ATOM     15  C   UNL A   1      35.321  22.983  24.901  1.00  0.00     0.046 C 
ATOM     16  C   UNL A   1      34.473  21.784  24.635  1.00  0.00    -0.029 A 
ATOM     17  C   UNL A   1      34.812  20.485  24.964  1.00  0.00     0.069 A 
ATOM     18  S   UNL A   1      33.562  19.366  24.627  1.00  0.00    -0.151 S 
ATOM     19  C   UNL A   1      32.534  20.607  24.060  1.00  0.00     0.077 A 
ENDBRANCH   7  14
ENDBRANCH   4   6
ENDBRANCH   3   4
ENDBRANCH   2   3
ENDBRANCH   1   2
BRANCH   1  20
ATOM     20  O   UNL A   1      32.475  29.970  26.931  1.00  0.00    -0.458 OA
BRANCH  20  21
ATOM     21  C   UNL A   1      33.079  31.148  27.195  1.00  0.00     0.338 C 
ATOM     22  O   UNL A   1      32.561  32.251  27.284  1.00  0.00    -0.246 OA
BRANCH  21  23
ATOM     23  C   UNL A   1      34.496  30.921  27.511  1.00  0.00     0.060 A 
ATOM     24  C   UNL A   1      34.903  29.613  27.718  1.00  0.00     0.016 A 
ATOM     25  C   UNL A   1      35.345  31.972  27.849  1.00  0.00     0.016 A 
ATOM     26  C   UNL A   1      36.065  29.365  28.446  1.00  0.00     0.010 A 
ATOM     27  C   UNL A   1      36.596  31.698  28.429  1.00  0.00     0.010 A 
ATOM     28  C   UNL A   1      36.950  30.390  28.808  1.00  0.00    -0.014 A 
BRANCH  28  29
ATOM     29  C   UNL A   1      38.178  30.089  29.624  1.00  0.00     0.031 A 
ATOM     30  C   UNL A   1      39.297  29.236  29.058  1.00  0.00     0.074 A 
ATOM     31  C   UNL A   1      38.348  30.609  30.862  1.00  0.00     0.049 A 
ATOM     32  N   UNL A   1      40.295  28.652  29.679  1.00  0.00    -0.248 NA
ATOM     33  C   UNL A   1      39.285  28.994  27.607  1.00  0.00     0.031 C 
ATOM     34  C   UNL A   1      37.424  31.519  31.543  1.00  0.00     0.029 A 
ATOM     35  N   UNL A   1      39.374  30.464  31.769  1.00  0.00    -0.354 N 
ATOM     36  C   UNL A   1      40.970  27.910  28.714  1.00  0.00     0.074 A 
ATOM     37  C   UNL A   1      40.273  28.122  27.463  1.00  0.00     0.031 C 
ATOM     38  C   UNL A   1      37.957  31.916  32.704  1.00  0.00     0.029 A 
ATOM     39  C   UNL A   1      39.174  31.155  32.941  1.00  0.00     0.049 A 
ATOM     40  H   UNL A   1      40.175  29.918  31.595  1.00  0.00     0.167 HD
ATOM     41  C   UNL A   1      42.062  27.120  28.861  1.00  0.00     0.037 A 
ATOM     42  C   UNL A   1      39.830  31.126  34.118  1.00  0.00     0.037 A 
ATOM     43  C   UNL A   1      42.807  26.982  30.090  1.00  0.00     0.049 A 
ATOM     44  C   UNL A   1      40.992  30.191  34.282  1.00  0.00     0.074 A 
ATOM     45  C   UNL A   1      43.929  26.209  30.338  1.00  0.00     0.029 A 
ATOM     46  N   UNL A   1      42.517  27.652  31.269  1.00  0.00    -0.354 N 
ATOM     47  N   UNL A   1      41.548  29.401  33.399  1.00  0.00    -0.248 NA
ATOM     48  C   UNL A   1      41.595  30.119  35.620  1.00  0.00     0.031 C 
ATOM     49  C   UNL A   1      44.287  26.372  31.681  1.00  0.00     0.029 A 
ATOM     50  C   UNL A   1      43.428  27.295  32.252  1.00  0.00     0.049 A 
ATOM     51  H   UNL A   1      41.776  28.288  31.391  1.00  0.00     0.167 HD
ATOM     52  C   UNL A   1      42.576  28.750  34.067  1.00  0.00     0.074 A 
ATOM     53  C   UNL A   1      42.581  29.256  35.423  1.00  0.00     0.031 C 
ATOM     54  C   UNL A   1      43.434  27.812  33.597  1.00  0.00     0.037 A 
BRANCH  41  55
ATOM     55  C   UNL A   1      42.505  26.295  27.682  1.00  0.00     0.064 A 
ATOM     56  C   UNL A   1      43.518  26.710  26.806  1.00  0.00     0.173 A 
ATOM     57  C   UNL A   1      41.933  25.029  27.463  1.00  0.00     0.173 A 
ATOM     58  F   UNL A   1      44.094  27.910  26.961  1.00  0.00    -0.203 F 
ATOM     59  C   UNL A   1      43.921  25.904  25.741  1.00  0.00     0.198 A 
ATOM     60  C   UNL A   1      42.363  24.212  26.420  1.00  0.00     0.198 A 
ATOM     61  F   UNL A   1      40.969  24.572  28.277  1.00  0.00    -0.203 F 
ATOM     62  F   UNL A   1      44.857  26.343  24.887  1.00  0.00    -0.200 F 
ATOM     63  C   UNL A   1      43.349  24.653  25.555  1.00  0.00     0.200 A 
ATOM     64  F   UNL A   1      41.822  22.996  26.256  1.00  0.00    -0.200 F 
ATOM     65  F   UNL A   1      43.747  23.876  24.538  1.00  0.00    -0.200 F 
ENDBRANCH  41  55
BRANCH  42  66
ATOM     66  C   UNL A   1      39.336  31.939  35.266  1.00  0.00     0.064 A 
ATOM     67  C   UNL A   1      38.526  31.374  36.260  1.00  0.00     0.173 A 
ATOM     68  C   UNL A   1      39.659  33.301  35.389  1.00  0.00     0.173 A 
ATOM     69  F   UNL A   1      38.160  30.087  36.175  1.00  0.00    -0.203 F 
ATOM     70  C   UNL A   1      38.052  32.141  37.324  1.00  0.00     0.198 A 
ATOM     71  C   UNL A   1      39.222  34.054  36.475  1.00  0.00     0.198 A 
ATOM     72  F   UNL A   1      40.425  33.896  34.463  1.00  0.00    -0.203 F 
ATOM     73  F   UNL A   1      37.234  31.589  38.232  1.00  0.00    -0.200 F 
ATOM     74  C   UNL A   1      38.410  33.475  37.437  1.00  0.00     0.200 A 
ATOM     75  F   UNL A   1      39.592  35.336  36.589  1.00  0.00    -0.200 F 
ATOM     76  F   UNL A   1      37.965  34.208  38.467  1.00  0.00    -0.200 F 
ENDBRANCH  42  66
BRANCH  54  77
ATOM     77  C   UNL A   1      44.487  27.313  34.544  1.00  0.00     0.064 A 
ATOM     78  C   UNL A   1      44.293  26.167  35.329  1.00  0.00     0.173 A 
ATOM     79  C   UNL A   1      45.713  27.986  34.653  1.00  0.00     0.173 A 
ATOM     80  F   UNL A   1      43.130  25.500  35.276  1.00  0.00    -0.203 F 
ATOM     81  C   UNL A   1      45.276  25.731  36.212  1.00  0.00     0.198 A 
ATOM     82  C   UNL A   1      46.707  27.528  35.513  1.00  0.00     0.198 A 
ATOM     83  F   UNL A   1      45.951  29.084  33.922  1.00  0.00    -0.203 F 
ATOM     84  F   UNL A   1      45.048  24.669  36.997  1.00  0.00    -0.200 F 
ATOM     85  C   UNL A   1      46.485  26.407  36.299  1.00  0.00     0.200 A 
ATOM     86  F   UNL A   1      47.879  28.173  35.583  1.00  0.00    -0.200 F 
ATOM     87  F   UNL A   1      47.432  25.983  37.146  1.00  0.00    -0.200 F 
ENDBRANCH  54  77
ENDBRANCH  28  29
ENDBRANCH  21  23
ENDBRANCH  20  21
ENDBRANCH   1  20
TORSDOF 12
ENDMDL
