MODEL 1
REMARK VINA RESULT:     -11.7      0.000      0.000
REMARK SMILES Cc1ccc(CNC(=O)c2csc(/C=C/C(=O)OCCOC(=O)c3ccc(-c4c5nc(c(-c6c(F)c(F)c(F)c(F)c6F)c6ccc([nH]6)c(-c6c(F)c(F)c(F)c(F)c6F)c6nc(c(-c7c(F)c(F)c(F)c(F)c7F)c7ccc4[nH]7)C=C6)C=C5)cc3)c2)s1
REMARK SMILES IDX 19 1 18 2 16 3 17 4 15 5 14 6 13 7 10 8 11 9 87 10 12 11
REMARK SMILES IDX 8 12 7 13 9 15 6 16 5 17 1 18 2 19 3 20 88 21 4 22 20 23
REMARK SMILES IDX 21 24 22 25 23 26 24 27 25 28 86 29 26 30 85 31 27 32 28 33
REMARK SMILES IDX 29 34 79 35 30 36 84 37 78 38 80 39 31 40 83 41 77 42 76 43
REMARK SMILES IDX 32 45 64 46 44 47 63 48 45 49 48 50 62 51 81 52 46 53 47 54
REMARK SMILES IDX 61 56 82 57 49 58 33 59 34 60 42 61 35 62 36 63 40 64 43 65
REMARK SMILES IDX 37 66 38 67 41 68 39 69 65 70 66 71 74 72 67 73 68 74 72 75
REMARK SMILES IDX 75 76 69 77 70 78 73 79 71 80 50 81 51 82 59 83 52 84 53 85
REMARK SMILES IDX 57 86 60 87 54 88 55 89 58 90 56 91
REMARK H PARENT 7 14 80 44 48 55
REMARK Flexibility Score: inf
ROOT
ATOM      1  C   UNL A   1      42.589  20.388  26.161  1.00  0.00     0.275 C 
ENDROOT
BRANCH   1   2
ATOM      2  O   UNL A   1      41.331  21.010  26.481  1.00  0.00    -0.459 OA
BRANCH   2   3
ATOM      3  C   UNL A   1      40.232  20.406  25.975  1.00  0.00     0.330 C 
ATOM      4  O   UNL A   1      40.101  19.211  25.751  1.00  0.00    -0.247 OA
BRANCH   3   5
ATOM      5  C   UNL A   1      39.119  21.346  25.751  1.00  0.00     0.095 C 
ATOM      6  C   UNL A   1      38.002  21.076  25.058  1.00  0.00     0.026 C 
BRANCH   6   7
ATOM      7  C   UNL A   1      36.994  22.065  24.857  1.00  0.00     0.028 A 
ATOM      8  C   UNL A   1      35.091  23.178  24.007  1.00  0.00     0.051 A 
ATOM      9  C   UNL A   1      35.461  24.004  25.049  1.00  0.00     0.079 A 
ATOM     10  C   UNL A   1      36.060  22.129  23.837  1.00  0.00     0.033 A 
ATOM     11  S   UNL A   1      36.832  23.436  25.889  1.00  0.00    -0.144 S 
BRANCH   8  12
ATOM     12  C   UNL A   1      33.892  23.433  23.214  1.00  0.00     0.252 C 
ATOM     13  N   UNL A   1      32.770  22.681  23.444  1.00  0.00    -0.347 N 
ATOM     14  H   UNL A   1      32.034  22.809  22.802  1.00  0.00     0.164 HD
ATOM     15  O   UNL A   1      33.850  24.329  22.373  1.00  0.00    -0.269 OA
BRANCH  13  16
ATOM     16  C   UNL A   1      32.517  21.724  24.500  1.00  0.00     0.163 C 
BRANCH  16  17
ATOM     17  C   UNL A   1      32.601  20.329  23.972  1.00  0.00     0.024 A 
ATOM     18  C   UNL A   1      33.753  16.584  23.785  1.00  0.00     0.056 C 
ATOM     19  C   UNL A   1      33.204  17.959  23.620  1.00  0.00     0.002 A 
ATOM     20  C   UNL A   1      32.506  18.484  22.553  1.00  0.00     0.015 A 
ATOM     21  S   UNL A   1      33.424  19.115  24.859  1.00  0.00    -0.144 S 
ATOM     22  C   UNL A   1      32.153  19.848  22.757  1.00  0.00     0.017 A 
ENDBRANCH  16  17
ENDBRANCH  13  16
ENDBRANCH   8  12
ENDBRANCH   6   7
ENDBRANCH   3   5
ENDBRANCH   2   3
ENDBRANCH   1   2
BRANCH   1  23
ATOM     23  C   UNL A   1      43.505  21.353  25.401  1.00  0.00     0.275 C 
BRANCH  23  24
ATOM     24  O   UNL A   1      42.808  22.540  24.980  1.00  0.00    -0.458 OA
BRANCH  24  25
ATOM     25  C   UNL A   1      43.535  23.683  25.035  1.00  0.00     0.338 C 
ATOM     26  O   UNL A   1      44.446  24.013  24.296  1.00  0.00    -0.246 OA
BRANCH  25  27
ATOM     27  C   UNL A   1      42.989  24.575  26.075  1.00  0.00     0.060 A 
ATOM     28  C   UNL A   1      43.511  25.868  26.172  1.00  0.00     0.016 A 
ATOM     29  C   UNL A   1      42.026  24.131  26.987  1.00  0.00     0.016 A 
ATOM     30  C   UNL A   1      43.075  26.724  27.180  1.00  0.00     0.010 A 
ATOM     31  C   UNL A   1      41.593  24.990  28.002  1.00  0.00     0.010 A 
ATOM     32  C   UNL A   1      42.122  26.288  28.112  1.00  0.00    -0.014 A 
BRANCH  32  33
ATOM     33  C   UNL A   1      41.721  27.181  29.225  1.00  0.00     0.031 A 
ATOM     34  C   UNL A   1      42.512  27.195  30.500  1.00  0.00     0.074 A 
ATOM     35  C   UNL A   1      40.665  28.002  29.078  1.00  0.00     0.049 A 
ATOM     36  N   UNL A   1      42.316  27.890  31.591  1.00  0.00    -0.248 NA
ATOM     37  C   UNL A   1      43.681  26.305  30.553  1.00  0.00     0.031 C 
ATOM     38  C   UNL A   1      39.839  28.103  27.876  1.00  0.00     0.029 A 
ATOM     39  N   UNL A   1      40.109  28.907  29.947  1.00  0.00    -0.354 N 
ATOM     40  C   UNL A   1      43.333  27.523  32.461  1.00  0.00     0.074 A 
ATOM     41  C   UNL A   1      44.128  26.521  31.783  1.00  0.00     0.031 C 
ATOM     42  C   UNL A   1      38.883  29.026  28.080  1.00  0.00     0.029 A 
ATOM     43  C   UNL A   1      39.011  29.553  29.438  1.00  0.00     0.049 A 
ATOM     44  H   UNL A   1      40.464  29.077  30.849  1.00  0.00     0.167 HD
ATOM     45  C   UNL A   1      43.585  27.988  33.709  1.00  0.00     0.037 A 
ATOM     46  C   UNL A   1      38.191  30.456  30.008  1.00  0.00     0.037 A 
ATOM     47  C   UNL A   1      42.795  28.986  34.383  1.00  0.00     0.049 A 
ATOM     48  C   UNL A   1      38.454  30.906  31.420  1.00  0.00     0.074 A 
ATOM     49  C   UNL A   1      42.981  29.532  35.641  1.00  0.00     0.029 A 
ATOM     50  N   UNL A   1      41.662  29.586  33.852  1.00  0.00    -0.354 N 
ATOM     51  N   UNL A   1      39.427  30.567  32.230  1.00  0.00    -0.248 NA
ATOM     52  C   UNL A   1      37.501  31.865  31.997  1.00  0.00     0.031 C 
ATOM     53  C   UNL A   1      41.936  30.430  35.889  1.00  0.00     0.029 A 
ATOM     54  C   UNL A   1      41.125  30.477  34.767  1.00  0.00     0.049 A 
ATOM     55  H   UNL A   1      41.294  29.405  32.957  1.00  0.00     0.167 HD
ATOM     56  C   UNL A   1      39.218  31.281  33.401  1.00  0.00     0.074 A 
ATOM     57  C   UNL A   1      38.031  32.086  33.192  1.00  0.00     0.031 C 
ATOM     58  C   UNL A   1      39.943  31.272  34.546  1.00  0.00     0.037 A 
BRANCH  45  59
ATOM     59  C   UNL A   1      44.756  27.399  34.439  1.00  0.00     0.064 A 
ATOM     60  C   UNL A   1      46.033  27.976  34.369  1.00  0.00     0.173 A 
ATOM     61  C   UNL A   1      44.593  26.260  35.241  1.00  0.00     0.173 A 
ATOM     62  F   UNL A   1      46.243  29.060  33.607  1.00  0.00    -0.203 F 
ATOM     63  C   UNL A   1      47.109  27.418  35.054  1.00  0.00     0.198 A 
ATOM     64  C   UNL A   1      45.666  25.719  35.945  1.00  0.00     0.198 A 
ATOM     65  F   UNL A   1      43.391  25.674  35.347  1.00  0.00    -0.203 F 
ATOM     66  F   UNL A   1      48.329  27.959  34.937  1.00  0.00    -0.200 F 
ATOM     67  C   UNL A   1      46.924  26.294  35.845  1.00  0.00     0.200 A 
ATOM     68  F   UNL A   1      45.483  24.640  36.718  1.00  0.00    -0.200 F 
ATOM     69  F   UNL A   1      47.960  25.759  36.506  1.00  0.00    -0.200 F 
ENDBRANCH  45  59
BRANCH  46  70
ATOM     70  C   UNL A   1      37.040  30.996  29.241  1.00  0.00     0.064 A 
ATOM     71  C   UNL A   1      37.052  32.307  28.747  1.00  0.00     0.173 A 
ATOM     72  C   UNL A   1      35.905  30.212  28.987  1.00  0.00     0.173 A 
ATOM     73  F   UNL A   1      38.104  33.104  28.989  1.00  0.00    -0.203 F 
ATOM     74  C   UNL A   1      35.967  32.818  28.039  1.00  0.00     0.198 A 
ATOM     75  C   UNL A   1      34.832  30.716  28.258  1.00  0.00     0.198 A 
ATOM     76  F   UNL A   1      35.843  28.952  29.443  1.00  0.00    -0.203 F 
ATOM     77  F   UNL A   1      35.987  34.090  27.613  1.00  0.00    -0.200 F 
ATOM     78  C   UNL A   1      34.861  32.021  27.789  1.00  0.00     0.200 A 
ATOM     79  F   UNL A   1      33.768  29.939  28.010  1.00  0.00    -0.200 F 
ATOM     80  F   UNL A   1      33.819  32.512  27.103  1.00  0.00    -0.200 F 
ENDBRANCH  46  70
BRANCH  58  81
ATOM     81  C   UNL A   1      39.488  32.175  35.654  1.00  0.00     0.064 A 
ATOM     82  C   UNL A   1      39.945  33.497  35.759  1.00  0.00     0.173 A 
ATOM     83  C   UNL A   1      38.558  31.724  36.603  1.00  0.00     0.173 A 
ATOM     84  F   UNL A   1      40.847  33.970  34.886  1.00  0.00    -0.203 F 
ATOM     85  C   UNL A   1      39.504  34.327  36.786  1.00  0.00     0.198 A 
ATOM     86  C   UNL A   1      38.100  32.565  37.613  1.00  0.00     0.198 A 
ATOM     87  F   UNL A   1      38.087  30.470  36.544  1.00  0.00    -0.203 F 
ATOM     88  F   UNL A   1      39.986  35.573  36.892  1.00  0.00    -0.200 F 
ATOM     89  C   UNL A   1      38.577  33.864  37.707  1.00  0.00     0.200 A 
ATOM     90  F   UNL A   1      37.196  32.118  38.497  1.00  0.00    -0.200 F 
ATOM     91  F   UNL A   1      38.151  34.666  38.692  1.00  0.00    -0.200 F 
ENDBRANCH  58  81
ENDBRANCH  32  33
ENDBRANCH  25  27
ENDBRANCH  24  25
ENDBRANCH  23  24
ENDBRANCH   1  23
TORSDOF 15
ENDMDL
MODEL 2
REMARK VINA RESULT:     -11.6      4.215      9.581
REMARK SMILES Cc1ccc(CNC(=O)c2csc(/C=C/C(=O)OCCOC(=O)c3ccc(-c4c5nc(c(-c6c(F)c(F)c(F)c(F)c6F)c6ccc([nH]6)c(-c6c(F)c(F)c(F)c(F)c6F)c6nc(c(-c7c(F)c(F)c(F)c(F)c7F)c7ccc4[nH]7)C=C6)C=C5)cc3)c2)s1
REMARK SMILES IDX 19 1 18 2 16 3 17 4 15 5 14 6 13 7 10 8 11 9 87 10 12 11
REMARK SMILES IDX 8 12 7 13 9 15 6 16 5 17 1 18 2 19 3 20 88 21 4 22 20 23
REMARK SMILES IDX 21 24 22 25 23 26 24 27 25 28 86 29 26 30 85 31 27 32 28 33
REMARK SMILES IDX 29 34 79 35 30 36 84 37 78 38 80 39 31 40 83 41 77 42 76 43
REMARK SMILES IDX 32 45 64 46 44 47 63 48 45 49 48 50 62 51 81 52 46 53 47 54
REMARK SMILES IDX 61 56 82 57 49 58 33 59 34 60 42 61 35 62 36 63 40 64 43 65
REMARK SMILES IDX 37 66 38 67 41 68 39 69 65 70 66 71 74 72 67 73 68 74 72 75
REMARK SMILES IDX 75 76 69 77 70 78 73 79 71 80 50 81 51 82 59 83 52 84 53 85
REMARK SMILES IDX 57 86 60 87 54 88 55 89 58 90 56 91
REMARK H PARENT 7 14 80 44 48 55
REMARK Flexibility Score: inf
ROOT
ATOM      1  C   UNL A   1      32.785  31.960  27.538  1.00  0.00     0.275 C 
ENDROOT
BRANCH   1   2
ATOM      2  O   UNL A   1      33.955  31.452  28.205  1.00  0.00    -0.459 OA
BRANCH   2   3
ATOM      3  C   UNL A   1      34.635  30.486  27.546  1.00  0.00     0.330 C 
ATOM      4  O   UNL A   1      35.816  30.517  27.233  1.00  0.00    -0.247 OA
BRANCH   3   5
ATOM      5  C   UNL A   1      33.806  29.299  27.265  1.00  0.00     0.095 C 
ATOM      6  C   UNL A   1      34.130  28.309  26.418  1.00  0.00     0.026 C 
BRANCH   6   7
ATOM      7  C   UNL A   1      33.244  27.218  26.177  1.00  0.00     0.028 A 
ATOM      8  C   UNL A   1      31.257  25.967  25.916  1.00  0.00     0.051 A 
ATOM      9  C   UNL A   1      32.219  25.057  25.524  1.00  0.00     0.079 A 
ATOM     10  C   UNL A   1      31.879  27.168  26.404  1.00  0.00     0.033 A 
ATOM     11  S   UNL A   1      33.798  25.696  25.590  1.00  0.00    -0.144 S 
BRANCH   8  12
ATOM     12  C   UNL A   1      29.833  25.654  25.850  1.00  0.00     0.252 C 
ATOM     13  N   UNL A   1      29.114  26.050  24.753  1.00  0.00    -0.347 N 
ATOM     14  H   UNL A   1      28.140  25.923  24.816  1.00  0.00     0.164 HD
ATOM     15  O   UNL A   1      29.270  25.010  26.733  1.00  0.00    -0.269 OA
BRANCH  13  16
ATOM     16  C   UNL A   1      29.589  26.631  23.516  1.00  0.00     0.163 C 
BRANCH  16  17
ATOM     17  C   UNL A   1      28.995  27.987  23.312  1.00  0.00     0.024 A 
ATOM     18  C   UNL A   1      28.844  31.906  23.217  1.00  0.00     0.056 C 
ATOM     19  C   UNL A   1      28.639  30.430  23.211  1.00  0.00     0.002 A 
ATOM     20  C   UNL A   1      27.461  29.725  23.080  1.00  0.00     0.015 A 
ATOM     21  S   UNL A   1      29.981  29.387  23.393  1.00  0.00    -0.144 S 
ATOM     22  C   UNL A   1      27.666  28.317  23.132  1.00  0.00     0.017 A 
ENDBRANCH  16  17
ENDBRANCH  13  16
ENDBRANCH   8  12
ENDBRANCH   6   7
ENDBRANCH   3   5
ENDBRANCH   2   3
ENDBRANCH   1   2
BRANCH   1  23
ATOM     23  C   UNL A   1      32.889  33.471  27.312  1.00  0.00     0.275 C 
BRANCH  23  24
ATOM     24  O   UNL A   1      32.338  34.220  28.412  1.00  0.00    -0.458 OA
BRANCH  24  25
ATOM     25  C   UNL A   1      33.134  35.207  28.890  1.00  0.00     0.338 C 
ATOM     26  O   UNL A   1      32.951  36.410  28.799  1.00  0.00    -0.246 OA
BRANCH  25  27
ATOM     27  C   UNL A   1      34.241  34.626  29.672  1.00  0.00     0.060 A 
ATOM     28  C   UNL A   1      35.530  34.694  29.135  1.00  0.00     0.016 A 
ATOM     29  C   UNL A   1      34.012  33.965  30.883  1.00  0.00     0.016 A 
ATOM     30  C   UNL A   1      36.597  34.100  29.805  1.00  0.00     0.010 A 
ATOM     31  C   UNL A   1      35.084  33.364  31.551  1.00  0.00     0.010 A 
ATOM     32  C   UNL A   1      36.381  33.420  31.012  1.00  0.00    -0.014 A 
BRANCH  32  33
ATOM     33  C   UNL A   1      37.512  32.728  31.677  1.00  0.00     0.031 A 
ATOM     34  C   UNL A   1      38.191  31.575  30.999  1.00  0.00     0.074 A 
ATOM     35  C   UNL A   1      37.946  33.157  32.876  1.00  0.00     0.049 A 
ATOM     36  N   UNL A   1      39.183  30.831  31.419  1.00  0.00    -0.248 NA
ATOM     37  C   UNL A   1      37.683  31.208  29.668  1.00  0.00     0.031 C 
ATOM     38  C   UNL A   1      37.390  34.286  33.618  1.00  0.00     0.029 A 
ATOM     39  N   UNL A   1      38.959  32.691  33.677  1.00  0.00    -0.354 N 
ATOM     40  C   UNL A   1      39.419  29.909  30.409  1.00  0.00     0.074 A 
ATOM     41  C   UNL A   1      38.448  30.167  29.367  1.00  0.00     0.031 C 
ATOM     42  C   UNL A   1      38.073  34.432  34.767  1.00  0.00     0.029 A 
ATOM     43  C   UNL A   1      39.091  33.386  34.854  1.00  0.00     0.049 A 
ATOM     44  H   UNL A   1      39.536  31.932  33.432  1.00  0.00     0.167 HD
ATOM     45  C   UNL A   1      40.367  28.943  30.353  1.00  0.00     0.037 A 
ATOM     46  C   UNL A   1      39.927  33.190  35.890  1.00  0.00     0.037 A 
ATOM     47  C   UNL A   1      41.335  28.689  31.389  1.00  0.00     0.049 A 
ATOM     48  C   UNL A   1      40.926  32.066  35.832  1.00  0.00     0.074 A 
ATOM     49  C   UNL A   1      42.345  27.743  31.417  1.00  0.00     0.029 A 
ATOM     50  N   UNL A   1      41.408  29.385  32.588  1.00  0.00    -0.354 N 
ATOM     51  N   UNL A   1      41.155  31.209  34.867  1.00  0.00    -0.248 NA
ATOM     52  C   UNL A   1      41.784  31.882  37.012  1.00  0.00     0.031 C 
ATOM     53  C   UNL A   1      43.001  27.836  32.649  1.00  0.00     0.029 A 
ATOM     54  C   UNL A   1      42.430  28.871  33.371  1.00  0.00     0.049 A 
ATOM     55  H   UNL A   1      40.822  30.133  32.844  1.00  0.00     0.167 HD
ATOM     56  C   UNL A   1      42.191  30.399  35.309  1.00  0.00     0.074 A 
ATOM     57  C   UNL A   1      42.558  30.876  36.627  1.00  0.00     0.031 C 
ATOM     58  C   UNL A   1      42.785  29.356  34.681  1.00  0.00     0.037 A 
BRANCH  45  59
ATOM     59  C   UNL A   1      40.388  28.068  29.134  1.00  0.00     0.064 A 
ATOM     60  C   UNL A   1      41.159  28.392  28.009  1.00  0.00     0.173 A 
ATOM     61  C   UNL A   1      39.648  26.877  29.103  1.00  0.00     0.173 A 
ATOM     62  F   UNL A   1      41.876  29.527  27.986  1.00  0.00    -0.203 F 
ATOM     63  C   UNL A   1      41.168  27.570  26.886  1.00  0.00     0.198 A 
ATOM     64  C   UNL A   1      39.679  26.043  27.988  1.00  0.00     0.198 A 
ATOM     65  F   UNL A   1      38.898  26.518  30.156  1.00  0.00    -0.203 F 
ATOM     66  F   UNL A   1      41.878  27.921  25.804  1.00  0.00    -0.200 F 
ATOM     67  C   UNL A   1      40.433  26.393  26.878  1.00  0.00     0.200 A 
ATOM     68  F   UNL A   1      38.976  24.902  27.987  1.00  0.00    -0.200 F 
ATOM     69  F   UNL A   1      40.444  25.601  25.798  1.00  0.00    -0.200 F 
ENDBRANCH  45  59
BRANCH  46  70
ATOM     70  C   UNL A   1      39.852  34.080  37.077  1.00  0.00     0.064 A 
ATOM     71  C   UNL A   1      40.609  35.257  37.143  1.00  0.00     0.173 A 
ATOM     72  C   UNL A   1      39.026  33.770  38.166  1.00  0.00     0.173 A 
ATOM     73  F   UNL A   1      41.436  35.580  36.137  1.00  0.00    -0.203 F 
ATOM     74  C   UNL A   1      40.550  36.086  38.261  1.00  0.00     0.198 A 
ATOM     75  C   UNL A   1      38.949  34.613  39.272  1.00  0.00     0.198 A 
ATOM     76  F   UNL A   1      38.286  32.652  38.152  1.00  0.00    -0.203 F 
ATOM     77  F   UNL A   1      41.315  37.186  38.318  1.00  0.00    -0.200 F 
ATOM     78  C   UNL A   1      39.716  35.767  39.322  1.00  0.00     0.200 A 
ATOM     79  F   UNL A   1      38.134  34.305  40.291  1.00  0.00    -0.200 F 
ATOM     80  F   UNL A   1      39.656  36.568  40.395  1.00  0.00    -0.200 F 
ENDBRANCH  46  70
BRANCH  58  81
ATOM     81  C   UNL A   1      43.910  28.671  35.401  1.00  0.00     0.064 A 
ATOM     82  C   UNL A   1      43.682  27.573  36.244  1.00  0.00     0.173 A 
ATOM     83  C   UNL A   1      45.234  29.097  35.218  1.00  0.00     0.173 A 
ATOM     84  F   UNL A   1      42.433  27.139  36.463  1.00  0.00    -0.203 F 
ATOM     85  C   UNL A   1      44.739  26.941  36.894  1.00  0.00     0.198 A 
ATOM     86  C   UNL A   1      46.290  28.446  35.850  1.00  0.00     0.198 A 
ATOM     87  F   UNL A   1      45.505  30.139  34.419  1.00  0.00    -0.203 F 
ATOM     88  F   UNL A   1      44.494  25.921  37.729  1.00  0.00    -0.200 F 
ATOM     89  C   UNL A   1      46.041  27.372  36.692  1.00  0.00     0.200 A 
ATOM     90  F   UNL A   1      47.549  28.858  35.646  1.00  0.00    -0.200 F 
ATOM     91  F   UNL A   1      47.055  26.759  37.317  1.00  0.00    -0.200 F 
ENDBRANCH  58  81
ENDBRANCH  32  33
ENDBRANCH  25  27
ENDBRANCH  24  25
ENDBRANCH  23  24
ENDBRANCH   1  23
TORSDOF 15
ENDMDL
MODEL 3
REMARK VINA RESULT:     -11.5      4.644      9.296
REMARK SMILES Cc1ccc(CNC(=O)c2csc(/C=C/C(=O)OCCOC(=O)c3ccc(-c4c5nc(c(-c6c(F)c(F)c(F)c(F)c6F)c6ccc([nH]6)c(-c6c(F)c(F)c(F)c(F)c6F)c6nc(c(-c7c(F)c(F)c(F)c(F)c7F)c7ccc4[nH]7)C=C6)C=C5)cc3)c2)s1
REMARK SMILES IDX 19 1 18 2 16 3 17 4 15 5 14 6 13 7 10 8 11 9 87 10 12 11
REMARK SMILES IDX 8 12 7 13 9 15 6 16 5 17 1 18 2 19 3 20 88 21 4 22 20 23
REMARK SMILES IDX 21 24 22 25 23 26 24 27 25 28 86 29 26 30 85 31 27 32 28 33
REMARK SMILES IDX 29 34 79 35 30 36 84 37 78 38 80 39 31 40 83 41 77 42 76 43
REMARK SMILES IDX 32 45 64 46 44 47 63 48 45 49 48 50 62 51 81 52 46 53 47 54
REMARK SMILES IDX 61 56 82 57 49 58 33 59 34 60 42 61 35 62 36 63 40 64 43 65
REMARK SMILES IDX 37 66 38 67 41 68 39 69 65 70 66 71 74 72 67 73 68 74 72 75
REMARK SMILES IDX 75 76 69 77 70 78 73 79 71 80 50 81 51 82 59 83 52 84 53 85
REMARK SMILES IDX 57 86 60 87 54 88 55 89 58 90 56 91
REMARK H PARENT 7 14 80 44 48 55
REMARK Flexibility Score: inf
ROOT
ATOM      1  C   UNL A   1      39.164  21.456  26.101  1.00  0.00     0.275 C 
ENDROOT
BRANCH   1   2
ATOM      2  O   UNL A   1      38.026  21.929  25.356  1.00  0.00    -0.459 OA
BRANCH   2   3
ATOM      3  C   UNL A   1      37.455  23.065  25.816  1.00  0.00     0.330 C 
ATOM      4  O   UNL A   1      38.042  24.068  26.197  1.00  0.00    -0.247 OA
BRANCH   3   5
ATOM      5  C   UNL A   1      35.982  23.021  25.767  1.00  0.00     0.095 C 
ATOM      6  C   UNL A   1      35.225  21.971  26.123  1.00  0.00     0.026 C 
BRANCH   6   7
ATOM      7  C   UNL A   1      33.805  22.004  26.003  1.00  0.00     0.028 A 
ATOM      8  C   UNL A   1      31.546  22.617  26.332  1.00  0.00     0.051 A 
ATOM      9  C   UNL A   1      31.449  21.728  25.280  1.00  0.00     0.079 A 
ATOM     10  C   UNL A   1      32.901  22.669  26.814  1.00  0.00     0.033 A 
ATOM     11  S   UNL A   1      32.963  21.113  24.792  1.00  0.00    -0.144 S 
BRANCH   8  12
ATOM     12  C   UNL A   1      30.380  23.326  26.848  1.00  0.00     0.252 C 
ATOM     13  N   UNL A   1      30.061  24.551  26.324  1.00  0.00    -0.347 N 
ATOM     14  H   UNL A   1      29.343  25.038  26.789  1.00  0.00     0.164 HD
ATOM     15  O   UNL A   1      29.653  22.837  27.710  1.00  0.00    -0.269 OA
BRANCH  13  16
ATOM     16  C   UNL A   1      30.635  25.229  25.182  1.00  0.00     0.163 C 
BRANCH  16  17
ATOM     17  C   UNL A   1      31.784  26.086  25.605  1.00  0.00     0.024 A 
ATOM     18  C   UNL A   1      33.620  29.163  27.203  1.00  0.00     0.056 C 
ATOM     19  C   UNL A   1      33.163  27.927  26.508  1.00  0.00     0.002 A 
ATOM     20  C   UNL A   1      33.904  27.040  25.755  1.00  0.00     0.015 A 
ATOM     21  S   UNL A   1      31.519  27.466  26.588  1.00  0.00    -0.144 S 
ATOM     22  C   UNL A   1      33.111  25.976  25.239  1.00  0.00     0.017 A 
ENDBRANCH  16  17
ENDBRANCH  13  16
ENDBRANCH   8  12
ENDBRANCH   6   7
ENDBRANCH   3   5
ENDBRANCH   2   3
ENDBRANCH   1   2
BRANCH   1  23
ATOM     23  C   UNL A   1      39.643  20.099  25.579  1.00  0.00     0.275 C 
BRANCH  23  24
ATOM     24  O   UNL A   1      40.579  19.473  26.477  1.00  0.00    -0.458 OA
BRANCH  24  25
ATOM     25  C   UNL A   1      41.877  19.546  26.097  1.00  0.00     0.338 C 
ATOM     26  O   UNL A   1      42.506  18.717  25.461  1.00  0.00    -0.246 OA
BRANCH  25  27
ATOM     27  C   UNL A   1      42.434  20.862  26.462  1.00  0.00     0.060 A 
ATOM     28  C   UNL A   1      42.401  21.239  27.808  1.00  0.00     0.016 A 
ATOM     29  C   UNL A   1      42.922  21.744  25.492  1.00  0.00     0.016 A 
ATOM     30  C   UNL A   1      42.854  22.499  28.192  1.00  0.00     0.010 A 
ATOM     31  C   UNL A   1      43.372  23.011  25.879  1.00  0.00     0.010 A 
ATOM     32  C   UNL A   1      43.331  23.400  27.229  1.00  0.00    -0.014 A 
BRANCH  32  33
ATOM     33  C   UNL A   1      43.741  24.764  27.640  1.00  0.00     0.031 A 
ATOM     34  C   UNL A   1      42.700  25.784  28.001  1.00  0.00     0.074 A 
ATOM     35  C   UNL A   1      45.047  25.076  27.719  1.00  0.00     0.049 A 
ATOM     36  N   UNL A   1      42.853  27.031  28.369  1.00  0.00    -0.248 NA
ATOM     37  C   UNL A   1      41.300  25.340  27.937  1.00  0.00     0.031 C 
ATOM     38  C   UNL A   1      46.149  24.162  27.426  1.00  0.00     0.029 A 
ATOM     39  N   UNL A   1      45.665  26.250  28.071  1.00  0.00    -0.354 N 
ATOM     40  C   UNL A   1      41.572  27.522  28.580  1.00  0.00     0.074 A 
ATOM     41  C   UNL A   1      40.652  26.449  28.270  1.00  0.00     0.031 C 
ATOM     42  C   UNL A   1      47.313  24.808  27.617  1.00  0.00     0.029 A 
ATOM     43  C   UNL A   1      47.035  26.187  28.012  1.00  0.00     0.049 A 
ATOM     44  H   UNL A   1      45.174  27.059  28.340  1.00  0.00     0.167 HD
ATOM     45  C   UNL A   1      41.200  28.755  29.003  1.00  0.00     0.037 A 
ATOM     46  C   UNL A   1      47.959  27.140  28.235  1.00  0.00     0.037 A 
ATOM     47  C   UNL A   1      42.116  29.822  29.312  1.00  0.00     0.049 A 
ATOM     48  C   UNL A   1      47.516  28.521  28.638  1.00  0.00     0.074 A 
ATOM     49  C   UNL A   1      41.835  31.100  29.763  1.00  0.00     0.029 A 
ATOM     50  N   UNL A   1      43.496  29.735  29.197  1.00  0.00    -0.354 N 
ATOM     51  N   UNL A   1      46.304  28.973  28.852  1.00  0.00    -0.248 NA
ATOM     52  C   UNL A   1      48.572  29.525  28.830  1.00  0.00     0.031 C 
ATOM     53  C   UNL A   1      43.041  31.801  29.879  1.00  0.00     0.029 A 
ATOM     54  C   UNL A   1      44.077  30.945  29.545  1.00  0.00     0.049 A 
ATOM     55  H   UNL A   1      43.990  28.933  28.912  1.00  0.00     0.167 HD
ATOM     56  C   UNL A   1      46.450  30.302  29.222  1.00  0.00     0.074 A 
ATOM     57  C   UNL A   1      47.872  30.582  29.218  1.00  0.00     0.031 C 
ATOM     58  C   UNL A   1      45.494  31.209  29.536  1.00  0.00     0.037 A 
BRANCH  45  59
ATOM     59  C   UNL A   1      39.729  29.023  29.132  1.00  0.00     0.064 A 
ATOM     60  C   UNL A   1      38.951  29.405  28.030  1.00  0.00     0.173 A 
ATOM     61  C   UNL A   1      39.085  28.867  30.369  1.00  0.00     0.173 A 
ATOM     62  F   UNL A   1      39.522  29.579  26.828  1.00  0.00    -0.203 F 
ATOM     63  C   UNL A   1      37.587  29.649  28.167  1.00  0.00     0.198 A 
ATOM     64  C   UNL A   1      37.717  29.087  30.497  1.00  0.00     0.198 A 
ATOM     65  F   UNL A   1      39.783  28.496  31.453  1.00  0.00    -0.203 F 
ATOM     66  F   UNL A   1      36.871  30.057  27.110  1.00  0.00    -0.200 F 
ATOM     67  C   UNL A   1      36.970  29.484  29.398  1.00  0.00     0.200 A 
ATOM     68  F   UNL A   1      37.120  28.916  31.684  1.00  0.00    -0.200 F 
ATOM     69  F   UNL A   1      35.657  29.716  29.527  1.00  0.00    -0.200 F 
ENDBRANCH  45  59
BRANCH  46  70
ATOM     70  C   UNL A   1      49.401  26.820  28.079  1.00  0.00     0.064 A 
ATOM     71  C   UNL A   1      50.177  26.434  29.181  1.00  0.00     0.173 A 
ATOM     72  C   UNL A   1      50.031  26.896  26.829  1.00  0.00     0.173 A 
ATOM     73  F   UNL A   1      49.625  26.374  30.401  1.00  0.00    -0.203 F 
ATOM     74  C   UNL A   1      51.533  26.146  29.038  1.00  0.00     0.198 A 
ATOM     75  C   UNL A   1      51.380  26.584  26.684  1.00  0.00     0.198 A 
ATOM     76  F   UNL A   1      49.333  27.266  25.746  1.00  0.00    -0.203 F 
ATOM     77  F   UNL A   1      52.262  25.818  30.114  1.00  0.00    -0.200 F 
ATOM     78  C   UNL A   1      52.132  26.215  27.789  1.00  0.00     0.200 A 
ATOM     79  F   UNL A   1      51.953  26.643  25.474  1.00  0.00    -0.200 F 
ATOM     80  F   UNL A   1      53.435  25.933  27.652  1.00  0.00    -0.200 F 
ENDBRANCH  46  70
BRANCH  58  81
ATOM     81  C   UNL A   1      45.952  32.584  29.925  1.00  0.00     0.064 A 
ATOM     82  C   UNL A   1      46.089  33.608  28.976  1.00  0.00     0.173 A 
ATOM     83  C   UNL A   1      46.226  32.890  31.267  1.00  0.00     0.173 A 
ATOM     84  F   UNL A   1      45.855  33.362  27.679  1.00  0.00    -0.203 F 
ATOM     85  C   UNL A   1      46.503  34.883  29.355  1.00  0.00     0.198 A 
ATOM     86  C   UNL A   1      46.615  34.172  31.645  1.00  0.00     0.198 A 
ATOM     87  F   UNL A   1      46.106  31.947  32.213  1.00  0.00    -0.203 F 
ATOM     88  F   UNL A   1      46.668  35.834  28.425  1.00  0.00    -0.200 F 
ATOM     89  C   UNL A   1      46.759  35.165  30.688  1.00  0.00     0.200 A 
ATOM     90  F   UNL A   1      46.852  34.446  32.935  1.00  0.00    -0.200 F 
ATOM     91  F   UNL A   1      47.154  36.394  31.049  1.00  0.00    -0.200 F 
ENDBRANCH  58  81
ENDBRANCH  32  33
ENDBRANCH  25  27
ENDBRANCH  24  25
ENDBRANCH  23  24
ENDBRANCH   1  23
TORSDOF 15
ENDMDL
