MODEL 1
REMARK VINA RESULT:     -12.4      0.000      0.000
REMARK SMILES O=C(Cc1cccc(-c2ccn(C(F)F)c(=O)c2)c1)OCCOC(=O)c1ccc(-c2c3nc(c(-c4c(F)c(F)c(F)c(F)c4F)c4ccc([nH]4)c(-c4c(F)c(F)c(F)c(F)c4F)c4nc(c(-c5c(F)c(F)c(F)c(F)c5F)c5ccc2[nH]5)C=C4)C=C3)cc1
REMARK SMILES IDX 21 1 20 2 2 3 1 4 3 5 4 6 5 7 19 8 6 9 8 10 7 11 9 12 10 13
REMARK SMILES IDX 18 14 11 15 16 16 12 17 17 18 13 19 14 20 15 21 22 22 23 23
REMARK SMILES IDX 24 24 25 25 26 26 27 27 88 28 28 29 87 30 29 31 30 32 31 33
REMARK SMILES IDX 81 34 32 35 86 36 80 37 82 38 33 39 85 40 79 41 78 42 34 44
REMARK SMILES IDX 66 45 46 46 65 47 47 48 50 49 64 50 83 51 48 52 49 53 63 55
REMARK SMILES IDX 84 56 51 57 35 58 36 59 44 60 37 61 38 62 42 63 45 64 39 65
REMARK SMILES IDX 40 66 43 67 41 68 67 69 68 70 76 71 69 72 70 73 74 74 77 75
REMARK SMILES IDX 71 76 72 77 75 78 73 79 52 80 53 81 61 82 54 83 55 84 59 85
REMARK SMILES IDX 62 86 56 87 57 88 60 89 58 90
REMARK H PARENT 82 43 50 54
REMARK Flexibility Score: inf
ROOT
ATOM      1  C   UNL A   1      43.951  21.237  25.397  1.00  0.00     0.274 C 
ENDROOT
BRANCH   1   2
ATOM      2  O   UNL A   1      42.511  21.299  25.457  1.00  0.00    -0.462 OA
BRANCH   2   3
ATOM      3  C   UNL A   1      41.772  21.119  26.578  1.00  0.00     0.310 C 
ATOM      4  O   UNL A   1      42.278  21.297  27.685  1.00  0.00    -0.252 OA
BRANCH   3   5
ATOM      5  C   UNL A   1      40.330  20.678  26.450  1.00  0.00     0.158 C 
BRANCH   5   6
ATOM      6  C   UNL A   1      39.349  21.805  26.305  1.00  0.00    -0.036 A 
ATOM      7  C   UNL A   1      39.649  23.098  26.749  1.00  0.00     0.004 A 
ATOM      8  C   UNL A   1      38.128  21.571  25.668  1.00  0.00     0.013 A 
ATOM      9  C   UNL A   1      38.730  24.132  26.577  1.00  0.00     0.001 A 
ATOM     10  C   UNL A   1      37.212  22.608  25.465  1.00  0.00    -0.018 A 
ATOM     11  C   UNL A   1      37.514  23.891  25.936  1.00  0.00     0.009 A 
BRANCH  10  12
ATOM     12  C   UNL A   1      35.996  22.307  24.692  1.00  0.00    -0.011 A 
ATOM     13  C   UNL A   1      35.506  23.170  23.636  1.00  0.00     0.027 A 
ATOM     14  C   UNL A   1      35.241  21.272  25.098  1.00  0.00     0.080 A 
ATOM     15  C   UNL A   1      34.286  22.987  23.124  1.00  0.00     0.095 A 
ATOM     16  C   UNL A   1      33.895  21.035  24.512  1.00  0.00     0.255 A 
ATOM     17  N   UNL A   1      33.480  21.952  23.560  1.00  0.00    -0.258 N 
ATOM     18  O   UNL A   1      33.237  20.086  24.927  1.00  0.00    -0.269 OA
BRANCH  17  19
ATOM     19  C   UNL A   1      32.143  21.802  23.050  1.00  0.00     0.451 C 
ATOM     20  F   UNL A   1      31.553  23.007  22.864  1.00  0.00    -0.185 F 
ATOM     21  F   UNL A   1      32.151  21.150  21.861  1.00  0.00    -0.185 F 
ENDBRANCH  17  19
ENDBRANCH  10  12
ENDBRANCH   5   6
ENDBRANCH   3   5
ENDBRANCH   2   3
ENDBRANCH   1   2
BRANCH   1  22
ATOM     22  C   UNL A   1      44.536  22.357  24.532  1.00  0.00     0.275 C 
BRANCH  22  23
ATOM     23  O   UNL A   1      43.802  23.581  24.725  1.00  0.00    -0.458 OA
BRANCH  23  24
ATOM     24  C   UNL A   1      44.542  24.651  25.110  1.00  0.00     0.338 C 
ATOM     25  O   UNL A   1      45.587  25.030  24.611  1.00  0.00    -0.246 OA
BRANCH  24  26
ATOM     26  C   UNL A   1      43.789  25.435  26.120  1.00  0.00     0.060 A 
ATOM     27  C   UNL A   1      44.066  26.803  26.223  1.00  0.00     0.016 A 
ATOM     28  C   UNL A   1      42.802  24.859  26.928  1.00  0.00     0.016 A 
ATOM     29  C   UNL A   1      43.388  27.590  27.156  1.00  0.00     0.010 A 
ATOM     30  C   UNL A   1      42.125  25.647  27.865  1.00  0.00     0.010 A 
ATOM     31  C   UNL A   1      42.435  27.011  28.005  1.00  0.00    -0.014 A 
BRANCH  31  32
ATOM     32  C   UNL A   1      41.889  27.785  29.146  1.00  0.00     0.031 A 
ATOM     33  C   UNL A   1      42.577  27.684  30.480  1.00  0.00     0.074 A 
ATOM     34  C   UNL A   1      40.808  28.576  29.009  1.00  0.00     0.049 A 
ATOM     35  N   UNL A   1      42.280  28.262  31.616  1.00  0.00    -0.248 NA
ATOM     36  C   UNL A   1      43.758  26.809  30.538  1.00  0.00     0.031 C 
ATOM     37  C   UNL A   1      40.062  28.785  27.772  1.00  0.00     0.029 A 
ATOM     38  N   UNL A   1      40.150  29.347  29.937  1.00  0.00    -0.354 N 
ATOM     39  C   UNL A   1      43.244  27.831  32.518  1.00  0.00     0.074 A 
ATOM     40  C   UNL A   1      44.109  26.913  31.811  1.00  0.00     0.031 C 
ATOM     41  C   UNL A   1      39.038  29.622  28.018  1.00  0.00     0.029 A 
ATOM     42  C   UNL A   1      39.048  29.993  29.433  1.00  0.00     0.049 A 
ATOM     43  H   UNL A   1      40.441  29.428  30.873  1.00  0.00     0.167 HD
ATOM     44  C   UNL A   1      43.405  28.181  33.816  1.00  0.00     0.037 A 
ATOM     45  C   UNL A   1      38.147  30.783  30.050  1.00  0.00     0.037 A 
ATOM     46  C   UNL A   1      42.544  29.080  34.533  1.00  0.00     0.049 A 
ATOM     47  C   UNL A   1      38.298  31.087  31.520  1.00  0.00     0.074 A 
ATOM     48  C   UNL A   1      42.640  29.504  35.848  1.00  0.00     0.029 A 
ATOM     49  N   UNL A   1      41.417  29.686  33.998  1.00  0.00    -0.354 N 
ATOM     50  N   UNL A   1      39.240  30.716  32.353  1.00  0.00    -0.248 NA
ATOM     51  C   UNL A   1      37.257  31.926  32.135  1.00  0.00     0.031 C 
ATOM     52  C   UNL A   1      41.544  30.330  36.121  1.00  0.00     0.029 A 
ATOM     53  C   UNL A   1      40.793  30.458  34.965  1.00  0.00     0.049 A 
ATOM     54  H   UNL A   1      41.107  29.582  33.070  1.00  0.00     0.167 HD
ATOM     55  C   UNL A   1      38.925  31.299  33.574  1.00  0.00     0.074 A 
ATOM     56  C   UNL A   1      37.708  32.055  33.376  1.00  0.00     0.031 C 
ATOM     57  C   UNL A   1      39.589  31.218  34.753  1.00  0.00     0.037 A 
BRANCH  44  58
ATOM     58  C   UNL A   1      44.560  27.570  34.549  1.00  0.00     0.064 A 
ATOM     59  C   UNL A   1      44.436  26.341  35.214  1.00  0.00     0.173 A 
ATOM     60  C   UNL A   1      45.809  28.207  34.568  1.00  0.00     0.173 A 
ATOM     61  F   UNL A   1      43.256  25.703  35.238  1.00  0.00    -0.203 F 
ATOM     62  C   UNL A   1      45.516  25.783  35.890  1.00  0.00     0.198 A 
ATOM     63  C   UNL A   1      46.893  27.634  35.225  1.00  0.00     0.198 A 
ATOM     64  F   UNL A   1      45.977  29.384  33.945  1.00  0.00    -0.203 F 
ATOM     65  F   UNL A   1      45.364  24.629  36.556  1.00  0.00    -0.200 F 
ATOM     66  C   UNL A   1      46.745  26.427  35.891  1.00  0.00     0.200 A 
ATOM     67  F   UNL A   1      48.082  28.253  35.220  1.00  0.00    -0.200 F 
ATOM     68  F   UNL A   1      47.784  25.887  36.542  1.00  0.00    -0.200 F 
ENDBRANCH  44  58
BRANCH  45  69
ATOM     69  C   UNL A   1      37.004  31.348  29.286  1.00  0.00     0.064 A 
ATOM     70  C   UNL A   1      36.971  32.706  28.939  1.00  0.00     0.173 A 
ATOM     71  C   UNL A   1      35.903  30.555  28.934  1.00  0.00     0.173 A 
ATOM     72  F   UNL A   1      37.987  33.510  29.287  1.00  0.00    -0.203 F 
ATOM     73  C   UNL A   1      35.868  33.254  28.287  1.00  0.00     0.198 A 
ATOM     74  C   UNL A   1      34.810  31.100  28.261  1.00  0.00     0.198 A 
ATOM     75  F   UNL A   1      35.882  29.254  29.256  1.00  0.00    -0.203 F 
ATOM     76  F   UNL A   1      35.836  34.567  28.020  1.00  0.00    -0.200 F 
ATOM     77  C   UNL A   1      34.790  32.451  27.947  1.00  0.00     0.200 A 
ATOM     78  F   UNL A   1      33.770  30.320  27.940  1.00  0.00    -0.200 F 
ATOM     79  F   UNL A   1      33.721  32.982  27.338  1.00  0.00    -0.200 F 
ENDBRANCH  45  69
BRANCH  57  80
ATOM     80  C   UNL A   1      39.042  31.992  35.917  1.00  0.00     0.064 A 
ATOM     81  C   UNL A   1      38.185  31.401  36.857  1.00  0.00     0.173 A 
ATOM     82  C   UNL A   1      39.428  33.325  36.127  1.00  0.00     0.173 A 
ATOM     83  F   UNL A   1      37.778  30.134  36.695  1.00  0.00    -0.203 F 
ATOM     84  C   UNL A   1      37.724  32.122  37.956  1.00  0.00     0.198 A 
ATOM     85  C   UNL A   1      38.985  34.034  37.241  1.00  0.00     0.198 A 
ATOM     86  F   UNL A   1      40.252  33.934  35.262  1.00  0.00    -0.203 F 
ATOM     87  F   UNL A   1      36.879  31.547  38.825  1.00  0.00    -0.200 F 
ATOM     88  C   UNL A   1      38.130  33.433  38.152  1.00  0.00     0.200 A 
ATOM     89  F   UNL A   1      39.390  35.298  37.434  1.00  0.00    -0.200 F 
ATOM     90  F   UNL A   1      37.694  34.121  39.217  1.00  0.00    -0.200 F 
ENDBRANCH  57  80
ENDBRANCH  31  32
ENDBRANCH  24  26
ENDBRANCH  23  24
ENDBRANCH  22  23
ENDBRANCH   1  22
TORSDOF 14
ENDMDL
MODEL 2
REMARK VINA RESULT:     -11.9      0.601      2.138
REMARK SMILES O=C(Cc1cccc(-c2ccn(C(F)F)c(=O)c2)c1)OCCOC(=O)c1ccc(-c2c3nc(c(-c4c(F)c(F)c(F)c(F)c4F)c4ccc([nH]4)c(-c4c(F)c(F)c(F)c(F)c4F)c4nc(c(-c5c(F)c(F)c(F)c(F)c5F)c5ccc2[nH]5)C=C4)C=C3)cc1
REMARK SMILES IDX 21 1 20 2 2 3 1 4 3 5 4 6 5 7 19 8 6 9 8 10 7 11 9 12 10 13
REMARK SMILES IDX 18 14 11 15 16 16 12 17 17 18 13 19 14 20 15 21 22 22 23 23
REMARK SMILES IDX 24 24 25 25 26 26 27 27 88 28 28 29 87 30 29 31 30 32 31 33
REMARK SMILES IDX 81 34 32 35 86 36 80 37 82 38 33 39 85 40 79 41 78 42 34 44
REMARK SMILES IDX 66 45 46 46 65 47 47 48 50 49 64 50 83 51 48 52 49 53 63 55
REMARK SMILES IDX 84 56 51 57 35 58 36 59 44 60 37 61 38 62 42 63 45 64 39 65
REMARK SMILES IDX 40 66 43 67 41 68 67 69 68 70 76 71 69 72 70 73 74 74 77 75
REMARK SMILES IDX 71 76 72 77 75 78 73 79 52 80 53 81 61 82 54 83 55 84 59 85
REMARK SMILES IDX 62 86 56 87 57 88 60 89 58 90
REMARK H PARENT 82 43 50 54
REMARK Flexibility Score: inf
ROOT
ATOM      1  C   UNL A   1      43.912  21.244  25.372  1.00  0.00     0.274 C 
ENDROOT
BRANCH   1   2
ATOM      2  O   UNL A   1      42.470  21.286  25.385  1.00  0.00    -0.462 OA
BRANCH   2   3
ATOM      3  C   UNL A   1      41.692  20.902  26.425  1.00  0.00     0.310 C 
ATOM      4  O   UNL A   1      42.182  20.769  27.546  1.00  0.00    -0.252 OA
BRANCH   3   5
ATOM      5  C   UNL A   1      40.225  20.621  26.186  1.00  0.00     0.158 C 
BRANCH   5   6
ATOM      6  C   UNL A   1      39.346  21.836  26.231  1.00  0.00    -0.036 A 
ATOM      7  C   UNL A   1      39.813  23.059  26.726  1.00  0.00     0.004 A 
ATOM      8  C   UNL A   1      38.048  21.762  25.720  1.00  0.00     0.013 A 
ATOM      9  C   UNL A   1      38.985  24.180  26.730  1.00  0.00     0.001 A 
ATOM     10  C   UNL A   1      37.219  22.888  25.693  1.00  0.00    -0.018 A 
ATOM     11  C   UNL A   1      37.690  24.098  26.215  1.00  0.00     0.009 A 
BRANCH  10  12
ATOM     12  C   UNL A   1      35.905  22.756  25.043  1.00  0.00    -0.011 A 
ATOM     13  C   UNL A   1      35.053  21.599  25.230  1.00  0.00     0.027 A 
ATOM     14  C   UNL A   1      35.569  23.677  24.124  1.00  0.00     0.080 A 
ATOM     15  C   UNL A   1      33.986  21.410  24.447  1.00  0.00     0.095 A 
ATOM     16  C   UNL A   1      34.366  23.497  23.269  1.00  0.00     0.255 A 
ATOM     17  N   UNL A   1      33.651  22.328  23.469  1.00  0.00    -0.258 N 
ATOM     18  O   UNL A   1      34.111  24.359  22.433  1.00  0.00    -0.269 OA
BRANCH  17  19
ATOM     19  C   UNL A   1      32.541  22.084  22.588  1.00  0.00     0.451 C 
ATOM     20  F   UNL A   1      32.095  20.810  22.704  1.00  0.00    -0.185 F 
ATOM     21  F   UNL A   1      31.509  22.918  22.871  1.00  0.00    -0.185 F 
ENDBRANCH  17  19
ENDBRANCH  10  12
ENDBRANCH   5   6
ENDBRANCH   3   5
ENDBRANCH   2   3
ENDBRANCH   1   2
BRANCH   1  22
ATOM     22  C   UNL A   1      44.509  22.372  24.526  1.00  0.00     0.275 C 
BRANCH  22  23
ATOM     23  O   UNL A   1      43.786  23.599  24.737  1.00  0.00    -0.458 OA
BRANCH  23  24
ATOM     24  C   UNL A   1      44.539  24.664  25.112  1.00  0.00     0.338 C 
ATOM     25  O   UNL A   1      45.580  25.036  24.597  1.00  0.00    -0.246 OA
BRANCH  24  26
ATOM     26  C   UNL A   1      43.807  25.453  26.132  1.00  0.00     0.060 A 
ATOM     27  C   UNL A   1      44.107  26.817  26.243  1.00  0.00     0.016 A 
ATOM     28  C   UNL A   1      42.817  24.888  26.944  1.00  0.00     0.016 A 
ATOM     29  C   UNL A   1      43.448  27.608  27.186  1.00  0.00     0.010 A 
ATOM     30  C   UNL A   1      42.160  25.681  27.892  1.00  0.00     0.010 A 
ATOM     31  C   UNL A   1      42.493  27.038  28.038  1.00  0.00    -0.014 A 
BRANCH  31  32
ATOM     32  C   UNL A   1      41.968  27.815  29.188  1.00  0.00     0.031 A 
ATOM     33  C   UNL A   1      42.699  27.738  30.501  1.00  0.00     0.074 A 
ATOM     34  C   UNL A   1      40.870  28.585  29.078  1.00  0.00     0.049 A 
ATOM     35  N   UNL A   1      42.427  28.322  31.641  1.00  0.00    -0.248 NA
ATOM     36  C   UNL A   1      43.897  26.885  30.531  1.00  0.00     0.031 C 
ATOM     37  C   UNL A   1      40.082  28.768  27.862  1.00  0.00     0.029 A 
ATOM     38  N   UNL A   1      40.227  29.352  30.018  1.00  0.00    -0.354 N 
ATOM     39  C   UNL A   1      43.425  27.917  32.516  1.00  0.00     0.074 A 
ATOM     40  C   UNL A   1      44.285  27.008  31.791  1.00  0.00     0.031 C 
ATOM     41  C   UNL A   1      39.051  29.589  28.132  1.00  0.00     0.029 A 
ATOM     42  C   UNL A   1      39.098  29.974  29.543  1.00  0.00     0.049 A 
ATOM     43  H   UNL A   1      40.545  29.448  30.944  1.00  0.00     0.167 HD
ATOM     44  C   UNL A   1      43.620  28.282  33.805  1.00  0.00     0.037 A 
ATOM     45  C   UNL A   1      38.203  30.753  30.180  1.00  0.00     0.037 A 
ATOM     46  C   UNL A   1      42.765  29.173  34.540  1.00  0.00     0.049 A 
ATOM     47  C   UNL A   1      38.393  31.074  31.642  1.00  0.00     0.074 A 
ATOM     48  C   UNL A   1      42.894  29.611  35.847  1.00  0.00     0.029 A 
ATOM     49  N   UNL A   1      41.611  29.753  34.035  1.00  0.00    -0.354 N 
ATOM     50  N   UNL A   1      39.366  30.728  32.449  1.00  0.00    -0.248 NA
ATOM     51  C   UNL A   1      37.357  31.901  32.281  1.00  0.00     0.031 C 
ATOM     52  C   UNL A   1      41.793  30.421  36.147  1.00  0.00     0.029 A 
ATOM     53  C   UNL A   1      41.003  30.524  35.014  1.00  0.00     0.049 A 
ATOM     54  H   UNL A   1      41.275  29.635  33.118  1.00  0.00     0.167 HD
ATOM     55  C   UNL A   1      39.079  31.318  33.674  1.00  0.00     0.074 A 
ATOM     56  C   UNL A   1      37.842  32.050  33.506  1.00  0.00     0.031 C 
ATOM     57  C   UNL A   1      39.780  31.260  34.832  1.00  0.00     0.037 A 
BRANCH  44  58
ATOM     58  C   UNL A   1      44.808  27.700  34.508  1.00  0.00     0.064 A 
ATOM     59  C   UNL A   1      46.049  28.356  34.512  1.00  0.00     0.173 A 
ATOM     60  C   UNL A   1      44.701  26.487  35.202  1.00  0.00     0.173 A 
ATOM     61  F   UNL A   1      46.203  29.511  33.846  1.00  0.00    -0.203 F 
ATOM     62  C   UNL A   1      47.145  27.806  35.168  1.00  0.00     0.198 A 
ATOM     63  C   UNL A   1      45.794  25.952  35.878  1.00  0.00     0.198 A 
ATOM     64  F   UNL A   1      43.535  25.823  35.228  1.00  0.00    -0.203 F 
ATOM     65  F   UNL A   1      48.332  28.427  35.122  1.00  0.00    -0.200 F 
ATOM     66  C   UNL A   1      47.015  26.607  35.855  1.00  0.00     0.200 A 
ATOM     67  F   UNL A   1      45.666  24.798  36.547  1.00  0.00    -0.200 F 
ATOM     68  F   UNL A   1      48.073  26.079  36.488  1.00  0.00    -0.200 F 
ENDBRANCH  44  58
BRANCH  45  69
ATOM     69  C   UNL A   1      37.026  31.291  29.446  1.00  0.00     0.064 A 
ATOM     70  C   UNL A   1      35.954  30.459  29.096  1.00  0.00     0.173 A 
ATOM     71  C   UNL A   1      36.976  32.631  29.039  1.00  0.00     0.173 A 
ATOM     72  F   UNL A   1      35.976  29.161  29.433  1.00  0.00    -0.203 F 
ATOM     73  C   UNL A   1      34.885  30.944  28.345  1.00  0.00     0.198 A 
ATOM     74  C   UNL A   1      35.895  33.120  28.308  1.00  0.00     0.198 A 
ATOM     75  F   UNL A   1      37.984  33.463  29.339  1.00  0.00    -0.203 F 
ATOM     76  F   UNL A   1      33.902  30.113  27.971  1.00  0.00    -0.200 F 
ATOM     77  C   UNL A   1      34.855  32.273  27.953  1.00  0.00     0.200 A 
ATOM     78  F   UNL A   1      35.874  34.405  27.928  1.00  0.00    -0.200 F 
ATOM     79  F   UNL A   1      33.837  32.734  27.214  1.00  0.00    -0.200 F 
ENDBRANCH  45  69
BRANCH  57  80
ATOM     80  C   UNL A   1      39.255  32.036  36.005  1.00  0.00     0.064 A 
ATOM     81  C   UNL A   1      39.643  33.362  36.243  1.00  0.00     0.173 A 
ATOM     82  C   UNL A   1      38.305  31.464  36.866  1.00  0.00     0.173 A 
ATOM     83  F   UNL A   1      40.555  33.950  35.456  1.00  0.00    -0.203 F 
ATOM     84  C   UNL A   1      39.110  34.082  37.310  1.00  0.00     0.198 A 
ATOM     85  C   UNL A   1      37.756  32.195  37.916  1.00  0.00     0.198 A 
ATOM     86  F   UNL A   1      37.895  30.201  36.677  1.00  0.00    -0.203 F 
ATOM     87  F   UNL A   1      39.519  35.338  37.539  1.00  0.00    -0.200 F 
ATOM     88  C   UNL A   1      38.163  33.502  38.140  1.00  0.00     0.200 A 
ATOM     89  F   UNL A   1      36.831  31.637  38.709  1.00  0.00    -0.200 F 
ATOM     90  F   UNL A   1      37.642  34.201  39.159  1.00  0.00    -0.200 F 
ENDBRANCH  57  80
ENDBRANCH  31  32
ENDBRANCH  24  26
ENDBRANCH  23  24
ENDBRANCH  22  23
ENDBRANCH   1  22
TORSDOF 14
ENDMDL
MODEL 3
REMARK VINA RESULT:     -11.9      3.852      8.880
REMARK SMILES O=C(Cc1cccc(-c2ccn(C(F)F)c(=O)c2)c1)OCCOC(=O)c1ccc(-c2c3nc(c(-c4c(F)c(F)c(F)c(F)c4F)c4ccc([nH]4)c(-c4c(F)c(F)c(F)c(F)c4F)c4nc(c(-c5c(F)c(F)c(F)c(F)c5F)c5ccc2[nH]5)C=C4)C=C3)cc1
REMARK SMILES IDX 21 1 20 2 2 3 1 4 3 5 4 6 5 7 19 8 6 9 8 10 7 11 9 12 10 13
REMARK SMILES IDX 18 14 11 15 16 16 12 17 17 18 13 19 14 20 15 21 22 22 23 23
REMARK SMILES IDX 24 24 25 25 26 26 27 27 88 28 28 29 87 30 29 31 30 32 31 33
REMARK SMILES IDX 81 34 32 35 86 36 80 37 82 38 33 39 85 40 79 41 78 42 34 44
REMARK SMILES IDX 66 45 46 46 65 47 47 48 50 49 64 50 83 51 48 52 49 53 63 55
REMARK SMILES IDX 84 56 51 57 35 58 36 59 44 60 37 61 38 62 42 63 45 64 39 65
REMARK SMILES IDX 40 66 43 67 41 68 67 69 68 70 76 71 69 72 70 73 74 74 77 75
REMARK SMILES IDX 71 76 72 77 75 78 73 79 52 80 53 81 61 82 54 83 55 84 59 85
REMARK SMILES IDX 62 86 56 87 57 88 60 89 58 90
REMARK H PARENT 82 43 50 54
REMARK Flexibility Score: inf
ROOT
ATOM      1  C   UNL A   1      31.777  31.691  26.755  1.00  0.00     0.274 C 
ENDROOT
BRANCH   1   2
ATOM      2  O   UNL A   1      32.744  30.861  27.430  1.00  0.00    -0.462 OA
BRANCH   2   3
ATOM      3  C   UNL A   1      33.678  30.098  26.814  1.00  0.00     0.310 C 
ATOM      4  O   UNL A   1      34.819  30.032  27.270  1.00  0.00    -0.252 OA
BRANCH   3   5
ATOM      5  C   UNL A   1      33.307  29.349  25.552  1.00  0.00     0.158 C 
BRANCH   5   6
ATOM      6  C   UNL A   1      32.730  27.985  25.790  1.00  0.00    -0.036 A 
ATOM      7  C   UNL A   1      31.351  27.786  25.922  1.00  0.00     0.004 A 
ATOM      8  C   UNL A   1      33.582  26.879  25.830  1.00  0.00     0.013 A 
ATOM      9  C   UNL A   1      30.839  26.504  26.115  1.00  0.00     0.001 A 
ATOM     10  C   UNL A   1      33.076  25.585  25.994  1.00  0.00    -0.018 A 
ATOM     11  C   UNL A   1      31.698  25.403  26.150  1.00  0.00     0.009 A 
BRANCH  10  12
ATOM     12  C   UNL A   1      34.026  24.463  25.919  1.00  0.00    -0.011 A 
ATOM     13  C   UNL A   1      35.150  24.451  25.003  1.00  0.00     0.027 A 
ATOM     14  C   UNL A   1      33.737  23.354  26.619  1.00  0.00     0.080 A 
ATOM     15  C   UNL A   1      35.844  23.327  24.800  1.00  0.00     0.095 A 
ATOM     16  C   UNL A   1      34.523  22.106  26.428  1.00  0.00     0.255 A 
ATOM     17  N   UNL A   1      35.533  22.166  25.482  1.00  0.00    -0.258 N 
ATOM     18  O   UNL A   1      34.209  21.114  27.080  1.00  0.00    -0.269 OA
BRANCH  17  19
ATOM     19  C   UNL A   1      36.242  20.945  25.208  1.00  0.00     0.451 C 
ATOM     20  F   UNL A   1      35.432  20.028  24.626  1.00  0.00    -0.185 F 
ATOM     21  F   UNL A   1      37.287  21.172  24.374  1.00  0.00    -0.185 F 
ENDBRANCH  17  19
ENDBRANCH  10  12
ENDBRANCH   5   6
ENDBRANCH   3   5
ENDBRANCH   2   3
ENDBRANCH   1   2
BRANCH   1  22
ATOM     22  C   UNL A   1      32.136  33.176  26.845  1.00  0.00     0.275 C 
BRANCH  22  23
ATOM     23  O   UNL A   1      32.410  33.548  28.210  1.00  0.00    -0.458 OA
BRANCH  23  24
ATOM     24  C   UNL A   1      33.503  34.330  28.394  1.00  0.00     0.338 C 
ATOM     25  O   UNL A   1      33.537  35.548  28.377  1.00  0.00    -0.246 OA
BRANCH  24  26
ATOM     26  C   UNL A   1      34.645  33.488  28.827  1.00  0.00     0.060 A 
ATOM     27  C   UNL A   1      34.403  32.507  29.796  1.00  0.00     0.016 A 
ATOM     28  C   UNL A   1      35.924  33.624  28.275  1.00  0.00     0.016 A 
ATOM     29  C   UNL A   1      35.441  31.685  30.241  1.00  0.00     0.010 A 
ATOM     30  C   UNL A   1      36.965  32.804  28.724  1.00  0.00     0.010 A 
ATOM     31  C   UNL A   1      36.736  31.850  29.730  1.00  0.00    -0.014 A 
BRANCH  31  32
ATOM     32  C   UNL A   1      37.878  31.148  30.365  1.00  0.00     0.031 A 
ATOM     33  C   UNL A   1      38.215  31.469  31.795  1.00  0.00     0.074 A 
ATOM     34  C   UNL A   1      38.603  30.232  29.697  1.00  0.00     0.049 A 
ATOM     35  N   UNL A   1      39.167  30.989  32.555  1.00  0.00    -0.248 NA
ATOM     36  C   UNL A   1      37.364  32.471  32.456  1.00  0.00     0.031 C 
ATOM     37  C   UNL A   1      38.371  29.809  28.319  1.00  0.00     0.029 A 
ATOM     38  N   UNL A   1      39.693  29.498  30.098  1.00  0.00    -0.354 N 
ATOM     39  C   UNL A   1      39.020  31.619  33.783  1.00  0.00     0.074 A 
ATOM     40  C   UNL A   1      37.915  32.545  33.657  1.00  0.00     0.031 C 
ATOM     41  C   UNL A   1      39.300  28.895  27.983  1.00  0.00     0.029 A 
ATOM     42  C   UNL A   1      40.201  28.683  29.116  1.00  0.00     0.049 A 
ATOM     43  H   UNL A   1      40.074  29.552  31.003  1.00  0.00     0.167 HD
ATOM     44  C   UNL A   1      39.730  31.432  34.921  1.00  0.00     0.037 A 
ATOM     45  C   UNL A   1      41.275  27.870  29.132  1.00  0.00     0.037 A 
ATOM     46  C   UNL A   1      40.837  30.526  35.054  1.00  0.00     0.049 A 
ATOM     47  C   UNL A   1      42.104  27.746  30.385  1.00  0.00     0.074 A 
ATOM     48  C   UNL A   1      41.606  30.261  36.175  1.00  0.00     0.029 A 
ATOM     49  N   UNL A   1      41.343  29.745  34.026  1.00  0.00    -0.354 N 
ATOM     50  N   UNL A   1      41.928  28.308  31.557  1.00  0.00    -0.248 NA
ATOM     51  C   UNL A   1      43.284  26.868  30.318  1.00  0.00     0.031 C 
ATOM     52  C   UNL A   1      42.606  29.353  35.812  1.00  0.00     0.029 A 
ATOM     53  C   UNL A   1      42.432  29.018  34.480  1.00  0.00     0.049 A 
ATOM     54  H   UNL A   1      40.982  29.712  33.112  1.00  0.00     0.167 HD
ATOM     55  C   UNL A   1      42.948  27.829  32.370  1.00  0.00     0.074 A 
ATOM     56  C   UNL A   1      43.739  26.925  31.562  1.00  0.00     0.031 C 
ATOM     57  C   UNL A   1      43.204  28.111  33.671  1.00  0.00     0.037 A 
BRANCH  44  58
ATOM     58  C   UNL A   1      39.329  32.243  36.116  1.00  0.00     0.064 A 
ATOM     59  C   UNL A   1      39.899  33.500  36.369  1.00  0.00     0.173 A 
ATOM     60  C   UNL A   1      38.352  31.771  37.003  1.00  0.00     0.173 A 
ATOM     61  F   UNL A   1      40.850  33.986  35.558  1.00  0.00    -0.203 F 
ATOM     62  C   UNL A   1      39.519  34.245  37.481  1.00  0.00     0.198 A 
ATOM     63  C   UNL A   1      37.957  32.529  38.100  1.00  0.00     0.198 A 
ATOM     64  F   UNL A   1      37.778  30.574  36.802  1.00  0.00    -0.203 F 
ATOM     65  F   UNL A   1      40.107  35.424  37.729  1.00  0.00    -0.200 F 
ATOM     66  C   UNL A   1      38.545  33.761  38.342  1.00  0.00     0.200 A 
ATOM     67  F   UNL A   1      37.011  32.065  38.929  1.00  0.00    -0.200 F 
ATOM     68  F   UNL A   1      38.179  34.481  39.413  1.00  0.00    -0.200 F 
ENDBRANCH  44  58
BRANCH  45  69
ATOM     69  C   UNL A   1      41.646  27.102  27.914  1.00  0.00     0.064 A 
ATOM     70  C   UNL A   1      41.142  25.813  27.694  1.00  0.00     0.173 A 
ATOM     71  C   UNL A   1      42.549  27.621  26.976  1.00  0.00     0.173 A 
ATOM     72  F   UNL A   1      40.302  25.262  28.584  1.00  0.00    -0.203 F 
ATOM     73  C   UNL A   1      41.545  25.062  26.592  1.00  0.00     0.198 A 
ATOM     74  C   UNL A   1      42.934  26.878  25.861  1.00  0.00     0.198 A 
ATOM     75  F   UNL A   1      43.069  28.844  27.149  1.00  0.00    -0.203 F 
ATOM     76  F   UNL A   1      41.094  23.810  26.436  1.00  0.00    -0.200 F 
ATOM     77  C   UNL A   1      42.439  25.595  25.675  1.00  0.00     0.200 A 
ATOM     78  F   UNL A   1      43.802  27.396  24.982  1.00  0.00    -0.200 F 
ATOM     79  F   UNL A   1      42.842  24.866  24.626  1.00  0.00    -0.200 F 
ENDBRANCH  45  69
BRANCH  57  80
ATOM     80  C   UNL A   1      44.361  27.412  34.322  1.00  0.00     0.064 A 
ATOM     81  C   UNL A   1      45.637  27.991  34.373  1.00  0.00     0.173 A 
ATOM     82  C   UNL A   1      44.177  26.173  34.957  1.00  0.00     0.173 A 
ATOM     83  F   UNL A   1      45.868  29.168  33.773  1.00  0.00    -0.203 F 
ATOM     84  C   UNL A   1      46.689  27.349  35.022  1.00  0.00     0.198 A 
ATOM     85  C   UNL A   1      45.224  25.546  35.626  1.00  0.00     0.198 A 
ATOM     86  F   UNL A   1      42.974  25.580  34.943  1.00  0.00    -0.203 F 
ATOM     87  F   UNL A   1      47.909  27.906  35.030  1.00  0.00    -0.200 F 
ATOM     88  C   UNL A   1      46.481  26.132  35.654  1.00  0.00     0.200 A 
ATOM     89  F   UNL A   1      45.017  24.376  36.248  1.00  0.00    -0.200 F 
ATOM     90  F   UNL A   1      47.492  25.521  36.288  1.00  0.00    -0.200 F 
ENDBRANCH  57  80
ENDBRANCH  31  32
ENDBRANCH  24  26
ENDBRANCH  23  24
ENDBRANCH  22  23
ENDBRANCH   1  22
TORSDOF 14
ENDMDL
