MODEL 1
REMARK VINA RESULT:     -11.1      0.000      0.000
REMARK SMILES O=C(CN(CC(=O)OCCOC(=O)c1ccc(-c2c3nc(c(-c4c(F)c(F)c(F)c(F)c4F)c4ccc([nH]4)c(-c4c(F)c(F)c(F)c(F)c4F)c4nc(c(-c5c(F)c(F)c(F)c(F)c5F)c5ccc2[nH]5)C=C4)C=C3)cc1)c1ccccc1)NCc1ccccc1
REMARK SMILES IDX 8 1 6 2 7 3 5 4 4 5 3 6 2 7 1 8 83 9 84 11 85 12 86 13 90 14
REMARK SMILES IDX 87 15 89 16 88 17 77 18 78 19 82 20 79 21 81 22 80 23 9 24
REMARK SMILES IDX 10 25 11 26 12 27 13 28 14 29 15 30 76 31 16 32 75 33 17 34
REMARK SMILES IDX 18 35 19 36 69 37 20 38 74 39 68 40 70 41 21 42 73 43 67 44
REMARK SMILES IDX 66 45 22 47 54 48 34 49 53 50 35 51 38 52 52 53 71 54 36 55
REMARK SMILES IDX 37 56 51 58 72 59 39 60 23 61 24 62 32 63 25 64 26 65 30 66
REMARK SMILES IDX 33 67 27 68 28 69 31 70 29 71 55 72 56 73 64 74 57 75 58 76
REMARK SMILES IDX 62 77 65 78 59 79 60 80 63 81 61 82 40 83 41 84 49 85 42 86
REMARK SMILES IDX 43 87 47 88 50 89 44 90 45 91 48 92 46 93
REMARK H PARENT 83 10 70 46 38 57
REMARK Flexibility Score: inf
ROOT
ATOM      1  O   UNL A   1      31.914  29.332  24.034  1.00  0.00    -0.461 OA
ENDROOT
BRANCH   1   2
ATOM      2  C   UNL A   1      31.275  28.869  22.928  1.00  0.00     0.325 C 
ATOM      3  O   UNL A   1      30.461  29.524  22.277  1.00  0.00    -0.250 OA
BRANCH   2   4
ATOM      4  C   UNL A   1      31.648  27.455  22.496  1.00  0.00     0.239 C 
BRANCH   4   5
ATOM      5  N   UNL A   1      31.605  26.395  23.507  1.00  0.00    -0.351 N 
BRANCH   5   6
ATOM      6  C   UNL A   1      30.315  26.033  24.132  1.00  0.00     0.217 C 
BRANCH   6   7
ATOM      7  C   UNL A   1      30.443  25.249  25.454  1.00  0.00     0.239 C 
ATOM      8  O   UNL A   1      30.639  25.818  26.526  1.00  0.00    -0.273 OA
ATOM      9  N   UNL A   1      30.278  23.881  25.358  1.00  0.00    -0.350 N 
ATOM     10  H   UNL A   1      29.898  23.502  24.532  1.00  0.00     0.163 HD
BRANCH   9  11
ATOM     11  C   UNL A   1      30.647  22.986  26.433  1.00  0.00     0.151 C 
BRANCH  11  12
ATOM     12  C   UNL A   1      32.005  22.345  26.306  1.00  0.00    -0.029 A 
ATOM     13  C   UNL A   1      32.176  21.342  25.337  1.00  0.00     0.005 A 
ATOM     14  C   UNL A   1      33.072  22.630  27.167  1.00  0.00     0.005 A 
ATOM     15  C   UNL A   1      33.385  20.658  25.215  1.00  0.00     0.000 A 
ATOM     16  C   UNL A   1      34.286  21.945  27.043  1.00  0.00     0.000 A 
ATOM     17  C   UNL A   1      34.442  20.962  26.067  1.00  0.00     0.000 A 
ENDBRANCH  11  12
ENDBRANCH   9  11
ENDBRANCH   6   7
ENDBRANCH   5   6
BRANCH   5  18
ATOM     18  C   UNL A   1      32.658  25.492  23.570  1.00  0.00     0.038 A 
ATOM     19  C   UNL A   1      33.670  25.647  24.521  1.00  0.00     0.026 A 
ATOM     20  C   UNL A   1      32.763  24.409  22.686  1.00  0.00     0.026 A 
ATOM     21  C   UNL A   1      34.753  24.761  24.579  1.00  0.00     0.002 A 
ATOM     22  C   UNL A   1      33.830  23.508  22.753  1.00  0.00     0.002 A 
ATOM     23  C   UNL A   1      34.832  23.689  23.698  1.00  0.00     0.000 A 
ENDBRANCH   5  18
ENDBRANCH   4   5
ENDBRANCH   2   4
ENDBRANCH   1   2
BRANCH   1  24
ATOM     24  C   UNL A   1      31.083  30.005  25.001  1.00  0.00     0.274 C 
BRANCH  24  25
ATOM     25  C   UNL A   1      31.780  30.090  26.357  1.00  0.00     0.275 C 
BRANCH  25  26
ATOM     26  O   UNL A   1      33.102  30.634  26.193  1.00  0.00    -0.458 OA
BRANCH  26  27
ATOM     27  C   UNL A   1      33.493  31.483  27.172  1.00  0.00     0.338 C 
ATOM     28  O   UNL A   1      32.947  32.514  27.523  1.00  0.00    -0.246 OA
BRANCH  27  29
ATOM     29  C   UNL A   1      34.759  31.024  27.768  1.00  0.00     0.060 A 
ATOM     30  C   UNL A   1      34.913  29.710  28.209  1.00  0.00     0.016 A 
ATOM     31  C   UNL A   1      35.756  31.971  28.005  1.00  0.00     0.016 A 
ATOM     32  C   UNL A   1      36.035  29.360  28.958  1.00  0.00     0.010 A 
ATOM     33  C   UNL A   1      36.910  31.605  28.701  1.00  0.00     0.010 A 
ATOM     34  C   UNL A   1      37.041  30.307  29.215  1.00  0.00    -0.014 A 
BRANCH  34  35
ATOM     35  C   UNL A   1      38.237  29.930  30.005  1.00  0.00     0.031 A 
ATOM     36  C   UNL A   1      39.287  29.022  29.428  1.00  0.00     0.074 A 
ATOM     37  C   UNL A   1      38.373  30.417  31.251  1.00  0.00     0.049 A 
ATOM     38  N   UNL A   1      40.376  28.557  29.989  1.00  0.00    -0.248 NA
ATOM     39  C   UNL A   1      39.088  28.572  28.042  1.00  0.00     0.031 C 
ATOM     40  C   UNL A   1      37.416  31.303  31.914  1.00  0.00     0.029 A 
ATOM     41  N   UNL A   1      39.369  30.246  32.178  1.00  0.00    -0.354 N 
ATOM     42  C   UNL A   1      40.977  27.743  29.039  1.00  0.00     0.074 A 
ATOM     43  C   UNL A   1      40.130  27.769  27.865  1.00  0.00     0.031 C 
ATOM     44  C   UNL A   1      37.888  31.627  33.127  1.00  0.00     0.029 A 
ATOM     45  C   UNL A   1      39.154  30.935  33.343  1.00  0.00     0.049 A 
ATOM     46  H   UNL A   1      40.162  29.682  32.021  1.00  0.00     0.167 HD
ATOM     47  C   UNL A   1      42.130  27.038  29.141  1.00  0.00     0.037 A 
ATOM     48  C   UNL A   1      39.891  30.996  34.468  1.00  0.00     0.037 A 
ATOM     49  C   UNL A   1      42.978  27.026  30.307  1.00  0.00     0.049 A 
ATOM     50  C   UNL A   1      41.171  30.219  34.546  1.00  0.00     0.074 A 
ATOM     51  C   UNL A   1      44.169  26.348  30.506  1.00  0.00     0.029 A 
ATOM     52  N   UNL A   1      42.725  27.736  31.472  1.00  0.00    -0.354 N 
ATOM     53  N   UNL A   1      41.722  29.443  33.645  1.00  0.00    -0.248 NA
ATOM     54  C   UNL A   1      41.929  30.322  35.800  1.00  0.00     0.031 C 
ATOM     55  C   UNL A   1      44.622  26.625  31.801  1.00  0.00     0.029 A 
ATOM     56  C   UNL A   1      43.732  27.504  32.397  1.00  0.00     0.049 A 
ATOM     57  H   UNL A   1      41.945  28.318  31.621  1.00  0.00     0.167 HD
ATOM     58  C   UNL A   1      42.889  28.963  34.220  1.00  0.00     0.074 A 
ATOM     59  C   UNL A   1      42.982  29.559  35.537  1.00  0.00     0.031 C 
ATOM     60  C   UNL A   1      43.796  28.095  33.708  1.00  0.00     0.037 A 
BRANCH  47  61
ATOM     61  C   UNL A   1      42.538  26.197  27.968  1.00  0.00     0.064 A 
ATOM     62  C   UNL A   1      42.002  24.918  27.757  1.00  0.00     0.173 A 
ATOM     63  C   UNL A   1      43.436  26.698  27.013  1.00  0.00     0.173 A 
ATOM     64  F   UNL A   1      41.150  24.388  28.647  1.00  0.00    -0.203 F 
ATOM     65  C   UNL A   1      42.361  24.166  26.640  1.00  0.00     0.198 A 
ATOM     66  C   UNL A   1      43.777  25.952  25.887  1.00  0.00     0.198 A 
ATOM     67  F   UNL A   1      43.972  27.918  27.165  1.00  0.00    -0.203 F 
ATOM     68  F   UNL A   1      41.860  22.934  26.474  1.00  0.00    -0.200 F 
ATOM     69  C   UNL A   1      43.242  24.686  25.703  1.00  0.00     0.200 A 
ATOM     70  F   UNL A   1      44.621  26.460  24.978  1.00  0.00    -0.200 F 
ATOM     71  F   UNL A   1      43.580  23.965  24.625  1.00  0.00    -0.200 F 
ENDBRANCH  47  61
BRANCH  48  72
ATOM     72  C   UNL A   1      39.427  31.839  35.596  1.00  0.00     0.064 A 
ATOM     73  C   UNL A   1      39.845  33.170  35.717  1.00  0.00     0.173 A 
ATOM     74  C   UNL A   1      38.522  31.346  36.547  1.00  0.00     0.173 A 
ATOM     75  F   UNL A   1      40.725  33.677  34.841  1.00  0.00    -0.203 F 
ATOM     76  C   UNL A   1      39.375  33.979  36.749  1.00  0.00     0.198 A 
ATOM     77  C   UNL A   1      38.034  32.162  37.564  1.00  0.00     0.198 A 
ATOM     78  F   UNL A   1      38.090  30.079  36.468  1.00  0.00    -0.203 F 
ATOM     79  F   UNL A   1      39.808  35.242  36.856  1.00  0.00    -0.200 F 
ATOM     80  C   UNL A   1      38.463  33.476  37.665  1.00  0.00     0.200 A 
ATOM     81  F   UNL A   1      37.141  31.678  38.438  1.00  0.00    -0.200 F 
ATOM     82  F   UNL A   1      37.998  34.260  38.647  1.00  0.00    -0.200 F 
ENDBRANCH  48  72
BRANCH  60  83
ATOM     83  C   UNL A   1      44.958  27.746  34.587  1.00  0.00     0.064 A 
ATOM     84  C   UNL A   1      46.158  28.471  34.528  1.00  0.00     0.173 A 
ATOM     85  C   UNL A   1      44.875  26.677  35.489  1.00  0.00     0.173 A 
ATOM     86  F   UNL A   1      46.288  29.491  33.666  1.00  0.00    -0.203 F 
ATOM     87  C   UNL A   1      47.247  28.115  35.318  1.00  0.00     0.198 A 
ATOM     88  C   UNL A   1      45.959  26.337  36.293  1.00  0.00     0.198 A 
ATOM     89  F   UNL A   1      43.748  25.957  35.583  1.00  0.00    -0.203 F 
ATOM     90  F   UNL A   1      48.400  28.787  35.208  1.00  0.00    -0.200 F 
ATOM     91  C   UNL A   1      47.145  27.050  36.201  1.00  0.00     0.200 A 
ATOM     92  F   UNL A   1      45.861  25.309  37.149  1.00  0.00    -0.200 F 
ATOM     93  F   UNL A   1      48.199  26.701  36.953  1.00  0.00    -0.200 F 
ENDBRANCH  60  83
ENDBRANCH  34  35
ENDBRANCH  27  29
ENDBRANCH  26  27
ENDBRANCH  25  26
ENDBRANCH  24  25
ENDBRANCH   1  24
TORSDOF 17
ENDMDL
MODEL 2
REMARK VINA RESULT:     -11.1      4.344      7.059
REMARK SMILES O=C(CN(CC(=O)OCCOC(=O)c1ccc(-c2c3nc(c(-c4c(F)c(F)c(F)c(F)c4F)c4ccc([nH]4)c(-c4c(F)c(F)c(F)c(F)c4F)c4nc(c(-c5c(F)c(F)c(F)c(F)c5F)c5ccc2[nH]5)C=C4)C=C3)cc1)c1ccccc1)NCc1ccccc1
REMARK SMILES IDX 8 1 6 2 7 3 5 4 4 5 3 6 2 7 1 8 83 9 84 11 85 12 86 13 90 14
REMARK SMILES IDX 87 15 89 16 88 17 77 18 78 19 82 20 79 21 81 22 80 23 9 24
REMARK SMILES IDX 10 25 11 26 12 27 13 28 14 29 15 30 76 31 16 32 75 33 17 34
REMARK SMILES IDX 18 35 19 36 69 37 20 38 74 39 68 40 70 41 21 42 73 43 67 44
REMARK SMILES IDX 66 45 22 47 54 48 34 49 53 50 35 51 38 52 52 53 71 54 36 55
REMARK SMILES IDX 37 56 51 58 72 59 39 60 23 61 24 62 32 63 25 64 26 65 30 66
REMARK SMILES IDX 33 67 27 68 28 69 31 70 29 71 55 72 56 73 64 74 57 75 58 76
REMARK SMILES IDX 62 77 65 78 59 79 60 80 63 81 61 82 40 83 41 84 49 85 42 86
REMARK SMILES IDX 43 87 47 88 50 89 44 90 45 91 48 92 46 93
REMARK H PARENT 83 10 70 46 38 57
REMARK Flexibility Score: inf
ROOT
ATOM      1  O   UNL A   1      35.353  21.624  25.840  1.00  0.00    -0.461 OA
ENDROOT
BRANCH   1   2
ATOM      2  C   UNL A   1      34.173  21.508  26.501  1.00  0.00     0.325 C 
ATOM      3  O   UNL A   1      34.072  21.437  27.726  1.00  0.00    -0.250 OA
BRANCH   2   4
ATOM      4  C   UNL A   1      32.926  21.498  25.624  1.00  0.00     0.239 C 
BRANCH   4   5
ATOM      5  N   UNL A   1      32.725  22.621  24.704  1.00  0.00    -0.351 N 
BRANCH   5   6
ATOM      6  C   UNL A   1      32.556  22.361  23.259  1.00  0.00     0.217 C 
BRANCH   6   7
ATOM      7  C   UNL A   1      33.070  23.488  22.341  1.00  0.00     0.239 C 
ATOM      8  O   UNL A   1      34.260  23.591  22.049  1.00  0.00    -0.273 OA
ATOM      9  N   UNL A   1      32.105  24.339  21.837  1.00  0.00    -0.350 N 
ATOM     10  H   UNL A   1      31.157  24.081  21.909  1.00  0.00     0.163 HD
BRANCH   9  11
ATOM     11  C   UNL A   1      32.444  25.596  21.209  1.00  0.00     0.151 C 
BRANCH  11  12
ATOM     12  C   UNL A   1      32.375  26.808  22.102  1.00  0.00    -0.029 A 
ATOM     13  C   UNL A   1      33.579  27.329  22.604  1.00  0.00     0.005 A 
ATOM     14  C   UNL A   1      31.170  27.379  22.530  1.00  0.00     0.005 A 
ATOM     15  C   UNL A   1      33.582  28.405  23.492  1.00  0.00     0.000 A 
ATOM     16  C   UNL A   1      31.174  28.460  23.418  1.00  0.00     0.000 A 
ATOM     17  C   UNL A   1      32.378  28.972  23.897  1.00  0.00     0.000 A 
ENDBRANCH  11  12
ENDBRANCH   9  11
ENDBRANCH   6   7
ENDBRANCH   5   6
BRANCH   5  18
ATOM     18  C   UNL A   1      32.299  23.837  25.221  1.00  0.00     0.038 A 
ATOM     19  C   UNL A   1      33.228  24.789  25.654  1.00  0.00     0.026 A 
ATOM     20  C   UNL A   1      30.941  24.158  25.347  1.00  0.00     0.026 A 
ATOM     21  C   UNL A   1      32.814  26.008  26.204  1.00  0.00     0.002 A 
ATOM     22  C   UNL A   1      30.521  25.383  25.874  1.00  0.00     0.002 A 
ATOM     23  C   UNL A   1      31.460  26.308  26.311  1.00  0.00     0.000 A 
ENDBRANCH   5  18
ENDBRANCH   4   5
ENDBRANCH   2   4
ENDBRANCH   1   2
BRANCH   1  24
ATOM     24  C   UNL A   1      35.750  20.477  25.062  1.00  0.00     0.274 C 
BRANCH  24  25
ATOM     25  C   UNL A   1      37.271  20.377  24.969  1.00  0.00     0.275 C 
BRANCH  25  26
ATOM     26  O   UNL A   1      37.870  21.592  25.455  1.00  0.00    -0.458 OA
BRANCH  26  27
ATOM     27  C   UNL A   1      39.051  21.427  26.094  1.00  0.00     0.338 C 
ATOM     28  O   UNL A   1      39.652  20.385  26.287  1.00  0.00    -0.246 OA
BRANCH  27  29
ATOM     29  C   UNL A   1      39.535  22.718  26.611  1.00  0.00     0.060 A 
ATOM     30  C   UNL A   1      39.024  23.924  26.131  1.00  0.00     0.016 A 
ATOM     31  C   UNL A   1      40.613  22.710  27.497  1.00  0.00     0.016 A 
ATOM     32  C   UNL A   1      39.644  25.123  26.477  1.00  0.00     0.010 A 
ATOM     33  C   UNL A   1      41.195  23.915  27.894  1.00  0.00     0.010 A 
ATOM     34  C   UNL A   1      40.739  25.128  27.358  1.00  0.00    -0.014 A 
BRANCH  34  35
ATOM     35  C   UNL A   1      41.391  26.406  27.731  1.00  0.00     0.031 A 
ATOM     36  C   UNL A   1      42.822  26.677  27.360  1.00  0.00     0.074 A 
ATOM     37  C   UNL A   1      40.680  27.327  28.406  1.00  0.00     0.049 A 
ATOM     38  N   UNL A   1      43.564  27.721  27.639  1.00  0.00    -0.248 NA
ATOM     39  C   UNL A   1      43.515  25.641  26.580  1.00  0.00     0.031 C 
ATOM     40  C   UNL A   1      39.285  27.170  28.821  1.00  0.00     0.029 A 
ATOM     41  N   UNL A   1      41.024  28.576  28.854  1.00  0.00    -0.354 N 
ATOM     42  C   UNL A   1      44.813  27.458  27.093  1.00  0.00     0.074 A 
ATOM     43  C   UNL A   1      44.735  26.153  26.472  1.00  0.00     0.031 C 
ATOM     44  C   UNL A   1      38.881  28.294  29.431  1.00  0.00     0.029 A 
ATOM     45  C   UNL A   1      40.000  29.228  29.491  1.00  0.00     0.049 A 
ATOM     46  H   UNL A   1      41.921  28.966  28.730  1.00  0.00     0.167 HD
ATOM     47  C   UNL A   1      45.921  28.238  27.112  1.00  0.00     0.037 A 
ATOM     48  C   UNL A   1      39.968  30.443  30.069  1.00  0.00     0.037 A 
ATOM     49  C   UNL A   1      45.991  29.543  27.719  1.00  0.00     0.049 A 
ATOM     50  C   UNL A   1      41.205  31.291  30.060  1.00  0.00     0.074 A 
ATOM     51  C   UNL A   1      47.067  30.412  27.787  1.00  0.00     0.029 A 
ATOM     52  N   UNL A   1      44.932  30.171  28.359  1.00  0.00    -0.354 N 
ATOM     53  N   UNL A   1      42.384  31.025  29.551  1.00  0.00    -0.248 NA
ATOM     54  C   UNL A   1      41.110  32.604  30.711  1.00  0.00     0.031 C 
ATOM     55  C   UNL A   1      46.667  31.554  28.492  1.00  0.00     0.029 A 
ATOM     56  C   UNL A   1      45.332  31.412  28.832  1.00  0.00     0.049 A 
ATOM     57  H   UNL A   1      44.029  29.792  28.463  1.00  0.00     0.167 HD
ATOM     58  C   UNL A   1      43.172  32.134  29.820  1.00  0.00     0.074 A 
ATOM     59  C   UNL A   1      42.328  33.088  30.511  1.00  0.00     0.031 C 
ATOM     60  C   UNL A   1      44.480  32.338  29.532  1.00  0.00     0.037 A 
BRANCH  47  61
ATOM     61  C   UNL A   1      47.166  27.692  26.476  1.00  0.00     0.064 A 
ATOM     62  C   UNL A   1      48.129  26.996  27.221  1.00  0.00     0.173 A 
ATOM     63  C   UNL A   1      47.372  27.822  25.094  1.00  0.00     0.173 A 
ATOM     64  F   UNL A   1      47.985  26.856  28.547  1.00  0.00    -0.203 F 
ATOM     65  C   UNL A   1      49.260  26.461  26.607  1.00  0.00     0.198 A 
ATOM     66  C   UNL A   1      48.494  27.269  24.480  1.00  0.00     0.198 A 
ATOM     67  F   UNL A   1      46.479  28.474  24.336  1.00  0.00    -0.203 F 
ATOM     68  F   UNL A   1      50.182  25.824  27.342  1.00  0.00    -0.200 F 
ATOM     69  C   UNL A   1      49.438  26.591  25.237  1.00  0.00     0.200 A 
ATOM     70  F   UNL A   1      48.658  27.387  23.155  1.00  0.00    -0.200 F 
ATOM     71  F   UNL A   1      50.522  26.069  24.647  1.00  0.00    -0.200 F 
ENDBRANCH  47  61
BRANCH  48  72
ATOM     72  C   UNL A   1      38.709  30.920  30.690  1.00  0.00     0.064 A 
ATOM     73  C   UNL A   1      37.674  31.442  29.904  1.00  0.00     0.173 A 
ATOM     74  C   UNL A   1      38.496  30.819  32.072  1.00  0.00     0.173 A 
ATOM     75  F   UNL A   1      37.841  31.575  28.580  1.00  0.00    -0.203 F 
ATOM     76  C   UNL A   1      36.472  31.848  30.478  1.00  0.00     0.198 A 
ATOM     77  C   UNL A   1      37.285  31.201  32.642  1.00  0.00     0.198 A 
ATOM     78  F   UNL A   1      39.456  30.319  32.864  1.00  0.00    -0.203 F 
ATOM     79  F   UNL A   1      35.506  32.366  29.707  1.00  0.00    -0.200 F 
ATOM     80  C   UNL A   1      36.275  31.718  31.845  1.00  0.00     0.200 A 
ATOM     81  F   UNL A   1      37.092  31.059  33.961  1.00  0.00    -0.200 F 
ATOM     82  F   UNL A   1      35.111  32.091  32.394  1.00  0.00    -0.200 F 
ENDBRANCH  48  72
BRANCH  60  83
ATOM     83  C   UNL A   1      45.066  33.645  29.973  1.00  0.00     0.064 A 
ATOM     84  C   UNL A   1      45.662  33.785  31.236  1.00  0.00     0.173 A 
ATOM     85  C   UNL A   1      45.025  34.766  29.133  1.00  0.00     0.173 A 
ATOM     86  F   UNL A   1      45.708  32.744  32.079  1.00  0.00    -0.203 F 
ATOM     87  C   UNL A   1      46.166  35.013  31.654  1.00  0.00     0.198 A 
ATOM     88  C   UNL A   1      45.549  35.987  29.546  1.00  0.00     0.198 A 
ATOM     89  F   UNL A   1      44.466  34.679  27.917  1.00  0.00    -0.203 F 
ATOM     90  F   UNL A   1      46.684  35.138  32.883  1.00  0.00    -0.200 F 
ATOM     91  C   UNL A   1      46.111  36.112  30.809  1.00  0.00     0.200 A 
ATOM     92  F   UNL A   1      45.499  37.048  28.730  1.00  0.00    -0.200 F 
ATOM     93  F   UNL A   1      46.588  37.296  31.218  1.00  0.00    -0.200 F 
ENDBRANCH  60  83
ENDBRANCH  34  35
ENDBRANCH  27  29
ENDBRANCH  26  27
ENDBRANCH  25  26
ENDBRANCH  24  25
ENDBRANCH   1  24
TORSDOF 17
ENDMDL
MODEL 3
REMARK VINA RESULT:     -11.0      4.364      7.183
REMARK SMILES O=C(CN(CC(=O)OCCOC(=O)c1ccc(-c2c3nc(c(-c4c(F)c(F)c(F)c(F)c4F)c4ccc([nH]4)c(-c4c(F)c(F)c(F)c(F)c4F)c4nc(c(-c5c(F)c(F)c(F)c(F)c5F)c5ccc2[nH]5)C=C4)C=C3)cc1)c1ccccc1)NCc1ccccc1
REMARK SMILES IDX 8 1 6 2 7 3 5 4 4 5 3 6 2 7 1 8 83 9 84 11 85 12 86 13 90 14
REMARK SMILES IDX 87 15 89 16 88 17 77 18 78 19 82 20 79 21 81 22 80 23 9 24
REMARK SMILES IDX 10 25 11 26 12 27 13 28 14 29 15 30 76 31 16 32 75 33 17 34
REMARK SMILES IDX 18 35 19 36 69 37 20 38 74 39 68 40 70 41 21 42 73 43 67 44
REMARK SMILES IDX 66 45 22 47 54 48 34 49 53 50 35 51 38 52 52 53 71 54 36 55
REMARK SMILES IDX 37 56 51 58 72 59 39 60 23 61 24 62 32 63 25 64 26 65 30 66
REMARK SMILES IDX 33 67 27 68 28 69 31 70 29 71 55 72 56 73 64 74 57 75 58 76
REMARK SMILES IDX 62 77 65 78 59 79 60 80 63 81 61 82 40 83 41 84 49 85 42 86
REMARK SMILES IDX 43 87 47 88 50 89 44 90 45 91 48 92 46 93
REMARK H PARENT 83 10 70 46 38 57
REMARK Flexibility Score: inf
ROOT
ATOM      1  O   UNL A   1      35.287  21.468  25.986  1.00  0.00    -0.461 OA
ENDROOT
BRANCH   1   2
ATOM      2  C   UNL A   1      34.034  21.403  26.506  1.00  0.00     0.325 C 
ATOM      3  O   UNL A   1      33.785  21.415  27.711  1.00  0.00    -0.250 OA
BRANCH   2   4
ATOM      4  C   UNL A   1      32.902  21.341  25.486  1.00  0.00     0.239 C 
BRANCH   4   5
ATOM      5  N   UNL A   1      32.687  22.511  24.628  1.00  0.00    -0.351 N 
BRANCH   5   6
ATOM      6  C   UNL A   1      32.453  22.322  23.181  1.00  0.00     0.217 C 
BRANCH   6   7
ATOM      7  C   UNL A   1      32.906  23.505  22.301  1.00  0.00     0.239 C 
ATOM      8  O   UNL A   1      34.031  23.547  21.806  1.00  0.00    -0.273 OA
ATOM      9  N   UNL A   1      31.957  24.481  22.071  1.00  0.00    -0.350 N 
ATOM     10  H   UNL A   1      31.015  24.292  22.291  1.00  0.00     0.163 HD
BRANCH   9  11
ATOM     11  C   UNL A   1      32.301  25.772  21.520  1.00  0.00     0.151 C 
BRANCH  11  12
ATOM     12  C   UNL A   1      31.957  26.960  22.381  1.00  0.00    -0.029 A 
ATOM     13  C   UNL A   1      33.009  27.759  22.859  1.00  0.00     0.005 A 
ATOM     14  C   UNL A   1      30.654  27.249  22.805  1.00  0.00     0.005 A 
ATOM     15  C   UNL A   1      32.766  28.831  23.718  1.00  0.00     0.000 A 
ATOM     16  C   UNL A   1      30.410  28.326  23.665  1.00  0.00     0.000 A 
ATOM     17  C   UNL A   1      31.464  29.116  24.118  1.00  0.00     0.000 A 
ENDBRANCH  11  12
ENDBRANCH   9  11
ENDBRANCH   6   7
ENDBRANCH   5   6
BRANCH   5  18
ATOM     18  C   UNL A   1      32.307  23.708  25.220  1.00  0.00     0.038 A 
ATOM     19  C   UNL A   1      30.963  23.962  25.509  1.00  0.00     0.026 A 
ATOM     20  C   UNL A   1      33.235  24.711  25.535  1.00  0.00     0.026 A 
ATOM     21  C   UNL A   1      30.560  25.177  26.079  1.00  0.00     0.002 A 
ATOM     22  C   UNL A   1      32.843  25.916  26.125  1.00  0.00     0.002 A 
ATOM     23  C   UNL A   1      31.500  26.152  26.391  1.00  0.00     0.000 A 
ENDBRANCH   5  18
ENDBRANCH   4   5
ENDBRANCH   2   4
ENDBRANCH   1   2
BRANCH   1  24
ATOM     24  C   UNL A   1      35.660  20.381  25.115  1.00  0.00     0.274 C 
BRANCH  24  25
ATOM     25  C   UNL A   1      37.178  20.266  25.002  1.00  0.00     0.275 C 
BRANCH  25  26
ATOM     26  O   UNL A   1      37.797  21.466  25.500  1.00  0.00    -0.458 OA
BRANCH  26  27
ATOM     27  C   UNL A   1      39.038  21.296  26.013  1.00  0.00     0.338 C 
ATOM     28  O   UNL A   1      39.658  20.253  26.126  1.00  0.00    -0.246 OA
BRANCH  27  29
ATOM     29  C   UNL A   1      39.569  22.580  26.499  1.00  0.00     0.060 A 
ATOM     30  C   UNL A   1      38.977  23.789  26.133  1.00  0.00     0.016 A 
ATOM     31  C   UNL A   1      40.759  22.567  27.227  1.00  0.00     0.016 A 
ATOM     32  C   UNL A   1      39.621  24.990  26.430  1.00  0.00     0.010 A 
ATOM     33  C   UNL A   1      41.371  23.771  27.579  1.00  0.00     0.010 A 
ATOM     34  C   UNL A   1      40.826  24.991  27.150  1.00  0.00    -0.014 A 
BRANCH  34  35
ATOM     35  C   UNL A   1      41.504  26.270  27.471  1.00  0.00     0.031 A 
ATOM     36  C   UNL A   1      42.886  26.559  26.956  1.00  0.00     0.074 A 
ATOM     37  C   UNL A   1      40.860  27.174  28.230  1.00  0.00     0.049 A 
ATOM     38  N   UNL A   1      43.645  27.606  27.170  1.00  0.00    -0.248 NA
ATOM     39  C   UNL A   1      43.502  25.539  26.093  1.00  0.00     0.031 C 
ATOM     40  C   UNL A   1      39.519  26.999  28.786  1.00  0.00     0.029 A 
ATOM     41  N   UNL A   1      41.240  28.420  28.657  1.00  0.00    -0.354 N 
ATOM     42  C   UNL A   1      44.832  27.362  26.493  1.00  0.00     0.074 A 
ATOM     43  C   UNL A   1      44.699  26.064  25.865  1.00  0.00     0.031 C 
ATOM     44  C   UNL A   1      39.172  28.111  29.451  1.00  0.00     0.029 A 
ATOM     45  C   UNL A   1      40.284  29.055  29.407  1.00  0.00     0.049 A 
ATOM     46  H   UNL A   1      42.116  28.820  28.445  1.00  0.00     0.167 HD
ATOM     47  C   UNL A   1      45.930  28.151  26.406  1.00  0.00     0.037 A 
ATOM     48  C   UNL A   1      40.303  30.262  30.003  1.00  0.00     0.037 A 
ATOM     49  C   UNL A   1      46.053  29.449  27.021  1.00  0.00     0.049 A 
ATOM     50  C   UNL A   1      41.526  31.121  29.876  1.00  0.00     0.074 A 
ATOM     51  C   UNL A   1      47.123  30.327  26.988  1.00  0.00     0.029 A 
ATOM     52  N   UNL A   1      45.062  30.058  27.778  1.00  0.00    -0.354 N 
ATOM     53  N   UNL A   1      42.646  30.873  29.242  1.00  0.00    -0.248 NA
ATOM     54  C   UNL A   1      41.489  32.424  30.551  1.00  0.00     0.031 C 
ATOM     55  C   UNL A   1      46.790  31.455  27.747  1.00  0.00     0.029 A 
ATOM     56  C   UNL A   1      45.500  31.296  28.224  1.00  0.00     0.049 A 
ATOM     57  H   UNL A   1      44.178  29.669  27.971  1.00  0.00     0.167 HD
ATOM     58  C   UNL A   1      43.449  31.985  29.442  1.00  0.00     0.074 A 
ATOM     59  C   UNL A   1      42.675  32.923  30.231  1.00  0.00     0.031 C 
ATOM     60  C   UNL A   1      44.719  32.206  29.022  1.00  0.00     0.037 A 
BRANCH  47  61
ATOM     61  C   UNL A   1      47.105  27.626  25.636  1.00  0.00     0.064 A 
ATOM     62  C   UNL A   1      47.226  27.822  24.252  1.00  0.00     0.173 A 
ATOM     63  C   UNL A   1      48.151  26.964  26.299  1.00  0.00     0.173 A 
ATOM     64  F   UNL A   1      46.249  28.437  23.571  1.00  0.00    -0.203 F 
ATOM     65  C   UNL A   1      48.343  27.362  23.558  1.00  0.00     0.198 A 
ATOM     66  C   UNL A   1      49.275  26.523  25.606  1.00  0.00     0.198 A 
ATOM     67  F   UNL A   1      48.086  26.755  27.622  1.00  0.00    -0.203 F 
ATOM     68  F   UNL A   1      48.424  27.534  22.232  1.00  0.00    -0.200 F 
ATOM     69  C   UNL A   1      49.370  26.720  24.236  1.00  0.00     0.200 A 
ATOM     70  F   UNL A   1      50.270  25.912  26.264  1.00  0.00    -0.200 F 
ATOM     71  F   UNL A   1      50.448  26.286  23.568  1.00  0.00    -0.200 F 
ENDBRANCH  47  61
BRANCH  48  72
ATOM     72  C   UNL A   1      39.112  30.718  30.759  1.00  0.00     0.064 A 
ATOM     73  C   UNL A   1      38.999  30.474  32.133  1.00  0.00     0.173 A 
ATOM     74  C   UNL A   1      38.090  31.447  30.135  1.00  0.00     0.173 A 
ATOM     75  F   UNL A   1      39.944  29.765  32.768  1.00  0.00    -0.203 F 
ATOM     76  C   UNL A   1      37.904  30.942  32.857  1.00  0.00     0.198 A 
ATOM     77  C   UNL A   1      37.008  31.935  30.863  1.00  0.00     0.198 A 
ATOM     78  F   UNL A   1      38.159  31.709  28.821  1.00  0.00    -0.203 F 
ATOM     79  F   UNL A   1      37.807  30.676  34.166  1.00  0.00    -0.200 F 
ATOM     80  C   UNL A   1      36.916  31.680  32.223  1.00  0.00     0.200 A 
ATOM     81  F   UNL A   1      36.063  32.661  30.250  1.00  0.00    -0.200 F 
ATOM     82  F   UNL A   1      35.872  32.145  32.923  1.00  0.00    -0.200 F 
ENDBRANCH  48  72
BRANCH  60  83
ATOM     83  C   UNL A   1      45.337  33.512  29.417  1.00  0.00     0.064 A 
ATOM     84  C   UNL A   1      45.184  34.659  28.623  1.00  0.00     0.173 A 
ATOM     85  C   UNL A   1      46.093  33.618  30.593  1.00  0.00     0.173 A 
ATOM     86  F   UNL A   1      44.484  34.599  27.480  1.00  0.00    -0.203 F 
ATOM     87  C   UNL A   1      45.796  35.858  28.975  1.00  0.00     0.198 A 
ATOM     88  C   UNL A   1      46.686  34.824  30.954  1.00  0.00     0.198 A 
ATOM     89  F   UNL A   1      46.265  32.549  31.384  1.00  0.00    -0.203 F 
ATOM     90  F   UNL A   1      45.681  36.927  28.176  1.00  0.00    -0.200 F 
ATOM     91  C   UNL A   1      46.545  35.940  30.141  1.00  0.00     0.200 A 
ATOM     92  F   UNL A   1      47.407  34.905  32.080  1.00  0.00    -0.200 F 
ATOM     93  F   UNL A   1      47.142  37.093  30.474  1.00  0.00    -0.200 F 
ENDBRANCH  60  83
ENDBRANCH  34  35
ENDBRANCH  27  29
ENDBRANCH  26  27
ENDBRANCH  25  26
ENDBRANCH  24  25
ENDBRANCH   1  24
TORSDOF 17
ENDMDL
