MODEL 1
REMARK VINA RESULT:     -15.5      0.000      0.000
REMARK SMILES N#C/C(=C/c1cccc(OCC(=O)OCCOC(=O)c2ccc(-c3c4nc(c(-c5c(F)c(F)c(F)c(F)c5F)c5ccc([nH]5)c(-c5c(F)c(F)c(F)c(F)c5F)c5nc(c(-c6c(F)c(F)c(F)c(F)c6F)c6ccc3[nH]6)C=C5)C=C4)cc2)c1)c1nc2ccccc2[nH]1
REMARK SMILES IDX 15 1 14 2 12 3 13 4 11 5 10 6 9 7 5 8 6 9 83 10 7 11 8 12
REMARK SMILES IDX 4 13 3 14 2 15 1 16 84 17 85 18 92 19 86 20 91 21 87 23
REMARK SMILES IDX 90 24 88 25 89 26 16 27 17 28 18 29 19 30 20 31 21 32 82 33
REMARK SMILES IDX 22 34 81 35 23 36 24 37 25 38 75 39 26 40 80 41 74 42 76 43
REMARK SMILES IDX 27 44 79 45 73 46 72 47 28 49 60 50 40 51 59 52 41 53 44 54
REMARK SMILES IDX 58 55 77 56 42 57 43 58 57 60 78 61 45 62 29 63 30 64 38 65
REMARK SMILES IDX 31 66 32 67 36 68 39 69 33 70 34 71 37 72 35 73 61 74 62 75
REMARK SMILES IDX 70 76 63 77 64 78 68 79 71 80 65 81 66 82 69 83 67 84 46 85
REMARK SMILES IDX 47 86 55 87 48 88 49 89 53 90 56 91 50 92 51 93 54 94 52 95
REMARK H PARENT 92 22 76 48 44 59
REMARK Flexibility Score: inf
ROOT
ATOM      1  C   UNL A   1      31.645  30.431  26.898  1.00  0.00     0.274 C 
ENDROOT
BRANCH   1   2
ATOM      2  O   UNL A   1      32.724  29.180  25.743  1.00  0.00    -0.460 OA
BRANCH   2   3
ATOM      3  C   UNL A   1      33.470  28.232  25.010  1.00  0.00     0.344 C 
ATOM      4  O   UNL A   1      34.310  28.552  24.161  1.00  0.00    -0.248 OA
BRANCH   3   5
ATOM      5  C   UNL A   1      33.191  26.569  25.332  1.00  0.00     0.351 C 
BRANCH   5   6
ATOM      6  O   UNL A   1      33.779  25.513  26.122  1.00  0.00    -0.482 OA
BRANCH   6   7
ATOM      7  C   UNL A   1      34.530  24.419  25.728  1.00  0.00     0.120 A 
ATOM      8  C   UNL A   1      34.844  21.971  25.353  1.00  0.00    -0.021 A 
ATOM      9  C   UNL A   1      35.646  22.265  24.249  1.00  0.00     0.008 A 
ATOM     10  C   UNL A   1      34.503  23.085  26.180  1.00  0.00     0.054 A 
ATOM     11  C   UNL A   1      35.969  23.600  23.949  1.00  0.00     0.004 A 
ATOM     12  C   UNL A   1      35.371  24.661  24.649  1.00  0.00     0.046 A 
BRANCH   8  13
ATOM     13  C   UNL A   1      34.249  20.555  25.491  1.00  0.00     0.031 C 
ATOM     14  C   UNL A   1      32.953  20.085  25.385  1.00  0.00     0.095 C 
BRANCH  14  15
ATOM     15  C   UNL A   1      32.623  18.608  25.521  1.00  0.00     0.103 C 
ATOM     16  N   UNL A   1      32.349  17.382  25.634  1.00  0.00    -0.192 NA
ENDBRANCH  14  15
BRANCH  14  17
ATOM     17  C   UNL A   1      31.864  20.981  25.045  1.00  0.00     0.149 A 
ATOM     18  N   UNL A   1      32.185  21.892  23.678  1.00  0.00    -0.228 NA
ATOM     19  N   UNL A   1      30.844  22.055  26.274  1.00  0.00    -0.337 N 
ATOM     20  C   UNL A   1      31.590  23.618  23.769  1.00  0.00     0.089 A 
ATOM     21  C   UNL A   1      30.752  23.807  25.520  1.00  0.00     0.066 A 
ATOM     22  H   UNL A   1      30.447  21.759  27.125  1.00  0.00     0.168 HD
ATOM     23  C   UNL A   1      31.395  24.904  22.533  1.00  0.00     0.030 A 
ATOM     24  C   UNL A   1      29.927  25.335  25.863  1.00  0.00     0.028 A 
ATOM     25  C   UNL A   1      30.518  26.400  22.972  1.00  0.00     0.002 A 
ATOM     26  C   UNL A   1      29.805  26.595  24.587  1.00  0.00     0.002 A 
ENDBRANCH  14  17
ENDBRANCH   8  13
ENDBRANCH   6   7
ENDBRANCH   5   6
ENDBRANCH   3   5
ENDBRANCH   2   3
ENDBRANCH   1   2
BRANCH   1  27
ATOM     27  C   UNL A   1      31.101  31.796  26.259  1.00  0.00     0.275 C 
BRANCH  27  28
ATOM     28  O   UNL A   1      31.793  33.026  27.006  1.00  0.00    -0.458 OA
BRANCH  28  29
ATOM     29  C   UNL A   1      33.406  33.433  28.116  1.00  0.00     0.338 C 
ATOM     30  O   UNL A   1      33.458  33.976  29.227  1.00  0.00    -0.246 OA
BRANCH  29  31
ATOM     31  C   UNL A   1      35.044  32.835  28.043  1.00  0.00     0.060 A 
ATOM     32  C   UNL A   1      35.162  31.434  28.197  1.00  0.00     0.016 A 
ATOM     33  C   UNL A   1      36.267  33.521  28.074  1.00  0.00     0.016 A 
ATOM     34  C   UNL A   1      36.250  30.841  28.841  1.00  0.00     0.010 A 
ATOM     35  C   UNL A   1      37.365  32.946  28.724  1.00  0.00     0.010 A 
ATOM     36  C   UNL A   1      37.320  31.636  29.217  1.00  0.00    -0.014 A 
BRANCH  36  37
ATOM     37  C   UNL A   1      38.553  31.090  29.811  1.00  0.00     0.031 A 
ATOM     38  C   UNL A   1      39.337  29.957  29.212  1.00  0.00     0.074 A 
ATOM     39  C   UNL A   1      38.767  31.521  31.063  1.00  0.00     0.049 A 
ATOM     40  N   UNL A   1      40.306  29.256  29.746  1.00  0.00    -0.248 NA
ATOM     41  C   UNL A   1      38.994  29.540  27.846  1.00  0.00     0.031 C 
ATOM     42  C   UNL A   1      37.979  32.570  31.724  1.00  0.00     0.029 A 
ATOM     43  N   UNL A   1      39.602  31.059  32.034  1.00  0.00    -0.354 N 
ATOM     44  C   UNL A   1      40.687  28.321  28.788  1.00  0.00     0.074 A 
ATOM     45  C   UNL A   1      39.818  28.515  27.648  1.00  0.00     0.031 C 
ATOM     46  C   UNL A   1      38.288  32.591  33.023  1.00  0.00     0.029 A 
ATOM     47  C   UNL A   1      39.318  31.593  33.264  1.00  0.00     0.049 A 
ATOM     48  H   UNL A   1      40.328  30.415  31.870  1.00  0.00     0.167 HD
ATOM     49  C   UNL A   1      41.689  27.407  28.869  1.00  0.00     0.037 A 
ATOM     50  C   UNL A   1      39.832  31.295  34.465  1.00  0.00     0.037 A 
ATOM     51  C   UNL A   1      42.521  27.253  30.041  1.00  0.00     0.049 A 
ATOM     52  C   UNL A   1      40.939  30.291  34.521  1.00  0.00     0.074 A 
ATOM     53  C   UNL A   1      43.641  26.457  30.213  1.00  0.00     0.029 A 
ATOM     54  N   UNL A   1      42.299  27.895  31.252  1.00  0.00    -0.354 N 
ATOM     55  N   UNL A   1      41.412  29.528  33.566  1.00  0.00    -0.248 NA
ATOM     56  C   UNL A   1      41.620  30.149  35.808  1.00  0.00     0.031 C 
ATOM     57  C   UNL A   1      44.046  26.558  31.547  1.00  0.00     0.029 A 
ATOM     58  C   UNL A   1      43.235  27.482  32.186  1.00  0.00     0.049 A 
ATOM     59  H   UNL A   1      41.582  28.548  31.422  1.00  0.00     0.167 HD
ATOM     60  C   UNL A   1      42.487  28.855  34.120  1.00  0.00     0.074 A 
ATOM     61  C   UNL A   1      42.594  29.308  35.494  1.00  0.00     0.031 C 
ATOM     62  C   UNL A   1      43.319  27.952  33.546  1.00  0.00     0.037 A 
BRANCH  49  63
ATOM     63  C   UNL A   1      41.983  26.512  27.690  1.00  0.00     0.064 A 
ATOM     64  C   UNL A   1      42.990  26.823  26.762  1.00  0.00     0.173 A 
ATOM     65  C   UNL A   1      41.361  25.256  27.570  1.00  0.00     0.173 A 
ATOM     66  F   UNL A   1      43.632  27.998  26.830  1.00  0.00    -0.203 F 
ATOM     67  C   UNL A   1      43.354  25.921  25.761  1.00  0.00     0.198 A 
ATOM     68  C   UNL A   1      41.748  24.346  26.586  1.00  0.00     0.198 A 
ATOM     69  F   UNL A   1      40.407  24.888  28.437  1.00  0.00    -0.203 F 
ATOM     70  F   UNL A   1      44.310  26.250  24.880  1.00  0.00    -0.200 F 
ATOM     71  C   UNL A   1      42.743  24.679  25.680  1.00  0.00     0.200 A 
ATOM     72  F   UNL A   1      41.173  23.136  26.528  1.00  0.00    -0.200 F 
ATOM     73  F   UNL A   1      43.116  23.804  24.737  1.00  0.00    -0.200 F 
ENDBRANCH  49  63
BRANCH  50  74
ATOM     74  C   UNL A   1      39.380  32.053  35.650  1.00  0.00     0.064 A 
ATOM     75  C   UNL A   1      39.890  33.332  35.899  1.00  0.00     0.173 A 
ATOM     76  C   UNL A   1      38.399  31.552  36.519  1.00  0.00     0.173 A 
ATOM     77  F   UNL A   1      40.807  33.856  35.073  1.00  0.00    -0.203 F 
ATOM     78  C   UNL A   1      39.482  34.062  37.008  1.00  0.00     0.198 A 
ATOM     79  C   UNL A   1      37.966  32.300  37.610  1.00  0.00     0.198 A 
ATOM     80  F   UNL A   1      37.840  30.355  36.288  1.00  0.00    -0.203 F 
ATOM     81  F   UNL A   1      40.030  35.260  37.253  1.00  0.00    -0.200 F 
ATOM     82  C   UNL A   1      38.520  33.546  37.863  1.00  0.00     0.200 A 
ATOM     83  F   UNL A   1      37.008  31.816  38.414  1.00  0.00    -0.200 F 
ATOM     84  F   UNL A   1      38.129  34.250  38.933  1.00  0.00    -0.200 F 
ENDBRANCH  50  74
BRANCH  62  85
ATOM     85  C   UNL A   1      44.443  27.437  34.394  1.00  0.00     0.064 A 
ATOM     86  C   UNL A   1      44.310  26.282  35.177  1.00  0.00     0.173 A 
ATOM     87  C   UNL A   1      45.679  28.102  34.404  1.00  0.00     0.173 A 
ATOM     88  F   UNL A   1      43.141  25.624  35.218  1.00  0.00    -0.203 F 
ATOM     89  C   UNL A   1      45.362  25.831  35.967  1.00  0.00     0.198 A 
ATOM     90  C   UNL A   1      46.742  27.624  35.161  1.00  0.00     0.198 A 
ATOM     91  F   UNL A   1      45.858  29.210  33.669  1.00  0.00    -0.203 F 
ATOM     92  F   UNL A   1      45.190  24.765  36.760  1.00  0.00    -0.200 F 
ATOM     93  C   UNL A   1      46.580  26.495  35.950  1.00  0.00     0.200 A 
ATOM     94  F   UNL A   1      47.923  28.255  35.128  1.00  0.00    -0.200 F 
ATOM     95  F   UNL A   1      47.596  26.052  36.702  1.00  0.00    -0.200 F 
ENDBRANCH  62  85
ENDBRANCH  36  37
ENDBRANCH  29  31
ENDBRANCH  28  29
ENDBRANCH  27  28
ENDBRANCH   1  27
TORSDOF 16
ENDMDL
MODEL 2
REMARK VINA RESULT:     -15.5      4.388     10.086
REMARK SMILES N#C/C(=C/c1cccc(OCC(=O)OCCOC(=O)c2ccc(-c3c4nc(c(-c5c(F)c(F)c(F)c(F)c5F)c5ccc([nH]5)c(-c5c(F)c(F)c(F)c(F)c5F)c5nc(c(-c6c(F)c(F)c(F)c(F)c6F)c6ccc3[nH]6)C=C5)C=C4)cc2)c1)c1nc2ccccc2[nH]1
REMARK SMILES IDX 15 1 14 2 12 3 13 4 11 5 10 6 9 7 5 8 6 9 83 10 7 11 8 12
REMARK SMILES IDX 4 13 3 14 2 15 1 16 84 17 85 18 92 19 86 20 91 21 87 23
REMARK SMILES IDX 90 24 88 25 89 26 16 27 17 28 18 29 19 30 20 31 21 32 82 33
REMARK SMILES IDX 22 34 81 35 23 36 24 37 25 38 75 39 26 40 80 41 74 42 76 43
REMARK SMILES IDX 27 44 79 45 73 46 72 47 28 49 60 50 40 51 59 52 41 53 44 54
REMARK SMILES IDX 58 55 77 56 42 57 43 58 57 60 78 61 45 62 29 63 30 64 38 65
REMARK SMILES IDX 31 66 32 67 36 68 39 69 33 70 34 71 37 72 35 73 61 74 62 75
REMARK SMILES IDX 70 76 63 77 64 78 68 79 71 80 65 81 66 82 69 83 67 84 46 85
REMARK SMILES IDX 47 86 55 87 48 88 49 89 53 90 56 91 50 92 51 93 54 94 52 95
REMARK H PARENT 92 22 76 48 44 59
REMARK Flexibility Score: inf
ROOT
ATOM      1  C   UNL A   1      37.342  21.060  24.433  1.00  0.00     0.274 C 
ENDROOT
BRANCH   1   2
ATOM      2  O   UNL A   1      36.129  22.345  25.404  1.00  0.00    -0.460 OA
BRANCH   2   3
ATOM      3  C   UNL A   1      35.201  23.207  26.026  1.00  0.00     0.344 C 
ATOM      4  O   UNL A   1      34.402  22.823  26.888  1.00  0.00    -0.248 OA
BRANCH   3   5
ATOM      5  C   UNL A   1      35.200  24.858  25.555  1.00  0.00     0.351 C 
BRANCH   5   6
ATOM      6  O   UNL A   1      34.384  25.752  24.768  1.00  0.00    -0.482 OA
BRANCH   6   7
ATOM      7  C   UNL A   1      33.696  26.893  25.144  1.00  0.00     0.120 A 
ATOM      8  C   UNL A   1      32.017  28.696  24.745  1.00  0.00    -0.021 A 
ATOM      9  C   UNL A   1      31.726  28.699  26.109  1.00  0.00     0.008 A 
ATOM     10  C   UNL A   1      33.163  27.935  24.361  1.00  0.00     0.054 A 
ATOM     11  C   UNL A   1      32.472  27.894  26.989  1.00  0.00     0.004 A 
ATOM     12  C   UNL A   1      33.405  26.964  26.501  1.00  0.00     0.046 A 
BRANCH   8  13
ATOM     13  C   UNL A   1      31.011  29.332  23.763  1.00  0.00     0.031 C 
ATOM     14  C   UNL A   1      30.255  28.792  22.739  1.00  0.00     0.095 C 
BRANCH  14  15
ATOM     15  C   UNL A   1      29.284  29.636  21.930  1.00  0.00     0.103 C 
ATOM     16  N   UNL A   1      28.478  30.336  21.258  1.00  0.00    -0.192 NA
ENDBRANCH  14  15
BRANCH  14  17
ATOM     17  C   UNL A   1      30.294  27.370  22.458  1.00  0.00     0.149 A 
ATOM     18  N   UNL A   1      29.917  26.440  23.798  1.00  0.00    -0.228 NA
ATOM     19  N   UNL A   1      31.629  26.446  21.426  1.00  0.00    -0.337 N 
ATOM     20  C   UNL A   1      30.911  24.915  23.958  1.00  0.00     0.089 A 
ATOM     21  C   UNL A   1      32.132  24.907  22.436  1.00  0.00     0.066 A 
ATOM     22  H   UNL A   1      31.985  26.715  20.548  1.00  0.00     0.168 HD
ATOM     23  C   UNL A   1      30.740  23.453  24.984  1.00  0.00     0.030 A 
ATOM     24  C   UNL A   1      33.135  23.466  22.211  1.00  0.00     0.028 A 
ATOM     25  C   UNL A   1      31.783  22.038  24.655  1.00  0.00     0.002 A 
ATOM     26  C   UNL A   1      32.936  22.053  23.304  1.00  0.00     0.002 A 
ENDBRANCH  14  17
ENDBRANCH   8  13
ENDBRANCH   6   7
ENDBRANCH   5   6
ENDBRANCH   3   5
ENDBRANCH   2   3
ENDBRANCH   1   2
BRANCH   1  27
ATOM     27  C   UNL A   1      37.499  19.568  25.000  1.00  0.00     0.275 C 
BRANCH  27  28
ATOM     28  O   UNL A   1      39.032  19.318  25.371  1.00  0.00    -0.458 OA
BRANCH  28  29
ATOM     29  C   UNL A   1      40.586  20.274  26.188  1.00  0.00     0.338 C 
ATOM     30  O   UNL A   1      41.779  20.227  25.856  1.00  0.00    -0.246 OA
BRANCH  29  31
ATOM     31  C   UNL A   1      40.669  21.650  27.257  1.00  0.00     0.060 A 
ATOM     32  C   UNL A   1      39.963  22.789  26.802  1.00  0.00     0.016 A 
ATOM     33  C   UNL A   1      41.483  21.889  28.374  1.00  0.00     0.016 A 
ATOM     34  C   UNL A   1      40.405  24.090  27.046  1.00  0.00     0.010 A 
ATOM     35  C   UNL A   1      41.944  23.187  28.628  1.00  0.00     0.010 A 
ATOM     36  C   UNL A   1      41.491  24.283  27.883  1.00  0.00    -0.014 A 
BRANCH  36  37
ATOM     37  C   UNL A   1      41.969  25.619  28.279  1.00  0.00     0.031 A 
ATOM     38  C   UNL A   1      41.073  26.701  28.812  1.00  0.00     0.074 A 
ATOM     39  C   UNL A   1      43.226  25.866  27.881  1.00  0.00     0.049 A 
ATOM     40  N   UNL A   1      41.337  27.972  28.991  1.00  0.00    -0.248 NA
ATOM     41  C   UNL A   1      39.702  26.328  29.183  1.00  0.00     0.031 C 
ATOM     42  C   UNL A   1      44.117  24.863  27.282  1.00  0.00     0.029 A 
ATOM     43  N   UNL A   1      43.921  27.033  27.796  1.00  0.00    -0.354 N 
ATOM     44  C   UNL A   1      40.173  28.547  29.493  1.00  0.00     0.074 A 
ATOM     45  C   UNL A   1      39.183  27.495  29.555  1.00  0.00     0.031 C 
ATOM     46  C   UNL A   1      45.192  25.480  26.786  1.00  0.00     0.029 A 
ATOM     47  C   UNL A   1      45.078  26.901  27.074  1.00  0.00     0.049 A 
ATOM     48  H   UNL A   1      43.625  27.877  28.208  1.00  0.00     0.167 HD
ATOM     49  C   UNL A   1      39.981  29.835  29.879  1.00  0.00     0.037 A 
ATOM     50  C   UNL A   1      45.949  27.837  26.675  1.00  0.00     0.037 A 
ATOM     51  C   UNL A   1      41.009  30.847  29.785  1.00  0.00     0.049 A 
ATOM     52  C   UNL A   1      45.715  29.244  27.123  1.00  0.00     0.074 A 
ATOM     53  C   UNL A   1      40.989  32.151  30.249  1.00  0.00     0.029 A 
ATOM     54  N   UNL A   1      42.234  30.667  29.157  1.00  0.00    -0.354 N 
ATOM     55  N   UNL A   1      44.683  29.751  27.752  1.00  0.00    -0.248 NA
ATOM     56  C   UNL A   1      46.793  30.198  26.855  1.00  0.00     0.031 C 
ATOM     57  C   UNL A   1      42.166  32.780  29.832  1.00  0.00     0.029 A 
ATOM     58  C   UNL A   1      42.960  31.846  29.186  1.00  0.00     0.049 A 
ATOM     59  H   UNL A   1      42.542  29.824  28.751  1.00  0.00     0.167 HD
ATOM     60  C   UNL A   1      45.009  31.071  28.009  1.00  0.00     0.074 A 
ATOM     61  C   UNL A   1      46.339  31.280  27.469  1.00  0.00     0.031 C 
ATOM     62  C   UNL A   1      44.283  32.024  28.642  1.00  0.00     0.037 A 
BRANCH  49  63
ATOM     63  C   UNL A   1      38.650  30.253  30.455  1.00  0.00     0.064 A 
ATOM     64  C   UNL A   1      38.449  30.365  31.840  1.00  0.00     0.173 A 
ATOM     65  C   UNL A   1      37.612  30.695  29.615  1.00  0.00     0.173 A 
ATOM     66  F   UNL A   1      39.405  29.975  32.695  1.00  0.00    -0.203 F 
ATOM     67  C   UNL A   1      37.265  30.891  32.359  1.00  0.00     0.198 A 
ATOM     68  C   UNL A   1      36.441  31.247  30.137  1.00  0.00     0.198 A 
ATOM     69  F   UNL A   1      37.748  30.636  28.283  1.00  0.00    -0.203 F 
ATOM     70  F   UNL A   1      37.095  30.974  33.686  1.00  0.00    -0.200 F 
ATOM     71  C   UNL A   1      36.268  31.343  31.508  1.00  0.00     0.200 A 
ATOM     72  F   UNL A   1      35.491  31.707  29.311  1.00  0.00    -0.200 F 
ATOM     73  F   UNL A   1      35.145  31.876  32.009  1.00  0.00    -0.200 F 
ENDBRANCH  49  63
BRANCH  50  74
ATOM     74  C   UNL A   1      47.157  27.426  25.930  1.00  0.00     0.064 A 
ATOM     75  C   UNL A   1      47.189  27.535  24.535  1.00  0.00     0.173 A 
ATOM     76  C   UNL A   1      48.314  26.978  26.584  1.00  0.00     0.173 A 
ATOM     77  F   UNL A   1      46.112  27.988  23.876  1.00  0.00    -0.203 F 
ATOM     78  C   UNL A   1      48.313  27.152  23.812  1.00  0.00     0.198 A 
ATOM     79  C   UNL A   1      49.450  26.628  25.861  1.00  0.00     0.198 A 
ATOM     80  F   UNL A   1      48.349  26.911  27.923  1.00  0.00    -0.203 F 
ATOM     81  F   UNL A   1      48.294  27.213  22.474  1.00  0.00    -0.200 F 
ATOM     82  C   UNL A   1      49.442  26.699  24.476  1.00  0.00     0.200 A 
ATOM     83  F   UNL A   1      50.555  26.228  26.505  1.00  0.00    -0.200 F 
ATOM     84  F   UNL A   1      50.525  26.329  23.778  1.00  0.00    -0.200 F 
ENDBRANCH  50  74
BRANCH  62  85
ATOM     85  C   UNL A   1      44.938  33.360  28.825  1.00  0.00     0.064 A 
ATOM     86  C   UNL A   1      44.768  34.400  27.899  1.00  0.00     0.173 A 
ATOM     87  C   UNL A   1      45.731  33.607  29.956  1.00  0.00     0.173 A 
ATOM     88  F   UNL A   1      44.038  34.205  26.791  1.00  0.00    -0.203 F 
ATOM     89  C   UNL A   1      45.398  35.627  28.082  1.00  0.00     0.198 A 
ATOM     90  C   UNL A   1      46.322  34.848  30.158  1.00  0.00     0.198 A 
ATOM     91  F   UNL A   1      45.921  32.646  30.873  1.00  0.00    -0.203 F 
ATOM     92  F   UNL A   1      45.277  36.583  27.151  1.00  0.00    -0.200 F 
ATOM     93  C   UNL A   1      46.165  35.853  29.216  1.00  0.00     0.200 A 
ATOM     94  F   UNL A   1      47.047  35.072  31.262  1.00  0.00    -0.200 F 
ATOM     95  F   UNL A   1      46.759  37.040  29.396  1.00  0.00    -0.200 F 
ENDBRANCH  62  85
ENDBRANCH  36  37
ENDBRANCH  29  31
ENDBRANCH  28  29
ENDBRANCH  27  28
ENDBRANCH   1  27
TORSDOF 16
ENDMDL
MODEL 3
REMARK VINA RESULT:     -15.0      4.537     10.055
REMARK SMILES N#C/C(=C/c1cccc(OCC(=O)OCCOC(=O)c2ccc(-c3c4nc(c(-c5c(F)c(F)c(F)c(F)c5F)c5ccc([nH]5)c(-c5c(F)c(F)c(F)c(F)c5F)c5nc(c(-c6c(F)c(F)c(F)c(F)c6F)c6ccc3[nH]6)C=C5)C=C4)cc2)c1)c1nc2ccccc2[nH]1
REMARK SMILES IDX 15 1 14 2 12 3 13 4 11 5 10 6 9 7 5 8 6 9 83 10 7 11 8 12
REMARK SMILES IDX 4 13 3 14 2 15 1 16 84 17 85 18 92 19 86 20 91 21 87 23
REMARK SMILES IDX 90 24 88 25 89 26 16 27 17 28 18 29 19 30 20 31 21 32 82 33
REMARK SMILES IDX 22 34 81 35 23 36 24 37 25 38 75 39 26 40 80 41 74 42 76 43
REMARK SMILES IDX 27 44 79 45 73 46 72 47 28 49 60 50 40 51 59 52 41 53 44 54
REMARK SMILES IDX 58 55 77 56 42 57 43 58 57 60 78 61 45 62 29 63 30 64 38 65
REMARK SMILES IDX 31 66 32 67 36 68 39 69 33 70 34 71 37 72 35 73 61 74 62 75
REMARK SMILES IDX 70 76 63 77 64 78 68 79 71 80 65 81 66 82 69 83 67 84 46 85
REMARK SMILES IDX 47 86 55 87 48 88 49 89 53 90 56 91 50 92 51 93 54 94 52 95
REMARK H PARENT 92 22 76 48 44 59
REMARK Flexibility Score: inf
ROOT
ATOM      1  C   UNL A   1      36.403  18.905  24.989  1.00  0.00     0.274 C 
ENDROOT
BRANCH   1   2
ATOM      2  O   UNL A   1      34.468  19.439  24.802  1.00  0.00    -0.460 OA
BRANCH   2   3
ATOM      3  C   UNL A   1      33.145  19.893  24.610  1.00  0.00     0.344 C 
ATOM      4  O   UNL A   1      32.158  19.272  25.018  1.00  0.00    -0.248 OA
BRANCH   3   5
ATOM      5  C   UNL A   1      32.920  21.378  23.777  1.00  0.00     0.351 C 
BRANCH   5   6
ATOM      6  O   UNL A   1      32.043  22.523  23.839  1.00  0.00    -0.482 OA
BRANCH   6   7
ATOM      7  C   UNL A   1      31.974  23.638  23.022  1.00  0.00     0.120 A 
ATOM      8  C   UNL A   1      31.690  26.088  22.641  1.00  0.00    -0.021 A 
ATOM      9  C   UNL A   1      32.593  26.007  21.581  1.00  0.00     0.008 A 
ATOM     10  C   UNL A   1      31.252  24.837  23.174  1.00  0.00     0.054 A 
ATOM     11  C   UNL A   1      33.098  24.757  21.180  1.00  0.00     0.004 A 
ATOM     12  C   UNL A   1      32.833  23.599  21.929  1.00  0.00     0.046 A 
BRANCH   8  13
ATOM     13  C   UNL A   1      31.387  27.466  23.263  1.00  0.00     0.031 C 
ATOM     14  C   UNL A   1      31.619  27.979  24.526  1.00  0.00     0.095 C 
BRANCH  14  15
ATOM     15  C   UNL A   1      31.261  29.412  24.887  1.00  0.00     0.103 C 
ATOM     16  N   UNL A   1      30.965  30.600  25.187  1.00  0.00    -0.192 NA
ENDBRANCH  14  15
BRANCH  14  17
ATOM     17  C   UNL A   1      32.303  27.191  25.533  1.00  0.00     0.149 A 
ATOM     18  N   UNL A   1      33.807  26.662  25.023  1.00  0.00    -0.228 NA
ATOM     19  N   UNL A   1      31.519  25.830  26.645  1.00  0.00    -0.337 N 
ATOM     20  C   UNL A   1      34.227  24.965  25.556  1.00  0.00     0.089 A 
ATOM     21  C   UNL A   1      32.695  24.328  26.582  1.00  0.00     0.066 A 
ATOM     22  H   UNL A   1      30.675  25.896  27.148  1.00  0.00     0.168 HD
ATOM     23  C   UNL A   1      35.762  24.036  25.558  1.00  0.00     0.030 A 
ATOM     24  C   UNL A   1      32.852  22.757  27.381  1.00  0.00     0.028 A 
ATOM     25  C   UNL A   1      35.825  22.471  26.421  1.00  0.00     0.002 A 
ATOM     26  C   UNL A   1      34.410  21.863  27.306  1.00  0.00     0.002 A 
ENDBRANCH  14  17
ENDBRANCH   8  13
ENDBRANCH   6   7
ENDBRANCH   5   6
ENDBRANCH   3   5
ENDBRANCH   2   3
ENDBRANCH   1   2
BRANCH   1  27
ATOM     27  C   UNL A   1      37.538  19.970  24.607  1.00  0.00     0.275 C 
BRANCH  27  28
ATOM     28  O   UNL A   1      38.896  19.560  25.342  1.00  0.00    -0.458 OA
BRANCH  28  29
ATOM     29  C   UNL A   1      40.464  20.408  26.248  1.00  0.00     0.338 C 
ATOM     30  O   UNL A   1      41.666  20.292  25.973  1.00  0.00    -0.246 OA
BRANCH  29  31
ATOM     31  C   UNL A   1      40.578  21.763  27.341  1.00  0.00     0.060 A 
ATOM     32  C   UNL A   1      39.858  22.910  26.929  1.00  0.00     0.016 A 
ATOM     33  C   UNL A   1      41.424  21.981  28.438  1.00  0.00     0.016 A 
ATOM     34  C   UNL A   1      40.307  24.207  27.186  1.00  0.00     0.010 A 
ATOM     35  C   UNL A   1      41.892  23.273  28.704  1.00  0.00     0.010 A 
ATOM     36  C   UNL A   1      41.417  24.384  27.994  1.00  0.00    -0.014 A 
BRANCH  36  37
ATOM     37  C   UNL A   1      41.906  25.712  28.403  1.00  0.00     0.031 A 
ATOM     38  C   UNL A   1      41.018  26.800  28.935  1.00  0.00     0.074 A 
ATOM     39  C   UNL A   1      43.169  25.948  28.015  1.00  0.00     0.049 A 
ATOM     40  N   UNL A   1      41.295  28.067  29.125  1.00  0.00    -0.248 NA
ATOM     41  C   UNL A   1      39.641  26.440  29.293  1.00  0.00     0.031 C 
ATOM     42  C   UNL A   1      44.054  24.939  27.417  1.00  0.00     0.029 A 
ATOM     43  N   UNL A   1      43.877  27.108  27.944  1.00  0.00    -0.354 N 
ATOM     44  C   UNL A   1      40.133  28.651  29.621  1.00  0.00     0.074 A 
ATOM     45  C   UNL A   1      39.131  27.610  29.668  1.00  0.00     0.031 C 
ATOM     46  C   UNL A   1      45.140  25.547  26.934  1.00  0.00     0.029 A 
ATOM     47  C   UNL A   1      45.038  26.968  27.229  1.00  0.00     0.049 A 
ATOM     48  H   UNL A   1      43.588  27.952  28.359  1.00  0.00     0.167 HD
ATOM     49  C   UNL A   1      39.952  29.939  30.013  1.00  0.00     0.037 A 
ATOM     50  C   UNL A   1      45.923  27.897  26.844  1.00  0.00     0.037 A 
ATOM     51  C   UNL A   1      40.991  30.940  29.934  1.00  0.00     0.049 A 
ATOM     52  C   UNL A   1      45.700  29.304  27.298  1.00  0.00     0.074 A 
ATOM     53  C   UNL A   1      40.982  32.242  30.406  1.00  0.00     0.029 A 
ATOM     54  N   UNL A   1      42.219  30.751  29.314  1.00  0.00    -0.354 N 
ATOM     55  N   UNL A   1      44.669  29.817  27.923  1.00  0.00    -0.248 NA
ATOM     56  C   UNL A   1      46.790  30.247  27.045  1.00  0.00     0.031 C 
ATOM     57  C   UNL A   1      42.169  32.860  30.002  1.00  0.00     0.029 A 
ATOM     58  C   UNL A   1      42.957  31.922  29.356  1.00  0.00     0.049 A 
ATOM     59  H   UNL A   1      42.521  29.907  28.905  1.00  0.00     0.167 HD
ATOM     60  C   UNL A   1      45.007  31.133  28.190  1.00  0.00     0.074 A 
ATOM     61  C   UNL A   1      46.344  31.330  27.662  1.00  0.00     0.031 C 
ATOM     62  C   UNL A   1      44.287  32.089  28.824  1.00  0.00     0.037 A 
BRANCH  49  63
ATOM     63  C   UNL A   1      38.620  30.368  30.582  1.00  0.00     0.064 A 
ATOM     64  C   UNL A   1      38.392  30.416  31.966  1.00  0.00     0.173 A 
ATOM     65  C   UNL A   1      37.615  30.884  29.744  1.00  0.00     0.173 A 
ATOM     66  F   UNL A   1      39.316  29.954  32.820  1.00  0.00    -0.203 F 
ATOM     67  C   UNL A   1      37.212  30.951  32.486  1.00  0.00     0.198 A 
ATOM     68  C   UNL A   1      36.450  31.444  30.269  1.00  0.00     0.198 A 
ATOM     69  F   UNL A   1      37.780  30.888  28.413  1.00  0.00    -0.203 F 
ATOM     70  F   UNL A   1      37.015  30.972  33.812  1.00  0.00    -0.200 F 
ATOM     71  C   UNL A   1      36.248  31.476  31.639  1.00  0.00     0.200 A 
ATOM     72  F   UNL A   1      35.533  31.975  29.447  1.00  0.00    -0.200 F 
ATOM     73  F   UNL A   1      35.131  32.017  32.142  1.00  0.00    -0.200 F 
ENDBRANCH  49  63
BRANCH  50  74
ATOM     74  C   UNL A   1      47.132  27.477  26.105  1.00  0.00     0.064 A 
ATOM     75  C   UNL A   1      48.245  26.995  26.802  1.00  0.00     0.173 A 
ATOM     76  C   UNL A   1      47.186  27.492  24.704  1.00  0.00     0.173 A 
ATOM     77  F   UNL A   1      48.221  26.938  28.142  1.00  0.00    -0.203 F 
ATOM     78  C   UNL A   1      49.395  26.598  26.130  1.00  0.00     0.198 A 
ATOM     79  C   UNL A   1      48.325  27.060  24.030  1.00  0.00     0.198 A 
ATOM     80  F   UNL A   1      46.122  27.892  23.991  1.00  0.00    -0.203 F 
ATOM     81  F   UNL A   1      50.466  26.195  26.826  1.00  0.00    -0.200 F 
ATOM     82  C   UNL A   1      49.434  26.630  24.744  1.00  0.00     0.200 A 
ATOM     83  F   UNL A   1      48.347  27.055  22.690  1.00  0.00    -0.200 F 
ATOM     84  F   UNL A   1      50.543  26.249  24.097  1.00  0.00    -0.200 F 
ENDBRANCH  50  74
BRANCH  62  85
ATOM     85  C   UNL A   1      44.954  33.416  29.020  1.00  0.00     0.064 A 
ATOM     86  C   UNL A   1      44.812  34.461  28.095  1.00  0.00     0.173 A 
ATOM     87  C   UNL A   1      45.733  33.651  30.164  1.00  0.00     0.173 A 
ATOM     88  F   UNL A   1      44.096  34.278  26.974  1.00  0.00    -0.203 F 
ATOM     89  C   UNL A   1      45.453  35.679  28.290  1.00  0.00     0.198 A 
ATOM     90  C   UNL A   1      46.336  34.885  30.378  1.00  0.00     0.198 A 
ATOM     91  F   UNL A   1      45.898  32.686  31.081  1.00  0.00    -0.203 F 
ATOM     92  F   UNL A   1      45.358  36.639  27.360  1.00  0.00    -0.200 F 
ATOM     93  C   UNL A   1      46.205  35.894  29.437  1.00  0.00     0.200 A 
ATOM     94  F   UNL A   1      47.046  35.097  31.494  1.00  0.00    -0.200 F 
ATOM     95  F   UNL A   1      46.811  37.073  29.628  1.00  0.00    -0.200 F 
ENDBRANCH  62  85
ENDBRANCH  36  37
ENDBRANCH  29  31
ENDBRANCH  28  29
ENDBRANCH  27  28
ENDBRANCH   1  27
TORSDOF 16
ENDMDL
