MODEL 1
REMARK VINA RESULT:     -13.7      0.000      0.000
REMARK SMILES COc1ccc(/C=C2/C(=O)N(c3ccccc3)C(=O)N=C2OCCOC(=O)c2ccc(-c3c4nc(c(-c5c(F)c(F)c(F)c(F)c5F)c5ccc([nH]5)c(-c5c(F)c(F)c(F)c(F)c5F)c5nc(c(-c6c(F)c(F)c(F)c(F)c6F)c6ccc3[nH]6)C=C5)C=C4)cc2)cc1C(=O)[O-]
REMARK SMILES IDX 24 1 23 2 22 3 21 4 7 5 8 6 9 7 10 8 11 9 20 10 18 11 19 12
REMARK SMILES IDX 6 13 3 14 4 15 92 16 5 17 91 18 2 19 1 20 93 21 94 22 95 23
REMARK SMILES IDX 12 24 13 25 17 26 14 27 16 28 15 29 25 30 26 31 27 32 28 33
REMARK SMILES IDX 29 34 90 35 30 36 89 37 31 38 32 39 33 40 83 41 34 42 88 43
REMARK SMILES IDX 82 44 84 45 35 46 87 47 81 48 80 49 36 51 68 52 48 53 67 54
REMARK SMILES IDX 49 55 52 56 66 57 85 58 50 59 51 60 65 62 86 63 53 64 37 65
REMARK SMILES IDX 38 66 46 67 39 68 40 69 44 70 47 71 41 72 42 73 45 74 43 75
REMARK SMILES IDX 69 76 70 77 78 78 71 79 72 80 76 81 79 82 73 83 74 84 77 85
REMARK SMILES IDX 75 86 54 87 55 88 63 89 56 90 57 91 61 92 64 93 58 94 59 95
REMARK SMILES IDX 62 96 60 97
REMARK H PARENT 84 50 52 61
REMARK Flexibility Score: inf
ROOT
ATOM      1  C   UNL A   1      32.886  29.680  25.033  1.00  0.00     0.274 C 
ENDROOT
BRANCH   1   2
ATOM      2  C   UNL A   1      33.591  28.382  24.627  1.00  0.00     0.273 C 
BRANCH   2   3
ATOM      3  O   UNL A   1      32.745  27.239  24.906  1.00  0.00    -0.473 OA
BRANCH   3   4
ATOM      4  C   UNL A   1      32.929  26.066  24.265  1.00  0.00     0.231 C 
ATOM      5  C   UNL A   1      30.608  26.008  23.214  1.00  0.00     0.027 C 
ATOM      6  C   UNL A   1      31.683  25.452  23.808  1.00  0.00     0.103 C 
ATOM      7  C   UNL A   1      31.680  23.967  23.972  1.00  0.00     0.272 C 
ATOM      8  O   UNL A   1      30.620  23.345  24.001  1.00  0.00    -0.268 OA
ATOM      9  N   UNL A   1      32.953  23.407  24.032  1.00  0.00    -0.226 N 
ATOM     10  N   UNL A   1      34.071  25.482  24.178  1.00  0.00    -0.156 NA
ATOM     11  C   UNL A   1      34.073  24.185  23.703  1.00  0.00     0.358 C 
ATOM     12  O   UNL A   1      35.057  23.763  23.105  1.00  0.00    -0.245 OA
BRANCH   5  13
ATOM     13  C   UNL A   1      30.263  27.396  22.844  1.00  0.00    -0.024 A 
ATOM     14  C   UNL A   1      29.533  30.094  22.436  1.00  0.00     0.127 A 
ATOM     15  C   UNL A   1      30.706  29.587  21.882  1.00  0.00     0.048 A 
ATOM     16  C   UNL A   1      28.637  29.222  23.056  1.00  0.00     0.040 A 
ATOM     17  C   UNL A   1      31.042  28.239  22.049  1.00  0.00     0.012 A 
ATOM     18  C   UNL A   1      29.029  27.895  23.298  1.00  0.00     0.022 A 
BRANCH  14  19
ATOM     19  O   UNL A   1      29.344  31.444  22.310  1.00  0.00    -0.496 OA
ATOM     20  C   UNL A   1      28.663  31.750  21.089  1.00  0.00     0.278 C 
ENDBRANCH  14  19
BRANCH  16  21
ATOM     21  C   UNL A   1      27.261  29.593  23.450  1.00  0.00     0.075 C 
ATOM     22  O   UNL A   1      26.912  30.688  23.856  1.00  0.00    -0.545 OA
ATOM     23  O   UNL A   1      26.415  28.550  23.435  1.00  0.00    -0.545 OA
ENDBRANCH  16  21
ENDBRANCH   5  13
BRANCH   9  24
ATOM     24  C   UNL A   1      33.094  22.021  24.398  1.00  0.00     0.054 A 
ATOM     25  C   UNL A   1      32.625  21.030  23.511  1.00  0.00     0.027 A 
ATOM     26  C   UNL A   1      33.538  21.606  25.661  1.00  0.00     0.027 A 
ATOM     27  C   UNL A   1      32.545  19.687  23.897  1.00  0.00     0.002 A 
ATOM     28  C   UNL A   1      33.493  20.256  26.031  1.00  0.00     0.002 A 
ATOM     29  C   UNL A   1      32.975  19.302  25.159  1.00  0.00     0.000 A 
ENDBRANCH   9  24
ENDBRANCH   3   4
ENDBRANCH   2   3
ENDBRANCH   1   2
BRANCH   1  30
ATOM     30  O   UNL A   1      32.885  29.788  26.468  1.00  0.00    -0.458 OA
BRANCH  30  31
ATOM     31  C   UNL A   1      33.243  30.988  26.973  1.00  0.00     0.338 C 
ATOM     32  O   UNL A   1      32.548  31.972  27.149  1.00  0.00    -0.246 OA
BRANCH  31  33
ATOM     33  C   UNL A   1      34.578  30.825  27.561  1.00  0.00     0.060 A 
ATOM     34  C   UNL A   1      34.920  29.528  27.920  1.00  0.00     0.016 A 
ATOM     35  C   UNL A   1      35.451  31.881  27.812  1.00  0.00     0.016 A 
ATOM     36  C   UNL A   1      36.127  29.267  28.546  1.00  0.00     0.010 A 
ATOM     37  C   UNL A   1      36.675  31.615  28.451  1.00  0.00     0.010 A 
ATOM     38  C   UNL A   1      37.010  30.305  28.846  1.00  0.00    -0.014 A 
BRANCH  38  39
ATOM     39  C   UNL A   1      38.175  29.998  29.720  1.00  0.00     0.031 A 
ATOM     40  C   UNL A   1      39.324  29.216  29.149  1.00  0.00     0.074 A 
ATOM     41  C   UNL A   1      38.300  30.544  30.946  1.00  0.00     0.049 A 
ATOM     42  N   UNL A   1      40.372  28.715  29.751  1.00  0.00    -0.248 NA
ATOM     43  C   UNL A   1      39.296  28.975  27.697  1.00  0.00     0.031 C 
ATOM     44  C   UNL A   1      37.350  31.471  31.562  1.00  0.00     0.029 A 
ATOM     45  N   UNL A   1      39.302  30.428  31.878  1.00  0.00    -0.354 N 
ATOM     46  C   UNL A   1      41.086  28.042  28.768  1.00  0.00     0.074 A 
ATOM     47  C   UNL A   1      40.372  28.222  27.524  1.00  0.00     0.031 C 
ATOM     48  C   UNL A   1      37.839  31.878  32.744  1.00  0.00     0.029 A 
ATOM     49  C   UNL A   1      39.080  31.162  33.018  1.00  0.00     0.049 A 
ATOM     50  H   UNL A   1      40.103  29.873  31.742  1.00  0.00     0.167 HD
ATOM     51  C   UNL A   1      42.226  27.324  28.902  1.00  0.00     0.037 A 
ATOM     52  C   UNL A   1      39.774  31.211  34.173  1.00  0.00     0.037 A 
ATOM     53  C   UNL A   1      42.963  27.203  30.131  1.00  0.00     0.049 A 
ATOM     54  C   UNL A   1      40.987  30.333  34.331  1.00  0.00     0.074 A 
ATOM     55  C   UNL A   1      44.102  26.460  30.388  1.00  0.00     0.029 A 
ATOM     56  N   UNL A   1      42.644  27.866  31.307  1.00  0.00    -0.354 N 
ATOM     57  N   UNL A   1      41.581  29.572  33.444  1.00  0.00    -0.248 NA
ATOM     58  C   UNL A   1      41.603  30.288  35.665  1.00  0.00     0.031 C 
ATOM     59  C   UNL A   1      44.452  26.645  31.730  1.00  0.00     0.029 A 
ATOM     60  C   UNL A   1      43.556  27.538  32.297  1.00  0.00     0.049 A 
ATOM     61  H   UNL A   1      41.882  28.479  31.421  1.00  0.00     0.167 HD
ATOM     62  C   UNL A   1      42.636  28.960  34.108  1.00  0.00     0.074 A 
ATOM     63  C   UNL A   1      42.622  29.463  35.466  1.00  0.00     0.031 C 
ATOM     64  C   UNL A   1      43.527  28.051  33.642  1.00  0.00     0.037 A 
BRANCH  51  65
ATOM     65  C   UNL A   1      42.697  26.550  27.708  1.00  0.00     0.064 A 
ATOM     66  C   UNL A   1      43.649  27.055  26.813  1.00  0.00     0.173 A 
ATOM     67  C   UNL A   1      42.187  25.263  27.472  1.00  0.00     0.173 A 
ATOM     68  F   UNL A   1      44.148  28.289  26.982  1.00  0.00    -0.203 F 
ATOM     69  C   UNL A   1      44.058  26.307  25.711  1.00  0.00     0.198 A 
ATOM     70  C   UNL A   1      42.618  24.510  26.386  1.00  0.00     0.198 A 
ATOM     71  F   UNL A   1      41.272  24.737  28.299  1.00  0.00    -0.203 F 
ATOM     72  F   UNL A   1      44.936  26.825  24.840  1.00  0.00    -0.200 F 
ATOM     73  C   UNL A   1      43.548  25.034  25.503  1.00  0.00     0.200 A 
ATOM     74  F   UNL A   1      42.127  23.277  26.192  1.00  0.00    -0.200 F 
ATOM     75  F   UNL A   1      43.946  24.314  24.443  1.00  0.00    -0.200 F 
ENDBRANCH  51  65
BRANCH  52  76
ATOM     76  C   UNL A   1      39.299  32.057  35.302  1.00  0.00     0.064 A 
ATOM     77  C   UNL A   1      39.683  33.401  35.415  1.00  0.00     0.173 A 
ATOM     78  C   UNL A   1      38.472  31.532  36.308  1.00  0.00     0.173 A 
ATOM     79  F   UNL A   1      40.503  33.942  34.502  1.00  0.00    -0.203 F 
ATOM     80  C   UNL A   1      39.268  34.181  36.495  1.00  0.00     0.198 A 
ATOM     81  C   UNL A   1      38.028  32.323  37.366  1.00  0.00     0.198 A 
ATOM     82  F   UNL A   1      38.088  30.248  36.260  1.00  0.00    -0.203 F 
ATOM     83  F   UNL A   1      39.693  35.447  36.605  1.00  0.00    -0.200 F 
ATOM     84  C   UNL A   1      38.433  33.644  37.463  1.00  0.00     0.200 A 
ATOM     85  F   UNL A   1      37.214  31.800  38.292  1.00  0.00    -0.200 F 
ATOM     86  F   UNL A   1      38.030  34.396  38.496  1.00  0.00    -0.200 F 
ENDBRANCH  52  76
BRANCH  64  87
ATOM     87  C   UNL A   1      44.568  27.556  34.600  1.00  0.00     0.064 A 
ATOM     88  C   UNL A   1      44.369  26.393  35.357  1.00  0.00     0.173 A 
ATOM     89  C   UNL A   1      45.793  28.227  34.730  1.00  0.00     0.173 A 
ATOM     90  F   UNL A   1      43.209  25.725  35.278  1.00  0.00    -0.203 F 
ATOM     91  C   UNL A   1      45.352  25.931  36.229  1.00  0.00     0.198 A 
ATOM     92  C   UNL A   1      46.783  27.749  35.583  1.00  0.00     0.198 A 
ATOM     93  F   UNL A   1      46.033  29.341  34.022  1.00  0.00    -0.203 F 
ATOM     94  F   UNL A   1      45.125  24.842  36.976  1.00  0.00    -0.200 F 
ATOM     95  C   UNL A   1      46.560  26.605  36.336  1.00  0.00     0.200 A 
ATOM     96  F   UNL A   1      47.954  28.393  35.677  1.00  0.00    -0.200 F 
ATOM     97  F   UNL A   1      47.507  26.155  37.171  1.00  0.00    -0.200 F 
ENDBRANCH  64  87
ENDBRANCH  38  39
ENDBRANCH  31  33
ENDBRANCH  30  31
ENDBRANCH   1  30
TORSDOF 14
ENDMDL
MODEL 2
REMARK VINA RESULT:     -13.5      4.084     10.065
REMARK SMILES COc1ccc(/C=C2/C(=O)N(c3ccccc3)C(=O)N=C2OCCOC(=O)c2ccc(-c3c4nc(c(-c5c(F)c(F)c(F)c(F)c5F)c5ccc([nH]5)c(-c5c(F)c(F)c(F)c(F)c5F)c5nc(c(-c6c(F)c(F)c(F)c(F)c6F)c6ccc3[nH]6)C=C5)C=C4)cc2)cc1C(=O)[O-]
REMARK SMILES IDX 24 1 23 2 22 3 21 4 7 5 8 6 9 7 10 8 11 9 20 10 18 11 19 12
REMARK SMILES IDX 6 13 3 14 4 15 92 16 5 17 91 18 2 19 1 20 93 21 94 22 95 23
REMARK SMILES IDX 12 24 13 25 17 26 14 27 16 28 15 29 25 30 26 31 27 32 28 33
REMARK SMILES IDX 29 34 90 35 30 36 89 37 31 38 32 39 33 40 83 41 34 42 88 43
REMARK SMILES IDX 82 44 84 45 35 46 87 47 81 48 80 49 36 51 68 52 48 53 67 54
REMARK SMILES IDX 49 55 52 56 66 57 85 58 50 59 51 60 65 62 86 63 53 64 37 65
REMARK SMILES IDX 38 66 46 67 39 68 40 69 44 70 47 71 41 72 42 73 45 74 43 75
REMARK SMILES IDX 69 76 70 77 78 78 71 79 72 80 76 81 79 82 73 83 74 84 77 85
REMARK SMILES IDX 75 86 54 87 55 88 63 89 56 90 57 91 61 92 64 93 58 94 59 95
REMARK SMILES IDX 62 96 60 97
REMARK H PARENT 84 50 52 61
REMARK Flexibility Score: inf
ROOT
ATOM      1  C   UNL A   1      36.070  21.413  25.878  1.00  0.00     0.274 C 
ENDROOT
BRANCH   1   2
ATOM      2  C   UNL A   1      35.066  22.492  26.294  1.00  0.00     0.273 C 
BRANCH   2   3
ATOM      3  O   UNL A   1      34.422  23.059  25.127  1.00  0.00    -0.473 OA
BRANCH   3   4
ATOM      4  C   UNL A   1      33.303  23.806  25.245  1.00  0.00     0.231 C 
ATOM      5  C   UNL A   1      31.785  22.140  24.056  1.00  0.00     0.027 C 
ATOM      6  C   UNL A   1      32.223  23.379  24.356  1.00  0.00     0.103 C 
ATOM      7  C   UNL A   1      31.467  24.530  23.778  1.00  0.00     0.272 C 
ATOM      8  O   UNL A   1      30.801  24.387  22.754  1.00  0.00    -0.268 OA
ATOM      9  N   UNL A   1      31.563  25.698  24.528  1.00  0.00    -0.226 N 
ATOM     10  N   UNL A   1      33.236  24.864  25.971  1.00  0.00    -0.156 NA
ATOM     11  C   UNL A   1      32.114  25.655  25.818  1.00  0.00     0.358 C 
ATOM     12  O   UNL A   1      31.712  26.324  26.763  1.00  0.00    -0.245 OA
BRANCH   5  13
ATOM     13  C   UNL A   1      32.226  20.788  24.454  1.00  0.00    -0.024 A 
ATOM     14  C   UNL A   1      33.294  18.231  25.006  1.00  0.00     0.127 A 
ATOM     15  C   UNL A   1      32.952  19.095  26.044  1.00  0.00     0.048 A 
ATOM     16  C   UNL A   1      32.955  18.570  23.695  1.00  0.00     0.040 A 
ATOM     17  C   UNL A   1      32.382  20.342  25.769  1.00  0.00     0.012 A 
ATOM     18  C   UNL A   1      32.470  19.861  23.425  1.00  0.00     0.022 A 
BRANCH  14  19
ATOM     19  O   UNL A   1      33.942  17.082  25.369  1.00  0.00    -0.496 OA
ATOM     20  C   UNL A   1      33.006  16.073  25.760  1.00  0.00     0.278 C 
ENDBRANCH  14  19
BRANCH  16  21
ATOM     21  C   UNL A   1      33.032  17.635  22.553  1.00  0.00     0.075 C 
ATOM     22  O   UNL A   1      33.928  16.833  22.356  1.00  0.00    -0.545 OA
ATOM     23  O   UNL A   1      32.057  17.830  21.651  1.00  0.00    -0.545 OA
ENDBRANCH  16  21
ENDBRANCH   5  13
BRANCH   9  24
ATOM     24  C   UNL A   1      31.059  26.930  23.977  1.00  0.00     0.054 A 
ATOM     25  C   UNL A   1      29.664  27.114  23.879  1.00  0.00     0.027 A 
ATOM     26  C   UNL A   1      31.885  27.899  23.391  1.00  0.00     0.027 A 
ATOM     27  C   UNL A   1      29.120  28.190  23.169  1.00  0.00     0.002 A 
ATOM     28  C   UNL A   1      31.338  28.996  22.714  1.00  0.00     0.002 A 
ATOM     29  C   UNL A   1      29.958  29.129  22.583  1.00  0.00     0.000 A 
ENDBRANCH   9  24
ENDBRANCH   3   4
ENDBRANCH   2   3
ENDBRANCH   1   2
BRANCH   1  30
ATOM     30  O   UNL A   1      37.269  22.045  25.394  1.00  0.00    -0.458 OA
BRANCH  30  31
ATOM     31  C   UNL A   1      38.433  21.551  25.869  1.00  0.00     0.338 C 
ATOM     32  O   UNL A   1      38.938  20.465  25.651  1.00  0.00    -0.246 OA
BRANCH  31  33
ATOM     33  C   UNL A   1      39.157  22.672  26.481  1.00  0.00     0.060 A 
ATOM     34  C   UNL A   1      38.702  23.938  26.136  1.00  0.00     0.016 A 
ATOM     35  C   UNL A   1      40.265  22.520  27.310  1.00  0.00     0.016 A 
ATOM     36  C   UNL A   1      39.354  25.069  26.600  1.00  0.00     0.010 A 
ATOM     37  C   UNL A   1      40.927  23.670  27.777  1.00  0.00     0.010 A 
ATOM     38  C   UNL A   1      40.489  24.954  27.402  1.00  0.00    -0.014 A 
BRANCH  38  39
ATOM     39  C   UNL A   1      41.275  26.187  27.676  1.00  0.00     0.031 A 
ATOM     40  C   UNL A   1      40.695  27.231  28.589  1.00  0.00     0.074 A 
ATOM     41  C   UNL A   1      42.553  26.315  27.267  1.00  0.00     0.049 A 
ATOM     42  N   UNL A   1      41.129  28.435  28.861  1.00  0.00    -0.248 NA
ATOM     43  C   UNL A   1      39.462  26.864  29.304  1.00  0.00     0.031 C 
ATOM     44  C   UNL A   1      43.311  25.303  26.528  1.00  0.00     0.029 A 
ATOM     45  N   UNL A   1      43.455  27.334  27.451  1.00  0.00    -0.354 N 
ATOM     46  C   UNL A   1      40.189  28.990  29.718  1.00  0.00     0.074 A 
ATOM     47  C   UNL A   1      39.174  27.985  29.947  1.00  0.00     0.031 C 
ATOM     48  C   UNL A   1      44.573  25.732  26.368  1.00  0.00     0.029 A 
ATOM     49  C   UNL A   1      44.687  27.088  26.895  1.00  0.00     0.049 A 
ATOM     50  H   UNL A   1      43.239  28.163  27.936  1.00  0.00     0.167 HD
ATOM     51  C   UNL A   1      40.168  30.236  30.248  1.00  0.00     0.037 A 
ATOM     52  C   UNL A   1      45.767  27.885  26.781  1.00  0.00     0.037 A 
ATOM     53  C   UNL A   1      41.213  31.208  30.065  1.00  0.00     0.049 A 
ATOM     54  C   UNL A   1      45.688  29.297  27.296  1.00  0.00     0.074 A 
ATOM     55  C   UNL A   1      41.268  32.515  30.516  1.00  0.00     0.029 A 
ATOM     56  N   UNL A   1      42.401  30.966  29.392  1.00  0.00    -0.354 N 
ATOM     57  N   UNL A   1      44.731  29.878  27.979  1.00  0.00    -0.248 NA
ATOM     58  C   UNL A   1      46.823  30.179  26.989  1.00  0.00     0.031 C 
ATOM     59  C   UNL A   1      42.475  33.075  30.084  1.00  0.00     0.029 A 
ATOM     60  C   UNL A   1      43.190  32.104  29.402  1.00  0.00     0.049 A 
ATOM     61  H   UNL A   1      42.647  30.112  28.968  1.00  0.00     0.167 HD
ATOM     62  C   UNL A   1      45.146  31.188  28.182  1.00  0.00     0.074 A 
ATOM     63  C   UNL A   1      46.457  31.309  27.579  1.00  0.00     0.031 C 
ATOM     64  C   UNL A   1      44.494  32.204  28.799  1.00  0.00     0.037 A 
BRANCH  51  65
ATOM     65  C   UNL A   1      38.941  30.642  31.007  1.00  0.00     0.064 A 
ATOM     66  C   UNL A   1      38.854  30.547  32.402  1.00  0.00     0.173 A 
ATOM     67  C   UNL A   1      37.834  31.154  30.312  1.00  0.00     0.173 A 
ATOM     68  F   UNL A   1      39.876  30.041  33.110  1.00  0.00    -0.203 F 
ATOM     69  C   UNL A   1      37.694  30.929  33.072  1.00  0.00     0.198 A 
ATOM     70  C   UNL A   1      36.688  31.560  30.986  1.00  0.00     0.198 A 
ATOM     71  F   UNL A   1      37.868  31.263  28.975  1.00  0.00    -0.203 F 
ATOM     72  F   UNL A   1      37.613  30.788  34.403  1.00  0.00    -0.200 F 
ATOM     73  C   UNL A   1      36.616  31.442  32.365  1.00  0.00     0.200 A 
ATOM     74  F   UNL A   1      35.651  32.061  30.300  1.00  0.00    -0.200 F 
ATOM     75  F   UNL A   1      35.502  31.813  33.012  1.00  0.00    -0.200 F 
ENDBRANCH  51  65
BRANCH  52  76
ATOM     76  C   UNL A   1      46.989  27.401  26.080  1.00  0.00     0.064 A 
ATOM     77  C   UNL A   1      47.134  27.541  24.693  1.00  0.00     0.173 A 
ATOM     78  C   UNL A   1      48.025  26.761  26.779  1.00  0.00     0.173 A 
ATOM     79  F   UNL A   1      46.157  28.111  23.971  1.00  0.00    -0.203 F 
ATOM     80  C   UNL A   1      48.261  27.052  24.033  1.00  0.00     0.198 A 
ATOM     81  C   UNL A   1      49.167  26.307  26.123  1.00  0.00     0.198 A 
ATOM     82  F   UNL A   1      47.931  26.584  28.105  1.00  0.00    -0.203 F 
ATOM     83  F   UNL A   1      48.350  27.153  22.699  1.00  0.00    -0.200 F 
ATOM     84  C   UNL A   1      49.281  26.445  24.750  1.00  0.00     0.200 A 
ATOM     85  F   UNL A   1      50.152  25.729  26.824  1.00  0.00    -0.200 F 
ATOM     86  F   UNL A   1      50.366  25.980  24.116  1.00  0.00    -0.200 F 
ENDBRANCH  52  76
BRANCH  64  87
ATOM     87  C   UNL A   1      45.195  33.528  28.867  1.00  0.00     0.064 A 
ATOM     88  C   UNL A   1      44.984  34.516  27.894  1.00  0.00     0.173 A 
ATOM     89  C   UNL A   1      46.051  33.827  29.936  1.00  0.00     0.173 A 
ATOM     90  F   UNL A   1      44.185  34.272  26.845  1.00  0.00    -0.203 F 
ATOM     91  C   UNL A   1      45.624  35.750  27.979  1.00  0.00     0.198 A 
ATOM     92  C   UNL A   1      46.669  35.070  30.031  1.00  0.00     0.198 A 
ATOM     93  F   UNL A   1      46.279  32.916  30.895  1.00  0.00    -0.203 F 
ATOM     94  F   UNL A   1      45.443  36.665  27.016  1.00  0.00    -0.200 F 
ATOM     95  C   UNL A   1      46.461  36.027  29.050  1.00  0.00     0.200 A 
ATOM     96  F   UNL A   1      47.467  35.342  31.073  1.00  0.00    -0.200 F 
ATOM     97  F   UNL A   1      47.071  37.218  29.133  1.00  0.00    -0.200 F 
ENDBRANCH  64  87
ENDBRANCH  38  39
ENDBRANCH  31  33
ENDBRANCH  30  31
ENDBRANCH   1  30
TORSDOF 14
ENDMDL
MODEL 3
REMARK VINA RESULT:     -13.4      1.299      4.740
REMARK SMILES COc1ccc(/C=C2/C(=O)N(c3ccccc3)C(=O)N=C2OCCOC(=O)c2ccc(-c3c4nc(c(-c5c(F)c(F)c(F)c(F)c5F)c5ccc([nH]5)c(-c5c(F)c(F)c(F)c(F)c5F)c5nc(c(-c6c(F)c(F)c(F)c(F)c6F)c6ccc3[nH]6)C=C5)C=C4)cc2)cc1C(=O)[O-]
REMARK SMILES IDX 24 1 23 2 22 3 21 4 7 5 8 6 9 7 10 8 11 9 20 10 18 11 19 12
REMARK SMILES IDX 6 13 3 14 4 15 92 16 5 17 91 18 2 19 1 20 93 21 94 22 95 23
REMARK SMILES IDX 12 24 13 25 17 26 14 27 16 28 15 29 25 30 26 31 27 32 28 33
REMARK SMILES IDX 29 34 90 35 30 36 89 37 31 38 32 39 33 40 83 41 34 42 88 43
REMARK SMILES IDX 82 44 84 45 35 46 87 47 81 48 80 49 36 51 68 52 48 53 67 54
REMARK SMILES IDX 49 55 52 56 66 57 85 58 50 59 51 60 65 62 86 63 53 64 37 65
REMARK SMILES IDX 38 66 46 67 39 68 40 69 44 70 47 71 41 72 42 73 45 74 43 75
REMARK SMILES IDX 69 76 70 77 78 78 71 79 72 80 76 81 79 82 73 83 74 84 77 85
REMARK SMILES IDX 75 86 54 87 55 88 63 89 56 90 57 91 61 92 64 93 58 94 59 95
REMARK SMILES IDX 62 96 60 97
REMARK H PARENT 84 50 52 61
REMARK Flexibility Score: inf
ROOT
ATOM      1  C   UNL A   1      31.771  28.723  26.540  1.00  0.00     0.274 C 
ENDROOT
BRANCH   1   2
ATOM      2  C   UNL A   1      32.174  27.247  26.597  1.00  0.00     0.273 C 
BRANCH   2   3
ATOM      3  O   UNL A   1      31.245  26.440  25.832  1.00  0.00    -0.473 OA
BRANCH   3   4
ATOM      4  C   UNL A   1      30.650  26.929  24.723  1.00  0.00     0.231 C 
ATOM      5  C   UNL A   1      32.683  26.629  23.216  1.00  0.00     0.027 C 
ATOM      6  C   UNL A   1      31.595  27.287  23.666  1.00  0.00     0.103 C 
ATOM      7  C   UNL A   1      31.210  28.539  22.950  1.00  0.00     0.272 C 
ATOM      8  O   UNL A   1      32.048  29.178  22.316  1.00  0.00    -0.268 OA
ATOM      9  N   UNL A   1      29.855  28.844  23.041  1.00  0.00    -0.226 N 
ATOM     10  N   UNL A   1      29.391  27.178  24.650  1.00  0.00    -0.156 NA
ATOM     11  C   UNL A   1      28.959  27.890  23.548  1.00  0.00     0.358 C 
ATOM     12  O   UNL A   1      27.821  27.719  23.127  1.00  0.00    -0.245 OA
BRANCH   5  13
ATOM     13  C   UNL A   1      33.342  25.370  23.620  1.00  0.00    -0.024 A 
ATOM     14  C   UNL A   1      34.576  22.873  24.095  1.00  0.00     0.127 A 
ATOM     15  C   UNL A   1      35.125  24.044  24.613  1.00  0.00     0.048 A 
ATOM     16  C   UNL A   1      33.324  22.919  23.478  1.00  0.00     0.040 A 
ATOM     17  C   UNL A   1      34.487  25.273  24.413  1.00  0.00     0.012 A 
ATOM     18  C   UNL A   1      32.742  24.168  23.203  1.00  0.00     0.022 A 
BRANCH  14  19
ATOM     19  O   UNL A   1      35.325  21.738  24.250  1.00  0.00    -0.496 OA
ATOM     20  C   UNL A   1      35.612  21.505  25.633  1.00  0.00     0.278 C 
ENDBRANCH  14  19
BRANCH  16  21
ATOM     21  C   UNL A   1      32.533  21.723  23.123  1.00  0.00     0.075 C 
ATOM     22  O   UNL A   1      32.153  21.434  22.002  1.00  0.00    -0.545 OA
ATOM     23  O   UNL A   1      32.151  21.012  24.196  1.00  0.00    -0.545 OA
ENDBRANCH  16  21
ENDBRANCH   5  13
BRANCH   9  24
ATOM     24  C   UNL A   1      29.390  30.125  22.578  1.00  0.00     0.054 A 
ATOM     25  C   UNL A   1      29.153  31.147  23.521  1.00  0.00     0.027 A 
ATOM     26  C   UNL A   1      29.013  30.367  21.250  1.00  0.00     0.027 A 
ATOM     27  C   UNL A   1      28.508  32.336  23.160  1.00  0.00     0.002 A 
ATOM     28  C   UNL A   1      28.403  31.573  20.883  1.00  0.00     0.002 A 
ATOM     29  C   UNL A   1      28.130  32.546  21.841  1.00  0.00     0.000 A 
ENDBRANCH   9  24
ENDBRANCH   3   4
ENDBRANCH   2   3
ENDBRANCH   1   2
BRANCH   1  30
ATOM     30  O   UNL A   1      32.906  29.508  26.129  1.00  0.00    -0.458 OA
BRANCH  30  31
ATOM     31  C   UNL A   1      33.096  30.669  26.792  1.00  0.00     0.338 C 
ATOM     32  O   UNL A   1      32.281  31.537  27.043  1.00  0.00    -0.246 OA
BRANCH  31  33
ATOM     33  C   UNL A   1      34.415  30.588  27.430  1.00  0.00     0.060 A 
ATOM     34  C   UNL A   1      34.937  29.308  27.566  1.00  0.00     0.016 A 
ATOM     35  C   UNL A   1      35.104  31.689  27.932  1.00  0.00     0.016 A 
ATOM     36  C   UNL A   1      36.143  29.106  28.216  1.00  0.00     0.010 A 
ATOM     37  C   UNL A   1      36.327  31.482  28.594  1.00  0.00     0.010 A 
ATOM     38  C   UNL A   1      36.843  30.182  28.763  1.00  0.00    -0.014 A 
BRANCH  38  39
ATOM     39  C   UNL A   1      38.005  29.883  29.643  1.00  0.00     0.031 A 
ATOM     40  C   UNL A   1      39.163  29.109  29.078  1.00  0.00     0.074 A 
ATOM     41  C   UNL A   1      38.118  30.427  30.870  1.00  0.00     0.049 A 
ATOM     42  N   UNL A   1      40.211  28.615  29.686  1.00  0.00    -0.248 NA
ATOM     43  C   UNL A   1      39.145  28.870  27.626  1.00  0.00     0.031 C 
ATOM     44  C   UNL A   1      37.158  31.347  31.481  1.00  0.00     0.029 A 
ATOM     45  N   UNL A   1      39.115  30.318  31.809  1.00  0.00    -0.354 N 
ATOM     46  C   UNL A   1      40.935  27.949  28.707  1.00  0.00     0.074 A 
ATOM     47  C   UNL A   1      40.227  28.125  27.458  1.00  0.00     0.031 C 
ATOM     48  C   UNL A   1      37.637  31.756  32.667  1.00  0.00     0.029 A 
ATOM     49  C   UNL A   1      38.881  31.049  32.948  1.00  0.00     0.049 A 
ATOM     50  H   UNL A   1      39.921  29.769  31.677  1.00  0.00     0.167 HD
ATOM     51  C   UNL A   1      42.079  27.238  28.847  1.00  0.00     0.037 A 
ATOM     52  C   UNL A   1      39.568  31.101  34.107  1.00  0.00     0.037 A 
ATOM     53  C   UNL A   1      42.810  27.121  30.080  1.00  0.00     0.049 A 
ATOM     54  C   UNL A   1      40.786  30.231  34.272  1.00  0.00     0.074 A 
ATOM     55  C   UNL A   1      43.953  26.385  30.343  1.00  0.00     0.029 A 
ATOM     56  N   UNL A   1      42.479  27.779  31.255  1.00  0.00    -0.354 N 
ATOM     57  N   UNL A   1      41.391  29.475  33.387  1.00  0.00    -0.248 NA
ATOM     58  C   UNL A   1      41.393  30.188  35.610  1.00  0.00     0.031 C 
ATOM     59  C   UNL A   1      44.292  26.571  31.688  1.00  0.00     0.029 A 
ATOM     60  C   UNL A   1      43.387  27.457  32.250  1.00  0.00     0.049 A 
ATOM     61  H   UNL A   1      41.712  28.387  31.365  1.00  0.00     0.167 HD
ATOM     62  C   UNL A   1      42.446  28.870  34.058  1.00  0.00     0.074 A 
ATOM     63  C   UNL A   1      42.419  29.371  35.416  1.00  0.00     0.031 C 
ATOM     64  C   UNL A   1      43.346  27.968  33.595  1.00  0.00     0.037 A 
BRANCH  51  65
ATOM     65  C   UNL A   1      42.563  26.469  27.655  1.00  0.00     0.064 A 
ATOM     66  C   UNL A   1      43.529  26.975  26.775  1.00  0.00     0.173 A 
ATOM     67  C   UNL A   1      42.051  25.186  27.404  1.00  0.00     0.173 A 
ATOM     68  F   UNL A   1      44.031  28.206  26.958  1.00  0.00    -0.203 F 
ATOM     69  C   UNL A   1      43.950  26.231  25.674  1.00  0.00     0.198 A 
ATOM     70  C   UNL A   1      42.494  24.436  26.320  1.00  0.00     0.198 A 
ATOM     71  F   UNL A   1      41.124  24.659  28.217  1.00  0.00    -0.203 F 
ATOM     72  F   UNL A   1      44.842  26.751  24.819  1.00  0.00    -0.200 F 
ATOM     73  C   UNL A   1      43.438  24.962  25.452  1.00  0.00     0.200 A 
ATOM     74  F   UNL A   1      42.001  23.207  26.112  1.00  0.00    -0.200 F 
ATOM     75  F   UNL A   1      43.847  24.247  24.394  1.00  0.00    -0.200 F 
ENDBRANCH  51  65
BRANCH  52  76
ATOM     76  C   UNL A   1      39.079  31.942  35.234  1.00  0.00     0.064 A 
ATOM     77  C   UNL A   1      39.369  33.312  35.297  1.00  0.00     0.173 A 
ATOM     78  C   UNL A   1      38.336  31.388  36.289  1.00  0.00     0.173 A 
ATOM     79  F   UNL A   1      40.107  33.886  34.335  1.00  0.00    -0.203 F 
ATOM     80  C   UNL A   1      38.943  34.091  36.373  1.00  0.00     0.198 A 
ATOM     81  C   UNL A   1      37.880  32.174  37.345  1.00  0.00     0.198 A 
ATOM     82  F   UNL A   1      38.045  30.079  36.290  1.00  0.00    -0.203 F 
ATOM     83  F   UNL A   1      39.279  35.387  36.433  1.00  0.00    -0.200 F 
ATOM     84  C   UNL A   1      38.191  33.523  37.391  1.00  0.00     0.200 A 
ATOM     85  F   UNL A   1      37.146  31.620  38.319  1.00  0.00    -0.200 F 
ATOM     86  F   UNL A   1      37.778  34.273  38.421  1.00  0.00    -0.200 F 
ENDBRANCH  52  76
BRANCH  64  87
ATOM     87  C   UNL A   1      44.385  27.479  34.560  1.00  0.00     0.064 A 
ATOM     88  C   UNL A   1      45.573  28.191  34.775  1.00  0.00     0.173 A 
ATOM     89  C   UNL A   1      44.171  26.311  35.305  1.00  0.00     0.173 A 
ATOM     90  F   UNL A   1      45.829  29.306  34.074  1.00  0.00    -0.203 F 
ATOM     91  C   UNL A   1      46.522  27.738  35.688  1.00  0.00     0.198 A 
ATOM     92  C   UNL A   1      45.110  25.875  36.236  1.00  0.00     0.198 A 
ATOM     93  F   UNL A   1      43.046  25.598  35.139  1.00  0.00    -0.203 F 
ATOM     94  F   UNL A   1      47.670  28.410  35.848  1.00  0.00    -0.200 F 
ATOM     95  C   UNL A   1      46.286  26.585  36.422  1.00  0.00     0.200 A 
ATOM     96  F   UNL A   1      44.876  24.768  36.953  1.00  0.00    -0.200 F 
ATOM     97  F   UNL A   1      47.198  26.154  37.305  1.00  0.00    -0.200 F 
ENDBRANCH  64  87
ENDBRANCH  38  39
ENDBRANCH  31  33
ENDBRANCH  30  31
ENDBRANCH   1  30
TORSDOF 14
ENDMDL
