MODEL 1
REMARK VINA RESULT:     -12.7      0.000      0.000
REMARK SMILES Cc1cc(C)cc(C(=O)N2CC[C@H](C(=O)OCCOC(=O)c3ccc(-c4c5nc(c(-c6c(F)c(F)c(F)c(F)c6F)c6ccc([nH]6)c(-c6c(F)c(F)c(F)c(F)c6F)c6nc(c(-c7c(F)c(F)c(F)c(F)c7F)c7ccc4[nH]7)C=C6)C=C5)cc3)[C@@H]2C)c1
REMARK SMILES IDX 17 1 16 2 14 3 15 4 13 5 10 6 11 7 85 8 12 9 86 10 8 11 9 12
REMARK SMILES IDX 7 13 1 14 2 15 3 16 87 17 4 18 5 19 6 20 18 21 19 22 20 23
REMARK SMILES IDX 21 24 22 25 23 26 84 27 24 28 83 29 25 30 26 31 27 32 77 33
REMARK SMILES IDX 28 34 82 35 76 36 78 37 29 38 81 39 75 40 74 41 30 43 62 44
REMARK SMILES IDX 42 45 61 46 43 47 46 48 60 49 79 50 44 51 45 52 59 54 80 55
REMARK SMILES IDX 47 56 31 57 32 58 40 59 33 60 34 61 38 62 41 63 35 64 36 65
REMARK SMILES IDX 39 66 37 67 63 68 64 69 72 70 65 71 66 72 70 73 73 74 67 75
REMARK SMILES IDX 68 76 71 77 69 78 48 79 49 80 57 81 50 82 51 83 55 84 58 85
REMARK SMILES IDX 52 86 53 87 56 88 54 89
REMARK H PARENT 78 42 46 53
REMARK Flexibility Score: inf
ROOT
ATOM      1  C   UNL A   1      31.362  28.833  25.234  1.00  0.00     0.274 C 
ENDROOT
BRANCH   1   2
ATOM      2  O   UNL A   1      30.807  28.797  23.899  1.00  0.00    -0.462 OA
BRANCH   2   3
ATOM      3  C   UNL A   1      30.928  27.607  23.245  1.00  0.00     0.311 C 
ATOM      4  O   UNL A   1      30.543  27.403  22.100  1.00  0.00    -0.252 OA
BRANCH   3   5
ATOM      5  C   UNL A   1      31.489  26.529  24.159  1.00  0.00     0.123 C 
ATOM      6  N   UNL A   1      32.434  24.640  23.044  1.00  0.00    -0.335 N 
ATOM      7  C   UNL A   1      30.995  24.482  23.015  1.00  0.00     0.121 C 
ATOM      8  C   UNL A   1      32.827  25.868  23.759  1.00  0.00     0.096 C 
ATOM      9  C   UNL A   1      30.528  25.327  24.189  1.00  0.00     0.039 C 
ATOM     10  C   UNL A   1      33.803  26.727  22.968  1.00  0.00     0.032 C 
BRANCH   6  11
ATOM     11  C   UNL A   1      33.217  23.608  22.551  1.00  0.00     0.254 C 
ATOM     12  O   UNL A   1      33.344  23.421  21.341  1.00  0.00    -0.269 OA
BRANCH  11  13
ATOM     13  C   UNL A   1      33.772  22.591  23.487  1.00  0.00     0.040 A 
ATOM     14  C   UNL A   1      32.780  19.203  24.918  1.00  0.00     0.044 C 
ATOM     15  C   UNL A   1      33.590  20.419  24.576  1.00  0.00    -0.050 A 
ATOM     16  C   UNL A   1      34.942  20.494  24.929  1.00  0.00     0.006 A 
ATOM     17  C   UNL A   1      33.025  21.455  23.825  1.00  0.00     0.017 A 
ATOM     18  C   UNL A   1      35.723  21.595  24.551  1.00  0.00    -0.050 A 
ATOM     19  C   UNL A   1      37.198  21.587  24.837  1.00  0.00     0.044 C 
ATOM     20  C   UNL A   1      35.129  22.646  23.837  1.00  0.00     0.017 A 
ENDBRANCH  11  13
ENDBRANCH   6  11
ENDBRANCH   3   5
ENDBRANCH   2   3
ENDBRANCH   1   2
BRANCH   1  21
ATOM     21  C   UNL A   1      31.569  30.271  25.709  1.00  0.00     0.275 C 
BRANCH  21  22
ATOM     22  O   UNL A   1      32.959  30.473  25.996  1.00  0.00    -0.458 OA
BRANCH  22  23
ATOM     23  C   UNL A   1      33.244  31.383  26.954  1.00  0.00     0.338 C 
ATOM     24  O   UNL A   1      32.535  32.319  27.303  1.00  0.00    -0.246 OA
BRANCH  23  25
ATOM     25  C   UNL A   1      34.552  31.068  27.577  1.00  0.00     0.060 A 
ATOM     26  C   UNL A   1      34.879  29.757  27.925  1.00  0.00     0.016 A 
ATOM     27  C   UNL A   1      35.425  32.104  27.914  1.00  0.00     0.016 A 
ATOM     28  C   UNL A   1      36.027  29.486  28.663  1.00  0.00     0.010 A 
ATOM     29  C   UNL A   1      36.622  31.819  28.585  1.00  0.00     0.010 A 
ATOM     30  C   UNL A   1      36.922  30.508  28.992  1.00  0.00    -0.014 A 
BRANCH  30  31
ATOM     31  C   UNL A   1      38.125  30.211  29.817  1.00  0.00     0.031 A 
ATOM     32  C   UNL A   1      39.250  29.402  29.234  1.00  0.00     0.074 A 
ATOM     33  C   UNL A   1      38.244  30.689  31.071  1.00  0.00     0.049 A 
ATOM     34  N   UNL A   1      40.271  28.843  29.833  1.00  0.00    -0.248 NA
ATOM     35  C   UNL A   1      39.208  29.174  27.782  1.00  0.00     0.031 C 
ATOM     36  C   UNL A   1      37.284  31.565  31.741  1.00  0.00     0.029 A 
ATOM     37  N   UNL A   1      39.241  30.518  32.000  1.00  0.00    -0.354 N 
ATOM     38  C   UNL A   1      40.950  28.141  28.847  1.00  0.00     0.074 A 
ATOM     39  C   UNL A   1      40.230  28.347  27.608  1.00  0.00     0.031 C 
ATOM     40  C   UNL A   1      37.763  31.900  32.949  1.00  0.00     0.029 A 
ATOM     41  C   UNL A   1      39.017  31.188  33.177  1.00  0.00     0.049 A 
ATOM     42  H   UNL A   1      40.040  29.966  31.838  1.00  0.00     0.167 HD
ATOM     43  C   UNL A   1      42.068  27.387  28.970  1.00  0.00     0.037 A 
ATOM     44  C   UNL A   1      39.721  31.201  34.325  1.00  0.00     0.037 A 
ATOM     45  C   UNL A   1      42.829  27.251  30.184  1.00  0.00     0.049 A 
ATOM     46  C   UNL A   1      40.944  30.337  34.449  1.00  0.00     0.074 A 
ATOM     47  C   UNL A   1      43.975  26.508  30.411  1.00  0.00     0.029 A 
ATOM     48  N   UNL A   1      42.535  27.902  31.374  1.00  0.00    -0.354 N 
ATOM     49  N   UNL A   1      41.513  29.574  33.549  1.00  0.00    -0.248 NA
ATOM     50  C   UNL A   1      41.601  30.308  35.764  1.00  0.00     0.031 C 
ATOM     51  C   UNL A   1      44.361  26.690  31.743  1.00  0.00     0.029 A 
ATOM     52  C   UNL A   1      43.475  27.573  32.339  1.00  0.00     0.049 A 
ATOM     53  H   UNL A   1      41.771  28.508  31.513  1.00  0.00     0.167 HD
ATOM     54  C   UNL A   1      42.594  28.978  34.182  1.00  0.00     0.074 A 
ATOM     55  C   UNL A   1      42.615  29.484  35.540  1.00  0.00     0.031 C 
ATOM     56  C   UNL A   1      43.482  28.083  33.685  1.00  0.00     0.037 A 
BRANCH  43  57
ATOM     57  C   UNL A   1      42.510  26.609  27.766  1.00  0.00     0.064 A 
ATOM     58  C   UNL A   1      43.451  27.110  26.856  1.00  0.00     0.173 A 
ATOM     59  C   UNL A   1      41.989  25.325  27.535  1.00  0.00     0.173 A 
ATOM     60  F   UNL A   1      43.965  28.338  27.022  1.00  0.00    -0.203 F 
ATOM     61  C   UNL A   1      43.835  26.365  25.744  1.00  0.00     0.198 A 
ATOM     62  C   UNL A   1      42.396  24.573  26.438  1.00  0.00     0.198 A 
ATOM     63  F   UNL A   1      41.090  24.798  28.379  1.00  0.00    -0.203 F 
ATOM     64  F   UNL A   1      44.701  26.881  24.860  1.00  0.00    -0.200 F 
ATOM     65  C   UNL A   1      43.313  25.096  25.539  1.00  0.00     0.200 A 
ATOM     66  F   UNL A   1      41.898  23.343  26.248  1.00  0.00    -0.200 F 
ATOM     67  F   UNL A   1      43.687  24.380  24.470  1.00  0.00    -0.200 F 
ENDBRANCH  43  57
BRANCH  44  68
ATOM     68  C   UNL A   1      39.262  32.041  35.460  1.00  0.00     0.064 A 
ATOM     69  C   UNL A   1      38.428  31.509  36.452  1.00  0.00     0.173 A 
ATOM     70  C   UNL A   1      39.661  33.380  35.588  1.00  0.00     0.173 A 
ATOM     71  F   UNL A   1      37.994  30.244  36.354  1.00  0.00    -0.203 F 
ATOM     72  C   UNL A   1      38.011  32.284  37.531  1.00  0.00     0.198 A 
ATOM     73  C   UNL A   1      39.266  34.145  36.682  1.00  0.00     0.198 A 
ATOM     74  F   UNL A   1      40.452  33.937  34.660  1.00  0.00    -0.203 F 
ATOM     75  F   UNL A   1      37.190  31.762  38.452  1.00  0.00    -0.200 F 
ATOM     76  C   UNL A   1      38.439  33.598  37.652  1.00  0.00     0.200 A 
ATOM     77  F   UNL A   1      39.690  35.411  36.800  1.00  0.00    -0.200 F 
ATOM     78  F   UNL A   1      38.050  34.339  38.698  1.00  0.00    -0.200 F 
ENDBRANCH  44  68
BRANCH  56  79
ATOM     79  C   UNL A   1      44.563  27.610  34.609  1.00  0.00     0.064 A 
ATOM     80  C   UNL A   1      44.409  26.446  35.377  1.00  0.00     0.173 A 
ATOM     81  C   UNL A   1      45.774  28.310  34.708  1.00  0.00     0.173 A 
ATOM     82  F   UNL A   1      43.262  25.752  35.329  1.00  0.00    -0.203 F 
ATOM     83  C   UNL A   1      45.422  26.013  36.227  1.00  0.00     0.198 A 
ATOM     84  C   UNL A   1      46.793  27.861  35.544  1.00  0.00     0.198 A 
ATOM     85  F   UNL A   1      45.969  29.428  33.992  1.00  0.00    -0.203 F 
ATOM     86  F   UNL A   1      45.240  24.920  36.981  1.00  0.00    -0.200 F 
ATOM     87  C   UNL A   1      46.615  26.717  36.305  1.00  0.00     0.200 A 
ATOM     88  F   UNL A   1      47.947  28.538  35.613  1.00  0.00    -0.200 F 
ATOM     89  F   UNL A   1      47.590  26.297  37.123  1.00  0.00    -0.200 F 
ENDBRANCH  56  79
ENDBRANCH  30  31
ENDBRANCH  23  25
ENDBRANCH  22  23
ENDBRANCH  21  22
ENDBRANCH   1  21
TORSDOF 13
ENDMDL
MODEL 2
REMARK VINA RESULT:     -12.7      1.083      1.928
REMARK SMILES Cc1cc(C)cc(C(=O)N2CC[C@H](C(=O)OCCOC(=O)c3ccc(-c4c5nc(c(-c6c(F)c(F)c(F)c(F)c6F)c6ccc([nH]6)c(-c6c(F)c(F)c(F)c(F)c6F)c6nc(c(-c7c(F)c(F)c(F)c(F)c7F)c7ccc4[nH]7)C=C6)C=C5)cc3)[C@@H]2C)c1
REMARK SMILES IDX 17 1 16 2 14 3 15 4 13 5 10 6 11 7 85 8 12 9 86 10 8 11 9 12
REMARK SMILES IDX 7 13 1 14 2 15 3 16 87 17 4 18 5 19 6 20 18 21 19 22 20 23
REMARK SMILES IDX 21 24 22 25 23 26 84 27 24 28 83 29 25 30 26 31 27 32 77 33
REMARK SMILES IDX 28 34 82 35 76 36 78 37 29 38 81 39 75 40 74 41 30 43 62 44
REMARK SMILES IDX 42 45 61 46 43 47 46 48 60 49 79 50 44 51 45 52 59 54 80 55
REMARK SMILES IDX 47 56 31 57 32 58 40 59 33 60 34 61 38 62 41 63 35 64 36 65
REMARK SMILES IDX 39 66 37 67 63 68 64 69 72 70 65 71 66 72 70 73 73 74 67 75
REMARK SMILES IDX 68 76 71 77 69 78 48 79 49 80 57 81 50 82 51 83 55 84 58 85
REMARK SMILES IDX 52 86 53 87 56 88 54 89
REMARK H PARENT 78 42 46 53
REMARK Flexibility Score: inf
ROOT
ATOM      1  C   UNL A   1      31.767  28.301  26.733  1.00  0.00     0.274 C 
ENDROOT
BRANCH   1   2
ATOM      2  O   UNL A   1      30.981  27.693  25.681  1.00  0.00    -0.462 OA
BRANCH   2   3
ATOM      3  C   UNL A   1      31.319  26.412  25.362  1.00  0.00     0.311 C 
ATOM      4  O   UNL A   1      30.556  25.601  24.851  1.00  0.00    -0.252 OA
BRANCH   3   5
ATOM      5  C   UNL A   1      32.726  26.078  25.832  1.00  0.00     0.123 C 
ATOM      6  N   UNL A   1      33.890  24.470  24.504  1.00  0.00    -0.335 N 
ATOM      7  C   UNL A   1      32.963  23.743  25.346  1.00  0.00     0.121 C 
ATOM      8  C   UNL A   1      33.828  25.920  24.762  1.00  0.00     0.096 C 
ATOM      9  C   UNL A   1      32.728  24.694  26.508  1.00  0.00     0.039 C 
ATOM     10  C   UNL A   1      33.666  26.741  23.490  1.00  0.00     0.032 C 
BRANCH   6  11
ATOM     11  C   UNL A   1      34.765  23.743  23.713  1.00  0.00     0.254 C 
ATOM     12  O   UNL A   1      34.476  23.431  22.557  1.00  0.00    -0.269 OA
BRANCH  11  13
ATOM     13  C   UNL A   1      36.000  23.167  24.314  1.00  0.00     0.040 A 
ATOM     14  C   UNL A   1      38.717  24.209  26.772  1.00  0.00     0.044 C 
ATOM     15  C   UNL A   1      37.876  23.370  25.856  1.00  0.00    -0.050 A 
ATOM     16  C   UNL A   1      38.100  21.994  25.748  1.00  0.00     0.006 A 
ATOM     17  C   UNL A   1      36.802  23.940  25.163  1.00  0.00     0.017 A 
ATOM     18  C   UNL A   1      37.274  21.191  24.948  1.00  0.00    -0.050 A 
ATOM     19  C   UNL A   1      37.464  19.701  24.951  1.00  0.00     0.044 C 
ATOM     20  C   UNL A   1      36.229  21.787  24.225  1.00  0.00     0.017 A 
ENDBRANCH  11  13
ENDBRANCH   6  11
ENDBRANCH   3   5
ENDBRANCH   2   3
ENDBRANCH   1   2
BRANCH   1  21
ATOM     21  C   UNL A   1      31.711  29.826  26.656  1.00  0.00     0.275 C 
BRANCH  21  22
ATOM     22  O   UNL A   1      33.017  30.326  26.336  1.00  0.00    -0.458 OA
BRANCH  22  23
ATOM     23  C   UNL A   1      33.460  31.358  27.086  1.00  0.00     0.338 C 
ATOM     24  O   UNL A   1      32.885  32.424  27.269  1.00  0.00    -0.246 OA
BRANCH  23  25
ATOM     25  C   UNL A   1      34.756  31.008  27.715  1.00  0.00     0.060 A 
ATOM     26  C   UNL A   1      35.020  29.699  28.121  1.00  0.00     0.016 A 
ATOM     27  C   UNL A   1      35.683  32.012  27.996  1.00  0.00     0.016 A 
ATOM     28  C   UNL A   1      36.161  29.405  28.863  1.00  0.00     0.010 A 
ATOM     29  C   UNL A   1      36.870  31.699  28.672  1.00  0.00     0.010 A 
ATOM     30  C   UNL A   1      37.109  30.394  29.138  1.00  0.00    -0.014 A 
BRANCH  30  31
ATOM     31  C   UNL A   1      38.303  30.077  29.967  1.00  0.00     0.031 A 
ATOM     32  C   UNL A   1      39.414  29.245  29.389  1.00  0.00     0.074 A 
ATOM     33  C   UNL A   1      38.426  30.554  31.221  1.00  0.00     0.049 A 
ATOM     34  N   UNL A   1      40.422  28.667  29.993  1.00  0.00    -0.248 NA
ATOM     35  C   UNL A   1      39.372  29.015  27.937  1.00  0.00     0.031 C 
ATOM     36  C   UNL A   1      37.481  31.450  31.886  1.00  0.00     0.029 A 
ATOM     37  N   UNL A   1      39.417  30.365  32.153  1.00  0.00    -0.354 N 
ATOM     38  C   UNL A   1      41.090  27.951  29.010  1.00  0.00     0.074 A 
ATOM     39  C   UNL A   1      40.378  28.169  27.768  1.00  0.00     0.031 C 
ATOM     40  C   UNL A   1      37.962  31.778  33.095  1.00  0.00     0.029 A 
ATOM     41  C   UNL A   1      39.202  31.043  33.328  1.00  0.00     0.049 A 
ATOM     42  H   UNL A   1      40.205  29.799  31.995  1.00  0.00     0.167 HD
ATOM     43  C   UNL A   1      42.194  27.176  29.138  1.00  0.00     0.037 A 
ATOM     44  C   UNL A   1      39.903  31.044  34.478  1.00  0.00     0.037 A 
ATOM     45  C   UNL A   1      42.948  27.027  30.355  1.00  0.00     0.049 A 
ATOM     46  C   UNL A   1      41.108  30.156  34.608  1.00  0.00     0.074 A 
ATOM     47  C   UNL A   1      44.079  26.263  30.587  1.00  0.00     0.029 A 
ATOM     48  N   UNL A   1      42.662  27.686  31.543  1.00  0.00    -0.354 N 
ATOM     49  N   UNL A   1      41.666  29.381  33.711  1.00  0.00    -0.248 NA
ATOM     50  C   UNL A   1      41.760  30.118  35.925  1.00  0.00     0.031 C 
ATOM     51  C   UNL A   1      44.464  26.440  31.920  1.00  0.00     0.029 A 
ATOM     52  C   UNL A   1      43.593  27.341  32.511  1.00  0.00     0.049 A 
ATOM     53  H   UNL A   1      41.910  28.307  31.678  1.00  0.00     0.167 HD
ATOM     54  C   UNL A   1      42.733  28.766  34.349  1.00  0.00     0.074 A 
ATOM     55  C   UNL A   1      42.759  29.274  35.706  1.00  0.00     0.031 C 
ATOM     56  C   UNL A   1      43.605  27.854  33.857  1.00  0.00     0.037 A 
BRANCH  43  57
ATOM     57  C   UNL A   1      42.625  26.387  27.937  1.00  0.00     0.064 A 
ATOM     58  C   UNL A   1      43.506  26.906  26.978  1.00  0.00     0.173 A 
ATOM     59  C   UNL A   1      42.155  25.076  27.758  1.00  0.00     0.173 A 
ATOM     60  F   UNL A   1      43.969  28.160  27.094  1.00  0.00    -0.203 F 
ATOM     61  C   UNL A   1      43.881  26.151  25.871  1.00  0.00     0.198 A 
ATOM     62  C   UNL A   1      42.554  24.314  26.664  1.00  0.00     0.198 A 
ATOM     63  F   UNL A   1      41.314  24.531  28.649  1.00  0.00    -0.203 F 
ATOM     64  F   UNL A   1      44.688  26.682  24.941  1.00  0.00    -0.200 F 
ATOM     65  C   UNL A   1      43.410  24.854  25.717  1.00  0.00     0.200 A 
ATOM     66  F   UNL A   1      42.106  23.058  26.524  1.00  0.00    -0.200 F 
ATOM     67  F   UNL A   1      43.776  24.128  24.652  1.00  0.00    -0.200 F 
ENDBRANCH  43  57
BRANCH  44  68
ATOM     68  C   UNL A   1      39.456  31.894  35.611  1.00  0.00     0.064 A 
ATOM     69  C   UNL A   1      39.988  33.176  35.796  1.00  0.00     0.173 A 
ATOM     70  C   UNL A   1      38.479  31.453  36.516  1.00  0.00     0.173 A 
ATOM     71  F   UNL A   1      40.949  33.628  34.977  1.00  0.00    -0.203 F 
ATOM     72  C   UNL A   1      39.558  33.987  36.844  1.00  0.00     0.198 A 
ATOM     73  C   UNL A   1      38.030  32.276  37.546  1.00  0.00     0.198 A 
ATOM     74  F   UNL A   1      37.945  30.230  36.385  1.00  0.00    -0.203 F 
ATOM     75  F   UNL A   1      40.103  35.199  37.018  1.00  0.00    -0.200 F 
ATOM     76  C   UNL A   1      38.572  33.542  37.711  1.00  0.00     0.200 A 
ATOM     77  F   UNL A   1      37.070  31.845  38.374  1.00  0.00    -0.200 F 
ATOM     78  F   UNL A   1      38.148  34.328  38.709  1.00  0.00    -0.200 F 
ENDBRANCH  44  68
BRANCH  56  79
ATOM     79  C   UNL A   1      44.673  27.361  34.785  1.00  0.00     0.064 A 
ATOM     80  C   UNL A   1      44.467  26.245  35.609  1.00  0.00     0.173 A 
ATOM     81  C   UNL A   1      45.924  27.994  34.833  1.00  0.00     0.173 A 
ATOM     82  F   UNL A   1      43.282  25.617  35.610  1.00  0.00    -0.203 F 
ATOM     83  C   UNL A   1      45.469  25.792  36.462  1.00  0.00     0.198 A 
ATOM     84  C   UNL A   1      46.931  27.526  35.673  1.00  0.00     0.198 A 
ATOM     85  F   UNL A   1      46.170  29.064  34.062  1.00  0.00    -0.203 F 
ATOM     86  F   UNL A   1      45.239  24.748  37.270  1.00  0.00    -0.200 F 
ATOM     87  C   UNL A   1      46.701  26.430  36.489  1.00  0.00     0.200 A 
ATOM     88  F   UNL A   1      48.123  28.137  35.692  1.00  0.00    -0.200 F 
ATOM     89  F   UNL A   1      47.666  25.992  37.311  1.00  0.00    -0.200 F 
ENDBRANCH  56  79
ENDBRANCH  30  31
ENDBRANCH  23  25
ENDBRANCH  22  23
ENDBRANCH  21  22
ENDBRANCH   1  21
TORSDOF 13
ENDMDL
MODEL 3
REMARK VINA RESULT:     -12.4      4.298      9.850
REMARK SMILES Cc1cc(C)cc(C(=O)N2CC[C@H](C(=O)OCCOC(=O)c3ccc(-c4c5nc(c(-c6c(F)c(F)c(F)c(F)c6F)c6ccc([nH]6)c(-c6c(F)c(F)c(F)c(F)c6F)c6nc(c(-c7c(F)c(F)c(F)c(F)c7F)c7ccc4[nH]7)C=C6)C=C5)cc3)[C@@H]2C)c1
REMARK SMILES IDX 17 1 16 2 14 3 15 4 13 5 10 6 11 7 85 8 12 9 86 10 8 11 9 12
REMARK SMILES IDX 7 13 1 14 2 15 3 16 87 17 4 18 5 19 6 20 18 21 19 22 20 23
REMARK SMILES IDX 21 24 22 25 23 26 84 27 24 28 83 29 25 30 26 31 27 32 77 33
REMARK SMILES IDX 28 34 82 35 76 36 78 37 29 38 81 39 75 40 74 41 30 43 62 44
REMARK SMILES IDX 42 45 61 46 43 47 46 48 60 49 79 50 44 51 45 52 59 54 80 55
REMARK SMILES IDX 47 56 31 57 32 58 40 59 33 60 34 61 38 62 41 63 35 64 36 65
REMARK SMILES IDX 39 66 37 67 63 68 64 69 72 70 65 71 66 72 70 73 73 74 67 75
REMARK SMILES IDX 68 76 71 77 69 78 48 79 49 80 57 81 50 82 51 83 55 84 58 85
REMARK SMILES IDX 52 86 53 87 56 88 54 89
REMARK H PARENT 78 42 46 53
REMARK Flexibility Score: inf
ROOT
ATOM      1  C   UNL A   1      35.377  21.343  24.545  1.00  0.00     0.274 C 
ENDROOT
BRANCH   1   2
ATOM      2  O   UNL A   1      34.226  20.553  24.922  1.00  0.00    -0.462 OA
BRANCH   2   3
ATOM      3  C   UNL A   1      33.025  21.191  24.844  1.00  0.00     0.311 C 
ATOM      4  O   UNL A   1      31.940  20.651  25.021  1.00  0.00    -0.252 OA
BRANCH   3   5
ATOM      5  C   UNL A   1      33.193  22.632  24.386  1.00  0.00     0.123 C 
ATOM      6  N   UNL A   1      31.548  24.159  25.203  1.00  0.00    -0.335 N 
ATOM      7  C   UNL A   1      30.947  23.421  24.111  1.00  0.00     0.121 C 
ATOM      8  C   UNL A   1      32.948  23.752  25.421  1.00  0.00     0.096 C 
ATOM      9  C   UNL A   1      32.147  22.955  23.303  1.00  0.00     0.039 C 
ATOM     10  C   UNL A   1      33.247  23.414  26.875  1.00  0.00     0.032 C 
BRANCH   6  11
ATOM     11  C   UNL A   1      30.821  25.190  25.775  1.00  0.00     0.254 C 
ATOM     12  O   UNL A   1      29.853  24.967  26.501  1.00  0.00    -0.269 OA
BRANCH  11  13
ATOM     13  C   UNL A   1      31.092  26.598  25.371  1.00  0.00     0.040 A 
ATOM     14  C   UNL A   1      30.057  29.013  22.614  1.00  0.00     0.044 C 
ATOM     15  C   UNL A   1      30.661  28.474  23.876  1.00  0.00    -0.050 A 
ATOM     16  C   UNL A   1      31.273  29.333  24.794  1.00  0.00     0.006 A 
ATOM     17  C   UNL A   1      30.544  27.115  24.190  1.00  0.00     0.017 A 
ATOM     18  C   UNL A   1      31.778  28.846  26.009  1.00  0.00    -0.050 A 
ATOM     19  C   UNL A   1      32.316  29.812  27.025  1.00  0.00     0.044 C 
ATOM     20  C   UNL A   1      31.693  27.474  26.287  1.00  0.00     0.017 A 
ENDBRANCH  11  13
ENDBRANCH   6  11
ENDBRANCH   3   5
ENDBRANCH   2   3
ENDBRANCH   1   2
BRANCH   1  21
ATOM     21  C   UNL A   1      36.673  20.717  25.059  1.00  0.00     0.275 C 
BRANCH  21  22
ATOM     22  O   UNL A   1      37.373  21.680  25.857  1.00  0.00    -0.458 OA
BRANCH  22  23
ATOM     23  C   UNL A   1      38.699  21.472  26.016  1.00  0.00     0.338 C 
ATOM     24  O   UNL A   1      39.311  20.445  25.752  1.00  0.00    -0.246 OA
BRANCH  23  25
ATOM     25  C   UNL A   1      39.346  22.703  26.529  1.00  0.00     0.060 A 
ATOM     26  C   UNL A   1      38.901  23.964  26.129  1.00  0.00     0.016 A 
ATOM     27  C   UNL A   1      40.477  22.603  27.342  1.00  0.00     0.016 A 
ATOM     28  C   UNL A   1      39.613  25.109  26.473  1.00  0.00     0.010 A 
ATOM     29  C   UNL A   1      41.145  23.763  27.755  1.00  0.00     0.010 A 
ATOM     30  C   UNL A   1      40.736  25.029  27.301  1.00  0.00    -0.014 A 
BRANCH  30  31
ATOM     31  C   UNL A   1      41.513  26.255  27.628  1.00  0.00     0.031 A 
ATOM     32  C   UNL A   1      40.906  27.312  28.508  1.00  0.00     0.074 A 
ATOM     33  C   UNL A   1      42.772  26.421  27.179  1.00  0.00     0.049 A 
ATOM     34  N   UNL A   1      41.305  28.539  28.733  1.00  0.00    -0.248 NA
ATOM     35  C   UNL A   1      39.669  26.945  29.214  1.00  0.00     0.031 C 
ATOM     36  C   UNL A   1      43.531  25.446  26.397  1.00  0.00     0.029 A 
ATOM     37  N   UNL A   1      43.645  27.470  27.338  1.00  0.00    -0.354 N 
ATOM     38  C   UNL A   1      40.335  29.109  29.545  1.00  0.00     0.074 A 
ATOM     39  C   UNL A   1      39.329  28.094  29.780  1.00  0.00     0.031 C 
ATOM     40  C   UNL A   1      44.772  25.916  26.192  1.00  0.00     0.029 A 
ATOM     41  C   UNL A   1      44.866  27.264  26.746  1.00  0.00     0.049 A 
ATOM     42  H   UNL A   1      43.416  28.291  27.829  1.00  0.00     0.167 HD
ATOM     43  C   UNL A   1      40.288  30.368  30.041  1.00  0.00     0.037 A 
ATOM     44  C   UNL A   1      45.931  28.080  26.629  1.00  0.00     0.037 A 
ATOM     45  C   UNL A   1      41.329  31.348  29.876  1.00  0.00     0.049 A 
ATOM     46  C   UNL A   1      45.848  29.482  27.163  1.00  0.00     0.074 A 
ATOM     47  C   UNL A   1      41.374  32.652  30.339  1.00  0.00     0.029 A 
ATOM     48  N   UNL A   1      42.529  31.118  29.218  1.00  0.00    -0.354 N 
ATOM     49  N   UNL A   1      44.875  30.059  27.824  1.00  0.00    -0.248 NA
ATOM     50  C   UNL A   1      46.999  30.357  26.902  1.00  0.00     0.031 C 
ATOM     51  C   UNL A   1      42.590  33.219  29.941  1.00  0.00     0.029 A 
ATOM     52  C   UNL A   1      43.317  32.257  29.258  1.00  0.00     0.049 A 
ATOM     53  H   UNL A   1      42.782  30.270  28.785  1.00  0.00     0.167 HD
ATOM     54  C   UNL A   1      45.295  31.360  28.061  1.00  0.00     0.074 A 
ATOM     55  C   UNL A   1      46.621  31.482  27.491  1.00  0.00     0.031 C 
ATOM     56  C   UNL A   1      44.634  32.365  28.685  1.00  0.00     0.037 A 
BRANCH  43  57
ATOM     57  C   UNL A   1      39.043  30.774  30.773  1.00  0.00     0.064 A 
ATOM     58  C   UNL A   1      37.928  31.309  30.114  1.00  0.00     0.173 A 
ATOM     59  C   UNL A   1      38.965  30.602  32.165  1.00  0.00     0.173 A 
ATOM     60  F   UNL A   1      37.959  31.510  28.787  1.00  0.00    -0.203 F 
ATOM     61  C   UNL A   1      36.790  31.683  30.824  1.00  0.00     0.198 A 
ATOM     62  C   UNL A   1      37.815  30.951  32.868  1.00  0.00     0.198 A 
ATOM     63  F   UNL A   1      40.002  30.089  32.843  1.00  0.00    -0.203 F 
ATOM     64  F   UNL A   1      35.752  32.237  30.180  1.00  0.00    -0.200 F 
ATOM     65  C   UNL A   1      36.732  31.498  32.197  1.00  0.00     0.200 A 
ATOM     66  F   UNL A   1      37.757  30.761  34.193  1.00  0.00    -0.200 F 
ATOM     67  F   UNL A   1      35.633  31.854  32.877  1.00  0.00    -0.200 F 
ENDBRANCH  43  57
BRANCH  44  68
ATOM     68  C   UNL A   1      47.157  27.596  25.945  1.00  0.00     0.064 A 
ATOM     69  C   UNL A   1      48.211  27.035  26.677  1.00  0.00     0.173 A 
ATOM     70  C   UNL A   1      47.293  27.667  24.550  1.00  0.00     0.173 A 
ATOM     71  F   UNL A   1      48.140  26.977  28.015  1.00  0.00    -0.203 F 
ATOM     72  C   UNL A   1      49.354  26.559  26.040  1.00  0.00     0.198 A 
ATOM     73  C   UNL A   1      48.425  27.165  23.913  1.00  0.00     0.198 A 
ATOM     74  F   UNL A   1      46.315  28.203  23.806  1.00  0.00    -0.203 F 
ATOM     75  F   UNL A   1      50.361  26.053  26.765  1.00  0.00    -0.200 F 
ATOM     76  C   UNL A   1      49.456  26.614  24.658  1.00  0.00     0.200 A 
ATOM     77  F   UNL A   1      48.514  27.211  22.576  1.00  0.00    -0.200 F 
ATOM     78  F   UNL A   1      50.550  26.143  24.044  1.00  0.00    -0.200 F 
ENDBRANCH  44  68
BRANCH  56  79
ATOM     79  C   UNL A   1      45.345  33.679  28.802  1.00  0.00     0.064 A 
ATOM     80  C   UNL A   1      46.198  33.955  29.881  1.00  0.00     0.173 A 
ATOM     81  C   UNL A   1      45.193  34.662  27.813  1.00  0.00     0.173 A 
ATOM     82  F   UNL A   1      46.361  33.052  30.860  1.00  0.00    -0.203 F 
ATOM     83  C   UNL A   1      46.858  35.176  29.975  1.00  0.00     0.198 A 
ATOM     84  C   UNL A   1      45.872  35.875  27.900  1.00  0.00     0.198 A 
ATOM     85  F   UNL A   1      44.390  34.444  26.761  1.00  0.00    -0.203 F 
ATOM     86  F   UNL A   1      47.638  35.435  31.033  1.00  0.00    -0.200 F 
ATOM     87  C   UNL A   1      46.699  36.132  28.982  1.00  0.00     0.200 A 
ATOM     88  F   UNL A   1      45.723  36.794  26.937  1.00  0.00    -0.200 F 
ATOM     89  F   UNL A   1      47.336  37.308  29.074  1.00  0.00    -0.200 F 
ENDBRANCH  56  79
ENDBRANCH  30  31
ENDBRANCH  23  25
ENDBRANCH  22  23
ENDBRANCH  21  22
ENDBRANCH   1  21
TORSDOF 13
ENDMDL
