MODEL 1
REMARK VINA RESULT:     -13.4      0.000      0.000
REMARK SMILES Cc1ccc(/C=C2/C[N@@H+](C)Cc3c2nc2ccccc2c3C(=O)OCCOC(=O)c2ccc(-c3c4nc(c(-c5c(F)c(F)c(F)c(F)c5F)c5ccc([nH]5)c(-c5c(F)c(F)c(F)c(F)c5F)c5nc(c(-c6c(F)c(F)c(F)c(F)c6F)c6ccc3[nH]6)C=C5)C=C4)cc2)cc1
REMARK SMILES IDX 26 1 25 2 24 3 22 4 23 5 21 6 6 7 7 8 8 9 13 10 9 11 12 12
REMARK SMILES IDX 14 13 10 14 11 15 15 17 20 18 16 19 19 20 17 21 18 22 5 23
REMARK SMILES IDX 1 24 2 25 3 26 94 27 4 28 93 29 27 30 28 31 29 32 30 33
REMARK SMILES IDX 31 34 92 35 32 36 91 37 33 38 34 39 35 40 85 41 36 42 90 43
REMARK SMILES IDX 84 44 86 45 37 46 89 47 83 48 82 49 38 51 70 52 50 53 69 54
REMARK SMILES IDX 51 55 54 56 68 57 87 58 52 59 53 60 67 62 88 63 55 64 39 65
REMARK SMILES IDX 40 66 48 67 41 68 42 69 46 70 49 71 43 72 44 73 47 74 45 75
REMARK SMILES IDX 71 76 72 77 80 78 73 79 74 80 78 81 81 82 75 83 76 84 79 85
REMARK SMILES IDX 77 86 56 87 57 88 65 89 58 90 59 91 63 92 66 93 60 94 61 95
REMARK SMILES IDX 64 96 62 97
REMARK H PARENT 9 16 86 50 54 61
REMARK Flexibility Score: inf
ROOT
ATOM      1  C   UNL A   1      42.511  21.010  25.749  1.00  0.00     0.275 C 
ENDROOT
BRANCH   1   2
ATOM      2  C   UNL A   1      41.728  19.973  26.563  1.00  0.00     0.275 C 
BRANCH   2   3
ATOM      3  O   UNL A   1      40.360  20.413  26.682  1.00  0.00    -0.458 OA
BRANCH   3   4
ATOM      4  C   UNL A   1      39.315  19.694  25.857  1.00  0.00     0.339 C 
ATOM      5  O   UNL A   1      39.963  18.623  25.645  1.00  0.00    -0.246 OA
BRANCH   4   6
ATOM      6  C   UNL A   1      37.341  20.404  25.302  1.00  0.00     0.080 A 
ATOM      7  C   UNL A   1      32.188  20.142  24.919  1.00  0.00     0.020 C 
ATOM      8  C   UNL A   1      33.382  19.616  24.535  1.00  0.00     0.033 C 
ATOM      9  C   UNL A   1      33.432  18.234  23.979  1.00  0.00     0.301 C 
ATOM     10  C   UNL A   1      34.730  20.254  24.622  1.00  0.00     0.082 A 
ATOM     11  N   UNL A   1      34.375  17.503  24.809  1.00  0.00    -0.330 N 
ATOM     12  C   UNL A   1      35.964  19.590  24.903  1.00  0.00     0.048 A 
ATOM     13  N   UNL A   1      34.637  21.545  24.363  1.00  0.00    -0.247 NA
ATOM     14  C   UNL A   1      34.328  16.072  24.501  1.00  0.00     0.333 C 
ATOM     15  C   UNL A   1      35.725  18.047  24.548  1.00  0.00     0.302 C 
ATOM     16  H   UNL A   1      34.137  17.611  25.795  1.00  0.00     0.348 HD
ATOM     17  C   UNL A   1      35.566  22.386  24.707  1.00  0.00     0.072 A 
ATOM     18  C   UNL A   1      36.838  22.047  25.245  1.00  0.00     0.015 A 
ATOM     19  C   UNL A   1      35.033  23.670  24.537  1.00  0.00     0.029 A 
ATOM     20  C   UNL A   1      37.405  23.395  25.635  1.00  0.00     0.011 A 
ATOM     21  C   UNL A   1      35.653  24.832  24.947  1.00  0.00     0.002 A 
ATOM     22  C   UNL A   1      36.873  24.693  25.520  1.00  0.00     0.001 A 
BRANCH   7  23
ATOM     23  C   UNL A   1      31.857  21.452  25.525  1.00  0.00    -0.025 A 
ATOM     24  C   UNL A   1      31.408  25.524  26.883  1.00  0.00     0.044 C 
ATOM     25  C   UNL A   1      31.432  24.079  26.482  1.00  0.00    -0.051 A 
ATOM     26  C   UNL A   1      32.164  23.157  27.232  1.00  0.00     0.004 A 
ATOM     27  C   UNL A   1      30.820  23.648  25.301  1.00  0.00     0.004 A 
ATOM     28  C   UNL A   1      32.330  21.844  26.779  1.00  0.00     0.008 A 
ATOM     29  C   UNL A   1      31.030  22.345  24.828  1.00  0.00     0.008 A 
ENDBRANCH   7  23
ENDBRANCH   4   6
ENDBRANCH   3   4
ENDBRANCH   2   3
ENDBRANCH   1   2
BRANCH   1  30
ATOM     30  O   UNL A   1      41.875  22.313  25.665  1.00  0.00    -0.458 OA
BRANCH  30  31
ATOM     31  C   UNL A   1      42.220  23.277  26.565  1.00  0.00     0.338 C 
ATOM     32  O   UNL A   1      43.037  23.154  27.457  1.00  0.00    -0.246 OA
BRANCH  31  33
ATOM     33  C   UNL A   1      41.253  24.390  26.527  1.00  0.00     0.060 A 
ATOM     34  C   UNL A   1      41.818  25.836  25.627  1.00  0.00     0.016 A 
ATOM     35  C   UNL A   1      40.260  24.602  27.997  1.00  0.00     0.016 A 
ATOM     36  C   UNL A   1      41.378  27.542  26.223  1.00  0.00     0.010 A 
ATOM     37  C   UNL A   1      39.898  26.304  28.622  1.00  0.00     0.010 A 
ATOM     38  C   UNL A   1      40.444  27.753  27.725  1.00  0.00    -0.014 A 
BRANCH  38  39
ATOM     39  C   UNL A   1      40.629  28.870  28.642  1.00  0.00     0.031 A 
ATOM     40  C   UNL A   1      39.522  29.838  28.756  1.00  0.00     0.074 A 
ATOM     41  C   UNL A   1      41.617  28.758  29.563  1.00  0.00     0.049 A 
ATOM     42  N   UNL A   1      39.547  30.833  29.560  1.00  0.00    -0.248 NA
ATOM     43  C   UNL A   1      38.286  29.797  27.973  1.00  0.00     0.031 C 
ATOM     44  C   UNL A   1      41.752  29.411  30.864  1.00  0.00     0.029 A 
ATOM     45  N   UNL A   1      42.820  28.053  29.435  1.00  0.00    -0.354 N 
ATOM     46  C   UNL A   1      38.315  31.442  29.561  1.00  0.00     0.074 A 
ATOM     47  C   UNL A   1      37.561  30.769  28.541  1.00  0.00     0.031 C 
ATOM     48  C   UNL A   1      43.026  29.312  31.284  1.00  0.00     0.029 A 
ATOM     49  C   UNL A   1      43.795  28.678  30.228  1.00  0.00     0.049 A 
ATOM     50  H   UNL A   1      42.959  27.252  28.881  1.00  0.00     0.167 HD
ATOM     51  C   UNL A   1      38.116  32.409  30.497  1.00  0.00     0.037 A 
ATOM     52  C   UNL A   1      44.868  29.252  29.606  1.00  0.00     0.037 A 
ATOM     53  C   UNL A   1      39.418  32.797  31.042  1.00  0.00     0.049 A 
ATOM     54  C   UNL A   1      44.718  30.760  29.537  1.00  0.00     0.074 A 
ATOM     55  C   UNL A   1      40.118  32.437  32.178  1.00  0.00     0.029 A 
ATOM     56  N   UNL A   1      40.350  33.334  30.155  1.00  0.00    -0.354 N 
ATOM     57  N   UNL A   1      43.590  31.391  29.743  1.00  0.00    -0.248 NA
ATOM     58  C   UNL A   1      45.826  31.677  29.287  1.00  0.00     0.031 C 
ATOM     59  C   UNL A   1      41.502  32.651  31.907  1.00  0.00     0.029 A 
ATOM     60  C   UNL A   1      41.636  33.193  30.636  1.00  0.00     0.049 A 
ATOM     61  H   UNL A   1      40.120  33.759  29.297  1.00  0.00     0.167 HD
ATOM     62  C   UNL A   1      43.790  32.741  29.672  1.00  0.00     0.074 A 
ATOM     63  C   UNL A   1      45.210  32.867  29.393  1.00  0.00     0.031 C 
ATOM     64  C   UNL A   1      42.782  33.650  29.850  1.00  0.00     0.037 A 
BRANCH  51  65
ATOM     65  C   UNL A   1      36.802  32.927  31.027  1.00  0.00     0.064 A 
ATOM     66  C   UNL A   1      36.020  33.783  30.219  1.00  0.00     0.173 A 
ATOM     67  C   UNL A   1      36.319  32.754  32.340  1.00  0.00     0.173 A 
ATOM     68  F   UNL A   1      36.358  34.038  28.946  1.00  0.00    -0.203 F 
ATOM     69  C   UNL A   1      34.876  34.433  30.692  1.00  0.00     0.198 A 
ATOM     70  C   UNL A   1      35.154  33.380  32.803  1.00  0.00     0.198 A 
ATOM     71  F   UNL A   1      36.967  32.016  33.246  1.00  0.00    -0.203 F 
ATOM     72  F   UNL A   1      34.210  35.276  29.892  1.00  0.00    -0.200 F 
ATOM     73  C   UNL A   1      34.442  34.230  31.986  1.00  0.00     0.200 A 
ATOM     74  F   UNL A   1      34.747  33.171  34.064  1.00  0.00    -0.200 F 
ATOM     75  F   UNL A   1      33.353  34.861  32.445  1.00  0.00    -0.200 F 
ENDBRANCH  51  65
BRANCH  52  76
ATOM     76  C   UNL A   1      45.452  28.341  28.572  1.00  0.00     0.064 A 
ATOM     77  C   UNL A   1      46.040  27.145  29.047  1.00  0.00     0.173 A 
ATOM     78  C   UNL A   1      45.091  28.377  27.224  1.00  0.00     0.173 A 
ATOM     79  F   UNL A   1      46.488  27.079  30.312  1.00  0.00    -0.203 F 
ATOM     80  C   UNL A   1      46.043  25.979  28.286  1.00  0.00     0.198 A 
ATOM     81  C   UNL A   1      45.172  27.222  26.437  1.00  0.00     0.198 A 
ATOM     82  F   UNL A   1      44.519  29.470  26.698  1.00  0.00    -0.203 F 
ATOM     83  F   UNL A   1      46.427  24.817  28.836  1.00  0.00    -0.200 F 
ATOM     84  C   UNL A   1      45.567  26.010  26.990  1.00  0.00     0.200 A 
ATOM     85  F   UNL A   1      44.728  27.248  25.172  1.00  0.00    -0.200 F 
ATOM     86  F   UNL A   1      45.428  24.872  26.294  1.00  0.00    -0.200 F 
ENDBRANCH  52  76
BRANCH  64  87
ATOM     87  C   UNL A   1      42.848  35.093  29.393  1.00  0.00     0.064 A 
ATOM     88  C   UNL A   1      43.285  36.149  30.212  1.00  0.00     0.173 A 
ATOM     89  C   UNL A   1      42.584  35.454  28.048  1.00  0.00     0.173 A 
ATOM     90  F   UNL A   1      43.770  35.933  31.442  1.00  0.00    -0.203 F 
ATOM     91  C   UNL A   1      43.299  37.474  29.773  1.00  0.00     0.198 A 
ATOM     92  C   UNL A   1      42.700  36.763  27.585  1.00  0.00     0.198 A 
ATOM     93  F   UNL A   1      42.232  34.551  27.124  1.00  0.00    -0.203 F 
ATOM     94  F   UNL A   1      43.617  38.451  30.634  1.00  0.00    -0.200 F 
ATOM     95  C   UNL A   1      43.011  37.781  28.459  1.00  0.00     0.200 A 
ATOM     96  F   UNL A   1      42.519  37.025  26.284  1.00  0.00    -0.200 F 
ATOM     97  F   UNL A   1      43.060  39.048  28.031  1.00  0.00    -0.200 F 
ENDBRANCH  64  87
ENDBRANCH  38  39
ENDBRANCH  31  33
ENDBRANCH  30  31
ENDBRANCH   1  30
TORSDOF 12
ENDMDL
MODEL 2
REMARK VINA RESULT:     -12.9      4.734     10.710
REMARK SMILES Cc1ccc(/C=C2/C[N@@H+](C)Cc3c2nc2ccccc2c3C(=O)OCCOC(=O)c2ccc(-c3c4nc(c(-c5c(F)c(F)c(F)c(F)c5F)c5ccc([nH]5)c(-c5c(F)c(F)c(F)c(F)c5F)c5nc(c(-c6c(F)c(F)c(F)c(F)c6F)c6ccc3[nH]6)C=C5)C=C4)cc2)cc1
REMARK SMILES IDX 26 1 25 2 24 3 22 4 23 5 21 6 6 7 7 8 8 9 13 10 9 11 12 12
REMARK SMILES IDX 14 13 10 14 11 15 15 17 20 18 16 19 19 20 17 21 18 22 5 23
REMARK SMILES IDX 1 24 2 25 3 26 94 27 4 28 93 29 27 30 28 31 29 32 30 33
REMARK SMILES IDX 31 34 92 35 32 36 91 37 33 38 34 39 35 40 85 41 36 42 90 43
REMARK SMILES IDX 84 44 86 45 37 46 89 47 83 48 82 49 38 51 70 52 50 53 69 54
REMARK SMILES IDX 51 55 54 56 68 57 87 58 52 59 53 60 67 62 88 63 55 64 39 65
REMARK SMILES IDX 40 66 48 67 41 68 42 69 46 70 49 71 43 72 44 73 47 74 45 75
REMARK SMILES IDX 71 76 72 77 80 78 73 79 74 80 78 81 81 82 75 83 76 84 79 85
REMARK SMILES IDX 77 86 56 87 57 88 65 89 58 90 59 91 63 92 66 93 60 94 61 95
REMARK SMILES IDX 64 96 62 97
REMARK H PARENT 9 16 86 50 54 61
REMARK Flexibility Score: inf
ROOT
ATOM      1  C   UNL A   1      35.869  34.427  28.720  1.00  0.00     0.275 C 
ENDROOT
BRANCH   1   2
ATOM      2  C   UNL A   1      34.368  34.510  28.418  1.00  0.00     0.275 C 
BRANCH   2   3
ATOM      3  O   UNL A   1      34.075  33.657  27.292  1.00  0.00    -0.458 OA
BRANCH   3   4
ATOM      4  C   UNL A   1      32.656  33.153  27.143  1.00  0.00     0.339 C 
ATOM      5  O   UNL A   1      32.063  34.117  27.717  1.00  0.00    -0.246 OA
BRANCH   4   6
ATOM      6  C   UNL A   1      31.991  31.319  26.192  1.00  0.00     0.080 A 
ATOM      7  C   UNL A   1      29.987  28.466  22.370  1.00  0.00     0.020 C 
ATOM      8  C   UNL A   1      29.766  29.440  23.293  1.00  0.00     0.033 C 
ATOM      9  C   UNL A   1      28.613  30.366  23.124  1.00  0.00     0.301 C 
ATOM     10  C   UNL A   1      30.581  29.744  24.509  1.00  0.00     0.082 A 
ATOM     11  N   UNL A   1      29.171  31.708  23.134  1.00  0.00    -0.330 N 
ATOM     12  C   UNL A   1      30.828  31.041  25.058  1.00  0.00     0.048 A 
ATOM     13  N   UNL A   1      31.028  28.625  25.047  1.00  0.00    -0.247 NA
ATOM     14  C   UNL A   1      28.158  32.689  22.740  1.00  0.00     0.333 C 
ATOM     15  C   UNL A   1      29.660  31.985  24.502  1.00  0.00     0.302 C 
ATOM     16  H   UNL A   1      29.939  31.777  22.465  1.00  0.00     0.348 HD
ATOM     17  C   UNL A   1      32.025  28.611  25.879  1.00  0.00     0.072 A 
ATOM     18  C   UNL A   1      32.659  29.754  26.438  1.00  0.00     0.015 A 
ATOM     19  C   UNL A   1      32.406  27.272  26.031  1.00  0.00     0.029 A 
ATOM     20  C   UNL A   1      33.852  29.157  27.155  1.00  0.00     0.011 A 
ATOM     21  C   UNL A   1      33.532  26.854  26.709  1.00  0.00     0.002 A 
ATOM     22  C   UNL A   1      34.283  27.824  27.284  1.00  0.00     0.001 A 
BRANCH   7  23
ATOM     23  C   UNL A   1      31.059  27.448  22.272  1.00  0.00    -0.025 A 
ATOM     24  C   UNL A   1      34.190  24.508  22.691  1.00  0.00     0.044 C 
ATOM     25  C   UNL A   1      33.093  25.488  22.398  1.00  0.00    -0.051 A 
ATOM     26  C   UNL A   1      33.403  26.820  22.116  1.00  0.00     0.004 A 
ATOM     27  C   UNL A   1      31.749  25.121  22.509  1.00  0.00     0.004 A 
ATOM     28  C   UNL A   1      32.389  27.777  22.004  1.00  0.00     0.008 A 
ATOM     29  C   UNL A   1      30.740  26.093  22.445  1.00  0.00     0.008 A 
ENDBRANCH   7  23
ENDBRANCH   4   6
ENDBRANCH   3   4
ENDBRANCH   2   3
ENDBRANCH   1   2
BRANCH   1  30
ATOM     30  O   UNL A   1      36.235  33.395  29.674  1.00  0.00    -0.458 OA
BRANCH  30  31
ATOM     31  C   UNL A   1      35.285  32.509  30.087  1.00  0.00     0.338 C 
ATOM     32  O   UNL A   1      34.369  32.755  30.847  1.00  0.00    -0.246 OA
BRANCH  31  33
ATOM     33  C   UNL A   1      35.683  31.129  29.750  1.00  0.00     0.060 A 
ATOM     34  C   UNL A   1      36.076  30.100  31.167  1.00  0.00     0.016 A 
ATOM     35  C   UNL A   1      36.624  30.944  28.242  1.00  0.00     0.016 A 
ATOM     36  C   UNL A   1      37.453  28.855  31.069  1.00  0.00     0.010 A 
ATOM     37  C   UNL A   1      38.041  29.758  28.185  1.00  0.00     0.010 A 
ATOM     38  C   UNL A   1      38.432  28.717  29.587  1.00  0.00    -0.014 A 
BRANCH  38  39
ATOM     39  C   UNL A   1      39.850  28.382  29.582  1.00  0.00     0.031 A 
ATOM     40  C   UNL A   1      40.223  27.039  29.099  1.00  0.00     0.074 A 
ATOM     41  C   UNL A   1      40.729  29.410  29.678  1.00  0.00     0.049 A 
ATOM     42  N   UNL A   1      41.437  26.646  29.005  1.00  0.00    -0.248 NA
ATOM     43  C   UNL A   1      39.277  26.001  28.689  1.00  0.00     0.031 C 
ATOM     44  C   UNL A   1      42.119  29.486  29.232  1.00  0.00     0.029 A 
ATOM     45  N   UNL A   1      40.538  30.630  30.336  1.00  0.00    -0.354 N 
ATOM     46  C   UNL A   1      41.467  25.429  28.369  1.00  0.00     0.074 A 
ATOM     47  C   UNL A   1      40.091  25.056  28.201  1.00  0.00     0.031 C 
ATOM     48  C   UNL A   1      42.726  30.524  29.836  1.00  0.00     0.029 A 
ATOM     49  C   UNL A   1      41.783  31.104  30.777  1.00  0.00     0.049 A 
ATOM     50  H   UNL A   1      39.673  31.082  30.467  1.00  0.00     0.167 HD
ATOM     51  C   UNL A   1      42.695  24.952  28.026  1.00  0.00     0.037 A 
ATOM     52  C   UNL A   1      42.001  31.205  32.122  1.00  0.00     0.037 A 
ATOM     53  C   UNL A   1      43.706  25.718  28.758  1.00  0.00     0.049 A 
ATOM     54  C   UNL A   1      42.855  30.056  32.626  1.00  0.00     0.074 A 
ATOM     55  C   UNL A   1      44.502  26.798  28.428  1.00  0.00     0.029 A 
ATOM     56  N   UNL A   1      43.668  25.663  30.150  1.00  0.00    -0.354 N 
ATOM     57  N   UNL A   1      43.078  28.960  31.946  1.00  0.00    -0.248 NA
ATOM     58  C   UNL A   1      43.567  30.070  33.899  1.00  0.00     0.031 C 
ATOM     59  C   UNL A   1      44.837  27.464  29.645  1.00  0.00     0.029 A 
ATOM     60  C   UNL A   1      44.296  26.757  30.711  1.00  0.00     0.049 A 
ATOM     61  H   UNL A   1      43.248  24.937  30.667  1.00  0.00     0.167 HD
ATOM     62  C   UNL A   1      43.931  28.147  32.637  1.00  0.00     0.074 A 
ATOM     63  C   UNL A   1      44.215  28.893  33.850  1.00  0.00     0.031 C 
ATOM     64  C   UNL A   1      44.342  26.930  32.163  1.00  0.00     0.037 A 
BRANCH  51  65
ATOM     65  C   UNL A   1      43.028  23.920  26.978  1.00  0.00     0.064 A 
ATOM     66  C   UNL A   1      42.667  22.571  27.196  1.00  0.00     0.173 A 
ATOM     67  C   UNL A   1      43.810  24.140  25.825  1.00  0.00     0.173 A 
ATOM     68  F   UNL A   1      41.922  22.214  28.253  1.00  0.00    -0.203 F 
ATOM     69  C   UNL A   1      43.078  21.533  26.355  1.00  0.00     0.198 A 
ATOM     70  C   UNL A   1      44.194  23.103  24.966  1.00  0.00     0.198 A 
ATOM     71  F   UNL A   1      44.275  25.350  25.501  1.00  0.00    -0.203 F 
ATOM     72  F   UNL A   1      42.749  20.268  26.649  1.00  0.00    -0.200 F 
ATOM     73  C   UNL A   1      43.842  21.799  25.238  1.00  0.00     0.200 A 
ATOM     74  F   UNL A   1      44.937  23.381  23.884  1.00  0.00    -0.200 F 
ATOM     75  F   UNL A   1      44.247  20.804  24.437  1.00  0.00    -0.200 F 
ENDBRANCH  51  65
BRANCH  52  76
ATOM     76  C   UNL A   1      40.849  31.861  32.815  1.00  0.00     0.064 A 
ATOM     77  C   UNL A   1      40.593  33.209  32.471  1.00  0.00     0.173 A 
ATOM     78  C   UNL A   1      39.804  31.151  33.411  1.00  0.00     0.173 A 
ATOM     79  F   UNL A   1      41.583  33.970  31.975  1.00  0.00    -0.203 F 
ATOM     80  C   UNL A   1      39.305  33.740  32.498  1.00  0.00     0.198 A 
ATOM     81  C   UNL A   1      38.528  31.717  33.512  1.00  0.00     0.198 A 
ATOM     82  F   UNL A   1      39.962  29.865  33.757  1.00  0.00    -0.203 F 
ATOM     83  F   UNL A   1      39.066  34.954  31.980  1.00  0.00    -0.200 F 
ATOM     84  C   UNL A   1      38.263  32.973  32.981  1.00  0.00     0.200 A 
ATOM     85  F   UNL A   1      37.513  30.986  33.995  1.00  0.00    -0.200 F 
ATOM     86  F   UNL A   1      36.999  33.412  32.880  1.00  0.00    -0.200 F 
ENDBRANCH  52  76
BRANCH  64  87
ATOM     87  C   UNL A   1      44.937  25.837  33.027  1.00  0.00     0.064 A 
ATOM     88  C   UNL A   1      46.303  25.505  33.031  1.00  0.00     0.173 A 
ATOM     89  C   UNL A   1      44.156  25.154  33.992  1.00  0.00     0.173 A 
ATOM     90  F   UNL A   1      47.201  26.208  32.328  1.00  0.00    -0.203 F 
ATOM     91  C   UNL A   1      46.814  24.468  33.813  1.00  0.00     0.198 A 
ATOM     92  C   UNL A   1      44.691  24.191  34.846  1.00  0.00     0.198 A 
ATOM     93  F   UNL A   1      42.853  25.411  34.168  1.00  0.00    -0.203 F 
ATOM     94  F   UNL A   1      48.103  24.122  33.690  1.00  0.00    -0.200 F 
ATOM     95  C   UNL A   1      46.010  23.813  34.723  1.00  0.00     0.200 A 
ATOM     96  F   UNL A   1      43.919  23.642  35.794  1.00  0.00    -0.200 F 
ATOM     97  F   UNL A   1      46.509  22.843  35.497  1.00  0.00    -0.200 F 
ENDBRANCH  64  87
ENDBRANCH  38  39
ENDBRANCH  31  33
ENDBRANCH  30  31
ENDBRANCH   1  30
TORSDOF 12
ENDMDL
MODEL 3
REMARK VINA RESULT:     -12.9      6.627     11.136
REMARK SMILES Cc1ccc(/C=C2/C[N@@H+](C)Cc3c2nc2ccccc2c3C(=O)OCCOC(=O)c2ccc(-c3c4nc(c(-c5c(F)c(F)c(F)c(F)c5F)c5ccc([nH]5)c(-c5c(F)c(F)c(F)c(F)c5F)c5nc(c(-c6c(F)c(F)c(F)c(F)c6F)c6ccc3[nH]6)C=C5)C=C4)cc2)cc1
REMARK SMILES IDX 26 1 25 2 24 3 22 4 23 5 21 6 6 7 7 8 8 9 13 10 9 11 12 12
REMARK SMILES IDX 14 13 10 14 11 15 15 17 20 18 16 19 19 20 17 21 18 22 5 23
REMARK SMILES IDX 1 24 2 25 3 26 94 27 4 28 93 29 27 30 28 31 29 32 30 33
REMARK SMILES IDX 31 34 92 35 32 36 91 37 33 38 34 39 35 40 85 41 36 42 90 43
REMARK SMILES IDX 84 44 86 45 37 46 89 47 83 48 82 49 38 51 70 52 50 53 69 54
REMARK SMILES IDX 51 55 54 56 68 57 87 58 52 59 53 60 67 62 88 63 55 64 39 65
REMARK SMILES IDX 40 66 48 67 41 68 42 69 46 70 49 71 43 72 44 73 47 74 45 75
REMARK SMILES IDX 71 76 72 77 80 78 73 79 74 80 78 81 81 82 75 83 76 84 79 85
REMARK SMILES IDX 77 86 56 87 57 88 65 89 58 90 59 91 63 92 66 93 60 94 61 95
REMARK SMILES IDX 64 96 62 97
REMARK H PARENT 9 16 86 50 54 61
REMARK Flexibility Score: inf
ROOT
ATOM      1  C   UNL A   1      44.787  35.617  29.937  1.00  0.00     0.275 C 
ENDROOT
BRANCH   1   2
ATOM      2  C   UNL A   1      43.409  35.249  30.498  1.00  0.00     0.275 C 
BRANCH   2   3
ATOM      3  O   UNL A   1      43.215  35.945  31.746  1.00  0.00    -0.458 OA
BRANCH   3   4
ATOM      4  C   UNL A   1      42.547  35.192  32.875  1.00  0.00     0.339 C 
ATOM      5  O   UNL A   1      43.536  35.149  33.670  1.00  0.00    -0.246 OA
BRANCH   4   6
ATOM      6  C   UNL A   1      40.499  34.480  32.969  1.00  0.00     0.080 A 
ATOM      7  C   UNL A   1      35.812  33.915  35.086  1.00  0.00     0.020 C 
ATOM      8  C   UNL A   1      37.141  33.641  35.184  1.00  0.00     0.033 C 
ATOM      9  C   UNL A   1      37.716  33.244  36.499  1.00  0.00     0.301 C 
ATOM     10  C   UNL A   1      38.168  33.713  34.101  1.00  0.00     0.082 A 
ATOM     11  N   UNL A   1      38.788  34.189  36.770  1.00  0.00    -0.330 N 
ATOM     12  C   UNL A   1      39.531  34.117  34.253  1.00  0.00     0.048 A 
ATOM     13  N   UNL A   1      37.648  33.309  32.957  1.00  0.00    -0.247 NA
ATOM     14  C   UNL A   1      39.270  34.039  38.144  1.00  0.00     0.333 C 
ATOM     15  C   UNL A   1      39.877  33.925  35.804  1.00  0.00     0.302 C 
ATOM     16  H   UNL A   1      38.450  35.146  36.667  1.00  0.00     0.348 HD
ATOM     17  C   UNL A   1      38.194  33.596  31.813  1.00  0.00     0.072 A 
ATOM     18  C   UNL A   1      39.458  34.221  31.626  1.00  0.00     0.015 A 
ATOM     19  C   UNL A   1      37.259  33.264  30.824  1.00  0.00     0.029 A 
ATOM     20  C   UNL A   1      39.483  34.482  30.135  1.00  0.00     0.011 A 
ATOM     21  C   UNL A   1      37.398  33.568  29.486  1.00  0.00     0.002 A 
ATOM     22  C   UNL A   1      38.541  34.203  29.129  1.00  0.00     0.001 A 
BRANCH   7  23
ATOM     23  C   UNL A   1      34.996  34.358  33.932  1.00  0.00    -0.025 A 
ATOM     24  C   UNL A   1      33.200  35.535  30.188  1.00  0.00     0.044 C 
ATOM     25  C   UNL A   1      33.683  35.127  31.548  1.00  0.00    -0.051 A 
ATOM     26  C   UNL A   1      34.174  36.088  32.433  1.00  0.00     0.004 A 
ATOM     27  C   UNL A   1      33.755  33.779  31.915  1.00  0.00     0.004 A 
ATOM     28  C   UNL A   1      34.779  35.705  33.635  1.00  0.00     0.008 A 
ATOM     29  C   UNL A   1      34.405  33.399  33.097  1.00  0.00     0.008 A 
ENDBRANCH   7  23
ENDBRANCH   4   6
ENDBRANCH   3   4
ENDBRANCH   2   3
ENDBRANCH   1   2
BRANCH   1  30
ATOM     30  O   UNL A   1      44.776  36.067  28.557  1.00  0.00    -0.458 OA
BRANCH  30  31
ATOM     31  C   UNL A   1      45.952  36.124  27.870  1.00  0.00     0.338 C 
ATOM     32  O   UNL A   1      46.626  37.121  27.699  1.00  0.00    -0.246 OA
BRANCH  31  33
ATOM     33  C   UNL A   1      46.152  34.890  27.087  1.00  0.00     0.060 A 
ATOM     34  C   UNL A   1      44.780  34.459  26.013  1.00  0.00     0.016 A 
ATOM     35  C   UNL A   1      47.065  33.593  27.909  1.00  0.00     0.016 A 
ATOM     36  C   UNL A   1      44.309  32.678  25.762  1.00  0.00     0.010 A 
ATOM     37  C   UNL A   1      46.536  31.833  27.713  1.00  0.00     0.010 A 
ATOM     38  C   UNL A   1      45.179  31.390  26.633  1.00  0.00    -0.014 A 
BRANCH  38  39
ATOM     39  C   UNL A   1      44.550  30.161  27.097  1.00  0.00     0.031 A 
ATOM     40  C   UNL A   1      43.576  30.276  28.198  1.00  0.00     0.074 A 
ATOM     41  C   UNL A   1      44.626  29.080  26.281  1.00  0.00     0.049 A 
ATOM     42  N   UNL A   1      42.926  29.276  28.661  1.00  0.00    -0.248 NA
ATOM     43  C   UNL A   1      43.245  31.517  28.900  1.00  0.00     0.031 C 
ATOM     44  C   UNL A   1      43.748  27.915  26.199  1.00  0.00     0.029 A 
ATOM     45  N   UNL A   1      45.650  28.772  25.377  1.00  0.00    -0.354 N 
ATOM     46  C   UNL A   1      41.982  29.725  29.551  1.00  0.00     0.074 A 
ATOM     47  C   UNL A   1      42.227  31.134  29.682  1.00  0.00     0.031 C 
ATOM     48  C   UNL A   1      44.373  26.929  25.531  1.00  0.00     0.029 A 
ATOM     49  C   UNL A   1      45.724  27.377  25.240  1.00  0.00     0.049 A 
ATOM     50  H   UNL A   1      46.222  29.425  24.913  1.00  0.00     0.167 HD
ATOM     51  C   UNL A   1      41.083  28.807  29.999  1.00  0.00     0.037 A 
ATOM     52  C   UNL A   1      46.856  26.741  25.668  1.00  0.00     0.037 A 
ATOM     53  C   UNL A   1      41.588  27.472  29.675  1.00  0.00     0.049 A 
ATOM     54  C   UNL A   1      46.630  26.066  27.008  1.00  0.00     0.074 A 
ATOM     55  C   UNL A   1      41.338  26.587  28.644  1.00  0.00     0.029 A 
ATOM     56  N   UNL A   1      42.807  27.095  30.236  1.00  0.00    -0.354 N 
ATOM     57  N   UNL A   1      45.614  26.323  27.792  1.00  0.00    -0.248 NA
ATOM     58  C   UNL A   1      47.489  25.016  27.545  1.00  0.00     0.031 C 
ATOM     59  C   UNL A   1      42.487  25.750  28.517  1.00  0.00     0.029 A 
ATOM     60  C   UNL A   1      43.405  26.089  29.503  1.00  0.00     0.049 A 
ATOM     61  H   UNL A   1      43.192  27.493  31.050  1.00  0.00     0.167 HD
ATOM     62  C   UNL A   1      45.656  25.513  28.892  1.00  0.00     0.074 A 
ATOM     63  C   UNL A   1      46.846  24.706  28.684  1.00  0.00     0.031 C 
ATOM     64  C   UNL A   1      44.715  25.562  29.885  1.00  0.00     0.037 A 
BRANCH  51  65
ATOM     65  C   UNL A   1      39.723  29.060  30.601  1.00  0.00     0.064 A 
ATOM     66  C   UNL A   1      38.580  29.019  29.770  1.00  0.00     0.173 A 
ATOM     67  C   UNL A   1      39.474  29.482  31.923  1.00  0.00     0.173 A 
ATOM     68  F   UNL A   1      38.667  28.634  28.489  1.00  0.00    -0.203 F 
ATOM     69  C   UNL A   1      37.310  29.398  30.214  1.00  0.00     0.198 A 
ATOM     70  C   UNL A   1      38.195  29.831  32.375  1.00  0.00     0.198 A 
ATOM     71  F   UNL A   1      40.453  29.622  32.822  1.00  0.00    -0.203 F 
ATOM     72  F   UNL A   1      36.277  29.391  29.360  1.00  0.00    -0.200 F 
ATOM     73  C   UNL A   1      37.116  29.804  31.517  1.00  0.00     0.200 A 
ATOM     74  F   UNL A   1      38.025  30.223  33.647  1.00  0.00    -0.200 F 
ATOM     75  F   UNL A   1      35.902  30.178  31.941  1.00  0.00    -0.200 F 
ENDBRANCH  51  65
BRANCH  52  76
ATOM     76  C   UNL A   1      48.089  27.441  25.192  1.00  0.00     0.064 A 
ATOM     77  C   UNL A   1      48.780  28.219  26.150  1.00  0.00     0.173 A 
ATOM     78  C   UNL A   1      48.804  27.052  24.056  1.00  0.00     0.173 A 
ATOM     79  F   UNL A   1      48.124  28.697  27.220  1.00  0.00    -0.203 F 
ATOM     80  C   UNL A   1      50.162  28.391  26.094  1.00  0.00     0.198 A 
ATOM     81  C   UNL A   1      50.180  27.299  23.966  1.00  0.00     0.198 A 
ATOM     82  F   UNL A   1      48.225  26.304  23.107  1.00  0.00    -0.203 F 
ATOM     83  F   UNL A   1      50.811  28.964  27.118  1.00  0.00    -0.200 F 
ATOM     84  C   UNL A   1      50.867  27.891  25.017  1.00  0.00     0.200 A 
ATOM     85  F   UNL A   1      50.870  26.832  22.915  1.00  0.00    -0.200 F 
ATOM     86  F   UNL A   1      52.209  27.920  25.017  1.00  0.00    -0.200 F 
ENDBRANCH  52  76
BRANCH  64  87
ATOM     87  C   UNL A   1      44.918  25.003  31.279  1.00  0.00     0.064 A 
ATOM     88  C   UNL A   1      45.687  25.641  32.268  1.00  0.00     0.173 A 
ATOM     89  C   UNL A   1      44.232  23.843  31.716  1.00  0.00     0.173 A 
ATOM     90  F   UNL A   1      46.223  26.853  32.071  1.00  0.00    -0.203 F 
ATOM     91  C   UNL A   1      45.885  25.082  33.531  1.00  0.00     0.198 A 
ATOM     92  C   UNL A   1      44.350  23.344  33.011  1.00  0.00     0.198 A 
ATOM     93  F   UNL A   1      43.399  23.163  30.916  1.00  0.00    -0.203 F 
ATOM     94  F   UNL A   1      46.720  25.679  34.393  1.00  0.00    -0.200 F 
ATOM     95  C   UNL A   1      45.214  23.936  33.905  1.00  0.00     0.200 A 
ATOM     96  F   UNL A   1      43.609  22.292  33.387  1.00  0.00    -0.200 F 
ATOM     97  F   UNL A   1      45.378  23.420  35.129  1.00  0.00    -0.200 F 
ENDBRANCH  64  87
ENDBRANCH  38  39
ENDBRANCH  31  33
ENDBRANCH  30  31
ENDBRANCH   1  30
TORSDOF 12
ENDMDL
