MODEL 1
REMARK VINA RESULT:     -11.1      0.000      0.000
REMARK SMILES [NH3+]CC1([C@H](O)C(=O)OCCOC(=O)c2ccc(-c3c4nc(c(-c5c(F)c(F)c(F)c(F)c5F)c5ccc([nH]5)c(-c5c(F)c(F)c(F)c(F)c5F)c5nc(c(-c6c(F)c(F)c(F)c(F)c6F)c6ccc3[nH]6)C=C5)C=C4)cc2)Cc2ccccc2C1
REMARK SMILES IDX 9 1 8 2 6 3 7 4 4 5 3 6 77 7 84 8 78 9 83 10 79 11 82 12
REMARK SMILES IDX 80 13 81 14 2 15 1 16 5 20 10 22 11 23 12 24 13 25 14 26
REMARK SMILES IDX 15 27 76 28 16 29 75 30 17 31 18 32 19 33 69 34 20 35 74 36
REMARK SMILES IDX 68 37 70 38 21 39 73 40 67 41 66 42 22 44 54 45 34 46 53 47
REMARK SMILES IDX 35 48 38 49 52 50 71 51 36 52 37 53 51 55 72 56 39 57 23 58
REMARK SMILES IDX 24 59 32 60 25 61 26 62 30 63 33 64 27 65 28 66 31 67 29 68
REMARK SMILES IDX 55 69 56 70 64 71 57 72 58 73 62 74 65 75 59 76 60 77 63 78
REMARK SMILES IDX 61 79 40 80 41 81 49 82 42 83 43 84 47 85 50 86 44 87 45 88
REMARK SMILES IDX 48 89 46 90
REMARK H PARENT 1 17 1 18 1 19 5 21 70 43 38 54
REMARK Flexibility Score: inf
ROOT
ATOM      1  C   UNL A   1      31.167  29.578  24.612  1.00  0.00     0.274 C 
ENDROOT
BRANCH   1   2
ATOM      2  O   UNL A   1      31.486  28.236  25.017  1.00  0.00    -0.460 OA
BRANCH   2   3
ATOM      3  C   UNL A   1      32.206  27.486  24.138  1.00  0.00     0.335 C 
ATOM      4  O   UNL A   1      32.103  27.545  22.919  1.00  0.00    -0.249 OA
BRANCH   3   5
ATOM      5  C   UNL A   1      33.285  26.658  24.866  1.00  0.00     0.236 C 
BRANCH   5   6
ATOM      6  C   UNL A   1      32.890  25.172  25.111  1.00  0.00     0.064 C 
ATOM      7  C   UNL A   1      33.814  24.519  26.182  1.00  0.00     0.052 C 
ATOM      8  C   UNL A   1      33.147  24.338  23.809  1.00  0.00     0.052 C 
ATOM      9  C   UNL A   1      34.906  23.913  25.361  1.00  0.00    -0.044 A 
ATOM     10  C   UNL A   1      34.528  23.803  24.021  1.00  0.00    -0.044 A 
ATOM     11  C   UNL A   1      36.155  23.497  25.788  1.00  0.00     0.004 A 
ATOM     12  C   UNL A   1      35.388  23.266  23.079  1.00  0.00     0.004 A 
ATOM     13  C   UNL A   1      37.036  22.971  24.842  1.00  0.00     0.000 A 
ATOM     14  C   UNL A   1      36.655  22.854  23.497  1.00  0.00     0.000 A 
BRANCH   6  15
ATOM     15  C   UNL A   1      31.409  25.017  25.553  1.00  0.00     0.269 C 
BRANCH  15  16
ATOM     16  N   UNL A   1      31.050  25.660  26.814  1.00  0.00    -0.357 N 
ATOM     17  H   UNL A   1      30.948  26.664  26.667  1.00  0.00     0.344 HD
ATOM     18  H   UNL A   1      31.783  25.491  27.504  1.00  0.00     0.344 HD
ATOM     19  H   UNL A   1      30.168  25.275  27.153  1.00  0.00     0.344 HD
ENDBRANCH  15  16
ENDBRANCH   6  15
ENDBRANCH   5   6
BRANCH   5  20
ATOM     20  O   UNL A   1      33.763  27.306  26.044  1.00  0.00    -0.381 OA
ATOM     21  H   UNL A   1      33.055  27.851  26.422  1.00  0.00     0.211 HD
ENDBRANCH   5  20
ENDBRANCH   3   5
ENDBRANCH   2   3
ENDBRANCH   1   2
BRANCH   1  22
ATOM     22  C   UNL A   1      31.449  30.574  25.742  1.00  0.00     0.275 C 
BRANCH  22  23
ATOM     23  O   UNL A   1      32.792  30.458  26.260  1.00  0.00    -0.458 OA
BRANCH  23  24
ATOM     24  C   UNL A   1      33.222  31.498  27.010  1.00  0.00     0.338 C 
ATOM     25  O   UNL A   1      32.606  32.528  27.259  1.00  0.00    -0.246 OA
BRANCH  24  26
ATOM     26  C   UNL A   1      34.510  31.174  27.650  1.00  0.00     0.060 A 
ATOM     27  C   UNL A   1      34.723  29.848  28.043  1.00  0.00     0.016 A 
ATOM     28  C   UNL A   1      35.471  32.148  27.930  1.00  0.00     0.016 A 
ATOM     29  C   UNL A   1      35.877  29.487  28.725  1.00  0.00     0.010 A 
ATOM     30  C   UNL A   1      36.631  31.787  28.625  1.00  0.00     0.010 A 
ATOM     31  C   UNL A   1      36.832  30.458  29.038  1.00  0.00    -0.014 A 
BRANCH  31  32
ATOM     32  C   UNL A   1      37.985  30.078  29.882  1.00  0.00     0.031 A 
ATOM     33  C   UNL A   1      39.041  29.173  29.321  1.00  0.00     0.074 A 
ATOM     34  C   UNL A   1      38.123  30.601  31.113  1.00  0.00     0.049 A 
ATOM     35  N   UNL A   1      40.096  28.666  29.905  1.00  0.00    -0.248 NA
ATOM     36  C   UNL A   1      38.893  28.795  27.907  1.00  0.00     0.031 C 
ATOM     37  C   UNL A   1      37.209  31.565  31.726  1.00  0.00     0.029 A 
ATOM     38  N   UNL A   1      39.092  30.404  32.063  1.00  0.00    -0.354 N 
ATOM     39  C   UNL A   1      40.725  27.893  28.940  1.00  0.00     0.074 A 
ATOM     40  C   UNL A   1      39.931  27.990  27.734  1.00  0.00     0.031 C 
ATOM     41  C   UNL A   1      37.663  31.877  32.950  1.00  0.00     0.029 A 
ATOM     42  C   UNL A   1      38.868  31.098  33.225  1.00  0.00     0.049 A 
ATOM     43  H   UNL A   1      39.872  29.819  31.924  1.00  0.00     0.167 HD
ATOM     44  C   UNL A   1      41.864  27.170  29.051  1.00  0.00     0.037 A 
ATOM     45  C   UNL A   1      39.546  31.081  34.388  1.00  0.00     0.037 A 
ATOM     46  C   UNL A   1      42.655  27.087  30.252  1.00  0.00     0.049 A 
ATOM     47  C   UNL A   1      40.758  30.199  34.517  1.00  0.00     0.074 A 
ATOM     48  C   UNL A   1      43.813  26.365  30.477  1.00  0.00     0.029 A 
ATOM     49  N   UNL A   1      42.364  27.756  31.432  1.00  0.00    -0.354 N 
ATOM     50  N   UNL A   1      41.324  29.434  33.615  1.00  0.00    -0.248 NA
ATOM     51  C   UNL A   1      41.417  30.169  35.830  1.00  0.00     0.031 C 
ATOM     52  C   UNL A   1      44.203  26.568  31.806  1.00  0.00     0.029 A 
ATOM     53  C   UNL A   1      43.311  27.451  32.396  1.00  0.00     0.049 A 
ATOM     54  H   UNL A   1      41.597  28.361  31.565  1.00  0.00     0.167 HD
ATOM     55  C   UNL A   1      42.416  28.849  34.242  1.00  0.00     0.074 A 
ATOM     56  C   UNL A   1      42.438  29.356  35.599  1.00  0.00     0.031 C 
ATOM     57  C   UNL A   1      43.319  27.973  33.738  1.00  0.00     0.037 A 
BRANCH  44  58
ATOM     58  C   UNL A   1      42.290  26.373  27.856  1.00  0.00     0.064 A 
ATOM     59  C   UNL A   1      41.805  25.078  27.618  1.00  0.00     0.173 A 
ATOM     60  C   UNL A   1      43.197  26.915  26.934  1.00  0.00     0.173 A 
ATOM     61  F   UNL A   1      40.951  24.508  28.482  1.00  0.00    -0.203 F 
ATOM     62  C   UNL A   1      42.234  24.345  26.514  1.00  0.00     0.198 A 
ATOM     63  C   UNL A   1      43.605  26.189  25.818  1.00  0.00     0.198 A 
ATOM     64  F   UNL A   1      43.691  28.149  27.115  1.00  0.00    -0.203 F 
ATOM     65  F   UNL A   1      41.797  23.091  26.334  1.00  0.00    -0.200 F 
ATOM     66  C   UNL A   1      43.130  24.902  25.613  1.00  0.00     0.200 A 
ATOM     67  F   UNL A   1      44.466  26.730  24.945  1.00  0.00    -0.200 F 
ATOM     68  F   UNL A   1      43.545  24.194  24.554  1.00  0.00    -0.200 F 
ENDBRANCH  44  58
BRANCH  45  69
ATOM     69  C   UNL A   1      39.073  31.905  35.529  1.00  0.00     0.064 A 
ATOM     70  C   UNL A   1      38.251  31.358  36.523  1.00  0.00     0.173 A 
ATOM     71  C   UNL A   1      39.433  33.256  35.649  1.00  0.00     0.173 A 
ATOM     72  F   UNL A   1      37.857  30.079  36.436  1.00  0.00    -0.203 F 
ATOM     73  C   UNL A   1      37.801  32.132  37.591  1.00  0.00     0.198 A 
ATOM     74  C   UNL A   1      39.004  34.022  36.730  1.00  0.00     0.198 A 
ATOM     75  F   UNL A   1      40.214  33.827  34.720  1.00  0.00    -0.203 F 
ATOM     76  F   UNL A   1      36.986  31.596  38.509  1.00  0.00    -0.200 F 
ATOM     77  C   UNL A   1      38.185  33.462  37.698  1.00  0.00     0.200 A 
ATOM     78  F   UNL A   1      39.385  35.303  36.833  1.00  0.00    -0.200 F 
ATOM     79  F   UNL A   1      37.756  34.204  38.727  1.00  0.00    -0.200 F 
ENDBRANCH  45  69
BRANCH  57  80
ATOM     80  C   UNL A   1      44.427  27.532  34.648  1.00  0.00     0.064 A 
ATOM     81  C   UNL A   1      44.274  26.444  35.517  1.00  0.00     0.173 A 
ATOM     82  C   UNL A   1      45.670  28.182  34.615  1.00  0.00     0.173 A 
ATOM     83  F   UNL A   1      43.099  25.802  35.594  1.00  0.00    -0.203 F 
ATOM     84  C   UNL A   1      45.321  26.031  36.336  1.00  0.00     0.198 A 
ATOM     85  C   UNL A   1      46.723  27.752  35.418  1.00  0.00     0.198 A 
ATOM     86  F   UNL A   1      45.866  29.226  33.796  1.00  0.00    -0.203 F 
ATOM     87  F   UNL A   1      45.143  25.012  37.187  1.00  0.00    -0.200 F 
ATOM     88  C   UNL A   1      46.546  26.680  36.281  1.00  0.00     0.200 A 
ATOM     89  F   UNL A   1      47.908  28.373  35.355  1.00  0.00    -0.200 F 
ATOM     90  F   UNL A   1      47.555  26.277  37.065  1.00  0.00    -0.200 F 
ENDBRANCH  57  80
ENDBRANCH  31  32
ENDBRANCH  24  26
ENDBRANCH  23  24
ENDBRANCH  22  23
ENDBRANCH   1  22
TORSDOF 15
ENDMDL
MODEL 2
REMARK VINA RESULT:     -11.1      0.942      1.818
REMARK SMILES [NH3+]CC1([C@H](O)C(=O)OCCOC(=O)c2ccc(-c3c4nc(c(-c5c(F)c(F)c(F)c(F)c5F)c5ccc([nH]5)c(-c5c(F)c(F)c(F)c(F)c5F)c5nc(c(-c6c(F)c(F)c(F)c(F)c6F)c6ccc3[nH]6)C=C5)C=C4)cc2)Cc2ccccc2C1
REMARK SMILES IDX 9 1 8 2 6 3 7 4 4 5 3 6 77 7 84 8 78 9 83 10 79 11 82 12
REMARK SMILES IDX 80 13 81 14 2 15 1 16 5 20 10 22 11 23 12 24 13 25 14 26
REMARK SMILES IDX 15 27 76 28 16 29 75 30 17 31 18 32 19 33 69 34 20 35 74 36
REMARK SMILES IDX 68 37 70 38 21 39 73 40 67 41 66 42 22 44 54 45 34 46 53 47
REMARK SMILES IDX 35 48 38 49 52 50 71 51 36 52 37 53 51 55 72 56 39 57 23 58
REMARK SMILES IDX 24 59 32 60 25 61 26 62 30 63 33 64 27 65 28 66 31 67 29 68
REMARK SMILES IDX 55 69 56 70 64 71 57 72 58 73 62 74 65 75 59 76 60 77 63 78
REMARK SMILES IDX 61 79 40 80 41 81 49 82 42 83 43 84 47 85 50 86 44 87 45 88
REMARK SMILES IDX 48 89 46 90
REMARK H PARENT 1 17 1 18 1 19 5 21 70 43 38 54
REMARK Flexibility Score: inf
ROOT
ATOM      1  C   UNL A   1      31.779  28.718  26.933  1.00  0.00     0.274 C 
ENDROOT
BRANCH   1   2
ATOM      2  O   UNL A   1      31.170  28.150  25.762  1.00  0.00    -0.460 OA
BRANCH   2   3
ATOM      3  C   UNL A   1      31.284  26.802  25.605  1.00  0.00     0.335 C 
ATOM      4  O   UNL A   1      31.113  25.977  26.495  1.00  0.00    -0.249 OA
BRANCH   3   5
ATOM      5  C   UNL A   1      31.504  26.430  24.125  1.00  0.00     0.236 C 
BRANCH   5   6
ATOM      6  C   UNL A   1      32.937  26.734  23.598  1.00  0.00     0.064 C 
ATOM      7  C   UNL A   1      33.379  25.677  22.542  1.00  0.00     0.052 C 
ATOM      8  C   UNL A   1      33.970  26.579  24.766  1.00  0.00     0.052 C 
ATOM      9  C   UNL A   1      34.086  24.652  23.368  1.00  0.00    -0.044 A 
ATOM     10  C   UNL A   1      34.428  25.162  24.622  1.00  0.00    -0.044 A 
ATOM     11  C   UNL A   1      34.395  23.348  23.017  1.00  0.00     0.004 A 
ATOM     12  C   UNL A   1      35.095  24.383  25.552  1.00  0.00     0.004 A 
ATOM     13  C   UNL A   1      35.049  22.549  23.956  1.00  0.00     0.000 A 
ATOM     14  C   UNL A   1      35.399  23.063  25.214  1.00  0.00     0.000 A 
BRANCH   6  15
ATOM     15  C   UNL A   1      33.052  28.153  22.977  1.00  0.00     0.269 C 
BRANCH  15  16
ATOM     16  N   UNL A   1      33.545  29.200  23.867  1.00  0.00    -0.357 N 
ATOM     17  H   UNL A   1      33.764  30.034  23.323  1.00  0.00     0.344 HD
ATOM     18  H   UNL A   1      34.387  28.875  24.343  1.00  0.00     0.344 HD
ATOM     19  H   UNL A   1      32.829  29.424  24.559  1.00  0.00     0.344 HD
ENDBRANCH  15  16
ENDBRANCH   6  15
ENDBRANCH   5   6
BRANCH   5  20
ATOM     20  O   UNL A   1      30.480  26.949  23.277  1.00  0.00    -0.381 OA
ATOM     21  H   UNL A   1      29.632  26.538  23.506  1.00  0.00     0.211 HD
ENDBRANCH   5  20
ENDBRANCH   3   5
ENDBRANCH   2   3
ENDBRANCH   1   2
BRANCH   1  22
ATOM     22  C   UNL A   1      31.760  30.251  26.873  1.00  0.00     0.275 C 
BRANCH  22  23
ATOM     23  O   UNL A   1      33.032  30.804  26.473  1.00  0.00    -0.458 OA
BRANCH  23  24
ATOM     24  C   UNL A   1      33.502  31.809  27.246  1.00  0.00     0.338 C 
ATOM     25  O   UNL A   1      32.922  32.852  27.528  1.00  0.00    -0.246 OA
BRANCH  24  26
ATOM     26  C   UNL A   1      34.784  31.426  27.866  1.00  0.00     0.060 A 
ATOM     27  C   UNL A   1      34.918  30.109  28.317  1.00  0.00     0.016 A 
ATOM     28  C   UNL A   1      35.817  32.343  28.072  1.00  0.00     0.016 A 
ATOM     29  C   UNL A   1      36.064  29.700  28.985  1.00  0.00     0.010 A 
ATOM     30  C   UNL A   1      36.971  31.935  28.752  1.00  0.00     0.010 A 
ATOM     31  C   UNL A   1      37.092  30.615  29.224  1.00  0.00    -0.014 A 
BRANCH  31  32
ATOM     32  C   UNL A   1      38.242  30.196  30.054  1.00  0.00     0.031 A 
ATOM     33  C   UNL A   1      39.274  29.277  29.471  1.00  0.00     0.074 A 
ATOM     34  C   UNL A   1      38.400  30.696  31.292  1.00  0.00     0.049 A 
ATOM     35  N   UNL A   1      40.321  28.736  30.040  1.00  0.00    -0.248 NA
ATOM     36  C   UNL A   1      39.107  28.925  28.052  1.00  0.00     0.031 C 
ATOM     37  C   UNL A   1      37.513  31.670  31.926  1.00  0.00     0.029 A 
ATOM     38  N   UNL A   1      39.370  30.461  32.232  1.00  0.00    -0.354 N 
ATOM     39  C   UNL A   1      40.926  27.965  29.058  1.00  0.00     0.074 A 
ATOM     40  C   UNL A   1      40.125  28.099  27.859  1.00  0.00     0.031 C 
ATOM     41  C   UNL A   1      37.982  31.952  33.152  1.00  0.00     0.029 A 
ATOM     42  C   UNL A   1      39.170  31.142  33.406  1.00  0.00     0.049 A 
ATOM     43  H   UNL A   1      40.136  29.861  32.079  1.00  0.00     0.167 HD
ATOM     44  C   UNL A   1      42.048  27.213  29.150  1.00  0.00     0.037 A 
ATOM     45  C   UNL A   1      39.855  31.090  34.565  1.00  0.00     0.037 A 
ATOM     46  C   UNL A   1      42.845  27.094  30.344  1.00  0.00     0.049 A 
ATOM     47  C   UNL A   1      41.047  30.179  34.671  1.00  0.00     0.074 A 
ATOM     48  C   UNL A   1      43.988  26.341  30.550  1.00  0.00     0.029 A 
ATOM     49  N   UNL A   1      42.576  27.750  31.537  1.00  0.00    -0.354 N 
ATOM     50  N   UNL A   1      41.590  29.416  33.753  1.00  0.00    -0.248 NA
ATOM     51  C   UNL A   1      41.714  30.113  35.979  1.00  0.00     0.031 C 
ATOM     52  C   UNL A   1      44.390  26.515  31.879  1.00  0.00     0.029 A 
ATOM     53  C   UNL A   1      43.522  27.408  32.489  1.00  0.00     0.049 A 
ATOM     54  H   UNL A   1      41.825  28.370  31.684  1.00  0.00     0.167 HD
ATOM     55  C   UNL A   1      42.672  28.796  34.363  1.00  0.00     0.074 A 
ATOM     56  C   UNL A   1      42.715  29.280  35.728  1.00  0.00     0.031 C 
ATOM     57  C   UNL A   1      43.552  27.908  33.840  1.00  0.00     0.037 A 
BRANCH  44  58
ATOM     58  C   UNL A   1      42.448  26.427  27.940  1.00  0.00     0.064 A 
ATOM     59  C   UNL A   1      41.967  25.129  27.708  1.00  0.00     0.173 A 
ATOM     60  C   UNL A   1      43.325  26.981  26.996  1.00  0.00     0.173 A 
ATOM     61  F   UNL A   1      41.142  24.548  28.592  1.00  0.00    -0.203 F 
ATOM     62  C   UNL A   1      42.372  24.406  26.589  1.00  0.00     0.198 A 
ATOM     63  C   UNL A   1      43.709  26.264  25.865  1.00  0.00     0.198 A 
ATOM     64  F   UNL A   1      43.814  28.218  27.170  1.00  0.00    -0.203 F 
ATOM     65  F   UNL A   1      41.940  23.149  26.413  1.00  0.00    -0.200 F 
ATOM     66  C   UNL A   1      43.239  24.974  25.667  1.00  0.00     0.200 A 
ATOM     67  F   UNL A   1      44.541  26.817  24.972  1.00  0.00    -0.200 F 
ATOM     68  F   UNL A   1      43.630  24.275  24.593  1.00  0.00    -0.200 F 
ENDBRANCH  44  58
BRANCH  45  69
ATOM     69  C   UNL A   1      39.408  31.906  35.722  1.00  0.00     0.064 A 
ATOM     70  C   UNL A   1      39.954  33.174  35.965  1.00  0.00     0.173 A 
ATOM     71  C   UNL A   1      38.428  31.435  36.608  1.00  0.00     0.173 A 
ATOM     72  F   UNL A   1      40.914  33.654  35.162  1.00  0.00    -0.203 F 
ATOM     73  C   UNL A   1      39.540  33.937  37.055  1.00  0.00     0.198 A 
ATOM     74  C   UNL A   1      37.996  32.210  37.682  1.00  0.00     0.198 A 
ATOM     75  F   UNL A   1      37.880  30.226  36.422  1.00  0.00    -0.203 F 
ATOM     76  F   UNL A   1      40.102  35.131  37.286  1.00  0.00    -0.200 F 
ATOM     77  C   UNL A   1      38.556  33.458  37.908  1.00  0.00     0.200 A 
ATOM     78  F   UNL A   1      37.040  31.746  38.498  1.00  0.00    -0.200 F 
ATOM     79  F   UNL A   1      38.155  34.195  38.952  1.00  0.00    -0.200 F 
ENDBRANCH  45  69
BRANCH  57  80
ATOM     80  C   UNL A   1      44.654  27.427  34.734  1.00  0.00     0.064 A 
ATOM     81  C   UNL A   1      44.523  26.261  35.501  1.00  0.00     0.173 A 
ATOM     82  C   UNL A   1      45.873  28.120  34.790  1.00  0.00     0.173 A 
ATOM     83  F   UNL A   1      43.371  25.574  35.492  1.00  0.00    -0.203 F 
ATOM     84  C   UNL A   1      45.567  25.815  36.306  1.00  0.00     0.198 A 
ATOM     85  C   UNL A   1      46.924  27.658  35.577  1.00  0.00     0.198 A 
ATOM     86  F   UNL A   1      46.049  29.239  34.071  1.00  0.00    -0.203 F 
ATOM     87  F   UNL A   1      45.409  24.719  37.060  1.00  0.00    -0.200 F 
ATOM     88  C   UNL A   1      46.768  26.509  36.338  1.00  0.00     0.200 A 
ATOM     89  F   UNL A   1      48.087  28.324  35.600  1.00  0.00    -0.200 F 
ATOM     90  F   UNL A   1      47.774  26.074  37.109  1.00  0.00    -0.200 F 
ENDBRANCH  57  80
ENDBRANCH  31  32
ENDBRANCH  24  26
ENDBRANCH  23  24
ENDBRANCH  22  23
ENDBRANCH   1  22
TORSDOF 15
ENDMDL
MODEL 3
REMARK VINA RESULT:     -11.1      4.615      9.867
REMARK SMILES [NH3+]CC1([C@H](O)C(=O)OCCOC(=O)c2ccc(-c3c4nc(c(-c5c(F)c(F)c(F)c(F)c5F)c5ccc([nH]5)c(-c5c(F)c(F)c(F)c(F)c5F)c5nc(c(-c6c(F)c(F)c(F)c(F)c6F)c6ccc3[nH]6)C=C5)C=C4)cc2)Cc2ccccc2C1
REMARK SMILES IDX 9 1 8 2 6 3 7 4 4 5 3 6 77 7 84 8 78 9 83 10 79 11 82 12
REMARK SMILES IDX 80 13 81 14 2 15 1 16 5 20 10 22 11 23 12 24 13 25 14 26
REMARK SMILES IDX 15 27 76 28 16 29 75 30 17 31 18 32 19 33 69 34 20 35 74 36
REMARK SMILES IDX 68 37 70 38 21 39 73 40 67 41 66 42 22 44 54 45 34 46 53 47
REMARK SMILES IDX 35 48 38 49 52 50 71 51 36 52 37 53 51 55 72 56 39 57 23 58
REMARK SMILES IDX 24 59 32 60 25 61 26 62 30 63 33 64 27 65 28 66 31 67 29 68
REMARK SMILES IDX 55 69 56 70 64 71 57 72 58 73 62 74 65 75 59 76 60 77 63 78
REMARK SMILES IDX 61 79 40 80 41 81 49 82 42 83 43 84 47 85 50 86 44 87 45 88
REMARK SMILES IDX 48 89 46 90
REMARK H PARENT 1 17 1 18 1 19 5 21 70 43 38 54
REMARK Flexibility Score: inf
ROOT
ATOM      1  C   UNL A   1      36.569  22.213  23.868  1.00  0.00     0.274 C 
ENDROOT
BRANCH   1   2
ATOM      2  O   UNL A   1      35.163  21.933  23.978  1.00  0.00    -0.460 OA
BRANCH   2   3
ATOM      3  C   UNL A   1      34.310  22.942  23.647  1.00  0.00     0.335 C 
ATOM      4  O   UNL A   1      34.508  23.762  22.759  1.00  0.00    -0.249 OA
BRANCH   3   5
ATOM      5  C   UNL A   1      32.985  22.830  24.429  1.00  0.00     0.236 C 
BRANCH   5   6
ATOM      6  C   UNL A   1      33.092  23.248  25.925  1.00  0.00     0.064 C 
ATOM      7  C   UNL A   1      31.755  23.876  26.425  1.00  0.00     0.052 C 
ATOM      8  C   UNL A   1      34.147  24.397  26.075  1.00  0.00     0.052 C 
ATOM      9  C   UNL A   1      31.958  25.337  26.180  1.00  0.00    -0.044 A 
ATOM     10  C   UNL A   1      33.309  25.634  25.991  1.00  0.00    -0.044 A 
ATOM     11  C   UNL A   1      30.993  26.328  26.126  1.00  0.00     0.004 A 
ATOM     12  C   UNL A   1      33.728  26.932  25.751  1.00  0.00     0.004 A 
ATOM     13  C   UNL A   1      31.403  27.636  25.865  1.00  0.00     0.000 A 
ATOM     14  C   UNL A   1      32.761  27.937  25.682  1.00  0.00     0.000 A 
BRANCH   6  15
ATOM     15  C   UNL A   1      33.471  22.059  26.847  1.00  0.00     0.269 C 
BRANCH  15  16
ATOM     16  N   UNL A   1      34.897  21.886  27.111  1.00  0.00    -0.357 N 
ATOM     17  H   UNL A   1      35.051  21.818  28.117  1.00  0.00     0.344 HD
ATOM     18  H   UNL A   1      35.412  22.686  26.742  1.00  0.00     0.344 HD
ATOM     19  H   UNL A   1      35.226  21.032  26.658  1.00  0.00     0.344 HD
ENDBRANCH  15  16
ENDBRANCH   6  15
ENDBRANCH   5   6
BRANCH   5  20
ATOM     20  O   UNL A   1      32.355  21.562  24.251  1.00  0.00    -0.381 OA
ATOM     21  H   UNL A   1      33.031  20.887  24.083  1.00  0.00     0.211 HD
ENDBRANCH   5  20
ENDBRANCH   3   5
ENDBRANCH   2   3
ENDBRANCH   1   2
BRANCH   1  22
ATOM     22  C   UNL A   1      37.397  21.168  24.625  1.00  0.00     0.275 C 
BRANCH  22  23
ATOM     23  O   UNL A   1      37.812  21.629  25.928  1.00  0.00    -0.458 OA
BRANCH  23  24
ATOM     24  C   UNL A   1      39.111  21.415  26.238  1.00  0.00     0.338 C 
ATOM     25  O   UNL A   1      39.754  20.390  26.041  1.00  0.00    -0.246 OA
BRANCH  24  26
ATOM     26  C   UNL A   1      39.737  22.659  26.722  1.00  0.00     0.060 A 
ATOM     27  C   UNL A   1      39.307  23.864  26.156  1.00  0.00     0.016 A 
ATOM     28  C   UNL A   1      40.775  22.659  27.656  1.00  0.00     0.016 A 
ATOM     29  C   UNL A   1      39.909  25.066  26.501  1.00  0.00     0.010 A 
ATOM     30  C   UNL A   1      41.389  23.869  28.000  1.00  0.00     0.010 A 
ATOM     31  C   UNL A   1      40.968  25.076  27.412  1.00  0.00    -0.014 A 
BRANCH  31  32
ATOM     32  C   UNL A   1      41.683  26.345  27.662  1.00  0.00     0.031 A 
ATOM     33  C   UNL A   1      41.011  27.424  28.458  1.00  0.00     0.074 A 
ATOM     34  C   UNL A   1      42.952  26.500  27.245  1.00  0.00     0.049 A 
ATOM     35  N   UNL A   1      41.428  28.632  28.739  1.00  0.00    -0.248 NA
ATOM     36  C   UNL A   1      39.693  27.094  29.022  1.00  0.00     0.031 C 
ATOM     37  C   UNL A   1      43.738  25.484  26.546  1.00  0.00     0.029 A 
ATOM     38  N   UNL A   1      43.805  27.568  27.359  1.00  0.00    -0.354 N 
ATOM     39  C   UNL A   1      40.418  29.213  29.491  1.00  0.00     0.074 A 
ATOM     40  C   UNL A   1      39.363  28.231  29.618  1.00  0.00     0.031 C 
ATOM     41  C   UNL A   1      44.961  25.977  26.295  1.00  0.00     0.029 A 
ATOM     42  C   UNL A   1      45.026  27.357  26.770  1.00  0.00     0.049 A 
ATOM     43  H   UNL A   1      43.563  28.404  27.819  1.00  0.00     0.167 HD
ATOM     44  C   UNL A   1      40.377  30.456  30.028  1.00  0.00     0.037 A 
ATOM     45  C   UNL A   1      46.065  28.198  26.607  1.00  0.00     0.037 A 
ATOM     46  C   UNL A   1      41.436  31.424  29.907  1.00  0.00     0.049 A 
ATOM     47  C   UNL A   1      45.960  29.603  27.134  1.00  0.00     0.074 A 
ATOM     48  C   UNL A   1      41.485  32.718  30.394  1.00  0.00     0.029 A 
ATOM     49  N   UNL A   1      42.636  31.198  29.248  1.00  0.00    -0.354 N 
ATOM     50  N   UNL A   1      44.985  30.164  27.807  1.00  0.00    -0.248 NA
ATOM     51  C   UNL A   1      47.097  30.495  26.869  1.00  0.00     0.031 C 
ATOM     52  C   UNL A   1      42.701  33.287  29.998  1.00  0.00     0.029 A 
ATOM     53  C   UNL A   1      43.427  32.333  29.301  1.00  0.00     0.049 A 
ATOM     54  H   UNL A   1      42.889  30.353  28.809  1.00  0.00     0.167 HD
ATOM     55  C   UNL A   1      45.396  31.464  28.064  1.00  0.00     0.074 A 
ATOM     56  C   UNL A   1      46.716  31.607  27.482  1.00  0.00     0.031 C 
ATOM     57  C   UNL A   1      44.741  32.451  28.723  1.00  0.00     0.037 A 
BRANCH  44  58
ATOM     58  C   UNL A   1      39.126  30.849  30.752  1.00  0.00     0.064 A 
ATOM     59  C   UNL A   1      38.035  31.426  30.085  1.00  0.00     0.173 A 
ATOM     60  C   UNL A   1      39.015  30.642  32.135  1.00  0.00     0.173 A 
ATOM     61  F   UNL A   1      38.099  31.664  28.766  1.00  0.00    -0.203 F 
ATOM     62  C   UNL A   1      36.891  31.808  30.782  1.00  0.00     0.198 A 
ATOM     63  C   UNL A   1      37.861  31.002  32.825  1.00  0.00     0.198 A 
ATOM     64  F   UNL A   1      40.030  30.092  32.820  1.00  0.00    -0.203 F 
ATOM     65  F   UNL A   1      35.881  32.405  30.133  1.00  0.00    -0.200 F 
ATOM     66  C   UNL A   1      36.803  31.592  32.149  1.00  0.00     0.200 A 
ATOM     67  F   UNL A   1      37.775  30.787  34.144  1.00  0.00    -0.200 F 
ATOM     68  F   UNL A   1      35.703  31.963  32.818  1.00  0.00    -0.200 F 
ENDBRANCH  44  58
BRANCH  45  69
ATOM     69  C   UNL A   1      47.280  27.738  25.889  1.00  0.00     0.064 A 
ATOM     70  C   UNL A   1      48.399  27.269  26.589  1.00  0.00     0.173 A 
ATOM     71  C   UNL A   1      47.347  27.758  24.487  1.00  0.00     0.173 A 
ATOM     72  F   UNL A   1      48.393  27.257  27.930  1.00  0.00    -0.203 F 
ATOM     73  C   UNL A   1      49.542  26.843  25.915  1.00  0.00     0.198 A 
ATOM     74  C   UNL A   1      48.480  27.308  23.814  1.00  0.00     0.198 A 
ATOM     75  F   UNL A   1      46.304  28.204  23.772  1.00  0.00    -0.203 F 
ATOM     76  F   UNL A   1      50.613  26.433  26.609  1.00  0.00    -0.200 F 
ATOM     77  C   UNL A   1      49.579  26.855  24.528  1.00  0.00     0.200 A 
ATOM     78  F   UNL A   1      48.507  27.314  22.474  1.00  0.00    -0.200 F 
ATOM     79  F   UNL A   1      50.676  26.441  23.881  1.00  0.00    -0.200 F 
ENDBRANCH  45  69
BRANCH  57  80
ATOM     80  C   UNL A   1      45.454  33.761  28.880  1.00  0.00     0.064 A 
ATOM     81  C   UNL A   1      46.291  34.015  29.974  1.00  0.00     0.173 A 
ATOM     82  C   UNL A   1      45.330  34.756  27.898  1.00  0.00     0.173 A 
ATOM     83  F   UNL A   1      46.429  33.100  30.945  1.00  0.00    -0.203 F 
ATOM     84  C   UNL A   1      46.967  35.227  30.091  1.00  0.00     0.198 A 
ATOM     85  C   UNL A   1      46.024  35.957  28.006  1.00  0.00     0.198 A 
ATOM     86  F   UNL A   1      44.544  34.558  26.830  1.00  0.00    -0.203 F 
ATOM     87  F   UNL A   1      47.733  35.465  31.164  1.00  0.00    -0.200 F 
ATOM     88  C   UNL A   1      46.838  36.193  29.104  1.00  0.00     0.200 A 
ATOM     89  F   UNL A   1      45.908  36.886  27.047  1.00  0.00    -0.200 F 
ATOM     90  F   UNL A   1      47.494  37.357  29.215  1.00  0.00    -0.200 F 
ENDBRANCH  57  80
ENDBRANCH  31  32
ENDBRANCH  24  26
ENDBRANCH  23  24
ENDBRANCH  22  23
ENDBRANCH   1  22
TORSDOF 15
ENDMDL
