MODEL 1
REMARK VINA RESULT:     -15.2      0.000      0.000
REMARK SMILES O=C(OCCOC(=O)[C@H]1CC2(CC[NH+](C(=O)c3cc4ccccc4[nH]3)CC2)CN1C(=O)C1CC1)c1ccc(-c2c3nc(c(-c4c(F)c(F)c(F)c(F)c4F)c4ccc([nH]4)c(-c4c(F)c(F)c(F)c(F)c4F)c4nc(c(-c5c(F)c(F)c(F)c(F)c5F)c5ccc2[nH]5)C=C4)C=C3)cc1
REMARK SMILES IDX 4 1 3 2 2 3 1 4 35 5 36 6 97 7 37 8 96 9 38 10 39 11 40 12
REMARK SMILES IDX 90 13 41 14 95 15 89 16 91 17 42 18 94 19 88 20 87 21 43 23
REMARK SMILES IDX 75 24 55 25 74 26 56 27 59 28 73 29 92 30 57 31 58 32 72 34
REMARK SMILES IDX 93 35 60 36 44 37 45 38 53 39 46 40 47 41 51 42 54 43 48 44
REMARK SMILES IDX 49 45 52 46 50 47 76 48 77 49 85 50 78 51 79 52 83 53 86 54
REMARK SMILES IDX 80 55 81 56 84 57 82 58 61 59 62 60 70 61 63 62 64 63 68 64
REMARK SMILES IDX 71 65 65 66 66 67 69 68 67 69 5 70 6 71 7 72 8 73 9 74 10 75
REMARK SMILES IDX 29 76 11 77 28 78 12 79 27 80 13 81 26 82 14 83 30 85 31 86
REMARK SMILES IDX 32 87 33 88 34 89 15 90 16 91 17 92 18 93 25 94 19 95 24 96
REMARK SMILES IDX 20 98 23 99 21 100 22 101
REMARK H PARENT 91 22 59 33 14 84 25 97
REMARK Flexibility Score: inf
ROOT
ATOM      1  C   UNL A   1      45.748  23.183  39.503  1.00  0.00     0.275 C 
ENDROOT
BRANCH   1   2
ATOM      2  O   UNL A   1      45.778  24.547  39.056  1.00  0.00    -0.458 OA
BRANCH   2   3
ATOM      3  C   UNL A   1      46.291  25.031  37.898  1.00  0.00     0.338 C 
ATOM      4  O   UNL A   1      47.506  25.131  37.756  1.00  0.00    -0.246 OA
BRANCH   3   5
ATOM      5  C   UNL A   1      45.441  25.662  36.856  1.00  0.00     0.060 A 
ATOM      6  C   UNL A   1      43.867  24.981  36.217  1.00  0.00     0.016 A 
ATOM      7  C   UNL A   1      45.912  27.360  36.376  1.00  0.00     0.016 A 
ATOM      8  C   UNL A   1      42.767  25.980  35.166  1.00  0.00     0.010 A 
ATOM      9  C   UNL A   1      44.864  28.302  35.182  1.00  0.00     0.010 A 
ATOM     10  C   UNL A   1      43.275  27.606  34.632  1.00  0.00    -0.014 A 
BRANCH  10  11
ATOM     11  C   UNL A   1      42.355  28.332  33.732  1.00  0.00     0.031 A 
ATOM     12  C   UNL A   1      41.443  29.330  34.345  1.00  0.00     0.074 A 
ATOM     13  C   UNL A   1      42.390  28.133  32.399  1.00  0.00     0.049 A 
ATOM     14  N   UNL A   1      40.402  29.936  33.853  1.00  0.00    -0.248 NA
ATOM     15  C   UNL A   1      41.757  29.701  35.726  1.00  0.00     0.031 C 
ATOM     16  C   UNL A   1      43.348  27.286  31.685  1.00  0.00     0.029 A 
ATOM     17  N   UNL A   1      41.584  28.609  31.397  1.00  0.00    -0.354 N 
ATOM     18  C   UNL A   1      39.909  30.713  34.893  1.00  0.00     0.074 A 
ATOM     19  C   UNL A   1      40.739  30.473  36.046  1.00  0.00     0.031 C 
ATOM     20  C   UNL A   1      43.047  27.257  30.379  1.00  0.00     0.029 A 
ATOM     21  C   UNL A   1      41.845  28.046  30.166  1.00  0.00     0.049 A 
ATOM     22  H   UNL A   1      40.885  29.288  31.542  1.00  0.00     0.167 HD
ATOM     23  C   UNL A   1      38.859  31.562  34.870  1.00  0.00     0.037 A 
ATOM     24  C   UNL A   1      41.152  28.121  29.015  1.00  0.00     0.037 A 
ATOM     25  C   UNL A   1      38.089  31.776  33.679  1.00  0.00     0.049 A 
ATOM     26  C   UNL A   1      39.920  28.980  29.018  1.00  0.00     0.074 A 
ATOM     27  C   UNL A   1      36.978  32.571  33.493  1.00  0.00     0.029 A 
ATOM     28  N   UNL A   1      38.370  31.170  32.458  1.00  0.00    -0.354 N 
ATOM     29  N   UNL A   1      39.399  29.657  30.017  1.00  0.00    -0.248 NA
ATOM     30  C   UNL A   1      39.178  29.097  27.760  1.00  0.00     0.031 C 
ATOM     31  C   UNL A   1      36.542  32.382  32.177  1.00  0.00     0.029 A 
ATOM     32  C   UNL A   1      37.437  31.549  31.516  1.00  0.00     0.049 A 
ATOM     33  H   UNL A   1      39.124  30.558  32.292  1.00  0.00     0.167 HD
ATOM     34  C   UNL A   1      38.293  30.312  29.505  1.00  0.00     0.074 A 
ATOM     35  C   UNL A   1      38.212  29.940  28.103  1.00  0.00     0.031 C 
ATOM     36  C   UNL A   1      37.429  31.154  30.125  1.00  0.00     0.037 A 
BRANCH  23  37
ATOM     37  C   UNL A   1      38.464  32.184  36.181  1.00  0.00     0.064 A 
ATOM     38  C   UNL A   1      38.786  33.510  36.519  1.00  0.00     0.173 A 
ATOM     39  C   UNL A   1      37.867  31.389  37.172  1.00  0.00     0.173 A 
ATOM     40  F   UNL A   1      39.382  34.311  35.622  1.00  0.00    -0.203 F 
ATOM     41  C   UNL A   1      38.610  33.984  37.817  1.00  0.00     0.198 A 
ATOM     42  C   UNL A   1      37.644  31.884  38.455  1.00  0.00     0.198 A 
ATOM     43  F   UNL A   1      37.537  30.116  36.912  1.00  0.00    -0.203 F 
ATOM     44  F   UNL A   1      39.046  35.209  38.147  1.00  0.00    -0.200 F 
ATOM     45  C   UNL A   1      38.039  33.171  38.784  1.00  0.00     0.200 A 
ATOM     46  F   UNL A   1      37.081  31.099  39.383  1.00  0.00    -0.200 F 
ATOM     47  F   UNL A   1      37.893  33.619  40.038  1.00  0.00    -0.200 F 
ENDBRANCH  23  37
BRANCH  24  48
ATOM     48  C   UNL A   1      41.592  27.341  27.823  1.00  0.00     0.064 A 
ATOM     49  C   UNL A   1      42.469  27.879  26.871  1.00  0.00     0.173 A 
ATOM     50  C   UNL A   1      41.188  26.006  27.642  1.00  0.00     0.173 A 
ATOM     51  F   UNL A   1      42.885  29.148  26.987  1.00  0.00    -0.203 F 
ATOM     52  C   UNL A   1      42.920  27.119  25.789  1.00  0.00     0.198 A 
ATOM     53  C   UNL A   1      41.660  25.239  26.576  1.00  0.00     0.198 A 
ATOM     54  F   UNL A   1      40.363  25.430  28.529  1.00  0.00    -0.203 F 
ATOM     55  F   UNL A   1      43.746  27.666  24.887  1.00  0.00    -0.200 F 
ATOM     56  C   UNL A   1      42.523  25.797  25.647  1.00  0.00     0.200 A 
ATOM     57  F   UNL A   1      41.295  23.955  26.462  1.00  0.00    -0.200 F 
ATOM     58  F   UNL A   1      42.978  25.062  24.623  1.00  0.00    -0.200 F 
ENDBRANCH  24  48
BRANCH  36  59
ATOM     59  C   UNL A   1      36.373  31.792  29.279  1.00  0.00     0.064 A 
ATOM     60  C   UNL A   1      35.258  31.078  28.824  1.00  0.00     0.173 A 
ATOM     61  C   UNL A   1      36.425  33.175  29.043  1.00  0.00     0.173 A 
ATOM     62  F   UNL A   1      35.177  29.754  29.017  1.00  0.00    -0.203 F 
ATOM     63  C   UNL A   1      34.227  31.730  28.158  1.00  0.00     0.198 A 
ATOM     64  C   UNL A   1      35.374  33.828  28.416  1.00  0.00     0.198 A 
ATOM     65  F   UNL A   1      37.473  33.895  29.472  1.00  0.00    -0.203 F 
ATOM     66  F   UNL A   1      33.178  31.030  27.705  1.00  0.00    -0.200 F 
ATOM     67  C   UNL A   1      34.277  33.106  27.972  1.00  0.00     0.200 A 
ATOM     68  F   UNL A   1      35.412  35.159  28.263  1.00  0.00    -0.200 F 
ATOM     69  F   UNL A   1      33.262  33.737  27.367  1.00  0.00    -0.200 F 
ENDBRANCH  36  59
ENDBRANCH  10  11
ENDBRANCH   3   5
ENDBRANCH   2   3
ENDBRANCH   1   2
BRANCH   1  70
ATOM     70  C   UNL A   1      46.933  22.287  39.057  1.00  0.00     0.274 C 
BRANCH  70  71
ATOM     71  O   UNL A   1      47.556  21.463  40.074  1.00  0.00    -0.461 OA
BRANCH  71  72
ATOM     72  C   UNL A   1      48.400  20.490  39.634  1.00  0.00     0.328 C 
ATOM     73  O   UNL A   1      49.604  20.687  39.523  1.00  0.00    -0.250 OA
BRANCH  72  74
ATOM     74  C   UNL A   1      47.634  19.088  39.361  1.00  0.00     0.195 C 
ATOM     75  C   UNL A   1      46.982  18.924  40.783  1.00  0.00     0.046 C 
ATOM     76  N   UNL A   1      46.290  18.650  38.314  1.00  0.00    -0.328 N 
ATOM     77  C   UNL A   1      46.064  17.732  40.855  1.00  0.00     0.001 C 
ATOM     78  C   UNL A   1      45.652  17.486  39.414  1.00  0.00     0.128 C 
ATOM     79  C   UNL A   1      44.778  18.041  41.685  1.00  0.00     0.071 C 
ATOM     80  C   UNL A   1      46.728  16.459  41.442  1.00  0.00     0.071 C 
ATOM     81  C   UNL A   1      45.044  18.109  43.182  1.00  0.00     0.271 C 
ATOM     82  C   UNL A   1      46.885  16.498  42.962  1.00  0.00     0.271 C 
ATOM     83  N   UNL A   1      45.623  16.839  43.608  1.00  0.00    -0.266 N 
ATOM     84  H   UNL A   1      44.892  16.241  43.328  1.00  0.00     0.357 HD
BRANCH  76  85
ATOM     85  C   UNL A   1      45.698  19.189  36.488  1.00  0.00     0.226 C 
ATOM     86  O   UNL A   1      45.308  18.467  35.518  1.00  0.00    -0.275 OA
BRANCH  85  87
ATOM     87  C   UNL A   1      45.456  20.656  35.586  1.00  0.00     0.079 C 
ATOM     88  C   UNL A   1      46.292  21.916  35.588  1.00  0.00     0.014 C 
ATOM     89  C   UNL A   1      45.830  21.292  34.287  1.00  0.00     0.014 C 
ENDBRANCH  85  87
ENDBRANCH  76  85
BRANCH  83  90
ATOM     90  C   UNL A   1      45.103  15.987  44.584  1.00  0.00     0.360 C 
ATOM     91  O   UNL A   1      45.321  16.162  45.780  1.00  0.00    -0.224 OA
BRANCH  90  92
ATOM     92  C   UNL A   1      44.244  14.917  44.136  1.00  0.00     0.145 A 
ATOM     93  C   UNL A   1      44.211  13.616  44.603  1.00  0.00     0.046 A 
ATOM     94  N   UNL A   1      43.333  14.991  43.106  1.00  0.00    -0.347 N 
ATOM     95  C   UNL A   1      43.179  12.924  43.922  1.00  0.00     0.000 A 
ATOM     96  C   UNL A   1      42.632  13.810  42.995  1.00  0.00     0.046 A 
ATOM     97  H   UNL A   1      43.199  15.779  42.531  1.00  0.00     0.167 HD
ATOM     98  C   UNL A   1      42.653  11.622  44.016  1.00  0.00     0.010 A 
ATOM     99  C   UNL A   1      41.571  13.455  42.153  1.00  0.00     0.026 A 
ATOM    100  C   UNL A   1      41.589  11.253  43.188  1.00  0.00     0.001 A 
ATOM    101  C   UNL A   1      41.057  12.159  42.272  1.00  0.00     0.002 A 
ENDBRANCH  90  92
ENDBRANCH  83  90
ENDBRANCH  72  74
ENDBRANCH  71  72
ENDBRANCH  70  71
ENDBRANCH   1  70
TORSDOF 15
ENDMDL
MODEL 2
REMARK VINA RESULT:     -15.1      9.581     14.967
REMARK SMILES O=C(OCCOC(=O)[C@H]1CC2(CC[NH+](C(=O)c3cc4ccccc4[nH]3)CC2)CN1C(=O)C1CC1)c1ccc(-c2c3nc(c(-c4c(F)c(F)c(F)c(F)c4F)c4ccc([nH]4)c(-c4c(F)c(F)c(F)c(F)c4F)c4nc(c(-c5c(F)c(F)c(F)c(F)c5F)c5ccc2[nH]5)C=C4)C=C3)cc1
REMARK SMILES IDX 4 1 3 2 2 3 1 4 35 5 36 6 97 7 37 8 96 9 38 10 39 11 40 12
REMARK SMILES IDX 90 13 41 14 95 15 89 16 91 17 42 18 94 19 88 20 87 21 43 23
REMARK SMILES IDX 75 24 55 25 74 26 56 27 59 28 73 29 92 30 57 31 58 32 72 34
REMARK SMILES IDX 93 35 60 36 44 37 45 38 53 39 46 40 47 41 51 42 54 43 48 44
REMARK SMILES IDX 49 45 52 46 50 47 76 48 77 49 85 50 78 51 79 52 83 53 86 54
REMARK SMILES IDX 80 55 81 56 84 57 82 58 61 59 62 60 70 61 63 62 64 63 68 64
REMARK SMILES IDX 71 65 65 66 66 67 69 68 67 69 5 70 6 71 7 72 8 73 9 74 10 75
REMARK SMILES IDX 29 76 11 77 28 78 12 79 27 80 13 81 26 82 14 83 30 85 31 86
REMARK SMILES IDX 32 87 33 88 34 89 15 90 16 91 17 92 18 93 25 94 19 95 24 96
REMARK SMILES IDX 20 98 23 99 21 100 22 101
REMARK H PARENT 91 22 59 33 14 84 25 97
REMARK Flexibility Score: inf
ROOT
ATOM      1  C   UNL A   1      32.225  30.424  26.621  1.00  0.00     0.275 C 
ENDROOT
BRANCH   1   2
ATOM      2  O   UNL A   1      33.228  30.026  27.568  1.00  0.00    -0.458 OA
BRANCH   2   3
ATOM      3  C   UNL A   1      34.270  30.759  28.032  1.00  0.00     0.338 C 
ATOM      4  O   UNL A   1      34.185  31.981  28.096  1.00  0.00    -0.246 OA
BRANCH   3   5
ATOM      5  C   UNL A   1      35.613  30.168  28.267  1.00  0.00     0.060 A 
ATOM      6  C   UNL A   1      36.982  30.133  27.053  1.00  0.00     0.016 A 
ATOM      7  C   UNL A   1      35.963  29.663  29.987  1.00  0.00     0.016 A 
ATOM      8  C   UNL A   1      38.666  29.654  27.549  1.00  0.00     0.010 A 
ATOM      9  C   UNL A   1      37.638  29.029  30.436  1.00  0.00     0.010 A 
ATOM     10  C   UNL A   1      38.981  29.081  29.209  1.00  0.00    -0.014 A 
BRANCH  10  11
ATOM     11  C   UNL A   1      40.362  28.655  29.519  1.00  0.00     0.031 A 
ATOM     12  C   UNL A   1      41.212  29.594  30.292  1.00  0.00     0.074 A 
ATOM     13  C   UNL A   1      40.805  27.432  29.163  1.00  0.00     0.049 A 
ATOM     14  N   UNL A   1      42.495  29.588  30.508  1.00  0.00    -0.248 NA
ATOM     15  C   UNL A   1      40.503  30.712  30.917  1.00  0.00     0.031 C 
ATOM     16  C   UNL A   1      40.002  26.381  28.533  1.00  0.00     0.029 A 
ATOM     17  N   UNL A   1      42.050  26.864  29.253  1.00  0.00    -0.354 N 
ATOM     18  C   UNL A   1      42.744  30.738  31.246  1.00  0.00     0.074 A 
ATOM     19  C   UNL A   1      41.492  31.431  31.406  1.00  0.00     0.031 C 
ATOM     20  C   UNL A   1      40.777  25.325  28.246  1.00  0.00     0.029 A 
ATOM     21  C   UNL A   1      42.143  25.640  28.629  1.00  0.00     0.049 A 
ATOM     22  H   UNL A   1      42.805  27.290  29.721  1.00  0.00     0.167 HD
ATOM     23  C   UNL A   1      43.923  31.161  31.752  1.00  0.00     0.037 A 
ATOM     24  C   UNL A   1      43.225  24.890  28.350  1.00  0.00     0.037 A 
ATOM     25  C   UNL A   1      45.131  30.407  31.580  1.00  0.00     0.049 A 
ATOM     26  C   UNL A   1      44.554  25.413  28.819  1.00  0.00     0.074 A 
ATOM     27  C   UNL A   1      46.411  30.707  31.996  1.00  0.00     0.029 A 
ATOM     28  N   UNL A   1      45.190  29.183  30.920  1.00  0.00    -0.354 N 
ATOM     29  N   UNL A   1      44.812  26.537  29.448  1.00  0.00    -0.248 NA
ATOM     30  C   UNL A   1      45.734  24.586  28.552  1.00  0.00     0.031 C 
ATOM     31  C   UNL A   1      47.255  29.700  31.517  1.00  0.00     0.029 A 
ATOM     32  C   UNL A   1      46.490  28.723  30.891  1.00  0.00     0.049 A 
ATOM     33  H   UNL A   1      44.417  28.713  30.530  1.00  0.00     0.167 HD
ATOM     34  C   UNL A   1      46.175  26.540  29.690  1.00  0.00     0.074 A 
ATOM     35  C   UNL A   1      46.691  25.305  29.126  1.00  0.00     0.031 C 
ATOM     36  C   UNL A   1      46.932  27.467  30.328  1.00  0.00     0.037 A 
BRANCH  23  37
ATOM     37  C   UNL A   1      43.931  32.514  32.406  1.00  0.00     0.064 A 
ATOM     38  C   UNL A   1      43.607  32.704  33.761  1.00  0.00     0.173 A 
ATOM     39  C   UNL A   1      44.137  33.661  31.623  1.00  0.00     0.173 A 
ATOM     40  F   UNL A   1      43.373  31.647  34.555  1.00  0.00    -0.203 F 
ATOM     41  C   UNL A   1      43.401  33.981  34.280  1.00  0.00     0.198 A 
ATOM     42  C   UNL A   1      43.981  34.937  32.159  1.00  0.00     0.198 A 
ATOM     43  F   UNL A   1      44.447  33.546  30.324  1.00  0.00    -0.203 F 
ATOM     44  F   UNL A   1      42.965  34.129  35.539  1.00  0.00    -0.200 F 
ATOM     45  C   UNL A   1      43.589  35.096  33.478  1.00  0.00     0.200 A 
ATOM     46  F   UNL A   1      44.176  36.013  31.384  1.00  0.00    -0.200 F 
ATOM     47  F   UNL A   1      43.367  36.322  33.970  1.00  0.00    -0.200 F 
ENDBRANCH  23  37
BRANCH  24  48
ATOM     48  C   UNL A   1      43.082  23.625  27.574  1.00  0.00     0.064 A 
ATOM     49  C   UNL A   1      42.547  22.464  28.148  1.00  0.00     0.173 A 
ATOM     50  C   UNL A   1      43.424  23.569  26.211  1.00  0.00     0.173 A 
ATOM     51  F   UNL A   1      42.206  22.454  29.445  1.00  0.00    -0.203 F 
ATOM     52  C   UNL A   1      42.363  21.301  27.396  1.00  0.00     0.198 A 
ATOM     53  C   UNL A   1      43.216  22.415  25.454  1.00  0.00     0.198 A 
ATOM     54  F   UNL A   1      43.926  24.653  25.602  1.00  0.00    -0.203 F 
ATOM     55  F   UNL A   1      41.863  20.202  27.976  1.00  0.00    -0.200 F 
ATOM     56  C   UNL A   1      42.689  21.280  26.047  1.00  0.00     0.200 A 
ATOM     57  F   UNL A   1      43.506  22.413  24.145  1.00  0.00    -0.200 F 
ATOM     58  F   UNL A   1      42.487  20.172  25.321  1.00  0.00    -0.200 F 
ENDBRANCH  24  48
BRANCH  36  59
ATOM     59  C   UNL A   1      48.380  27.146  30.523  1.00  0.00     0.064 A 
ATOM     60  C   UNL A   1      48.827  26.357  31.590  1.00  0.00     0.173 A 
ATOM     61  C   UNL A   1      49.307  27.529  29.540  1.00  0.00     0.173 A 
ATOM     62  F   UNL A   1      47.976  25.981  32.556  1.00  0.00    -0.203 F 
ATOM     63  C   UNL A   1      50.157  25.961  31.666  1.00  0.00     0.198 A 
ATOM     64  C   UNL A   1      50.624  27.096  29.598  1.00  0.00     0.198 A 
ATOM     65  F   UNL A   1      48.915  28.277  28.497  1.00  0.00    -0.203 F 
ATOM     66  F   UNL A   1      50.575  25.228  32.707  1.00  0.00    -0.200 F 
ATOM     67  C   UNL A   1      51.048  26.315  30.662  1.00  0.00     0.200 A 
ATOM     68  F   UNL A   1      51.475  27.414  28.613  1.00  0.00    -0.200 F 
ATOM     69  F   UNL A   1      52.320  25.896  30.718  1.00  0.00    -0.200 F 
ENDBRANCH  36  59
ENDBRANCH  10  11
ENDBRANCH   3   5
ENDBRANCH   2   3
ENDBRANCH   1   2
BRANCH   1  70
ATOM     70  C   UNL A   1      32.221  29.668  25.266  1.00  0.00     0.274 C 
BRANCH  70  71
ATOM     71  O   UNL A   1      33.384  28.861  24.958  1.00  0.00    -0.461 OA
BRANCH  71  72
ATOM     72  C   UNL A   1      33.579  28.551  23.647  1.00  0.00     0.328 C 
ATOM     73  O   UNL A   1      34.210  29.288  22.900  1.00  0.00    -0.250 OA
BRANCH  72  74
ATOM     74  C   UNL A   1      32.948  27.110  23.255  1.00  0.00     0.195 C 
ATOM     75  C   UNL A   1      33.850  26.224  24.191  1.00  0.00     0.046 C 
ATOM     76  N   UNL A   1      31.365  26.391  23.522  1.00  0.00    -0.328 N 
ATOM     77  C   UNL A   1      33.443  24.774  24.168  1.00  0.00     0.001 C 
ATOM     78  C   UNL A   1      31.989  24.798  23.733  1.00  0.00     0.128 C 
ATOM     79  C   UNL A   1      33.518  24.129  25.588  1.00  0.00     0.071 C 
ATOM     80  C   UNL A   1      34.275  23.901  23.193  1.00  0.00     0.071 C 
ATOM     81  C   UNL A   1      34.947  23.871  26.044  1.00  0.00     0.271 C 
ATOM     82  C   UNL A   1      35.668  23.558  23.717  1.00  0.00     0.271 C 
ATOM     83  N   UNL A   1      35.598  23.006  25.065  1.00  0.00    -0.266 N 
ATOM     84  H   UNL A   1      34.984  22.237  25.116  1.00  0.00     0.357 HD
BRANCH  76  85
ATOM     85  C   UNL A   1      29.492  27.075  23.518  1.00  0.00     0.226 C 
ATOM     86  O   UNL A   1      28.417  26.490  23.854  1.00  0.00    -0.275 OA
BRANCH  85  87
ATOM     87  C   UNL A   1      28.655  28.554  23.150  1.00  0.00     0.079 C 
ATOM     88  C   UNL A   1      29.171  29.975  23.214  1.00  0.00     0.014 C 
ATOM     89  C   UNL A   1      28.393  29.485  22.011  1.00  0.00     0.014 C 
ENDBRANCH  85  87
ENDBRANCH  76  85
BRANCH  83  90
ATOM     90  C   UNL A   1      36.174  21.762  25.325  1.00  0.00     0.360 C 
ATOM     91  O   UNL A   1      37.292  21.658  25.825  1.00  0.00    -0.224 OA
BRANCH  90  92
ATOM     92  C   UNL A   1      35.379  20.592  25.037  1.00  0.00     0.145 A 
ATOM     93  C   UNL A   1      34.008  20.531  24.870  1.00  0.00     0.046 A 
ATOM     94  N   UNL A   1      35.849  19.302  24.935  1.00  0.00    -0.347 N 
ATOM     95  C   UNL A   1      33.659  19.196  24.545  1.00  0.00     0.000 A 
ATOM     96  C   UNL A   1      34.832  18.443  24.579  1.00  0.00     0.046 A 
ATOM     97  H   UNL A   1      36.782  19.030  25.092  1.00  0.00     0.167 HD
ATOM     98  C   UNL A   1      32.447  18.560  24.215  1.00  0.00     0.010 A 
ATOM     99  C   UNL A   1      34.853  17.073  24.293  1.00  0.00     0.026 A 
ATOM    100  C   UNL A   1      32.452  17.194  23.919  1.00  0.00     0.001 A 
ATOM    101  C   UNL A   1      33.639  16.464  23.957  1.00  0.00     0.002 A 
ENDBRANCH  90  92
ENDBRANCH  83  90
ENDBRANCH  72  74
ENDBRANCH  71  72
ENDBRANCH  70  71
ENDBRANCH   1  70
TORSDOF 15
ENDMDL
MODEL 3
REMARK VINA RESULT:     -14.9      0.920      7.136
REMARK SMILES O=C(OCCOC(=O)[C@H]1CC2(CC[NH+](C(=O)c3cc4ccccc4[nH]3)CC2)CN1C(=O)C1CC1)c1ccc(-c2c3nc(c(-c4c(F)c(F)c(F)c(F)c4F)c4ccc([nH]4)c(-c4c(F)c(F)c(F)c(F)c4F)c4nc(c(-c5c(F)c(F)c(F)c(F)c5F)c5ccc2[nH]5)C=C4)C=C3)cc1
REMARK SMILES IDX 4 1 3 2 2 3 1 4 35 5 36 6 97 7 37 8 96 9 38 10 39 11 40 12
REMARK SMILES IDX 90 13 41 14 95 15 89 16 91 17 42 18 94 19 88 20 87 21 43 23
REMARK SMILES IDX 75 24 55 25 74 26 56 27 59 28 73 29 92 30 57 31 58 32 72 34
REMARK SMILES IDX 93 35 60 36 44 37 45 38 53 39 46 40 47 41 51 42 54 43 48 44
REMARK SMILES IDX 49 45 52 46 50 47 76 48 77 49 85 50 78 51 79 52 83 53 86 54
REMARK SMILES IDX 80 55 81 56 84 57 82 58 61 59 62 60 70 61 63 62 64 63 68 64
REMARK SMILES IDX 71 65 65 66 66 67 69 68 67 69 5 70 6 71 7 72 8 73 9 74 10 75
REMARK SMILES IDX 29 76 11 77 28 78 12 79 27 80 13 81 26 82 14 83 30 85 31 86
REMARK SMILES IDX 32 87 33 88 34 89 15 90 16 91 17 92 18 93 25 94 19 95 24 96
REMARK SMILES IDX 20 98 23 99 21 100 22 101
REMARK H PARENT 91 22 59 33 14 84 25 97
REMARK Flexibility Score: inf
ROOT
ATOM      1  C   UNL A   1      47.735  24.368  38.284  1.00  0.00     0.275 C 
ENDROOT
BRANCH   1   2
ATOM      2  O   UNL A   1      48.327  25.449  37.548  1.00  0.00    -0.458 OA
BRANCH   2   3
ATOM      3  C   UNL A   1      48.348  25.626  36.204  1.00  0.00     0.338 C 
ATOM      4  O   UNL A   1      49.415  25.626  35.598  1.00  0.00    -0.246 OA
BRANCH   3   5
ATOM      5  C   UNL A   1      47.145  26.046  35.440  1.00  0.00     0.060 A 
ATOM      6  C   UNL A   1      45.534  25.179  35.441  1.00  0.00     0.016 A 
ATOM      7  C   UNL A   1      47.250  27.685  34.642  1.00  0.00     0.016 A 
ATOM      8  C   UNL A   1      44.053  25.944  34.711  1.00  0.00     0.010 A 
ATOM      9  C   UNL A   1      45.778  28.377  33.767  1.00  0.00     0.010 A 
ATOM     10  C   UNL A   1      44.182  27.507  33.858  1.00  0.00    -0.014 A 
BRANCH  10  11
ATOM     11  C   UNL A   1      42.948  28.036  33.240  1.00  0.00     0.031 A 
ATOM     12  C   UNL A   1      42.689  27.686  31.822  1.00  0.00     0.074 A 
ATOM     13  C   UNL A   1      42.067  28.757  33.962  1.00  0.00     0.049 A 
ATOM     14  N   UNL A   1      41.830  28.176  30.975  1.00  0.00    -0.248 NA
ATOM     15  C   UNL A   1      43.526  26.617  31.276  1.00  0.00     0.031 C 
ATOM     16  C   UNL A   1      42.157  29.029  35.399  1.00  0.00     0.029 A 
ATOM     17  N   UNL A   1      40.927  29.421  33.588  1.00  0.00    -0.354 N 
ATOM     18  C   UNL A   1      42.075  27.509  29.782  1.00  0.00     0.074 A 
ATOM     19  C   UNL A   1      43.180  26.612  30.005  1.00  0.00     0.031 C 
ATOM     20  C   UNL A   1      41.157  29.840  35.773  1.00  0.00     0.029 A 
ATOM     21  C   UNL A   1      40.379  30.184  34.595  1.00  0.00     0.049 A 
ATOM     22  H   UNL A   1      40.536  29.357  32.686  1.00  0.00     0.167 HD
ATOM     23  C   UNL A   1      41.416  27.634  28.610  1.00  0.00     0.037 A 
ATOM     24  C   UNL A   1      39.394  31.101  34.550  1.00  0.00     0.037 A 
ATOM     25  C   UNL A   1      40.304  28.528  28.462  1.00  0.00     0.049 A 
ATOM     26  C   UNL A   1      38.732  31.321  33.219  1.00  0.00     0.074 A 
ATOM     27  C   UNL A   1      39.551  28.802  27.341  1.00  0.00     0.029 A 
ATOM     28  N   UNL A   1      39.794  29.303  29.500  1.00  0.00    -0.354 N 
ATOM     29  N   UNL A   1      39.007  30.753  32.066  1.00  0.00    -0.248 NA
ATOM     30  C   UNL A   1      37.634  32.291  33.166  1.00  0.00     0.031 C 
ATOM     31  C   UNL A   1      38.635  29.802  27.683  1.00  0.00     0.029 A 
ATOM     32  C   UNL A   1      38.749  30.079  29.040  1.00  0.00     0.049 A 
ATOM     33  H   UNL A   1      40.129  29.299  30.426  1.00  0.00     0.167 HD
ATOM     34  C   UNL A   1      38.096  31.262  31.157  1.00  0.00     0.074 A 
ATOM     35  C   UNL A   1      37.265  32.198  31.895  1.00  0.00     0.031 C 
ATOM     36  C   UNL A   1      37.947  30.978  29.839  1.00  0.00     0.037 A 
BRANCH  23  37
ATOM     37  C   UNL A   1      41.975  26.879  27.436  1.00  0.00     0.064 A 
ATOM     38  C   UNL A   1      41.602  25.556  27.139  1.00  0.00     0.173 A 
ATOM     39  C   UNL A   1      43.007  27.448  26.674  1.00  0.00     0.173 A 
ATOM     40  F   UNL A   1      40.640  24.948  27.850  1.00  0.00    -0.203 F 
ATOM     41  C   UNL A   1      42.299  24.808  26.191  1.00  0.00     0.198 A 
ATOM     42  C   UNL A   1      43.666  26.714  25.691  1.00  0.00     0.198 A 
ATOM     43  F   UNL A   1      43.409  28.705  26.910  1.00  0.00    -0.203 F 
ATOM     44  F   UNL A   1      42.010  23.510  26.019  1.00  0.00    -0.200 F 
ATOM     45  C   UNL A   1      43.330  25.388  25.468  1.00  0.00     0.200 A 
ATOM     46  F   UNL A   1      44.653  27.282  24.985  1.00  0.00    -0.200 F 
ATOM     47  F   UNL A   1      44.015  24.662  24.574  1.00  0.00    -0.200 F 
ENDBRANCH  23  37
BRANCH  24  48
ATOM     48  C   UNL A   1      39.031  31.874  35.772  1.00  0.00     0.064 A 
ATOM     49  C   UNL A   1      39.447  33.200  35.957  1.00  0.00     0.173 A 
ATOM     50  C   UNL A   1      38.201  31.317  36.760  1.00  0.00     0.173 A 
ATOM     51  F   UNL A   1      40.244  33.784  35.051  1.00  0.00    -0.203 F 
ATOM     52  C   UNL A   1      39.053  33.934  37.078  1.00  0.00     0.198 A 
ATOM     53  C   UNL A   1      37.786  32.060  37.867  1.00  0.00     0.198 A 
ATOM     54  F   UNL A   1      37.757  30.059  36.631  1.00  0.00    -0.203 F 
ATOM     55  F   UNL A   1      39.479  35.195  37.235  1.00  0.00    -0.200 F 
ATOM     56  C   UNL A   1      38.215  33.367  38.027  1.00  0.00     0.200 A 
ATOM     57  F   UNL A   1      36.953  31.514  38.764  1.00  0.00    -0.200 F 
ATOM     58  F   UNL A   1      37.817  34.082  39.089  1.00  0.00    -0.200 F 
ENDBRANCH  24  48
BRANCH  36  59
ATOM     59  C   UNL A   1      36.799  31.622  29.130  1.00  0.00     0.064 A 
ATOM     60  C   UNL A   1      35.637  30.912  28.804  1.00  0.00     0.173 A 
ATOM     61  C   UNL A   1      36.822  33.007  28.901  1.00  0.00     0.173 A 
ATOM     62  F   UNL A   1      35.580  29.585  28.995  1.00  0.00    -0.203 F 
ATOM     63  C   UNL A   1      34.534  31.568  28.271  1.00  0.00     0.198 A 
ATOM     64  C   UNL A   1      35.704  33.665  28.408  1.00  0.00     0.198 A 
ATOM     65  F   UNL A   1      37.914  33.725  29.209  1.00  0.00    -0.203 F 
ATOM     66  F   UNL A   1      33.439  30.871  27.940  1.00  0.00    -0.200 F 
ATOM     67  C   UNL A   1      34.562  32.945  28.092  1.00  0.00     0.200 A 
ATOM     68  F   UNL A   1      35.723  34.997  28.264  1.00  0.00    -0.200 F 
ATOM     69  F   UNL A   1      33.483  33.580  27.617  1.00  0.00    -0.200 F 
ENDBRANCH  36  59
ENDBRANCH  10  11
ENDBRANCH   3   5
ENDBRANCH   2   3
ENDBRANCH   1   2
BRANCH   1  70
ATOM     70  C   UNL A   1      48.369  22.967  38.077  1.00  0.00     0.274 C 
BRANCH  70  71
ATOM     71  O   UNL A   1      47.535  21.817  38.364  1.00  0.00    -0.461 OA
BRANCH  71  72
ATOM     72  C   UNL A   1      47.950  21.001  39.370  1.00  0.00     0.328 C 
ATOM     73  O   UNL A   1      48.597  21.429  40.318  1.00  0.00    -0.250 OA
BRANCH  72  74
ATOM     74  C   UNL A   1      47.433  19.477  39.181  1.00  0.00     0.195 C 
ATOM     75  C   UNL A   1      46.725  19.320  40.577  1.00  0.00     0.046 C 
ATOM     76  N   UNL A   1      46.243  18.749  38.109  1.00  0.00    -0.328 N 
ATOM     77  C   UNL A   1      46.003  18.004  40.705  1.00  0.00     0.001 C 
ATOM     78  C   UNL A   1      45.727  17.585  39.272  1.00  0.00     0.128 C 
ATOM     79  C   UNL A   1      44.634  18.164  41.439  1.00  0.00     0.071 C 
ATOM     80  C   UNL A   1      46.819  16.904  41.432  1.00  0.00     0.071 C 
ATOM     81  C   UNL A   1      44.791  18.390  42.936  1.00  0.00     0.271 C 
ATOM     82  C   UNL A   1      46.871  17.085  42.948  1.00  0.00     0.271 C 
ATOM     83  N   UNL A   1      45.533  17.266  43.499  1.00  0.00    -0.266 N 
ATOM     84  H   UNL A   1      44.924  16.539  43.234  1.00  0.00     0.357 HD
BRANCH  76  85
ATOM     85  C   UNL A   1      45.691  19.042  36.215  1.00  0.00     0.226 C 
ATOM     86  O   UNL A   1      45.313  18.200  35.343  1.00  0.00    -0.275 OA
BRANCH  85  87
ATOM     87  C   UNL A   1      45.480  20.377  35.121  1.00  0.00     0.079 C 
ATOM     88  C   UNL A   1      45.061  21.797  35.430  1.00  0.00     0.014 C 
ATOM     89  C   UNL A   1      46.240  21.516  34.523  1.00  0.00     0.014 C 
ENDBRANCH  85  87
ENDBRANCH  76  85
BRANCH  83  90
ATOM     90  C   UNL A   1      45.092  16.419  44.517  1.00  0.00     0.360 C 
ATOM     91  O   UNL A   1      45.289  16.674  45.702  1.00  0.00    -0.224 OA
BRANCH  90  92
ATOM     92  C   UNL A   1      44.339  15.252  44.124  1.00  0.00     0.145 A 
ATOM     93  C   UNL A   1      44.583  13.938  44.479  1.00  0.00     0.046 A 
ATOM     94  N   UNL A   1      43.263  15.238  43.265  1.00  0.00    -0.347 N 
ATOM     95  C   UNL A   1      43.564  13.129  43.917  1.00  0.00     0.000 A 
ATOM     96  C   UNL A   1      42.739  13.967  43.168  1.00  0.00     0.046 A 
ATOM     97  H   UNL A   1      42.915  16.025  42.787  1.00  0.00     0.167 HD
ATOM     98  C   UNL A   1      43.264  11.755  43.984  1.00  0.00     0.010 A 
ATOM     99  C   UNL A   1      41.614  13.494  42.481  1.00  0.00     0.026 A 
ATOM    100  C   UNL A   1      42.140  11.268  43.310  1.00  0.00     0.001 A 
ATOM    101  C   UNL A   1      41.328  12.127  42.571  1.00  0.00     0.002 A 
ENDBRANCH  90  92
ENDBRANCH  83  90
ENDBRANCH  72  74
ENDBRANCH  71  72
ENDBRANCH  70  71
ENDBRANCH   1  70
TORSDOF 15
ENDMDL
