MODEL 1
REMARK VINA RESULT:     -12.2      0.000      0.000
REMARK SMILES NS(=O)(=O)c1ccc(/N=N/c2ccc(O)c(C(=O)OCCOC(=O)c3ccc(-c4c5nc(c(-c6c(F)c(F)c(F)c(F)c6F)c6ccc([nH]6)c(-c6c(F)c(F)c(F)c(F)c6F)c6nc(c(-c7c(F)c(F)c(F)c(F)c7F)c7ccc4[nH]7)C=C6)C=C5)cc3)c2)cc1
REMARK SMILES IDX 20 1 19 2 17 3 18 4 16 5 11 6 12 7 88 8 13 9 14 10 10 11
REMARK SMILES IDX 9 12 8 13 5 14 6 15 90 16 7 17 89 18 2 19 3 20 4 21 1 22
REMARK SMILES IDX 15 25 21 27 22 28 23 29 24 30 25 31 26 32 87 33 27 34 86 35
REMARK SMILES IDX 28 36 29 37 30 38 80 39 31 40 85 41 79 42 81 43 32 44 84 45
REMARK SMILES IDX 78 46 77 47 33 49 65 50 45 51 64 52 46 53 49 54 63 55 82 56
REMARK SMILES IDX 47 57 48 58 62 60 83 61 50 62 34 63 35 64 43 65 36 66 37 67
REMARK SMILES IDX 41 68 44 69 38 70 39 71 42 72 40 73 66 74 67 75 75 76 68 77
REMARK SMILES IDX 69 78 73 79 76 80 70 81 71 82 74 83 72 84 51 85 52 86 60 87
REMARK SMILES IDX 53 88 54 89 58 90 61 91 55 92 56 93 59 94 57 95
REMARK H PARENT 1 23 1 24 15 26 81 48 49 59
REMARK Flexibility Score: inf
ROOT
ATOM      1  C   UNL A   1      31.863  30.360  26.670  1.00  0.00     0.275 C 
ENDROOT
BRANCH   1   2
ATOM      2  O   UNL A   1      32.856  30.032  25.679  1.00  0.00    -0.458 OA
BRANCH   2   3
ATOM      3  C   UNL A   1      33.608  28.932  25.918  1.00  0.00     0.342 C 
ATOM      4  O   UNL A   1      34.243  28.691  26.936  1.00  0.00    -0.246 OA
BRANCH   3   5
ATOM      5  C   UNL A   1      33.507  27.947  24.814  1.00  0.00     0.104 A 
ATOM      6  C   UNL A   1      33.225  25.675  24.001  1.00  0.00     0.087 A 
ATOM      7  C   UNL A   1      33.448  26.121  22.693  1.00  0.00     0.034 A 
ATOM      8  C   UNL A   1      33.290  26.587  25.063  1.00  0.00     0.049 A 
ATOM      9  C   UNL A   1      33.653  27.475  22.434  1.00  0.00     0.049 A 
ATOM     10  C   UNL A   1      33.650  28.385  23.487  1.00  0.00     0.130 A 
BRANCH   6  11
ATOM     11  N   UNL A   1      32.891  24.329  24.235  1.00  0.00    -0.151 NA
ATOM     12  N   UNL A   1      33.851  23.626  23.851  1.00  0.00    -0.151 NA
BRANCH  12  13
ATOM     13  C   UNL A   1      33.676  22.250  24.075  1.00  0.00     0.086 A 
ATOM     14  C   UNL A   1      33.317  19.473  24.246  1.00  0.00     0.082 A 
ATOM     15  C   UNL A   1      32.408  20.246  23.521  1.00  0.00     0.024 A 
ATOM     16  C   UNL A   1      34.392  20.073  24.904  1.00  0.00     0.024 A 
ATOM     17  C   UNL A   1      32.596  21.626  23.435  1.00  0.00     0.031 A 
ATOM     18  C   UNL A   1      34.569  21.458  24.813  1.00  0.00     0.031 A 
BRANCH  14  19
ATOM     19  S   UNL A   1      33.063  17.725  24.281  1.00  0.00     0.238 S 
ATOM     20  O   UNL A   1      33.293  17.211  22.950  1.00  0.00    -0.207 OA
ATOM     21  O   UNL A   1      31.860  17.454  25.028  1.00  0.00    -0.207 OA
BRANCH  19  22
ATOM     22  N   UNL A   1      34.319  17.124  25.223  1.00  0.00    -0.225 NA
ATOM     23  H   UNL A   1      35.173  17.086  24.668  1.00  0.00     0.137 HD
ATOM     24  H   UNL A   1      34.081  16.186  25.547  1.00  0.00     0.137 HD
ENDBRANCH  19  22
ENDBRANCH  14  19
ENDBRANCH  12  13
ENDBRANCH   6  11
BRANCH  10  25
ATOM     25  O   UNL A   1      33.818  29.700  23.139  1.00  0.00    -0.507 OA
ATOM     26  H   UNL A   1      34.325  29.924  22.383  1.00  0.00     0.293 HD
ENDBRANCH  10  25
ENDBRANCH   3   5
ENDBRANCH   2   3
ENDBRANCH   1   2
BRANCH   1  27
ATOM     27  C   UNL A   1      31.695  31.877  26.804  1.00  0.00     0.275 C 
BRANCH  27  28
ATOM     28  O   UNL A   1      32.946  32.560  26.600  1.00  0.00    -0.458 OA
BRANCH  28  29
ATOM     29  C   UNL A   1      33.346  33.352  27.623  1.00  0.00     0.338 C 
ATOM     30  O   UNL A   1      32.754  34.312  28.087  1.00  0.00    -0.246 OA
BRANCH  29  31
ATOM     31  C   UNL A   1      34.551  32.773  28.248  1.00  0.00     0.060 A 
ATOM     32  C   UNL A   1      34.418  31.518  28.848  1.00  0.00     0.016 A 
ATOM     33  C   UNL A   1      35.783  33.431  28.263  1.00  0.00     0.016 A 
ATOM     34  C   UNL A   1      35.520  30.888  29.419  1.00  0.00     0.010 A 
ATOM     35  C   UNL A   1      36.885  32.816  28.872  1.00  0.00     0.010 A 
ATOM     36  C   UNL A   1      36.759  31.538  29.446  1.00  0.00    -0.014 A 
BRANCH  36  37
ATOM     37  C   UNL A   1      37.896  30.900  30.148  1.00  0.00     0.031 A 
ATOM     38  C   UNL A   1      38.165  31.244  31.583  1.00  0.00     0.074 A 
ATOM     39  C   UNL A   1      38.654  29.983  29.519  1.00  0.00     0.049 A 
ATOM     40  N   UNL A   1      39.114  30.814  32.376  1.00  0.00    -0.248 NA
ATOM     41  C   UNL A   1      37.234  32.192  32.215  1.00  0.00     0.031 C 
ATOM     42  C   UNL A   1      38.448  29.516  28.149  1.00  0.00     0.029 A 
ATOM     43  N   UNL A   1      39.749  29.280  29.955  1.00  0.00    -0.354 N 
ATOM     44  C   UNL A   1      38.898  31.440  33.595  1.00  0.00     0.074 A 
ATOM     45  C   UNL A   1      37.737  32.289  33.437  1.00  0.00     0.031 C 
ATOM     46  C   UNL A   1      39.394  28.607  27.853  1.00  0.00     0.029 A 
ATOM     47  C   UNL A   1      40.288  28.454  29.000  1.00  0.00     0.049 A 
ATOM     48  H   UNL A   1      40.113  29.361  30.866  1.00  0.00     0.167 HD
ATOM     49  C   UNL A   1      39.607  31.314  34.742  1.00  0.00     0.037 A 
ATOM     50  C   UNL A   1      41.390  27.681  29.044  1.00  0.00     0.037 A 
ATOM     51  C   UNL A   1      40.760  30.468  34.899  1.00  0.00     0.049 A 
ATOM     52  C   UNL A   1      42.215  27.639  30.305  1.00  0.00     0.074 A 
ATOM     53  C   UNL A   1      41.529  30.261  36.032  1.00  0.00     0.029 A 
ATOM     54  N   UNL A   1      41.315  29.695  33.891  1.00  0.00    -0.354 N 
ATOM     55  N   UNL A   1      41.993  28.215  31.460  1.00  0.00    -0.248 NA
ATOM     56  C   UNL A   1      43.449  26.841  30.263  1.00  0.00     0.031 C 
ATOM     57  C   UNL A   1      42.579  29.401  35.696  1.00  0.00     0.029 A 
ATOM     58  C   UNL A   1      42.437  29.036  34.367  1.00  0.00     0.049 A 
ATOM     59  H   UNL A   1      40.964  29.624  32.975  1.00  0.00     0.167 HD
ATOM     60  C   UNL A   1      43.037  27.827  32.289  1.00  0.00     0.074 A 
ATOM     61  C   UNL A   1      43.891  26.957  31.508  1.00  0.00     0.031 C 
ATOM     62  C   UNL A   1      43.269  28.161  33.582  1.00  0.00     0.037 A 
BRANCH  49  63
ATOM     63  C   UNL A   1      39.177  32.141  35.914  1.00  0.00     0.064 A 
ATOM     64  C   UNL A   1      38.301  31.641  36.887  1.00  0.00     0.173 A 
ATOM     65  C   UNL A   1      39.689  33.435  36.089  1.00  0.00     0.173 A 
ATOM     66  F   UNL A   1      37.774  30.414  36.755  1.00  0.00    -0.203 F 
ATOM     67  C   UNL A   1      37.943  32.412  37.990  1.00  0.00     0.198 A 
ATOM     68  C   UNL A   1      39.347  34.195  37.203  1.00  0.00     0.198 A 
ATOM     69  F   UNL A   1      40.534  33.956  35.186  1.00  0.00    -0.203 F 
ATOM     70  F   UNL A   1      37.080  31.928  38.894  1.00  0.00    -0.200 F 
ATOM     71  C   UNL A   1      38.472  33.685  38.150  1.00  0.00     0.200 A 
ATOM     72  F   UNL A   1      39.866  35.421  37.361  1.00  0.00    -0.200 F 
ATOM     73  F   UNL A   1      38.134  34.423  39.216  1.00  0.00    -0.200 F 
ENDBRANCH  49  63
BRANCH  50  74
ATOM     74  C   UNL A   1      41.806  26.900  27.851  1.00  0.00     0.064 A 
ATOM     75  C   UNL A   1      41.341  25.593  27.643  1.00  0.00     0.173 A 
ATOM     76  C   UNL A   1      42.719  27.422  26.922  1.00  0.00     0.173 A 
ATOM     77  F   UNL A   1      40.492  25.038  28.521  1.00  0.00    -0.203 F 
ATOM     78  C   UNL A   1      41.789  24.832  26.566  1.00  0.00     0.198 A 
ATOM     79  C   UNL A   1      43.146  26.669  25.831  1.00  0.00     0.198 A 
ATOM     80  F   UNL A   1      43.204  28.662  27.081  1.00  0.00    -0.203 F 
ATOM     81  F   UNL A   1      41.373  23.566  26.423  1.00  0.00    -0.200 F 
ATOM     82  C   UNL A   1      42.688  25.372  25.659  1.00  0.00     0.200 A 
ATOM     83  F   UNL A   1      44.013  27.196  24.954  1.00  0.00    -0.200 F 
ATOM     84  F   UNL A   1      43.127  24.636  24.628  1.00  0.00    -0.200 F 
ENDBRANCH  50  74
BRANCH  62  85
ATOM     85  C   UNL A   1      44.470  27.555  34.247  1.00  0.00     0.064 A 
ATOM     86  C   UNL A   1      45.699  28.227  34.299  1.00  0.00     0.173 A 
ATOM     87  C   UNL A   1      44.374  26.306  34.881  1.00  0.00     0.173 A 
ATOM     88  F   UNL A   1      45.843  29.416  33.695  1.00  0.00    -0.203 F 
ATOM     89  C   UNL A   1      46.797  27.661  34.943  1.00  0.00     0.198 A 
ATOM     90  C   UNL A   1      45.467  25.756  35.547  1.00  0.00     0.198 A 
ATOM     91  F   UNL A   1      43.219  25.625  34.866  1.00  0.00    -0.203 F 
ATOM     92  F   UNL A   1      47.973  28.302  34.944  1.00  0.00    -0.200 F 
ATOM     93  C   UNL A   1      46.677  26.430  35.572  1.00  0.00     0.200 A 
ATOM     94  F   UNL A   1      45.346  24.574  36.165  1.00  0.00    -0.200 F 
ATOM     95  F   UNL A   1      47.733  25.892  36.198  1.00  0.00    -0.200 F 
ENDBRANCH  62  85
ENDBRANCH  36  37
ENDBRANCH  29  31
ENDBRANCH  28  29
ENDBRANCH  27  28
ENDBRANCH   1  27
TORSDOF 16
ENDMDL
MODEL 2
REMARK VINA RESULT:     -12.1      5.125      8.027
REMARK SMILES NS(=O)(=O)c1ccc(/N=N/c2ccc(O)c(C(=O)OCCOC(=O)c3ccc(-c4c5nc(c(-c6c(F)c(F)c(F)c(F)c6F)c6ccc([nH]6)c(-c6c(F)c(F)c(F)c(F)c6F)c6nc(c(-c7c(F)c(F)c(F)c(F)c7F)c7ccc4[nH]7)C=C6)C=C5)cc3)c2)cc1
REMARK SMILES IDX 20 1 19 2 17 3 18 4 16 5 11 6 12 7 88 8 13 9 14 10 10 11
REMARK SMILES IDX 9 12 8 13 5 14 6 15 90 16 7 17 89 18 2 19 3 20 4 21 1 22
REMARK SMILES IDX 15 25 21 27 22 28 23 29 24 30 25 31 26 32 87 33 27 34 86 35
REMARK SMILES IDX 28 36 29 37 30 38 80 39 31 40 85 41 79 42 81 43 32 44 84 45
REMARK SMILES IDX 78 46 77 47 33 49 65 50 45 51 64 52 46 53 49 54 63 55 82 56
REMARK SMILES IDX 47 57 48 58 62 60 83 61 50 62 34 63 35 64 43 65 36 66 37 67
REMARK SMILES IDX 41 68 44 69 38 70 39 71 42 72 40 73 66 74 67 75 75 76 68 77
REMARK SMILES IDX 69 78 73 79 76 80 70 81 71 82 74 83 72 84 51 85 52 86 60 87
REMARK SMILES IDX 53 88 54 89 58 90 61 91 55 92 56 93 59 94 57 95
REMARK H PARENT 1 23 1 24 15 26 81 48 49 59
REMARK Flexibility Score: inf
ROOT
ATOM      1  C   UNL A   1      34.433  35.297  33.031  1.00  0.00     0.275 C 
ENDROOT
BRANCH   1   2
ATOM      2  O   UNL A   1      33.208  34.973  32.345  1.00  0.00    -0.458 OA
BRANCH   2   3
ATOM      3  C   UNL A   1      32.803  35.840  31.388  1.00  0.00     0.342 C 
ATOM      4  O   UNL A   1      32.098  36.827  31.551  1.00  0.00    -0.246 OA
BRANCH   3   5
ATOM      5  C   UNL A   1      33.404  35.525  30.070  1.00  0.00     0.104 A 
ATOM      6  C   UNL A   1      34.245  33.940  28.432  1.00  0.00     0.087 A 
ATOM      7  C   UNL A   1      34.655  35.004  27.620  1.00  0.00     0.034 A 
ATOM      8  C   UNL A   1      33.651  34.206  29.673  1.00  0.00     0.049 A 
ATOM      9  C   UNL A   1      34.403  36.321  28.002  1.00  0.00     0.049 A 
ATOM     10  C   UNL A   1      33.752  36.576  29.206  1.00  0.00     0.130 A 
BRANCH   6  11
ATOM     11  N   UNL A   1      34.387  32.616  27.977  1.00  0.00    -0.151 NA
ATOM     12  N   UNL A   1      33.243  32.161  27.764  1.00  0.00    -0.151 NA
BRANCH  12  13
ATOM     13  C   UNL A   1      33.237  30.853  27.251  1.00  0.00     0.086 A 
ATOM     14  C   UNL A   1      33.167  28.354  25.978  1.00  0.00     0.082 A 
ATOM     15  C   UNL A   1      32.071  29.214  25.878  1.00  0.00     0.024 A 
ATOM     16  C   UNL A   1      34.290  28.719  26.724  1.00  0.00     0.024 A 
ATOM     17  C   UNL A   1      32.115  30.458  26.509  1.00  0.00     0.031 A 
ATOM     18  C   UNL A   1      34.322  29.969  27.353  1.00  0.00     0.031 A 
BRANCH  14  19
ATOM     19  S   UNL A   1      33.082  26.812  25.120  1.00  0.00     0.238 S 
ATOM     20  O   UNL A   1      31.689  26.469  24.951  1.00  0.00    -0.207 OA
ATOM     21  O   UNL A   1      34.045  25.912  25.703  1.00  0.00    -0.207 OA
BRANCH  19  22
ATOM     22  N   UNL A   1      33.658  27.143  23.576  1.00  0.00    -0.225 NA
ATOM     23  H   UNL A   1      34.350  27.891  23.624  1.00  0.00     0.137 HD
ATOM     24  H   UNL A   1      32.884  27.434  22.980  1.00  0.00     0.137 HD
ENDBRANCH  19  22
ENDBRANCH  14  19
ENDBRANCH  12  13
ENDBRANCH   6  11
BRANCH  10  25
ATOM     25  O   UNL A   1      33.509  37.896  29.484  1.00  0.00    -0.507 OA
ATOM     26  H   UNL A   1      32.664  38.263  29.314  1.00  0.00     0.293 HD
ENDBRANCH  10  25
ENDBRANCH   3   5
ENDBRANCH   2   3
ENDBRANCH   1   2
BRANCH   1  27
ATOM     27  C   UNL A   1      34.943  34.106  33.846  1.00  0.00     0.275 C 
BRANCH  27  28
ATOM     28  O   UNL A   1      35.997  33.412  33.152  1.00  0.00    -0.458 OA
BRANCH  28  29
ATOM     29  C   UNL A   1      35.596  32.371  32.384  1.00  0.00     0.338 C 
ATOM     30  O   UNL A   1      34.452  32.009  32.172  1.00  0.00    -0.246 OA
BRANCH  29  31
ATOM     31  C   UNL A   1      36.759  31.821  31.661  1.00  0.00     0.060 A 
ATOM     32  C   UNL A   1      37.788  31.272  32.430  1.00  0.00     0.016 A 
ATOM     33  C   UNL A   1      36.859  31.842  30.267  1.00  0.00     0.016 A 
ATOM     34  C   UNL A   1      38.896  30.694  31.818  1.00  0.00     0.010 A 
ATOM     35  C   UNL A   1      37.993  31.296  29.650  1.00  0.00     0.010 A 
ATOM     36  C   UNL A   1      39.013  30.714  30.424  1.00  0.00    -0.014 A 
BRANCH  36  37
ATOM     37  C   UNL A   1      40.245  30.188  29.793  1.00  0.00     0.031 A 
ATOM     38  C   UNL A   1      41.436  31.087  29.636  1.00  0.00     0.074 A 
ATOM     39  C   UNL A   1      40.315  28.901  29.407  1.00  0.00     0.049 A 
ATOM     40  N   UNL A   1      42.602  30.834  29.099  1.00  0.00    -0.248 NA
ATOM     41  C   UNL A   1      41.298  32.454  30.164  1.00  0.00     0.031 C 
ATOM     42  C   UNL A   1      39.249  27.913  29.570  1.00  0.00     0.029 A 
ATOM     43  N   UNL A   1      41.330  28.206  28.798  1.00  0.00    -0.354 N 
ATOM     44  C   UNL A   1      43.335  32.005  29.219  1.00  0.00     0.074 A 
ATOM     45  C   UNL A   1      42.480  32.977  29.868  1.00  0.00     0.031 C 
ATOM     46  C   UNL A   1      39.665  26.738  29.066  1.00  0.00     0.029 A 
ATOM     47  C   UNL A   1      41.010  26.900  28.516  1.00  0.00     0.049 A 
ATOM     48  H   UNL A   1      42.204  28.605  28.584  1.00  0.00     0.167 HD
ATOM     49  C   UNL A   1      44.607  32.247  28.823  1.00  0.00     0.037 A 
ATOM     50  C   UNL A   1      41.718  25.955  27.869  1.00  0.00     0.037 A 
ATOM     51  C   UNL A   1      45.458  31.281  28.179  1.00  0.00     0.049 A 
ATOM     52  C   UNL A   1      43.095  26.285  27.352  1.00  0.00     0.074 A 
ATOM     53  C   UNL A   1      46.769  31.431  27.762  1.00  0.00     0.029 A 
ATOM     54  N   UNL A   1      45.078  29.989  27.852  1.00  0.00    -0.354 N 
ATOM     55  N   UNL A   1      43.790  27.387  27.489  1.00  0.00    -0.248 NA
ATOM     56  C   UNL A   1      43.783  25.237  26.585  1.00  0.00     0.031 C 
ATOM     57  C   UNL A   1      47.167  30.244  27.138  1.00  0.00     0.029 A 
ATOM     58  C   UNL A   1      46.118  29.341  27.208  1.00  0.00     0.049 A 
ATOM     59  H   UNL A   1      44.199  29.591  28.050  1.00  0.00     0.167 HD
ATOM     60  C   UNL A   1      45.003  27.156  26.855  1.00  0.00     0.074 A 
ATOM     61  C   UNL A   1      44.956  25.804  26.340  1.00  0.00     0.031 C 
ATOM     62  C   UNL A   1      46.063  27.989  26.712  1.00  0.00     0.037 A 
BRANCH  49  63
ATOM     63  C   UNL A   1      45.149  33.626  29.042  1.00  0.00     0.064 A 
ATOM     64  C   UNL A   1      44.976  34.644  28.095  1.00  0.00     0.173 A 
ATOM     65  C   UNL A   1      45.806  33.942  30.239  1.00  0.00     0.173 A 
ATOM     66  F   UNL A   1      44.365  34.385  26.928  1.00  0.00    -0.203 F 
ATOM     67  C   UNL A   1      45.454  35.930  28.334  1.00  0.00     0.198 A 
ATOM     68  C   UNL A   1      46.264  35.233  30.485  1.00  0.00     0.198 A 
ATOM     69  F   UNL A   1      45.993  33.001  31.178  1.00  0.00    -0.203 F 
ATOM     70  F   UNL A   1      45.307  36.883  27.403  1.00  0.00    -0.200 F 
ATOM     71  C   UNL A   1      46.091  36.225  29.531  1.00  0.00     0.200 A 
ATOM     72  F   UNL A   1      46.871  35.518  31.646  1.00  0.00    -0.200 F 
ATOM     73  F   UNL A   1      46.543  37.464  29.763  1.00  0.00    -0.200 F 
ENDBRANCH  49  63
BRANCH  50  74
ATOM     74  C   UNL A   1      41.135  24.607  27.640  1.00  0.00     0.064 A 
ATOM     75  C   UNL A   1      41.663  23.474  28.275  1.00  0.00     0.173 A 
ATOM     76  C   UNL A   1      40.075  24.417  26.741  1.00  0.00     0.173 A 
ATOM     77  F   UNL A   1      42.699  23.601  29.118  1.00  0.00    -0.203 F 
ATOM     78  C   UNL A   1      41.167  22.200  28.003  1.00  0.00     0.198 A 
ATOM     79  C   UNL A   1      39.563  23.147  26.491  1.00  0.00     0.198 A 
ATOM     80  F   UNL A   1      39.542  25.467  26.099  1.00  0.00    -0.203 F 
ATOM     81  F   UNL A   1      41.727  21.128  28.579  1.00  0.00    -0.200 F 
ATOM     82  C   UNL A   1      40.115  22.038  27.114  1.00  0.00     0.200 A 
ATOM     83  F   UNL A   1      38.544  22.995  25.633  1.00  0.00    -0.200 F 
ATOM     84  F   UNL A   1      39.645  20.812  26.845  1.00  0.00    -0.200 F 
ENDBRANCH  50  74
BRANCH  62  85
ATOM     85  C   UNL A   1      47.273  27.453  26.006  1.00  0.00     0.064 A 
ATOM     86  C   UNL A   1      47.424  27.568  24.616  1.00  0.00     0.173 A 
ATOM     87  C   UNL A   1      48.315  26.859  26.735  1.00  0.00     0.173 A 
ATOM     88  F   UNL A   1      46.449  28.115  23.875  1.00  0.00    -0.203 F 
ATOM     89  C   UNL A   1      48.565  27.088  23.979  1.00  0.00     0.198 A 
ATOM     90  C   UNL A   1      49.466  26.404  26.096  1.00  0.00     0.198 A 
ATOM     91  F   UNL A   1      48.223  26.731  28.066  1.00  0.00    -0.203 F 
ATOM     92  F   UNL A   1      48.670  27.170  22.646  1.00  0.00    -0.200 F 
ATOM     93  C   UNL A   1      49.588  26.513  24.720  1.00  0.00     0.200 A 
ATOM     94  F   UNL A   1      50.458  25.862  26.815  1.00  0.00    -0.200 F 
ATOM     95  F   UNL A   1      50.689  26.059  24.105  1.00  0.00    -0.200 F 
ENDBRANCH  62  85
ENDBRANCH  36  37
ENDBRANCH  29  31
ENDBRANCH  28  29
ENDBRANCH  27  28
ENDBRANCH   1  27
TORSDOF 16
ENDMDL
MODEL 3
REMARK VINA RESULT:     -12.1      3.542      8.863
REMARK SMILES NS(=O)(=O)c1ccc(/N=N/c2ccc(O)c(C(=O)OCCOC(=O)c3ccc(-c4c5nc(c(-c6c(F)c(F)c(F)c(F)c6F)c6ccc([nH]6)c(-c6c(F)c(F)c(F)c(F)c6F)c6nc(c(-c7c(F)c(F)c(F)c(F)c7F)c7ccc4[nH]7)C=C6)C=C5)cc3)c2)cc1
REMARK SMILES IDX 20 1 19 2 17 3 18 4 16 5 11 6 12 7 88 8 13 9 14 10 10 11
REMARK SMILES IDX 9 12 8 13 5 14 6 15 90 16 7 17 89 18 2 19 3 20 4 21 1 22
REMARK SMILES IDX 15 25 21 27 22 28 23 29 24 30 25 31 26 32 87 33 27 34 86 35
REMARK SMILES IDX 28 36 29 37 30 38 80 39 31 40 85 41 79 42 81 43 32 44 84 45
REMARK SMILES IDX 78 46 77 47 33 49 65 50 45 51 64 52 46 53 49 54 63 55 82 56
REMARK SMILES IDX 47 57 48 58 62 60 83 61 50 62 34 63 35 64 43 65 36 66 37 67
REMARK SMILES IDX 41 68 44 69 38 70 39 71 42 72 40 73 66 74 67 75 75 76 68 77
REMARK SMILES IDX 69 78 73 79 76 80 70 81 71 82 74 83 72 84 51 85 52 86 60 87
REMARK SMILES IDX 53 88 54 89 58 90 61 91 55 92 56 93 59 94 57 95
REMARK H PARENT 1 23 1 24 15 26 81 48 49 59
REMARK Flexibility Score: inf
ROOT
ATOM      1  C   UNL A   1      42.758  21.019  25.961  1.00  0.00     0.275 C 
ENDROOT
BRANCH   1   2
ATOM      2  O   UNL A   1      41.457  21.577  25.691  1.00  0.00    -0.458 OA
BRANCH   2   3
ATOM      3  C   UNL A   1      40.503  21.365  26.627  1.00  0.00     0.342 C 
ATOM      4  O   UNL A   1      40.677  21.260  27.834  1.00  0.00    -0.246 OA
BRANCH   3   5
ATOM      5  C   UNL A   1      39.143  21.371  26.037  1.00  0.00     0.104 A 
ATOM      6  C   UNL A   1      37.056  22.493  25.496  1.00  0.00     0.087 A 
ATOM      7  C   UNL A   1      36.537  21.284  25.017  1.00  0.00     0.034 A 
ATOM      8  C   UNL A   1      38.349  22.524  26.037  1.00  0.00     0.049 A 
ATOM      9  C   UNL A   1      37.324  20.134  25.002  1.00  0.00     0.049 A 
ATOM     10  C   UNL A   1      38.630  20.188  25.481  1.00  0.00     0.130 A 
BRANCH   6  11
ATOM     11  N   UNL A   1      36.299  23.673  25.386  1.00  0.00    -0.151 NA
ATOM     12  N   UNL A   1      35.418  23.482  24.520  1.00  0.00    -0.151 NA
BRANCH  12  13
ATOM     13  C   UNL A   1      34.548  24.571  24.343  1.00  0.00     0.086 A 
ATOM     14  C   UNL A   1      33.013  26.906  24.092  1.00  0.00     0.082 A 
ATOM     15  C   UNL A   1      33.569  26.571  25.328  1.00  0.00     0.024 A 
ATOM     16  C   UNL A   1      33.198  26.077  22.984  1.00  0.00     0.024 A 
ATOM     17  C   UNL A   1      34.337  25.411  25.445  1.00  0.00     0.031 A 
ATOM     18  C   UNL A   1      33.967  24.915  23.113  1.00  0.00     0.031 A 
BRANCH  14  19
ATOM     19  S   UNL A   1      32.093  28.410  23.985  1.00  0.00     0.238 S 
ATOM     20  O   UNL A   1      31.185  28.461  25.108  1.00  0.00    -0.207 OA
ATOM     21  O   UNL A   1      31.661  28.584  22.621  1.00  0.00    -0.207 OA
BRANCH  19  22
ATOM     22  N   UNL A   1      33.219  29.628  24.256  1.00  0.00    -0.225 NA
ATOM     23  H   UNL A   1      33.885  29.323  24.966  1.00  0.00     0.137 HD
ATOM     24  H   UNL A   1      32.740  30.469  24.576  1.00  0.00     0.137 HD
ENDBRANCH  19  22
ENDBRANCH  14  19
ENDBRANCH  12  13
ENDBRANCH   6  11
BRANCH  10  25
ATOM     25  O   UNL A   1      39.346  19.023  25.391  1.00  0.00    -0.507 OA
ATOM     26  H   UNL A   1      40.199  19.024  25.003  1.00  0.00     0.293 HD
ENDBRANCH  10  25
ENDBRANCH   3   5
ENDBRANCH   2   3
ENDBRANCH   1   2
BRANCH   1  27
ATOM     27  C   UNL A   1      43.866  21.866  25.327  1.00  0.00     0.275 C 
BRANCH  27  28
ATOM     28  O   UNL A   1      43.357  23.138  24.880  1.00  0.00    -0.458 OA
BRANCH  28  29
ATOM     29  C   UNL A   1      44.152  24.203  25.144  1.00  0.00     0.338 C 
ATOM     30  O   UNL A   1      45.123  24.575  24.507  1.00  0.00    -0.246 OA
BRANCH  29  31
ATOM     31  C   UNL A   1      43.560  24.994  26.240  1.00  0.00     0.060 A 
ATOM     32  C   UNL A   1      44.035  26.297  26.415  1.00  0.00     0.016 A 
ATOM     33  C   UNL A   1      42.573  24.487  27.088  1.00  0.00     0.016 A 
ATOM     34  C   UNL A   1      43.494  27.119  27.400  1.00  0.00     0.010 A 
ATOM     35  C   UNL A   1      42.055  25.299  28.105  1.00  0.00     0.010 A 
ATOM     36  C   UNL A   1      42.509  26.621  28.260  1.00  0.00    -0.014 A 
BRANCH  36  37
ATOM     37  C   UNL A   1      42.018  27.474  29.368  1.00  0.00     0.031 A 
ATOM     38  C   UNL A   1      42.742  27.466  30.681  1.00  0.00     0.074 A 
ATOM     39  C   UNL A   1      40.960  28.284  29.183  1.00  0.00     0.049 A 
ATOM     40  N   UNL A   1      42.470  28.122  31.782  1.00  0.00    -0.248 NA
ATOM     41  C   UNL A   1      43.938  26.614  30.766  1.00  0.00     0.031 C 
ATOM     42  C   UNL A   1      40.218  28.430  27.931  1.00  0.00     0.029 A 
ATOM     43  N   UNL A   1      40.329  29.139  30.051  1.00  0.00    -0.354 N 
ATOM     44  C   UNL A   1      43.456  27.760  32.688  1.00  0.00     0.074 A 
ATOM     45  C   UNL A   1      44.326  26.817  32.016  1.00  0.00     0.031 C 
ATOM     46  C   UNL A   1      39.225  29.318  28.116  1.00  0.00     0.029 A 
ATOM     47  C   UNL A   1      39.242  29.776  29.504  1.00  0.00     0.049 A 
ATOM     48  H   UNL A   1      40.626  29.282  30.979  1.00  0.00     0.167 HD
ATOM     49  C   UNL A   1      43.619  28.178  33.965  1.00  0.00     0.037 A 
ATOM     50  C   UNL A   1      38.353  30.614  30.069  1.00  0.00     0.037 A 
ATOM     51  C   UNL A   1      42.756  29.117  34.632  1.00  0.00     0.049 A 
ATOM     52  C   UNL A   1      38.505  30.985  31.523  1.00  0.00     0.074 A 
ATOM     53  C   UNL A   1      42.857  29.615  35.920  1.00  0.00     0.029 A 
ATOM     54  N   UNL A   1      41.628  29.691  34.067  1.00  0.00    -0.354 N 
ATOM     55  N   UNL A   1      39.452  30.656  32.367  1.00  0.00    -0.248 NA
ATOM     56  C   UNL A   1      37.458  31.839  32.102  1.00  0.00     0.031 C 
ATOM     57  C   UNL A   1      41.762  30.455  36.150  1.00  0.00     0.029 A 
ATOM     58  C   UNL A   1      41.005  30.514  34.991  1.00  0.00     0.049 A 
ATOM     59  H   UNL A   1      41.318  29.539  33.146  1.00  0.00     0.167 HD
ATOM     60  C   UNL A   1      39.133  31.286  33.563  1.00  0.00     0.074 A 
ATOM     61  C   UNL A   1      37.909  32.025  33.335  1.00  0.00     0.031 C 
ATOM     62  C   UNL A   1      39.795  31.255  34.746  1.00  0.00     0.037 A 
BRANCH  49  63
ATOM     63  C   UNL A   1      44.758  27.595  34.744  1.00  0.00     0.064 A 
ATOM     64  C   UNL A   1      44.618  26.408  35.477  1.00  0.00     0.173 A 
ATOM     65  C   UNL A   1      46.019  28.207  34.712  1.00  0.00     0.173 A 
ATOM     66  F   UNL A   1      43.427  25.795  35.548  1.00  0.00    -0.203 F 
ATOM     67  C   UNL A   1      45.699  25.862  36.163  1.00  0.00     0.198 A 
ATOM     68  C   UNL A   1      47.103  27.647  35.380  1.00  0.00     0.198 A 
ATOM     69  F   UNL A   1      46.203  29.342  34.021  1.00  0.00    -0.203 F 
ATOM     70  F   UNL A   1      45.539  24.743  36.884  1.00  0.00    -0.200 F 
ATOM     71  C   UNL A   1      46.942  26.477  36.108  1.00  0.00     0.200 A 
ATOM     72  F   UNL A   1      48.305  28.238  35.319  1.00  0.00    -0.200 F 
ATOM     73  F   UNL A   1      47.984  25.945  36.761  1.00  0.00    -0.200 F 
ENDBRANCH  49  63
BRANCH  50  74
ATOM     74  C   UNL A   1      37.216  31.148  29.276  1.00  0.00     0.064 A 
ATOM     75  C   UNL A   1      37.136  32.510  28.951  1.00  0.00     0.173 A 
ATOM     76  C   UNL A   1      36.158  30.319  28.874  1.00  0.00     0.173 A 
ATOM     77  F   UNL A   1      38.107  33.349  29.343  1.00  0.00    -0.203 F 
ATOM     78  C   UNL A   1      36.033  33.025  28.273  1.00  0.00     0.198 A 
ATOM     79  C   UNL A   1      35.069  30.830  28.173  1.00  0.00     0.198 A 
ATOM     80  F   UNL A   1      36.180  29.011  29.169  1.00  0.00    -0.203 F 
ATOM     81  F   UNL A   1      35.955  34.339  28.026  1.00  0.00    -0.200 F 
ATOM     82  C   UNL A   1      35.002  32.184  27.881  1.00  0.00     0.200 A 
ATOM     83  F   UNL A   1      34.076  30.013  27.793  1.00  0.00    -0.200 F 
ATOM     84  F   UNL A   1      33.937  32.681  27.238  1.00  0.00    -0.200 F 
ENDBRANCH  50  74
BRANCH  62  85
ATOM     85  C   UNL A   1      39.235  32.073  35.872  1.00  0.00     0.064 A 
ATOM     86  C   UNL A   1      39.543  33.433  36.017  1.00  0.00     0.173 A 
ATOM     87  C   UNL A   1      38.343  31.498  36.791  1.00  0.00     0.173 A 
ATOM     88  F   UNL A   1      40.402  34.023  35.172  1.00  0.00    -0.203 F 
ATOM     89  C   UNL A   1      38.995  34.184  37.053  1.00  0.00     0.198 A 
ATOM     90  C   UNL A   1      37.776  32.260  37.810  1.00  0.00     0.198 A 
ATOM     91  F   UNL A   1      38.011  30.203  36.693  1.00  0.00    -0.203 F 
ATOM     92  F   UNL A   1      39.336  35.472  37.197  1.00  0.00    -0.200 F 
ATOM     93  C   UNL A   1      38.107  33.599  37.944  1.00  0.00     0.200 A 
ATOM     94  F   UNL A   1      36.909  31.696  38.662  1.00  0.00    -0.200 F 
ATOM     95  F   UNL A   1      37.575  34.326  38.936  1.00  0.00    -0.200 F 
ENDBRANCH  62  85
ENDBRANCH  36  37
ENDBRANCH  29  31
ENDBRANCH  28  29
ENDBRANCH  27  28
ENDBRANCH   1  27
TORSDOF 16
ENDMDL
