MODEL 1
REMARK VINA RESULT:     -10.4      0.000      0.000
REMARK SMILES O=C(CNC(=O)OCc1ccccc1)NCC(=O)OCCOC(=O)c1ccc(-c2c3nc(c(-c4c(F)c(F)c(F)c(F)c4F)c4ccc([nH]4)c(-c4c(F)c(F)c(F)c(F)c4F)c4nc(c(-c5c(F)c(F)c(F)c(F)c5F)c5ccc2[nH]5)C=C4)C=C3)cc1
REMARK SMILES IDX 17 1 18 2 16 3 15 4 1 5 2 6 3 8 4 9 5 10 6 12 7 13 8 14 9 15
REMARK SMILES IDX 10 16 14 17 11 18 13 19 12 20 19 21 20 22 21 23 22 24 23 25
REMARK SMILES IDX 24 26 25 27 26 28 87 29 27 30 86 31 28 32 29 33 30 34 80 35
REMARK SMILES IDX 31 36 85 37 79 38 81 39 32 40 84 41 78 42 77 43 33 45 65 46
REMARK SMILES IDX 45 47 64 48 46 49 49 50 63 51 82 52 47 53 48 54 62 56 83 57
REMARK SMILES IDX 50 58 34 59 35 60 43 61 36 62 37 63 41 64 44 65 38 66 39 67
REMARK SMILES IDX 42 68 40 69 66 70 67 71 75 72 68 73 69 74 73 75 76 76 70 77
REMARK SMILES IDX 71 78 74 79 72 80 51 81 52 82 60 83 53 84 54 85 58 86 61 87
REMARK SMILES IDX 55 88 56 89 59 90 57 91
REMARK H PARENT 15 7 4 11 81 44 49 55
REMARK Flexibility Score: inf
ROOT
ATOM      1  C   UNL A   1      33.022  36.242  29.057  1.00  0.00     0.325 C 
ATOM      2  O   UNL A   1      33.336  37.347  28.630  1.00  0.00    -0.250 OA
ENDROOT
BRANCH   1   3
ATOM      3  C   UNL A   1      32.469  36.031  30.462  1.00  0.00     0.238 C 
BRANCH   3   4
ATOM      4  N   UNL A   1      33.385  36.348  31.541  1.00  0.00    -0.344 N 
ATOM      5  O   UNL A   1      31.777  36.925  33.065  1.00  0.00    -0.273 OA
ATOM      6  C   UNL A   1      32.953  36.704  32.798  1.00  0.00     0.240 C 
ATOM      7  H   UNL A   1      34.354  36.307  31.368  1.00  0.00     0.164 HD
BRANCH   6   8
ATOM      8  C   UNL A   1      34.073  36.854  33.825  1.00  0.00     0.219 C 
BRANCH   8   9
ATOM      9  N   UNL A   1      34.327  35.541  34.394  1.00  0.00    -0.312 N 
ATOM     10  C   UNL A   1      35.266  34.645  34.003  1.00  0.00     0.407 C 
ATOM     11  H   UNL A   1      33.753  35.272  35.146  1.00  0.00     0.167 HD
ATOM     12  O   UNL A   1      35.298  33.519  34.488  1.00  0.00    -0.225 OA
BRANCH  10  13
ATOM     13  O   UNL A   1      36.130  35.138  33.089  1.00  0.00    -0.445 OA
BRANCH  13  14
ATOM     14  C   UNL A   1      37.415  34.500  33.043  1.00  0.00     0.270 C 
BRANCH  14  15
ATOM     15  C   UNL A   1      37.834  34.213  31.620  1.00  0.00    -0.011 A 
ATOM     16  C   UNL A   1      37.063  33.383  30.792  1.00  0.00     0.007 A 
ATOM     17  C   UNL A   1      38.982  34.812  31.081  1.00  0.00     0.007 A 
ATOM     18  C   UNL A   1      37.441  33.134  29.473  1.00  0.00     0.000 A 
ATOM     19  C   UNL A   1      39.357  34.569  29.758  1.00  0.00     0.000 A 
ATOM     20  C   UNL A   1      38.590  33.727  28.955  1.00  0.00     0.000 A 
ENDBRANCH  14  15
ENDBRANCH  13  14
ENDBRANCH  10  13
ENDBRANCH   8   9
ENDBRANCH   6   8
ENDBRANCH   3   4
ENDBRANCH   1   3
BRANCH   1  21
ATOM     21  O   UNL A   1      33.137  35.077  28.363  1.00  0.00    -0.461 OA
BRANCH  21  22
ATOM     22  C   UNL A   1      33.988  34.066  28.930  1.00  0.00     0.274 C 
BRANCH  22  23
ATOM     23  C   UNL A   1      34.016  32.827  28.030  1.00  0.00     0.275 C 
BRANCH  23  24
ATOM     24  O   UNL A   1      34.374  31.636  28.757  1.00  0.00    -0.458 OA
BRANCH  24  25
ATOM     25  C   UNL A   1      34.590  30.535  28.001  1.00  0.00     0.338 C 
ATOM     26  O   UNL A   1      33.869  30.073  27.130  1.00  0.00    -0.246 OA
BRANCH  25  27
ATOM     27  C   UNL A   1      35.939  30.014  28.263  1.00  0.00     0.060 A 
ATOM     28  C   UNL A   1      36.198  29.502  29.536  1.00  0.00     0.016 A 
ATOM     29  C   UNL A   1      36.958  30.110  27.316  1.00  0.00     0.016 A 
ATOM     30  C   UNL A   1      37.487  29.116  29.884  1.00  0.00     0.010 A 
ATOM     31  C   UNL A   1      38.250  29.695  27.659  1.00  0.00     0.010 A 
ATOM     32  C   UNL A   1      38.526  29.212  28.951  1.00  0.00    -0.014 A 
BRANCH  32  33
ATOM     33  C   UNL A   1      39.905  28.832  29.348  1.00  0.00     0.031 A 
ATOM     34  C   UNL A   1      40.703  29.727  30.253  1.00  0.00     0.074 A 
ATOM     35  C   UNL A   1      40.426  27.670  28.914  1.00  0.00     0.049 A 
ATOM     36  N   UNL A   1      41.945  29.612  30.649  1.00  0.00    -0.248 NA
ATOM     37  C   UNL A   1      40.012  30.914  30.779  1.00  0.00     0.031 C 
ATOM     38  C   UNL A   1      39.732  26.698  28.069  1.00  0.00     0.029 A 
ATOM     39  N   UNL A   1      41.662  27.109  29.121  1.00  0.00    -0.354 N 
ATOM     40  C   UNL A   1      42.191  30.718  31.451  1.00  0.00     0.074 A 
ATOM     41  C   UNL A   1      40.979  31.508  31.464  1.00  0.00     0.031 C 
ATOM     42  C   UNL A   1      40.547  25.658  27.836  1.00  0.00     0.029 A 
ATOM     43  C   UNL A   1      41.839  25.918  28.463  1.00  0.00     0.049 A 
ATOM     44  H   UNL A   1      42.355  27.522  29.687  1.00  0.00     0.167 HD
ATOM     45  C   UNL A   1      43.326  31.038  32.122  1.00  0.00     0.037 A 
ATOM     46  C   UNL A   1      42.932  25.139  28.349  1.00  0.00     0.037 A 
ATOM     47  C   UNL A   1      44.523  30.237  32.111  1.00  0.00     0.049 A 
ATOM     48  C   UNL A   1      44.202  25.557  29.040  1.00  0.00     0.074 A 
ATOM     49  C   UNL A   1      45.719  30.464  32.769  1.00  0.00     0.029 A 
ATOM     50  N   UNL A   1      44.678  29.054  31.401  1.00  0.00    -0.354 N 
ATOM     51  N   UNL A   1      44.426  26.601  29.801  1.00  0.00    -0.248 NA
ATOM     52  C   UNL A   1      45.373  24.691  28.852  1.00  0.00     0.031 C 
ATOM     53  C   UNL A   1      46.617  29.453  32.408  1.00  0.00     0.029 A 
ATOM     54  C   UNL A   1      45.960  28.557  31.581  1.00  0.00     0.049 A 
ATOM     55  H   UNL A   1      43.980  28.630  30.851  1.00  0.00     0.167 HD
ATOM     56  C   UNL A   1      45.749  26.501  30.208  1.00  0.00     0.074 A 
ATOM     57  C   UNL A   1      46.274  25.285  29.621  1.00  0.00     0.031 C 
ATOM     58  C   UNL A   1      46.466  27.340  30.996  1.00  0.00     0.037 A 
BRANCH  45  59
ATOM     59  C   UNL A   1      43.338  32.326  32.895  1.00  0.00     0.064 A 
ATOM     60  C   UNL A   1      43.038  32.375  34.264  1.00  0.00     0.173 A 
ATOM     61  C   UNL A   1      43.693  33.528  32.261  1.00  0.00     0.173 A 
ATOM     62  F   UNL A   1      42.684  31.258  34.918  1.00  0.00    -0.203 F 
ATOM     63  C   UNL A   1      43.059  33.581  34.962  1.00  0.00     0.198 A 
ATOM     64  C   UNL A   1      43.746  34.726  32.968  1.00  0.00     0.198 A 
ATOM     65  F   UNL A   1      43.998  33.540  30.955  1.00  0.00    -0.203 F 
ATOM     66  F   UNL A   1      42.717  33.611  36.257  1.00  0.00    -0.200 F 
ATOM     67  C   UNL A   1      43.420  34.754  34.316  1.00  0.00     0.200 A 
ATOM     68  F   UNL A   1      44.111  35.855  32.345  1.00  0.00    -0.200 F 
ATOM     69  F   UNL A   1      43.448  35.912  34.990  1.00  0.00    -0.200 F 
ENDBRANCH  45  59
BRANCH  46  70
ATOM     70  C   UNL A   1      42.879  23.898  27.531  1.00  0.00     0.064 A 
ATOM     71  C   UNL A   1      42.491  22.676  28.095  1.00  0.00     0.173 A 
ATOM     72  C   UNL A   1      43.227  23.907  26.171  1.00  0.00     0.173 A 
ATOM     73  F   UNL A   1      42.171  22.611  29.396  1.00  0.00    -0.203 F 
ATOM     74  C   UNL A   1      42.473  21.506  27.337  1.00  0.00     0.198 A 
ATOM     75  C   UNL A   1      43.175  22.743  25.406  1.00  0.00     0.198 A 
ATOM     76  F   UNL A   1      43.606  25.050  25.581  1.00  0.00    -0.203 F 
ATOM     77  F   UNL A   1      42.149  20.342  27.916  1.00  0.00    -0.200 F 
ATOM     78  C   UNL A   1      42.809  21.542  25.993  1.00  0.00     0.200 A 
ATOM     79  F   UNL A   1      43.485  22.787  24.103  1.00  0.00    -0.200 F 
ATOM     80  F   UNL A   1      42.787  20.418  25.263  1.00  0.00    -0.200 F 
ENDBRANCH  46  70
BRANCH  58  81
ATOM     81  C   UNL A   1      47.883  26.949  31.309  1.00  0.00     0.064 A 
ATOM     82  C   UNL A   1      48.969  27.448  30.574  1.00  0.00     0.173 A 
ATOM     83  C   UNL A   1      48.159  26.092  32.386  1.00  0.00     0.173 A 
ATOM     84  F   UNL A   1      48.759  28.258  29.525  1.00  0.00    -0.203 F 
ATOM     85  C   UNL A   1      50.275  27.079  30.887  1.00  0.00     0.198 A 
ATOM     86  C   UNL A   1      49.467  25.755  32.718  1.00  0.00     0.198 A 
ATOM     87  F   UNL A   1      47.158  25.592  33.126  1.00  0.00    -0.203 F 
ATOM     88  F   UNL A   1      51.292  27.524  30.137  1.00  0.00    -0.200 F 
ATOM     89  C   UNL A   1      50.524  26.241  31.964  1.00  0.00     0.200 A 
ATOM     90  F   UNL A   1      49.706  24.958  33.769  1.00  0.00    -0.200 F 
ATOM     91  F   UNL A   1      51.782  25.896  32.269  1.00  0.00    -0.200 F 
ENDBRANCH  58  81
ENDBRANCH  32  33
ENDBRANCH  25  27
ENDBRANCH  24  25
ENDBRANCH  23  24
ENDBRANCH  22  23
ENDBRANCH  21  22
ENDBRANCH   1  21
TORSDOF 17
ENDMDL
MODEL 2
REMARK VINA RESULT:     -10.2      4.945     11.816
REMARK SMILES O=C(CNC(=O)OCc1ccccc1)NCC(=O)OCCOC(=O)c1ccc(-c2c3nc(c(-c4c(F)c(F)c(F)c(F)c4F)c4ccc([nH]4)c(-c4c(F)c(F)c(F)c(F)c4F)c4nc(c(-c5c(F)c(F)c(F)c(F)c5F)c5ccc2[nH]5)C=C4)C=C3)cc1
REMARK SMILES IDX 17 1 18 2 16 3 15 4 1 5 2 6 3 8 4 9 5 10 6 12 7 13 8 14 9 15
REMARK SMILES IDX 10 16 14 17 11 18 13 19 12 20 19 21 20 22 21 23 22 24 23 25
REMARK SMILES IDX 24 26 25 27 26 28 87 29 27 30 86 31 28 32 29 33 30 34 80 35
REMARK SMILES IDX 31 36 85 37 79 38 81 39 32 40 84 41 78 42 77 43 33 45 65 46
REMARK SMILES IDX 45 47 64 48 46 49 49 50 63 51 82 52 47 53 48 54 62 56 83 57
REMARK SMILES IDX 50 58 34 59 35 60 43 61 36 62 37 63 41 64 44 65 38 66 39 67
REMARK SMILES IDX 42 68 40 69 66 70 67 71 75 72 68 73 69 74 73 75 76 76 70 77
REMARK SMILES IDX 71 78 74 79 72 80 51 81 52 82 60 83 53 84 54 85 58 86 61 87
REMARK SMILES IDX 55 88 56 89 59 90 57 91
REMARK H PARENT 15 7 4 11 81 44 49 55
REMARK Flexibility Score: inf
ROOT
ATOM      1  C   UNL A   1      42.777  18.494  25.966  1.00  0.00     0.325 C 
ATOM      2  O   UNL A   1      42.312  17.380  25.751  1.00  0.00    -0.250 OA
ENDROOT
BRANCH   1   3
ATOM      3  C   UNL A   1      44.086  18.971  25.348  1.00  0.00     0.238 C 
BRANCH   3   4
ATOM      4  N   UNL A   1      44.029  20.268  24.701  1.00  0.00    -0.344 N 
ATOM      5  O   UNL A   1      46.069  21.001  25.440  1.00  0.00    -0.273 OA
ATOM      6  C   UNL A   1      45.074  21.162  24.740  1.00  0.00     0.240 C 
ATOM      7  H   UNL A   1      43.210  20.520  24.214  1.00  0.00     0.164 HD
BRANCH   6   8
ATOM      8  C   UNL A   1      44.868  22.404  23.876  1.00  0.00     0.219 C 
BRANCH   8   9
ATOM      9  N   UNL A   1      46.134  23.117  23.822  1.00  0.00    -0.312 N 
ATOM     10  C   UNL A   1      46.493  24.205  24.548  1.00  0.00     0.407 C 
ATOM     11  H   UNL A   1      46.803  22.772  23.189  1.00  0.00     0.167 HD
ATOM     12  O   UNL A   1      47.548  24.787  24.321  1.00  0.00    -0.225 OA
BRANCH  10  13
ATOM     13  O   UNL A   1      45.606  24.521  25.515  1.00  0.00    -0.445 OA
BRANCH  13  14
ATOM     14  C   UNL A   1      46.065  24.334  26.862  1.00  0.00     0.270 C 
BRANCH  14  15
ATOM     15  C   UNL A   1      44.943  23.883  27.767  1.00  0.00    -0.011 A 
ATOM     16  C   UNL A   1      45.135  23.761  29.152  1.00  0.00     0.007 A 
ATOM     17  C   UNL A   1      43.667  23.624  27.245  1.00  0.00     0.007 A 
ATOM     18  C   UNL A   1      44.091  23.363  29.988  1.00  0.00     0.000 A 
ATOM     19  C   UNL A   1      42.620  23.232  28.083  1.00  0.00     0.000 A 
ATOM     20  C   UNL A   1      42.833  23.097  29.454  1.00  0.00     0.000 A 
ENDBRANCH  14  15
ENDBRANCH  13  14
ENDBRANCH  10  13
ENDBRANCH   8   9
ENDBRANCH   6   8
ENDBRANCH   3   4
ENDBRANCH   1   3
BRANCH   1  21
ATOM     21  O   UNL A   1      42.214  19.430  26.778  1.00  0.00    -0.461 OA
BRANCH  21  22
ATOM     22  C   UNL A   1      40.825  19.729  26.556  1.00  0.00     0.274 C 
BRANCH  22  23
ATOM     23  C   UNL A   1      40.659  21.184  26.105  1.00  0.00     0.275 C 
BRANCH  23  24
ATOM     24  O   UNL A   1      39.697  21.894  26.909  1.00  0.00    -0.458 OA
BRANCH  24  25
ATOM     25  C   UNL A   1      38.996  22.855  26.263  1.00  0.00     0.338 C 
ATOM     26  O   UNL A   1      38.155  22.708  25.389  1.00  0.00    -0.246 OA
BRANCH  25  27
ATOM     27  C   UNL A   1      39.275  24.163  26.874  1.00  0.00     0.060 A 
ATOM     28  C   UNL A   1      40.014  25.081  26.126  1.00  0.00     0.016 A 
ATOM     29  C   UNL A   1      38.903  24.452  28.186  1.00  0.00     0.016 A 
ATOM     30  C   UNL A   1      40.421  26.281  26.697  1.00  0.00     0.010 A 
ATOM     31  C   UNL A   1      39.290  25.672  28.752  1.00  0.00     0.010 A 
ATOM     32  C   UNL A   1      40.066  26.587  28.016  1.00  0.00    -0.014 A 
BRANCH  32  33
ATOM     33  C   UNL A   1      40.538  27.856  28.627  1.00  0.00     0.031 A 
ATOM     34  C   UNL A   1      41.986  28.026  28.986  1.00  0.00     0.074 A 
ATOM     35  C   UNL A   1      39.667  28.860  28.832  1.00  0.00     0.049 A 
ATOM     36  N   UNL A   1      42.578  29.021  29.596  1.00  0.00    -0.248 NA
ATOM     37  C   UNL A   1      42.890  26.926  28.613  1.00  0.00     0.031 C 
ATOM     38  C   UNL A   1      38.246  28.829  28.483  1.00  0.00     0.029 A 
ATOM     39  N   UNL A   1      39.846  30.103  29.387  1.00  0.00    -0.354 N 
ATOM     40  C   UNL A   1      43.916  28.661  29.700  1.00  0.00     0.074 A 
ATOM     41  C   UNL A   1      44.044  27.343  29.114  1.00  0.00     0.031 C 
ATOM     42  C   UNL A   1      37.685  29.999  28.824  1.00  0.00     0.029 A 
ATOM     43  C   UNL A   1      38.690  30.837  29.469  1.00  0.00     0.049 A 
ATOM     44  H   UNL A   1      40.720  30.435  29.697  1.00  0.00     0.167 HD
ATOM     45  C   UNL A   1      44.942  29.372  30.229  1.00  0.00     0.037 A 
ATOM     46  C   UNL A   1      38.459  32.038  30.033  1.00  0.00     0.037 A 
ATOM     47  C   UNL A   1      44.804  30.688  30.798  1.00  0.00     0.049 A 
ATOM     48  C   UNL A   1      39.600  32.772  30.683  1.00  0.00     0.074 A 
ATOM     49  C   UNL A   1      45.783  31.499  31.344  1.00  0.00     0.029 A 
ATOM     50  N   UNL A   1      43.608  31.385  30.898  1.00  0.00    -0.354 N 
ATOM     51  N   UNL A   1      40.862  32.428  30.772  1.00  0.00    -0.248 NA
ATOM     52  C   UNL A   1      39.284  34.060  31.315  1.00  0.00     0.031 C 
ATOM     53  C   UNL A   1      45.171  32.659  31.831  1.00  0.00     0.029 A 
ATOM     54  C   UNL A   1      43.820  32.604  31.526  1.00  0.00     0.049 A 
ATOM     55  H   UNL A   1      42.737  31.063  30.571  1.00  0.00     0.167 HD
ATOM     56  C   UNL A   1      41.496  33.468  31.439  1.00  0.00     0.074 A 
ATOM     57  C   UNL A   1      40.480  34.463  31.719  1.00  0.00     0.031 C 
ATOM     58  C   UNL A   1      42.800  33.588  31.790  1.00  0.00     0.037 A 
BRANCH  45  59
ATOM     59  C   UNL A   1      46.299  28.726  30.249  1.00  0.00     0.064 A 
ATOM     60  C   UNL A   1      46.732  27.939  31.325  1.00  0.00     0.173 A 
ATOM     61  C   UNL A   1      47.167  28.870  29.154  1.00  0.00     0.173 A 
ATOM     62  F   UNL A   1      45.947  27.775  32.401  1.00  0.00    -0.203 F 
ATOM     63  C   UNL A   1      47.994  27.347  31.320  1.00  0.00     0.198 A 
ATOM     64  C   UNL A   1      48.412  28.250  29.137  1.00  0.00     0.198 A 
ATOM     65  F   UNL A   1      46.801  29.606  28.093  1.00  0.00    -0.203 F 
ATOM     66  F   UNL A   1      48.406  26.643  32.383  1.00  0.00    -0.200 F 
ATOM     67  C   UNL A   1      48.829  27.496  30.224  1.00  0.00     0.200 A 
ATOM     68  F   UNL A   1      49.211  28.382  28.069  1.00  0.00    -0.200 F 
ATOM     69  F   UNL A   1      50.040  26.920  30.217  1.00  0.00    -0.200 F 
ENDBRANCH  45  59
BRANCH  46  70
ATOM     70  C   UNL A   1      37.086  32.610  30.028  1.00  0.00     0.064 A 
ATOM     71  C   UNL A   1      36.659  33.459  28.998  1.00  0.00     0.173 A 
ATOM     72  C   UNL A   1      36.176  32.329  31.059  1.00  0.00     0.173 A 
ATOM     73  F   UNL A   1      37.499  33.776  28.002  1.00  0.00    -0.203 F 
ATOM     74  C   UNL A   1      35.384  34.022  29.009  1.00  0.00     0.198 A 
ATOM     75  C   UNL A   1      34.890  32.865  31.052  1.00  0.00     0.198 A 
ATOM     76  F   UNL A   1      36.532  31.523  32.070  1.00  0.00    -0.203 F 
ATOM     77  F   UNL A   1      35.022  34.871  28.039  1.00  0.00    -0.200 F 
ATOM     78  C   UNL A   1      34.499  33.719  30.032  1.00  0.00     0.200 A 
ATOM     79  F   UNL A   1      34.032  32.556  32.035  1.00  0.00    -0.200 F 
ATOM     80  F   UNL A   1      33.271  34.257  30.041  1.00  0.00    -0.200 F 
ENDBRANCH  46  70
BRANCH  58  81
ATOM     81  C   UNL A   1      43.216  34.860  32.474  1.00  0.00     0.064 A 
ATOM     82  C   UNL A   1      43.291  34.960  33.871  1.00  0.00     0.173 A 
ATOM     83  C   UNL A   1      43.579  35.984  31.715  1.00  0.00     0.173 A 
ATOM     84  F   UNL A   1      42.939  33.921  34.642  1.00  0.00    -0.203 F 
ATOM     85  C   UNL A   1      43.688  36.147  34.483  1.00  0.00     0.198 A 
ATOM     86  C   UNL A   1      44.010  37.156  32.330  1.00  0.00     0.198 A 
ATOM     87  F   UNL A   1      43.532  35.941  30.375  1.00  0.00    -0.203 F 
ATOM     88  F   UNL A   1      43.699  36.237  35.820  1.00  0.00    -0.200 F 
ATOM     89  C   UNL A   1      44.054  37.240  33.713  1.00  0.00     0.200 A 
ATOM     90  F   UNL A   1      44.380  38.206  31.583  1.00  0.00    -0.200 F 
ATOM     91  F   UNL A   1      44.445  38.377  34.304  1.00  0.00    -0.200 F 
ENDBRANCH  58  81
ENDBRANCH  32  33
ENDBRANCH  25  27
ENDBRANCH  24  25
ENDBRANCH  23  24
ENDBRANCH  22  23
ENDBRANCH  21  22
ENDBRANCH   1  21
TORSDOF 17
ENDMDL
MODEL 3
REMARK VINA RESULT:     -10.1      4.849     11.718
REMARK SMILES O=C(CNC(=O)OCc1ccccc1)NCC(=O)OCCOC(=O)c1ccc(-c2c3nc(c(-c4c(F)c(F)c(F)c(F)c4F)c4ccc([nH]4)c(-c4c(F)c(F)c(F)c(F)c4F)c4nc(c(-c5c(F)c(F)c(F)c(F)c5F)c5ccc2[nH]5)C=C4)C=C3)cc1
REMARK SMILES IDX 17 1 18 2 16 3 15 4 1 5 2 6 3 8 4 9 5 10 6 12 7 13 8 14 9 15
REMARK SMILES IDX 10 16 14 17 11 18 13 19 12 20 19 21 20 22 21 23 22 24 23 25
REMARK SMILES IDX 24 26 25 27 26 28 87 29 27 30 86 31 28 32 29 33 30 34 80 35
REMARK SMILES IDX 31 36 85 37 79 38 81 39 32 40 84 41 78 42 77 43 33 45 65 46
REMARK SMILES IDX 45 47 64 48 46 49 49 50 63 51 82 52 47 53 48 54 62 56 83 57
REMARK SMILES IDX 50 58 34 59 35 60 43 61 36 62 37 63 41 64 44 65 38 66 39 67
REMARK SMILES IDX 42 68 40 69 66 70 67 71 75 72 68 73 69 74 73 75 76 76 70 77
REMARK SMILES IDX 71 78 74 79 72 80 51 81 52 82 60 83 53 84 54 85 58 86 61 87
REMARK SMILES IDX 55 88 56 89 59 90 57 91
REMARK H PARENT 15 7 4 11 81 44 49 55
REMARK Flexibility Score: inf
ROOT
ATOM      1  C   UNL A   1      42.670  18.639  26.149  1.00  0.00     0.325 C 
ATOM      2  O   UNL A   1      42.664  17.863  27.098  1.00  0.00    -0.250 OA
ENDROOT
BRANCH   1   3
ATOM      3  C   UNL A   1      43.932  18.954  25.353  1.00  0.00     0.238 C 
BRANCH   3   4
ATOM      4  N   UNL A   1      43.948  20.252  24.706  1.00  0.00    -0.344 N 
ATOM      5  O   UNL A   1      46.057  20.836  25.380  1.00  0.00    -0.273 OA
ATOM      6  C   UNL A   1      45.055  21.068  24.711  1.00  0.00     0.240 C 
ATOM      7  H   UNL A   1      43.134  20.561  24.245  1.00  0.00     0.164 HD
BRANCH   6   8
ATOM      8  C   UNL A   1      44.912  22.322  23.852  1.00  0.00     0.219 C 
BRANCH   8   9
ATOM      9  N   UNL A   1      46.196  23.003  23.850  1.00  0.00    -0.312 N 
ATOM     10  C   UNL A   1      46.493  24.195  24.423  1.00  0.00     0.407 C 
ATOM     11  H   UNL A   1      46.931  22.547  23.381  1.00  0.00     0.167 HD
ATOM     12  O   UNL A   1      47.587  24.719  24.246  1.00  0.00    -0.225 OA
BRANCH  10  13
ATOM     13  O   UNL A   1      45.497  24.682  25.194  1.00  0.00    -0.445 OA
BRANCH  13  14
ATOM     14  C   UNL A   1      45.822  24.870  26.580  1.00  0.00     0.270 C 
BRANCH  14  15
ATOM     15  C   UNL A   1      44.833  24.164  27.476  1.00  0.00    -0.011 A 
ATOM     16  C   UNL A   1      45.147  23.874  28.813  1.00  0.00     0.007 A 
ATOM     17  C   UNL A   1      43.556  23.826  27.002  1.00  0.00     0.007 A 
ATOM     18  C   UNL A   1      44.224  23.239  29.645  1.00  0.00     0.000 A 
ATOM     19  C   UNL A   1      42.631  23.197  27.837  1.00  0.00     0.000 A 
ATOM     20  C   UNL A   1      42.965  22.899  29.157  1.00  0.00     0.000 A 
ENDBRANCH  14  15
ENDBRANCH  13  14
ENDBRANCH  10  13
ENDBRANCH   8   9
ENDBRANCH   6   8
ENDBRANCH   3   4
ENDBRANCH   1   3
BRANCH   1  21
ATOM     21  O   UNL A   1      41.586  19.325  25.697  1.00  0.00    -0.461 OA
BRANCH  21  22
ATOM     22  C   UNL A   1      40.878  20.127  26.659  1.00  0.00     0.274 C 
BRANCH  22  23
ATOM     23  C   UNL A   1      39.909  21.077  25.950  1.00  0.00     0.275 C 
BRANCH  23  24
ATOM     24  O   UNL A   1      39.317  22.026  26.859  1.00  0.00    -0.458 OA
BRANCH  24  25
ATOM     25  C   UNL A   1      38.802  23.139  26.286  1.00  0.00     0.338 C 
ATOM     26  O   UNL A   1      37.891  23.209  25.475  1.00  0.00    -0.246 OA
BRANCH  25  27
ATOM     27  C   UNL A   1      39.404  24.332  26.898  1.00  0.00     0.060 A 
ATOM     28  C   UNL A   1      39.172  24.548  28.258  1.00  0.00     0.016 A 
ATOM     29  C   UNL A   1      40.102  25.271  26.139  1.00  0.00     0.016 A 
ATOM     30  C   UNL A   1      39.604  25.722  28.862  1.00  0.00     0.010 A 
ATOM     31  C   UNL A   1      40.560  26.441  26.755  1.00  0.00     0.010 A 
ATOM     32  C   UNL A   1      40.298  26.682  28.117  1.00  0.00    -0.014 A 
BRANCH  32  33
ATOM     33  C   UNL A   1      40.721  27.949  28.765  1.00  0.00     0.031 A 
ATOM     34  C   UNL A   1      42.148  28.134  29.198  1.00  0.00     0.074 A 
ATOM     35  C   UNL A   1      39.827  28.938  28.940  1.00  0.00     0.049 A 
ATOM     36  N   UNL A   1      42.695  29.129  29.849  1.00  0.00    -0.248 NA
ATOM     37  C   UNL A   1      43.084  27.052  28.856  1.00  0.00     0.031 C 
ATOM     38  C   UNL A   1      38.425  28.892  28.521  1.00  0.00     0.029 A 
ATOM     39  N   UNL A   1      39.961  30.176  29.518  1.00  0.00    -0.354 N 
ATOM     40  C   UNL A   1      44.030  28.786  30.014  1.00  0.00     0.074 A 
ATOM     41  C   UNL A   1      44.206  27.478  29.419  1.00  0.00     0.031 C 
ATOM     42  C   UNL A   1      37.831  30.050  28.848  1.00  0.00     0.029 A 
ATOM     43  C   UNL A   1      38.791  30.893  29.553  1.00  0.00     0.049 A 
ATOM     44  H   UNL A   1      40.813  30.516  29.875  1.00  0.00     0.167 HD
ATOM     45  C   UNL A   1      45.019  29.504  30.602  1.00  0.00     0.037 A 
ATOM     46  C   UNL A   1      38.515  32.083  30.120  1.00  0.00     0.037 A 
ATOM     47  C   UNL A   1      44.834  30.811  31.180  1.00  0.00     0.049 A 
ATOM     48  C   UNL A   1      39.613  32.824  30.834  1.00  0.00     0.074 A 
ATOM     49  C   UNL A   1      45.773  31.628  31.784  1.00  0.00     0.029 A 
ATOM     50  N   UNL A   1      43.624  31.490  31.230  1.00  0.00    -0.354 N 
ATOM     51  N   UNL A   1      40.874  32.496  30.981  1.00  0.00    -0.248 NA
ATOM     52  C   UNL A   1      39.247  34.099  31.466  1.00  0.00     0.031 C 
ATOM     53  C   UNL A   1      45.121  32.773  32.255  1.00  0.00     0.029 A 
ATOM     54  C   UNL A   1      43.788  32.703  31.882  1.00  0.00     0.049 A 
ATOM     55  H   UNL A   1      42.775  31.160  30.856  1.00  0.00     0.167 HD
ATOM     56  C   UNL A   1      41.458  33.536  31.692  1.00  0.00     0.074 A 
ATOM     57  C   UNL A   1      40.416  34.513  31.934  1.00  0.00     0.031 C 
ATOM     58  C   UNL A   1      42.743  33.669  32.108  1.00  0.00     0.037 A 
BRANCH  45  59
ATOM     59  C   UNL A   1      46.382  28.877  30.681  1.00  0.00     0.064 A 
ATOM     60  C   UNL A   1      47.333  29.034  29.662  1.00  0.00     0.173 A 
ATOM     61  C   UNL A   1      46.756  28.136  31.814  1.00  0.00     0.173 A 
ATOM     62  F   UNL A   1      47.027  29.725  28.553  1.00  0.00    -0.203 F 
ATOM     63  C   UNL A   1      48.593  28.446  29.759  1.00  0.00     0.198 A 
ATOM     64  C   UNL A   1      48.026  27.579  31.922  1.00  0.00     0.198 A 
ATOM     65  F   UNL A   1      45.889  27.960  32.823  1.00  0.00    -0.203 F 
ATOM     66  F   UNL A   1      49.466  28.566  28.749  1.00  0.00    -0.200 F 
ATOM     67  C   UNL A   1      48.941  27.726  30.891  1.00  0.00     0.200 A 
ATOM     68  F   UNL A   1      48.365  26.897  33.026  1.00  0.00    -0.200 F 
ATOM     69  F   UNL A   1      50.156  27.167  30.986  1.00  0.00    -0.200 F 
ENDBRANCH  45  59
BRANCH  46  70
ATOM     70  C   UNL A   1      37.136  32.636  30.054  1.00  0.00     0.064 A 
ATOM     71  C   UNL A   1      36.231  32.450  31.107  1.00  0.00     0.173 A 
ATOM     72  C   UNL A   1      36.691  33.353  28.932  1.00  0.00     0.173 A 
ATOM     73  F   UNL A   1      36.601  31.753  32.191  1.00  0.00    -0.203 F 
ATOM     74  C   UNL A   1      34.928  32.939  31.032  1.00  0.00     0.198 A 
ATOM     75  C   UNL A   1      35.399  33.871  28.873  1.00  0.00     0.198 A 
ATOM     76  F   UNL A   1      37.517  33.560  27.895  1.00  0.00    -0.203 F 
ATOM     77  F   UNL A   1      34.068  32.700  32.031  1.00  0.00    -0.200 F 
ATOM     78  C   UNL A   1      34.515  33.654  29.919  1.00  0.00     0.200 A 
ATOM     79  F   UNL A   1      35.011  34.576  27.801  1.00  0.00    -0.200 F 
ATOM     80  F   UNL A   1      33.264  34.128  29.849  1.00  0.00    -0.200 F 
ENDBRANCH  46  70
BRANCH  58  81
ATOM     81  C   UNL A   1      43.105  34.938  32.827  1.00  0.00     0.064 A 
ATOM     82  C   UNL A   1      43.513  36.090  32.139  1.00  0.00     0.173 A 
ATOM     83  C   UNL A   1      43.006  35.011  34.226  1.00  0.00     0.173 A 
ATOM     84  F   UNL A   1      43.640  36.069  30.803  1.00  0.00    -0.203 F 
ATOM     85  C   UNL A   1      43.835  37.258  32.825  1.00  0.00     0.198 A 
ATOM     86  C   UNL A   1      43.294  36.190  34.905  1.00  0.00     0.198 A 
ATOM     87  F   UNL A   1      42.614  33.940  34.933  1.00  0.00    -0.203 F 
ATOM     88  F   UNL A   1      44.275  38.329  32.151  1.00  0.00    -0.200 F 
ATOM     89  C   UNL A   1      43.718  37.310  34.207  1.00  0.00     0.200 A 
ATOM     90  F   UNL A   1      43.163  36.243  36.238  1.00  0.00    -0.200 F 
ATOM     91  F   UNL A   1      44.019  38.438  34.864  1.00  0.00    -0.200 F 
ENDBRANCH  58  81
ENDBRANCH  32  33
ENDBRANCH  25  27
ENDBRANCH  24  25
ENDBRANCH  23  24
ENDBRANCH  22  23
ENDBRANCH  21  22
ENDBRANCH   1  21
TORSDOF 17
ENDMDL
