MODEL 1
REMARK VINA RESULT:     -10.6      0.000      0.000
REMARK SMILES C[N@H+](CC(=O)OCCOC(=O)c1ccc(-c2c3nc(c(-c4c(F)c(F)c(F)c(F)c4F)c4ccc([nH]4)c(-c4c(F)c(F)c(F)c(F)c4F)c4nc(c(-c5c(F)c(F)c(F)c(F)c5F)c5ccc2[nH]5)C=C4)C=C3)cc1)Cc1cccc2c1OCCO2
REMARK SMILES IDX 7 1 6 2 4 3 5 4 3 5 2 6 1 7 75 9 76 10 77 11 81 12 78 13
REMARK SMILES IDX 80 14 82 15 79 16 85 17 83 18 84 19 8 20 9 21 10 22 11 23
REMARK SMILES IDX 12 24 13 25 74 26 14 27 73 28 15 29 16 30 17 31 67 32 18 33
REMARK SMILES IDX 72 34 66 35 68 36 19 37 71 38 65 39 64 40 20 42 52 43 32 44
REMARK SMILES IDX 51 45 33 46 36 47 50 48 69 49 34 50 35 51 49 53 70 54 37 55
REMARK SMILES IDX 21 56 22 57 30 58 23 59 24 60 28 61 31 62 25 63 26 64 29 65
REMARK SMILES IDX 27 66 53 67 54 68 62 69 55 70 56 71 60 72 63 73 57 74 58 75
REMARK SMILES IDX 61 76 59 77 38 78 39 79 47 80 40 81 41 82 45 83 48 84 42 85
REMARK SMILES IDX 43 86 46 87 44 88
REMARK H PARENT 2 8 68 41 36 52
REMARK Flexibility Score: inf
ROOT
ATOM      1  C   UNL A   1      33.805  34.013  28.297  1.00  0.00     0.274 C 
ENDROOT
BRANCH   1   2
ATOM      2  O   UNL A   1      32.741  34.567  29.091  1.00  0.00    -0.458 OA
BRANCH   2   3
ATOM      3  C   UNL A   1      32.907  35.858  29.487  1.00  0.00     0.361 C 
ATOM      4  O   UNL A   1      33.274  36.770  28.750  1.00  0.00    -0.245 OA
BRANCH   3   5
ATOM      5  C   UNL A   1      32.639  36.098  30.969  1.00  0.00     0.386 C 
BRANCH   5   6
ATOM      6  N   UNL A   1      33.825  35.916  31.823  1.00  0.00    -0.324 N 
ATOM      7  C   UNL A   1      34.028  37.045  32.719  1.00  0.00     0.333 C 
ATOM      8  H   UNL A   1      34.620  35.894  31.184  1.00  0.00     0.348 HD
BRANCH   6   9
ATOM      9  C   UNL A   1      33.879  34.615  32.516  1.00  0.00     0.303 C 
BRANCH   9  10
ATOM     10  C   UNL A   1      35.239  34.324  33.125  1.00  0.00     0.052 A 
ATOM     11  C   UNL A   1      35.392  34.163  34.516  1.00  0.00     0.014 A 
ATOM     12  C   UNL A   1      36.375  34.164  32.312  1.00  0.00     0.170 A 
ATOM     13  C   UNL A   1      36.641  33.915  35.085  1.00  0.00     0.005 A 
ATOM     14  C   UNL A   1      37.636  33.950  32.896  1.00  0.00     0.161 A 
ATOM     15  O   UNL A   1      36.205  34.246  30.947  1.00  0.00    -0.486 OA
ATOM     16  C   UNL A   1      37.766  33.817  34.275  1.00  0.00     0.050 A 
ATOM     17  O   UNL A   1      38.803  33.873  32.171  1.00  0.00    -0.486 OA
ATOM     18  C   UNL A   1      37.377  33.827  30.236  1.00  0.00     0.271 C 
ATOM     19  C   UNL A   1      38.621  34.424  30.866  1.00  0.00     0.271 C 
ENDBRANCH   9  10
ENDBRANCH   6   9
ENDBRANCH   5   6
ENDBRANCH   3   5
ENDBRANCH   2   3
ENDBRANCH   1   2
BRANCH   1  20
ATOM     20  C   UNL A   1      34.104  32.576  28.708  1.00  0.00     0.275 C 
BRANCH  20  21
ATOM     21  O   UNL A   1      34.769  31.886  27.635  1.00  0.00    -0.458 OA
BRANCH  21  22
ATOM     22  C   UNL A   1      34.767  30.540  27.745  1.00  0.00     0.338 C 
ATOM     23  O   UNL A   1      33.818  29.789  27.603  1.00  0.00    -0.246 OA
BRANCH  22  24
ATOM     24  C   UNL A   1      36.078  30.041  28.189  1.00  0.00     0.060 A 
ATOM     25  C   UNL A   1      36.328  29.644  29.504  1.00  0.00     0.016 A 
ATOM     26  C   UNL A   1      37.115  30.079  27.252  1.00  0.00     0.016 A 
ATOM     27  C   UNL A   1      37.632  29.325  29.890  1.00  0.00     0.010 A 
ATOM     28  C   UNL A   1      38.406  29.720  27.626  1.00  0.00     0.010 A 
ATOM     29  C   UNL A   1      38.677  29.358  28.953  1.00  0.00    -0.014 A 
BRANCH  29  30
ATOM     30  C   UNL A   1      40.048  28.946  29.327  1.00  0.00     0.031 A 
ATOM     31  C   UNL A   1      40.933  29.845  30.138  1.00  0.00     0.074 A 
ATOM     32  C   UNL A   1      40.506  27.765  28.875  1.00  0.00     0.049 A 
ATOM     33  N   UNL A   1      42.184  29.678  30.488  1.00  0.00    -0.248 NA
ATOM     34  C   UNL A   1      40.339  31.104  30.613  1.00  0.00     0.031 C 
ATOM     35  C   UNL A   1      39.735  26.823  28.063  1.00  0.00     0.029 A 
ATOM     36  N   UNL A   1      41.726  27.162  29.023  1.00  0.00    -0.354 N 
ATOM     37  C   UNL A   1      42.530  30.807  31.216  1.00  0.00     0.074 A 
ATOM     38  C   UNL A   1      41.364  31.665  31.244  1.00  0.00     0.031 C 
ATOM     39  C   UNL A   1      40.497  25.754  27.792  1.00  0.00     0.029 A 
ATOM     40  C   UNL A   1      41.818  25.954  28.379  1.00  0.00     0.049 A 
ATOM     41  H   UNL A   1      42.465  27.556  29.541  1.00  0.00     0.167 HD
ATOM     42  C   UNL A   1      43.716  31.093  31.806  1.00  0.00     0.037 A 
ATOM     43  C   UNL A   1      42.857  25.110  28.261  1.00  0.00     0.037 A 
ATOM     44  C   UNL A   1      44.869  30.229  31.778  1.00  0.00     0.049 A 
ATOM     45  C   UNL A   1      44.158  25.454  28.922  1.00  0.00     0.074 A 
ATOM     46  C   UNL A   1      46.107  30.417  32.370  1.00  0.00     0.029 A 
ATOM     47  N   UNL A   1      44.926  29.010  31.117  1.00  0.00    -0.354 N 
ATOM     48  N   UNL A   1      44.471  26.517  29.622  1.00  0.00    -0.248 NA
ATOM     49  C   UNL A   1      45.250  24.482  28.778  1.00  0.00     0.031 C 
ATOM     50  C   UNL A   1      46.921  29.325  32.044  1.00  0.00     0.029 A 
ATOM     51  C   UNL A   1      46.180  28.442  31.275  1.00  0.00     0.049 A 
ATOM     52  H   UNL A   1      44.183  28.609  30.611  1.00  0.00     0.167 HD
ATOM     53  C   UNL A   1      45.792  26.344  30.006  1.00  0.00     0.074 A 
ATOM     54  C   UNL A   1      46.214  25.061  29.478  1.00  0.00     0.031 C 
ATOM     55  C   UNL A   1      46.584  27.173  30.726  1.00  0.00     0.037 A 
BRANCH  42  56
ATOM     56  C   UNL A   1      43.837  32.400  32.531  1.00  0.00     0.064 A 
ATOM     57  C   UNL A   1      44.255  33.567  31.873  1.00  0.00     0.173 A 
ATOM     58  C   UNL A   1      43.468  32.503  33.882  1.00  0.00     0.173 A 
ATOM     59  F   UNL A   1      44.628  33.518  30.586  1.00  0.00    -0.203 F 
ATOM     60  C   UNL A   1      44.309  34.786  32.546  1.00  0.00     0.198 A 
ATOM     61  C   UNL A   1      43.507  33.727  34.544  1.00  0.00     0.198 A 
ATOM     62  F   UNL A   1      43.058  31.417  34.554  1.00  0.00    -0.203 F 
ATOM     63  F   UNL A   1      44.735  35.884  31.904  1.00  0.00    -0.200 F 
ATOM     64  C   UNL A   1      43.929  34.866  33.876  1.00  0.00     0.200 A 
ATOM     65  F   UNL A   1      43.132  33.805  35.829  1.00  0.00    -0.200 F 
ATOM     66  F   UNL A   1      43.974  36.043  34.518  1.00  0.00    -0.200 F 
ENDBRANCH  42  56
BRANCH  43  67
ATOM     67  C   UNL A   1      42.686  23.855  27.491  1.00  0.00     0.064 A 
ATOM     68  C   UNL A   1      43.031  23.794  26.135  1.00  0.00     0.173 A 
ATOM     69  C   UNL A   1      42.229  22.683  28.108  1.00  0.00     0.173 A 
ATOM     70  F   UNL A   1      43.456  24.897  25.503  1.00  0.00    -0.203 F 
ATOM     71  C   UNL A   1      42.923  22.602  25.423  1.00  0.00     0.198 A 
ATOM     72  C   UNL A   1      42.142  21.488  27.400  1.00  0.00     0.198 A 
ATOM     73  F   UNL A   1      41.894  22.695  29.407  1.00  0.00    -0.203 F 
ATOM     74  F   UNL A   1      43.240  22.573  24.121  1.00  0.00    -0.200 F 
ATOM     75  C   UNL A   1      42.487  21.449  26.057  1.00  0.00     0.200 A 
ATOM     76  F   UNL A   1      41.734  20.372  28.020  1.00  0.00    -0.200 F 
ATOM     77  F   UNL A   1      42.399  20.299  25.375  1.00  0.00    -0.200 F 
ENDBRANCH  43  67
BRANCH  55  78
ATOM     78  C   UNL A   1      47.986  26.710  30.977  1.00  0.00     0.064 A 
ATOM     79  C   UNL A   1      49.029  27.045  30.102  1.00  0.00     0.173 A 
ATOM     80  C   UNL A   1      48.287  25.921  32.097  1.00  0.00     0.173 A 
ATOM     81  F   UNL A   1      48.781  27.781  29.008  1.00  0.00    -0.203 F 
ATOM     82  C   UNL A   1      50.322  26.583  30.325  1.00  0.00     0.198 A 
ATOM     83  C   UNL A   1      49.586  25.478  32.327  1.00  0.00     0.198 A 
ATOM     84  F   UNL A   1      47.322  25.577  32.960  1.00  0.00    -0.203 F 
ATOM     85  F   UNL A   1      51.297  26.875  29.452  1.00  0.00    -0.200 F 
ATOM     86  C   UNL A   1      50.601  25.803  31.438  1.00  0.00     0.200 A 
ATOM     87  F   UNL A   1      49.856  24.727  33.403  1.00  0.00    -0.200 F 
ATOM     88  F   UNL A   1      51.846  25.353  31.647  1.00  0.00    -0.200 F 
ENDBRANCH  55  78
ENDBRANCH  29  30
ENDBRANCH  22  24
ENDBRANCH  21  22
ENDBRANCH  20  21
ENDBRANCH   1  20
TORSDOF 14
ENDMDL
MODEL 2
REMARK VINA RESULT:     -10.4      4.160      9.793
REMARK SMILES C[N@H+](CC(=O)OCCOC(=O)c1ccc(-c2c3nc(c(-c4c(F)c(F)c(F)c(F)c4F)c4ccc([nH]4)c(-c4c(F)c(F)c(F)c(F)c4F)c4nc(c(-c5c(F)c(F)c(F)c(F)c5F)c5ccc2[nH]5)C=C4)C=C3)cc1)Cc1cccc2c1OCCO2
REMARK SMILES IDX 7 1 6 2 4 3 5 4 3 5 2 6 1 7 75 9 76 10 77 11 81 12 78 13
REMARK SMILES IDX 80 14 82 15 79 16 85 17 83 18 84 19 8 20 9 21 10 22 11 23
REMARK SMILES IDX 12 24 13 25 74 26 14 27 73 28 15 29 16 30 17 31 67 32 18 33
REMARK SMILES IDX 72 34 66 35 68 36 19 37 71 38 65 39 64 40 20 42 52 43 32 44
REMARK SMILES IDX 51 45 33 46 36 47 50 48 69 49 34 50 35 51 49 53 70 54 37 55
REMARK SMILES IDX 21 56 22 57 30 58 23 59 24 60 28 61 31 62 25 63 26 64 29 65
REMARK SMILES IDX 27 66 53 67 54 68 62 69 55 70 56 71 60 72 63 73 57 74 58 75
REMARK SMILES IDX 61 76 59 77 38 78 39 79 47 80 40 81 41 82 45 83 48 84 42 85
REMARK SMILES IDX 43 86 46 87 44 88
REMARK H PARENT 2 8 68 41 36 52
REMARK Flexibility Score: inf
ROOT
ATOM      1  C   UNL A   1      31.685  28.660  26.449  1.00  0.00     0.274 C 
ENDROOT
BRANCH   1   2
ATOM      2  O   UNL A   1      32.888  27.875  26.389  1.00  0.00    -0.458 OA
BRANCH   2   3
ATOM      3  C   UNL A   1      32.773  26.658  25.792  1.00  0.00     0.361 C 
ATOM      4  O   UNL A   1      32.281  25.666  26.325  1.00  0.00    -0.245 OA
BRANCH   3   5
ATOM      5  C   UNL A   1      33.352  26.593  24.383  1.00  0.00     0.386 C 
BRANCH   5   6
ATOM      6  N   UNL A   1      32.832  27.634  23.480  1.00  0.00    -0.324 N 
ATOM      7  C   UNL A   1      33.901  28.441  22.908  1.00  0.00     0.333 C 
ATOM      8  H   UNL A   1      32.274  28.251  24.070  1.00  0.00     0.348 HD
BRANCH   6   9
ATOM      9  C   UNL A   1      31.881  27.139  22.467  1.00  0.00     0.303 C 
BRANCH   9  10
ATOM     10  C   UNL A   1      30.432  27.270  22.900  1.00  0.00     0.052 A 
ATOM     11  C   UNL A   1      29.819  26.278  23.689  1.00  0.00     0.014 A 
ATOM     12  C   UNL A   1      29.677  28.407  22.562  1.00  0.00     0.170 A 
ATOM     13  C   UNL A   1      28.482  26.381  24.074  1.00  0.00     0.005 A 
ATOM     14  C   UNL A   1      28.321  28.487  22.923  1.00  0.00     0.161 A 
ATOM     15  O   UNL A   1      30.307  29.409  21.855  1.00  0.00    -0.486 OA
ATOM     16  C   UNL A   1      27.730  27.483  23.684  1.00  0.00     0.050 A 
ATOM     17  O   UNL A   1      27.498  29.524  22.552  1.00  0.00    -0.486 OA
ATOM     18  C   UNL A   1      29.510  30.598  21.789  1.00  0.00     0.271 C 
ATOM     19  C   UNL A   1      28.069  30.253  21.464  1.00  0.00     0.271 C 
ENDBRANCH   9  10
ENDBRANCH   6   9
ENDBRANCH   5   6
ENDBRANCH   3   5
ENDBRANCH   2   3
ENDBRANCH   1   2
BRANCH   1  20
ATOM     20  C   UNL A   1      31.920  30.066  25.907  1.00  0.00     0.275 C 
BRANCH  20  21
ATOM     21  O   UNL A   1      33.286  30.457  26.130  1.00  0.00    -0.458 OA
BRANCH  21  22
ATOM     22  C   UNL A   1      33.454  31.399  27.083  1.00  0.00     0.338 C 
ATOM     23  O   UNL A   1      32.769  32.388  27.270  1.00  0.00    -0.246 OA
BRANCH  22  24
ATOM     24  C   UNL A   1      34.683  31.161  27.855  1.00  0.00     0.060 A 
ATOM     25  C   UNL A   1      35.686  32.122  27.991  1.00  0.00     0.016 A 
ATOM     26  C   UNL A   1      34.863  29.874  28.371  1.00  0.00     0.016 A 
ATOM     27  C   UNL A   1      36.891  31.779  28.610  1.00  0.00     0.010 A 
ATOM     28  C   UNL A   1      36.045  29.544  29.026  1.00  0.00     0.010 A 
ATOM     29  C   UNL A   1      37.075  30.489  29.133  1.00  0.00    -0.014 A 
BRANCH  29  30
ATOM     30  C   UNL A   1      38.313  30.133  29.861  1.00  0.00     0.031 A 
ATOM     31  C   UNL A   1      39.306  29.171  29.279  1.00  0.00     0.074 A 
ATOM     32  C   UNL A   1      38.503  30.651  31.088  1.00  0.00     0.049 A 
ATOM     33  N   UNL A   1      40.400  28.689  29.811  1.00  0.00    -0.248 NA
ATOM     34  C   UNL A   1      39.029  28.678  27.921  1.00  0.00     0.031 C 
ATOM     35  C   UNL A   1      37.592  31.580  31.755  1.00  0.00     0.029 A 
ATOM     36  N   UNL A   1      39.514  30.462  31.992  1.00  0.00    -0.354 N 
ATOM     37  C   UNL A   1      40.941  27.833  28.863  1.00  0.00     0.074 A 
ATOM     38  C   UNL A   1      40.045  27.845  27.724  1.00  0.00     0.031 C 
ATOM     39  C   UNL A   1      38.089  31.890  32.961  1.00  0.00     0.029 A 
ATOM     40  C   UNL A   1      39.332  31.154  33.163  1.00  0.00     0.049 A 
ATOM     41  H   UNL A   1      40.295  29.888  31.819  1.00  0.00     0.167 HD
ATOM     42  C   UNL A   1      42.083  27.108  28.941  1.00  0.00     0.037 A 
ATOM     43  C   UNL A   1      40.077  31.177  34.282  1.00  0.00     0.037 A 
ATOM     44  C   UNL A   1      42.971  27.108  30.075  1.00  0.00     0.049 A 
ATOM     45  C   UNL A   1      41.335  30.363  34.341  1.00  0.00     0.074 A 
ATOM     46  C   UNL A   1      44.167  26.430  30.239  1.00  0.00     0.029 A 
ATOM     47  N   UNL A   1      42.757  27.823  31.246  1.00  0.00    -0.354 N 
ATOM     48  N   UNL A   1      41.846  29.568  33.432  1.00  0.00    -0.248 NA
ATOM     49  C   UNL A   1      42.119  30.447  35.580  1.00  0.00     0.031 C 
ATOM     50  C   UNL A   1      44.661  26.712  31.518  1.00  0.00     0.029 A 
ATOM     51  C   UNL A   1      43.790  27.591  32.140  1.00  0.00     0.049 A 
ATOM     52  H   UNL A   1      41.984  28.409  31.415  1.00  0.00     0.167 HD
ATOM     53  C   UNL A   1      43.011  29.061  33.984  1.00  0.00     0.074 A 
ATOM     54  C   UNL A   1      43.143  29.655  35.300  1.00  0.00     0.031 C 
ATOM     55  C   UNL A   1      43.891  28.179  33.450  1.00  0.00     0.037 A 
BRANCH  42  56
ATOM     56  C   UNL A   1      42.441  26.243  27.770  1.00  0.00     0.064 A 
ATOM     57  C   UNL A   1      43.355  26.670  26.795  1.00  0.00     0.173 A 
ATOM     58  C   UNL A   1      41.915  24.946  27.655  1.00  0.00     0.173 A 
ATOM     59  F   UNL A   1      43.875  27.904  26.855  1.00  0.00    -0.203 F 
ATOM     60  C   UNL A   1      43.721  25.834  25.743  1.00  0.00     0.198 A 
ATOM     61  C   UNL A   1      42.298  24.108  26.611  1.00  0.00     0.198 A 
ATOM     62  F   UNL A   1      41.041  24.489  28.563  1.00  0.00    -0.203 F 
ATOM     63  F   UNL A   1      44.577  26.272  24.809  1.00  0.00    -0.200 F 
ATOM     64  C   UNL A   1      43.199  24.553  25.656  1.00  0.00     0.200 A 
ATOM     65  F   UNL A   1      41.798  22.866  26.533  1.00  0.00    -0.200 F 
ATOM     66  F   UNL A   1      43.560  23.747  24.647  1.00  0.00    -0.200 F 
ENDBRANCH  42  56
BRANCH  43  67
ATOM     67  C   UNL A   1      39.643  32.018  35.422  1.00  0.00     0.064 A 
ATOM     68  C   UNL A   1      40.108  33.331  35.562  1.00  0.00     0.173 A 
ATOM     69  C   UNL A   1      38.714  31.544  36.359  1.00  0.00     0.173 A 
ATOM     70  F   UNL A   1      41.009  33.818  34.697  1.00  0.00    -0.203 F 
ATOM     71  C   UNL A   1      39.659  34.142  36.602  1.00  0.00     0.198 A 
ATOM     72  C   UNL A   1      38.251  32.362  37.385  1.00  0.00     0.198 A 
ATOM     73  F   UNL A   1      38.237  30.294  36.259  1.00  0.00    -0.203 F 
ATOM     74  F   UNL A   1      40.133  35.389  36.727  1.00  0.00    -0.200 F 
ATOM     75  C   UNL A   1      38.726  33.660  37.507  1.00  0.00     0.200 A 
ATOM     76  F   UNL A   1      37.338  31.899  38.250  1.00  0.00    -0.200 F 
ATOM     77  F   UNL A   1      38.282  34.446  38.497  1.00  0.00    -0.200 F 
ENDBRANCH  43  67
BRANCH  55  78
ATOM     78  C   UNL A   1      45.067  27.810  34.301  1.00  0.00     0.064 A 
ATOM     79  C   UNL A   1      45.018  26.712  35.172  1.00  0.00     0.173 A 
ATOM     80  C   UNL A   1      46.250  28.562  34.248  1.00  0.00     0.173 A 
ATOM     81  F   UNL A   1      43.899  25.977  35.268  1.00  0.00    -0.203 F 
ATOM     82  C   UNL A   1      46.104  26.396  35.982  1.00  0.00     0.198 A 
ATOM     83  C   UNL A   1      47.341  28.230  35.045  1.00  0.00     0.198 A 
ATOM     84  F   UNL A   1      46.342  29.619  33.430  1.00  0.00    -0.203 F 
ATOM     85  F   UNL A   1      46.020  25.370  36.842  1.00  0.00    -0.200 F 
ATOM     86  C   UNL A   1      47.265  27.151  35.917  1.00  0.00     0.200 A 
ATOM     87  F   UNL A   1      48.463  28.958  34.981  1.00  0.00    -0.200 F 
ATOM     88  F   UNL A   1      48.307  26.850  36.704  1.00  0.00    -0.200 F 
ENDBRANCH  55  78
ENDBRANCH  29  30
ENDBRANCH  22  24
ENDBRANCH  21  22
ENDBRANCH  20  21
ENDBRANCH   1  20
TORSDOF 14
ENDMDL
MODEL 3
REMARK VINA RESULT:     -10.4      4.435     11.633
REMARK SMILES C[N@H+](CC(=O)OCCOC(=O)c1ccc(-c2c3nc(c(-c4c(F)c(F)c(F)c(F)c4F)c4ccc([nH]4)c(-c4c(F)c(F)c(F)c(F)c4F)c4nc(c(-c5c(F)c(F)c(F)c(F)c5F)c5ccc2[nH]5)C=C4)C=C3)cc1)Cc1cccc2c1OCCO2
REMARK SMILES IDX 7 1 6 2 4 3 5 4 3 5 2 6 1 7 75 9 76 10 77 11 81 12 78 13
REMARK SMILES IDX 80 14 82 15 79 16 85 17 83 18 84 19 8 20 9 21 10 22 11 23
REMARK SMILES IDX 12 24 13 25 74 26 14 27 73 28 15 29 16 30 17 31 67 32 18 33
REMARK SMILES IDX 72 34 66 35 68 36 19 37 71 38 65 39 64 40 20 42 52 43 32 44
REMARK SMILES IDX 51 45 33 46 36 47 50 48 69 49 34 50 35 51 49 53 70 54 37 55
REMARK SMILES IDX 21 56 22 57 30 58 23 59 24 60 28 61 31 62 25 63 26 64 29 65
REMARK SMILES IDX 27 66 53 67 54 68 62 69 55 70 56 71 60 72 63 73 57 74 58 75
REMARK SMILES IDX 61 76 59 77 38 78 39 79 47 80 40 81 41 82 45 83 48 84 42 85
REMARK SMILES IDX 43 86 46 87 44 88
REMARK H PARENT 2 8 68 41 36 52
REMARK Flexibility Score: inf
ROOT
ATOM      1  C   UNL A   1      40.995  19.957  26.533  1.00  0.00     0.274 C 
ENDROOT
BRANCH   1   2
ATOM      2  O   UNL A   1      41.829  19.528  25.442  1.00  0.00    -0.458 OA
BRANCH   2   3
ATOM      3  C   UNL A   1      42.876  18.727  25.777  1.00  0.00     0.361 C 
ATOM      4  O   UNL A   1      42.896  17.979  26.751  1.00  0.00    -0.245 OA
BRANCH   3   5
ATOM      5  C   UNL A   1      44.083  18.855  24.853  1.00  0.00     0.386 C 
BRANCH   5   6
ATOM      6  N   UNL A   1      44.977  19.974  25.198  1.00  0.00    -0.324 N 
ATOM      7  C   UNL A   1      46.364  19.548  25.306  1.00  0.00     0.333 C 
ATOM      8  H   UNL A   1      44.684  20.281  26.125  1.00  0.00     0.348 HD
BRANCH   6   9
ATOM      9  C   UNL A   1      44.807  21.169  24.348  1.00  0.00     0.303 C 
BRANCH   9  10
ATOM     10  C   UNL A   1      45.388  22.426  24.971  1.00  0.00     0.052 A 
ATOM     11  C   UNL A   1      46.367  23.182  24.299  1.00  0.00     0.014 A 
ATOM     12  C   UNL A   1      44.931  22.893  26.216  1.00  0.00     0.170 A 
ATOM     13  C   UNL A   1      46.920  24.327  24.873  1.00  0.00     0.005 A 
ATOM     14  C   UNL A   1      45.518  24.026  26.804  1.00  0.00     0.161 A 
ATOM     15  O   UNL A   1      43.917  22.191  26.832  1.00  0.00    -0.486 OA
ATOM     16  C   UNL A   1      46.500  24.746  26.131  1.00  0.00     0.050 A 
ATOM     17  O   UNL A   1      45.185  24.489  28.056  1.00  0.00    -0.486 OA
ATOM     18  C   UNL A   1      43.384  22.899  27.958  1.00  0.00     0.271 C 
ATOM     19  C   UNL A   1      44.505  23.477  28.800  1.00  0.00     0.271 C 
ENDBRANCH   9  10
ENDBRANCH   6   9
ENDBRANCH   5   6
ENDBRANCH   3   5
ENDBRANCH   2   3
ENDBRANCH   1   2
BRANCH   1  20
ATOM     20  C   UNL A   1      39.921  20.927  26.053  1.00  0.00     0.275 C 
BRANCH  20  21
ATOM     21  O   UNL A   1      40.244  22.265  26.474  1.00  0.00    -0.458 OA
BRANCH  21  22
ATOM     22  C   UNL A   1      39.228  23.148  26.367  1.00  0.00     0.338 C 
ATOM     23  O   UNL A   1      38.163  22.983  25.800  1.00  0.00    -0.246 OA
BRANCH  22  24
ATOM     24  C   UNL A   1      39.595  24.452  26.944  1.00  0.00     0.060 A 
ATOM     25  C   UNL A   1      40.321  25.412  26.235  1.00  0.00     0.016 A 
ATOM     26  C   UNL A   1      39.276  24.657  28.289  1.00  0.00     0.016 A 
ATOM     27  C   UNL A   1      40.764  26.563  26.892  1.00  0.00     0.010 A 
ATOM     28  C   UNL A   1      39.680  25.823  28.932  1.00  0.00     0.010 A 
ATOM     29  C   UNL A   1      40.443  26.775  28.242  1.00  0.00    -0.014 A 
BRANCH  29  30
ATOM     30  C   UNL A   1      40.836  28.026  28.930  1.00  0.00     0.031 A 
ATOM     31  C   UNL A   1      42.223  28.209  29.471  1.00  0.00     0.074 A 
ATOM     32  C   UNL A   1      39.902  28.977  29.108  1.00  0.00     0.049 A 
ATOM     33  N   UNL A   1      42.714  29.203  30.166  1.00  0.00    -0.248 NA
ATOM     34  C   UNL A   1      43.185  27.129  29.204  1.00  0.00     0.031 C 
ATOM     35  C   UNL A   1      38.519  28.892  28.638  1.00  0.00     0.029 A 
ATOM     36  N   UNL A   1      39.970  30.191  29.739  1.00  0.00    -0.354 N 
ATOM     37  C   UNL A   1      44.035  28.871  30.427  1.00  0.00     0.074 A 
ATOM     38  C   UNL A   1      44.268  27.571  29.830  1.00  0.00     0.031 C 
ATOM     39  C   UNL A   1      37.870  30.011  28.989  1.00  0.00     0.029 A 
ATOM     40  C   UNL A   1      38.780  30.872  29.736  1.00  0.00     0.049 A 
ATOM     41  H   UNL A   1      40.793  30.540  30.152  1.00  0.00     0.167 HD
ATOM     42  C   UNL A   1      44.965  29.590  31.101  1.00  0.00     0.037 A 
ATOM     43  C   UNL A   1      38.454  32.053  30.290  1.00  0.00     0.037 A 
ATOM     44  C   UNL A   1      44.724  30.886  31.685  1.00  0.00     0.049 A 
ATOM     45  C   UNL A   1      39.502  32.826  31.033  1.00  0.00     0.074 A 
ATOM     46  C   UNL A   1      45.609  31.708  32.363  1.00  0.00     0.029 A 
ATOM     47  N   UNL A   1      43.505  31.548  31.662  1.00  0.00    -0.354 N 
ATOM     48  N   UNL A   1      40.754  32.510  31.260  1.00  0.00    -0.248 NA
ATOM     49  C   UNL A   1      39.093  34.119  31.597  1.00  0.00     0.031 C 
ATOM     50  C   UNL A   1      44.918  32.854  32.774  1.00  0.00     0.029 A 
ATOM     51  C   UNL A   1      43.611  32.761  32.325  1.00  0.00     0.049 A 
ATOM     52  H   UNL A   1      42.686  31.206  31.236  1.00  0.00     0.167 HD
ATOM     53  C   UNL A   1      41.285  33.563  31.988  1.00  0.00     0.074 A 
ATOM     54  C   UNL A   1      40.224  34.539  32.146  1.00  0.00     0.031 C 
ATOM     55  C   UNL A   1      42.537  33.707  32.485  1.00  0.00     0.037 A 
BRANCH  42  56
ATOM     56  C   UNL A   1      46.331  28.994  31.255  1.00  0.00     0.064 A 
ATOM     57  C   UNL A   1      46.658  28.182  32.351  1.00  0.00     0.173 A 
ATOM     58  C   UNL A   1      47.307  29.183  30.264  1.00  0.00     0.173 A 
ATOM     59  F   UNL A   1      45.764  27.981  33.330  1.00  0.00    -0.203 F 
ATOM     60  C   UNL A   1      47.915  27.589  32.454  1.00  0.00     0.198 A 
ATOM     61  C   UNL A   1      48.555  28.574  30.361  1.00  0.00     0.198 A 
ATOM     62  F   UNL A   1      47.043  29.948  29.194  1.00  0.00    -0.203 F 
ATOM     63  F   UNL A   1      48.213  26.836  33.522  1.00  0.00    -0.200 F 
ATOM     64  C   UNL A   1      48.858  27.780  31.456  1.00  0.00     0.200 A 
ATOM     65  F   UNL A   1      49.465  28.753  29.392  1.00  0.00    -0.200 F 
ATOM     66  F   UNL A   1      50.064  27.201  31.553  1.00  0.00    -0.200 F 
ENDBRANCH  42  56
BRANCH  43  67
ATOM     67  C   UNL A   1      37.071  32.565  30.142  1.00  0.00     0.064 A 
ATOM     68  C   UNL A   1      36.123  32.371  31.154  1.00  0.00     0.173 A 
ATOM     69  C   UNL A   1      36.690  33.303  29.013  1.00  0.00     0.173 A 
ATOM     70  F   UNL A   1      36.443  31.657  32.242  1.00  0.00    -0.203 F 
ATOM     71  C   UNL A   1      34.839  32.898  31.041  1.00  0.00     0.198 A 
ATOM     72  C   UNL A   1      35.412  33.847  28.912  1.00  0.00     0.198 A 
ATOM     73  F   UNL A   1      37.568  33.518  28.023  1.00  0.00    -0.203 F 
ATOM     74  F   UNL A   1      33.943  32.684  32.014  1.00  0.00    -0.200 F 
ATOM     75  C   UNL A   1      34.488  33.643  29.925  1.00  0.00     0.200 A 
ATOM     76  F   UNL A   1      35.081  34.577  27.838  1.00  0.00    -0.200 F 
ATOM     77  F   UNL A   1      33.257  34.163  29.825  1.00  0.00    -0.200 F 
ENDBRANCH  43  67
BRANCH  55  78
ATOM     78  C   UNL A   1      42.815  34.967  33.245  1.00  0.00     0.064 A 
ATOM     79  C   UNL A   1      43.326  36.105  32.604  1.00  0.00     0.173 A 
ATOM     80  C   UNL A   1      42.573  35.036  34.625  1.00  0.00     0.173 A 
ATOM     81  F   UNL A   1      43.590  36.077  31.289  1.00  0.00    -0.203 F 
ATOM     82  C   UNL A   1      43.611  37.261  33.324  1.00  0.00     0.198 A 
ATOM     83  C   UNL A   1      42.840  36.201  35.338  1.00  0.00     0.198 A 
ATOM     84  F   UNL A   1      42.084  33.973  35.279  1.00  0.00    -0.203 F 
ATOM     85  F   UNL A   1      44.143  38.323  32.702  1.00  0.00    -0.200 F 
ATOM     86  C   UNL A   1      43.366  37.310  34.688  1.00  0.00     0.200 A 
ATOM     87  F   UNL A   1      42.602  36.249  36.655  1.00  0.00    -0.200 F 
ATOM     88  F   UNL A   1      43.648  38.421  35.382  1.00  0.00    -0.200 F 
ENDBRANCH  55  78
ENDBRANCH  29  30
ENDBRANCH  22  24
ENDBRANCH  21  22
ENDBRANCH  20  21
ENDBRANCH   1  20
TORSDOF 14
ENDMDL
