MODEL 1
REMARK VINA RESULT:     -12.6      0.000      0.000
REMARK SMILES CCNC(=O)c1ccc(NC(=O)CC2(C(=O)OCCOC(=O)c3ccc(-c4c5nc(c(-c6c(F)c(F)c(F)c(F)c6F)c6ccc([nH]6)c(-c6c(F)c(F)c(F)c(F)c6F)c6nc(c(-c7c(F)c(F)c(F)c(F)c7F)c7ccc4[nH]7)C=C6)C=C5)cc3)CCCC2)cc1
REMARK SMILES IDX 17 1 15 2 16 3 14 4 86 5 89 6 87 7 88 8 13 9 11 10 10 11
REMARK SMILES IDX 12 13 9 14 6 15 7 16 91 17 8 18 90 19 4 20 3 21 5 23 2 24
REMARK SMILES IDX 1 25 18 26 19 27 20 28 21 29 22 30 23 31 24 32 85 33 25 34
REMARK SMILES IDX 84 35 26 36 27 37 28 38 78 39 29 40 83 41 77 42 79 43 30 44
REMARK SMILES IDX 82 45 76 46 75 47 31 49 63 50 43 51 62 52 44 53 47 54 61 55
REMARK SMILES IDX 80 56 45 57 46 58 60 60 81 61 48 62 32 63 33 64 41 65 34 66
REMARK SMILES IDX 35 67 39 68 42 69 36 70 37 71 40 72 38 73 64 74 65 75 73 76
REMARK SMILES IDX 66 77 67 78 71 79 74 80 68 81 69 82 72 83 70 84 49 85 50 86
REMARK SMILES IDX 58 87 51 88 52 89 56 90 59 91 53 92 54 93 57 94 55 95
REMARK H PARENT 10 12 3 22 79 48 47 59
REMARK Flexibility Score: inf
ROOT
ATOM      1  O   UNL A   1      34.385  21.520  25.413  1.00  0.00    -0.462 OA
ENDROOT
BRANCH   1   2
ATOM      2  C   UNL A   1      33.269  21.890  24.724  1.00  0.00     0.312 C 
ATOM      3  O   UNL A   1      32.788  21.228  23.807  1.00  0.00    -0.252 OA
BRANCH   2   4
ATOM      4  C   UNL A   1      32.601  23.202  25.223  1.00  0.00     0.077 C 
ATOM      5  C   UNL A   1      32.642  24.147  23.998  1.00  0.00     0.019 C 
ATOM      6  C   UNL A   1      33.346  24.061  26.258  1.00  0.00     0.019 C 
ATOM      7  C   UNL A   1      34.065  24.694  24.020  1.00  0.00     0.001 C 
ATOM      8  C   UNL A   1      34.372  24.898  25.494  1.00  0.00     0.001 C 
BRANCH   4   9
ATOM      9  C   UNL A   1      31.154  22.815  25.633  1.00  0.00     0.119 C 
BRANCH   9  10
ATOM     10  C   UNL A   1      30.290  23.593  26.629  1.00  0.00     0.225 C 
ATOM     11  N   UNL A   1      30.098  24.947  26.657  1.00  0.00    -0.326 N 
ATOM     12  H   UNL A   1      29.767  25.255  27.532  1.00  0.00     0.169 HD
ATOM     13  O   UNL A   1      29.811  22.970  27.589  1.00  0.00    -0.275 OA
BRANCH  11  14
ATOM     14  C   UNL A   1      30.254  26.008  25.749  1.00  0.00     0.041 A 
ATOM     15  C   UNL A   1      30.706  28.005  23.790  1.00  0.00     0.039 A 
ATOM     16  C   UNL A   1      31.454  27.963  24.953  1.00  0.00     0.016 A 
ATOM     17  C   UNL A   1      29.746  27.017  23.571  1.00  0.00     0.016 A 
ATOM     18  C   UNL A   1      31.168  27.019  25.933  1.00  0.00     0.027 A 
ATOM     19  C   UNL A   1      29.538  26.011  24.542  1.00  0.00     0.027 A 
BRANCH  15  20
ATOM     20  C   UNL A   1      31.016  29.119  22.869  1.00  0.00     0.251 C 
ATOM     21  N   UNL A   1      30.076  30.071  22.583  1.00  0.00    -0.352 N 
ATOM     22  H   UNL A   1      30.382  30.797  21.992  1.00  0.00     0.163 HD
ATOM     23  O   UNL A   1      32.160  29.234  22.435  1.00  0.00    -0.269 OA
BRANCH  21  24
ATOM     24  C   UNL A   1      28.698  30.170  23.019  1.00  0.00     0.112 C 
ATOM     25  C   UNL A   1      28.386  31.530  23.617  1.00  0.00     0.027 C 
ENDBRANCH  21  24
ENDBRANCH  15  20
ENDBRANCH  11  14
ENDBRANCH   9  10
ENDBRANCH   4   9
ENDBRANCH   2   4
ENDBRANCH   1   2
BRANCH   1  26
ATOM     26  C   UNL A   1      35.575  21.337  24.607  1.00  0.00     0.274 C 
BRANCH  26  27
ATOM     27  C   UNL A   1      36.772  20.755  25.379  1.00  0.00     0.275 C 
BRANCH  27  28
ATOM     28  O   UNL A   1      37.978  21.484  25.097  1.00  0.00    -0.458 OA
BRANCH  28  29
ATOM     29  C   UNL A   1      39.046  21.206  25.891  1.00  0.00     0.338 C 
ATOM     30  O   UNL A   1      39.565  20.110  26.038  1.00  0.00    -0.246 OA
BRANCH  29  31
ATOM     31  C   UNL A   1      39.570  22.454  26.514  1.00  0.00     0.060 A 
ATOM     32  C   UNL A   1      40.655  22.422  27.391  1.00  0.00     0.016 A 
ATOM     33  C   UNL A   1      38.970  23.686  26.229  1.00  0.00     0.016 A 
ATOM     34  C   UNL A   1      41.101  23.586  28.020  1.00  0.00     0.010 A 
ATOM     35  C   UNL A   1      39.487  24.872  26.775  1.00  0.00     0.010 A 
ATOM     36  C   UNL A   1      40.578  24.836  27.659  1.00  0.00    -0.014 A 
BRANCH  36  37
ATOM     37  C   UNL A   1      41.297  26.087  28.041  1.00  0.00     0.031 A 
ATOM     38  C   UNL A   1      40.644  27.183  28.834  1.00  0.00     0.074 A 
ATOM     39  C   UNL A   1      42.556  26.263  27.586  1.00  0.00     0.049 A 
ATOM     40  N   UNL A   1      41.082  28.393  29.087  1.00  0.00    -0.248 NA
ATOM     41  C   UNL A   1      39.323  26.892  29.406  1.00  0.00     0.031 C 
ATOM     42  C   UNL A   1      43.313  25.288  26.796  1.00  0.00     0.029 A 
ATOM     43  N   UNL A   1      43.422  27.321  27.713  1.00  0.00    -0.354 N 
ATOM     44  C   UNL A   1      40.076  29.025  29.807  1.00  0.00     0.074 A 
ATOM     45  C   UNL A   1      39.004  28.058  29.955  1.00  0.00     0.031 C 
ATOM     46  C   UNL A   1      44.537  25.770  26.548  1.00  0.00     0.029 A 
ATOM     47  C   UNL A   1      44.624  27.123  27.076  1.00  0.00     0.049 A 
ATOM     48  H   UNL A   1      43.204  28.140  28.212  1.00  0.00     0.167 HD
ATOM     49  C   UNL A   1      40.052  30.293  30.290  1.00  0.00     0.037 A 
ATOM     50  C   UNL A   1      45.672  27.946  26.893  1.00  0.00     0.037 A 
ATOM     51  C   UNL A   1      41.137  31.238  30.174  1.00  0.00     0.049 A 
ATOM     52  C   UNL A   1      45.611  29.344  27.426  1.00  0.00     0.074 A 
ATOM     53  C   UNL A   1      41.215  32.529  30.673  1.00  0.00     0.029 A 
ATOM     54  N   UNL A   1      42.336  30.997  29.518  1.00  0.00    -0.354 N 
ATOM     55  N   UNL A   1      44.650  29.931  28.094  1.00  0.00    -0.248 NA
ATOM     56  C   UNL A   1      46.777  30.199  27.166  1.00  0.00     0.031 C 
ATOM     57  C   UNL A   1      42.439  33.083  30.281  1.00  0.00     0.029 A 
ATOM     58  C   UNL A   1      43.149  32.121  29.582  1.00  0.00     0.049 A 
ATOM     59  H   UNL A   1      42.574  30.153  29.072  1.00  0.00     0.167 HD
ATOM     60  C   UNL A   1      45.102  31.216  28.357  1.00  0.00     0.074 A 
ATOM     61  C   UNL A   1      46.428  31.318  27.784  1.00  0.00     0.031 C 
ATOM     62  C   UNL A   1      44.470  32.216  29.016  1.00  0.00     0.037 A 
BRANCH  49  63
ATOM     63  C   UNL A   1      38.790  30.762  30.962  1.00  0.00     0.064 A 
ATOM     64  C   UNL A   1      38.635  30.739  32.355  1.00  0.00     0.173 A 
ATOM     65  C   UNL A   1      37.742  31.297  30.196  1.00  0.00     0.173 A 
ATOM     66  F   UNL A   1      39.602  30.231  33.134  1.00  0.00    -0.203 F 
ATOM     67  C   UNL A   1      37.467  31.208  32.954  1.00  0.00     0.198 A 
ATOM     68  C   UNL A   1      36.588  31.792  30.800  1.00  0.00     0.198 A 
ATOM     69  F   UNL A   1      37.842  31.355  28.859  1.00  0.00    -0.203 F 
ATOM     70  F   UNL A   1      37.322  31.134  34.285  1.00  0.00    -0.200 F 
ATOM     71  C   UNL A   1      36.449  31.740  32.177  1.00  0.00     0.200 A 
ATOM     72  F   UNL A   1      35.612  32.318  30.047  1.00  0.00    -0.200 F 
ATOM     73  F   UNL A   1      35.329  32.196  32.755  1.00  0.00    -0.200 F 
ENDBRANCH  49  63
BRANCH  50  74
ATOM     74  C   UNL A   1      46.866  27.455  26.159  1.00  0.00     0.064 A 
ATOM     75  C   UNL A   1      46.981  27.644  24.777  1.00  0.00     0.173 A 
ATOM     76  C   UNL A   1      47.928  26.825  26.826  1.00  0.00     0.173 A 
ATOM     77  F   UNL A   1      45.981  28.223  24.095  1.00  0.00    -0.203 F 
ATOM     78  C   UNL A   1      48.113  27.218  24.086  1.00  0.00     0.198 A 
ATOM     79  C   UNL A   1      49.071  26.426  26.139  1.00  0.00     0.198 A 
ATOM     80  F   UNL A   1      47.866  26.628  28.151  1.00  0.00    -0.203 F 
ATOM     81  F   UNL A   1      48.185  27.383  22.758  1.00  0.00    -0.200 F 
ATOM     82  C   UNL A   1      49.160  26.619  24.769  1.00  0.00     0.200 A 
ATOM     83  F   UNL A   1      50.088  25.865  26.806  1.00  0.00    -0.200 F 
ATOM     84  F   UNL A   1      50.256  26.223  24.106  1.00  0.00    -0.200 F 
ENDBRANCH  50  74
BRANCH  62  85
ATOM     85  C   UNL A   1      45.232  33.496  29.196  1.00  0.00     0.064 A 
ATOM     86  C   UNL A   1      45.139  34.547  28.272  1.00  0.00     0.173 A 
ATOM     87  C   UNL A   1      46.069  33.670  30.308  1.00  0.00     0.173 A 
ATOM     88  F   UNL A   1      44.370  34.421  27.180  1.00  0.00    -0.203 F 
ATOM     89  C   UNL A   1      45.881  35.714  28.439  1.00  0.00     0.198 A 
ATOM     90  C   UNL A   1      46.787  34.849  30.487  1.00  0.00     0.198 A 
ATOM     91  F   UNL A   1      46.192  32.694  31.221  1.00  0.00    -0.203 F 
ATOM     92  F   UNL A   1      45.821  36.683  27.516  1.00  0.00    -0.200 F 
ATOM     93  C   UNL A   1      46.700  35.865  29.549  1.00  0.00     0.200 A 
ATOM     94  F   UNL A   1      47.573  34.996  31.562  1.00  0.00    -0.200 F 
ATOM     95  F   UNL A   1      47.415  36.988  29.707  1.00  0.00    -0.200 F 
ENDBRANCH  62  85
ENDBRANCH  36  37
ENDBRANCH  29  31
ENDBRANCH  28  29
ENDBRANCH  27  28
ENDBRANCH  26  27
ENDBRANCH   1  26
TORSDOF 16
ENDMDL
MODEL 2
REMARK VINA RESULT:     -12.6      4.162      9.749
REMARK SMILES CCNC(=O)c1ccc(NC(=O)CC2(C(=O)OCCOC(=O)c3ccc(-c4c5nc(c(-c6c(F)c(F)c(F)c(F)c6F)c6ccc([nH]6)c(-c6c(F)c(F)c(F)c(F)c6F)c6nc(c(-c7c(F)c(F)c(F)c(F)c7F)c7ccc4[nH]7)C=C6)C=C5)cc3)CCCC2)cc1
REMARK SMILES IDX 17 1 15 2 16 3 14 4 86 5 89 6 87 7 88 8 13 9 11 10 10 11
REMARK SMILES IDX 12 13 9 14 6 15 7 16 91 17 8 18 90 19 4 20 3 21 5 23 2 24
REMARK SMILES IDX 1 25 18 26 19 27 20 28 21 29 22 30 23 31 24 32 85 33 25 34
REMARK SMILES IDX 84 35 26 36 27 37 28 38 78 39 29 40 83 41 77 42 79 43 30 44
REMARK SMILES IDX 82 45 76 46 75 47 31 49 63 50 43 51 62 52 44 53 47 54 61 55
REMARK SMILES IDX 80 56 45 57 46 58 60 60 81 61 48 62 32 63 33 64 41 65 34 66
REMARK SMILES IDX 35 67 39 68 42 69 36 70 37 71 40 72 38 73 64 74 65 75 73 76
REMARK SMILES IDX 66 77 67 78 71 79 74 80 68 81 69 82 72 83 70 84 49 85 50 86
REMARK SMILES IDX 58 87 51 88 52 89 56 90 59 91 53 92 54 93 57 94 55 95
REMARK H PARENT 10 12 3 22 79 48 47 59
REMARK Flexibility Score: inf
ROOT
ATOM      1  O   UNL A   1      31.420  28.411  25.314  1.00  0.00    -0.462 OA
ENDROOT
BRANCH   1   2
ATOM      2  C   UNL A   1      30.962  27.711  24.239  1.00  0.00     0.312 C 
ATOM      3  O   UNL A   1      30.012  28.074  23.550  1.00  0.00    -0.252 OA
BRANCH   2   4
ATOM      4  C   UNL A   1      31.773  26.428  23.904  1.00  0.00     0.077 C 
ATOM      5  C   UNL A   1      30.730  25.284  23.966  1.00  0.00     0.019 C 
ATOM      6  C   UNL A   1      32.802  25.917  24.926  1.00  0.00     0.019 C 
ATOM      7  C   UNL A   1      30.613  24.994  25.459  1.00  0.00     0.001 C 
ATOM      8  C   UNL A   1      32.032  25.130  25.986  1.00  0.00     0.001 C 
BRANCH   4   9
ATOM      9  C   UNL A   1      32.340  26.642  22.474  1.00  0.00     0.119 C 
BRANCH   9  10
ATOM     10  C   UNL A   1      32.271  25.613  21.343  1.00  0.00     0.225 C 
ATOM     11  N   UNL A   1      32.895  24.396  21.310  1.00  0.00    -0.326 N 
ATOM     12  H   UNL A   1      32.964  24.041  20.394  1.00  0.00     0.169 HD
ATOM     13  O   UNL A   1      31.704  25.947  20.291  1.00  0.00    -0.275 OA
BRANCH  11  14
ATOM     14  C   UNL A   1      33.463  23.526  22.257  1.00  0.00     0.041 A 
ATOM     15  C   UNL A   1      34.499  21.898  24.332  1.00  0.00     0.039 A 
ATOM     16  C   UNL A   1      35.248  22.927  23.788  1.00  0.00     0.016 A 
ATOM     17  C   UNL A   1      33.198  21.698  23.871  1.00  0.00     0.016 A 
ATOM     18  C   UNL A   1      34.749  23.666  22.722  1.00  0.00     0.027 A 
ATOM     19  C   UNL A   1      32.678  22.525  22.850  1.00  0.00     0.027 A 
BRANCH  15  20
ATOM     20  C   UNL A   1      35.170  21.102  25.380  1.00  0.00     0.251 C 
ATOM     21  N   UNL A   1      35.071  21.456  26.697  1.00  0.00    -0.352 N 
ATOM     22  H   UNL A   1      35.517  20.847  27.329  1.00  0.00     0.163 HD
ATOM     23  O   UNL A   1      35.744  20.062  25.064  1.00  0.00    -0.269 OA
BRANCH  21  24
ATOM     24  C   UNL A   1      34.408  22.594  27.301  1.00  0.00     0.112 C 
ATOM     25  C   UNL A   1      33.102  22.204  27.969  1.00  0.00     0.027 C 
ENDBRANCH  21  24
ENDBRANCH  15  20
ENDBRANCH  11  14
ENDBRANCH   9  10
ENDBRANCH   4   9
ENDBRANCH   2   4
ENDBRANCH   1   2
BRANCH   1  26
ATOM     26  C   UNL A   1      31.921  29.738  25.019  1.00  0.00     0.274 C 
BRANCH  26  27
ATOM     27  C   UNL A   1      31.447  30.821  26.004  1.00  0.00     0.275 C 
BRANCH  27  28
ATOM     28  O   UNL A   1      32.244  30.823  27.199  1.00  0.00    -0.458 OA
BRANCH  28  29
ATOM     29  C   UNL A   1      33.048  31.904  27.382  1.00  0.00     0.338 C 
ATOM     30  O   UNL A   1      32.721  33.073  27.247  1.00  0.00    -0.246 OA
BRANCH  29  31
ATOM     31  C   UNL A   1      34.393  31.478  27.860  1.00  0.00     0.060 A 
ATOM     32  C   UNL A   1      35.401  32.411  28.106  1.00  0.00     0.016 A 
ATOM     33  C   UNL A   1      34.668  30.120  28.064  1.00  0.00     0.016 A 
ATOM     34  C   UNL A   1      36.678  31.999  28.493  1.00  0.00     0.010 A 
ATOM     35  C   UNL A   1      35.917  29.714  28.559  1.00  0.00     0.010 A 
ATOM     36  C   UNL A   1      36.930  30.655  28.804  1.00  0.00    -0.014 A 
BRANCH  36  37
ATOM     37  C   UNL A   1      38.158  30.280  29.564  1.00  0.00     0.031 A 
ATOM     38  C   UNL A   1      39.195  29.343  29.012  1.00  0.00     0.074 A 
ATOM     39  C   UNL A   1      38.296  30.746  30.824  1.00  0.00     0.049 A 
ATOM     40  N   UNL A   1      40.217  28.791  29.620  1.00  0.00    -0.248 NA
ATOM     41  C   UNL A   1      39.062  28.964  27.599  1.00  0.00     0.031 C 
ATOM     42  C   UNL A   1      37.363  31.656  31.494  1.00  0.00     0.029 A 
ATOM     43  N   UNL A   1      39.264  30.518  31.770  1.00  0.00    -0.354 N 
ATOM     44  C   UNL A   1      40.823  27.964  28.683  1.00  0.00     0.074 A 
ATOM     45  C   UNL A   1      40.054  28.093  27.459  1.00  0.00     0.031 C 
ATOM     46  C   UNL A   1      37.823  31.943  32.718  1.00  0.00     0.029 A 
ATOM     47  C   UNL A   1      39.030  31.166  32.959  1.00  0.00     0.049 A 
ATOM     48  H   UNL A   1      40.049  29.946  31.613  1.00  0.00     0.167 HD
ATOM     49  C   UNL A   1      41.913  27.170  28.836  1.00  0.00     0.037 A 
ATOM     50  C   UNL A   1      39.682  31.118  34.134  1.00  0.00     0.037 A 
ATOM     51  C   UNL A   1      42.699  27.075  30.044  1.00  0.00     0.049 A 
ATOM     52  C   UNL A   1      40.874  30.223  34.278  1.00  0.00     0.074 A 
ATOM     53  C   UNL A   1      43.844  26.330  30.273  1.00  0.00     0.029 A 
ATOM     54  N   UNL A   1      42.424  27.748  31.227  1.00  0.00    -0.354 N 
ATOM     55  N   UNL A   1      41.429  29.439  33.388  1.00  0.00    -0.248 NA
ATOM     56  C   UNL A   1      41.522  30.196  35.596  1.00  0.00     0.031 C 
ATOM     57  C   UNL A   1      44.236  26.517  31.604  1.00  0.00     0.029 A 
ATOM     58  C   UNL A   1      43.367  27.419  32.192  1.00  0.00     0.049 A 
ATOM     59  H   UNL A   1      41.671  28.367  31.361  1.00  0.00     0.167 HD
ATOM     60  C   UNL A   1      42.506  28.843  34.027  1.00  0.00     0.074 A 
ATOM     61  C   UNL A   1      42.531  29.364  35.378  1.00  0.00     0.031 C 
ATOM     62  C   UNL A   1      43.391  27.945  33.533  1.00  0.00     0.037 A 
BRANCH  49  63
ATOM     63  C   UNL A   1      42.312  26.297  27.678  1.00  0.00     0.064 A 
ATOM     64  C   UNL A   1      43.301  26.681  26.762  1.00  0.00     0.173 A 
ATOM     65  C   UNL A   1      41.730  25.029  27.519  1.00  0.00     0.173 A 
ATOM     66  F   UNL A   1      43.885  27.884  26.862  1.00  0.00    -0.203 F 
ATOM     67  C   UNL A   1      43.673  25.839  25.715  1.00  0.00     0.198 A 
ATOM     68  C   UNL A   1      42.125  24.179  26.489  1.00  0.00     0.198 A 
ATOM     69  F   UNL A   1      40.786  24.607  28.374  1.00  0.00    -0.203 F 
ATOM     70  F   UNL A   1      44.589  26.246  24.824  1.00  0.00    -0.200 F 
ATOM     71  C   UNL A   1      43.091  24.588  25.584  1.00  0.00     0.200 A 
ATOM     72  F   UNL A   1      41.570  22.964  26.374  1.00  0.00    -0.200 F 
ATOM     73  F   UNL A   1      43.454  23.778  24.579  1.00  0.00    -0.200 F 
ENDBRANCH  49  63
BRANCH  50  74
ATOM     74  C   UNL A   1      39.203  31.947  35.269  1.00  0.00     0.064 A 
ATOM     75  C   UNL A   1      38.439  31.379  36.295  1.00  0.00     0.173 A 
ATOM     76  C   UNL A   1      39.530  33.308  35.372  1.00  0.00     0.173 A 
ATOM     77  F   UNL A   1      38.085  30.086  36.229  1.00  0.00    -0.203 F 
ATOM     78  C   UNL A   1      38.015  32.141  37.382  1.00  0.00     0.198 A 
ATOM     79  C   UNL A   1      39.131  34.062  36.472  1.00  0.00     0.198 A 
ATOM     80  F   UNL A   1      40.266  33.895  34.416  1.00  0.00    -0.203 F 
ATOM     81  F   UNL A   1      37.259  31.580  38.335  1.00  0.00    -0.200 F 
ATOM     82  C   UNL A   1      38.370  33.478  37.474  1.00  0.00     0.200 A 
ATOM     83  F   UNL A   1      39.492  35.348  36.566  1.00  0.00    -0.200 F 
ATOM     84  F   UNL A   1      37.975  34.207  38.527  1.00  0.00    -0.200 F 
ENDBRANCH  50  74
BRANCH  62  85
ATOM     85  C   UNL A   1      44.496  27.508  34.450  1.00  0.00     0.064 A 
ATOM     86  C   UNL A   1      45.706  28.212  34.536  1.00  0.00     0.173 A 
ATOM     87  C   UNL A   1      44.340  26.366  35.249  1.00  0.00     0.173 A 
ATOM     88  F   UNL A   1      45.912  29.296  33.775  1.00  0.00    -0.203 F 
ATOM     89  C   UNL A   1      46.732  27.770  35.369  1.00  0.00     0.198 A 
ATOM     90  C   UNL A   1      45.356  25.944  36.101  1.00  0.00     0.198 A 
ATOM     91  F   UNL A   1      43.201  25.659  35.203  1.00  0.00    -0.203 F 
ATOM     92  F   UNL A   1      47.901  28.425  35.395  1.00  0.00    -0.200 F 
ATOM     93  C   UNL A   1      46.554  26.641  36.153  1.00  0.00     0.200 A 
ATOM     94  F   UNL A   1      45.181  24.856  36.863  1.00  0.00    -0.200 F 
ATOM     95  F   UNL A   1      47.543  26.216  36.952  1.00  0.00    -0.200 F 
ENDBRANCH  62  85
ENDBRANCH  36  37
ENDBRANCH  29  31
ENDBRANCH  28  29
ENDBRANCH  27  28
ENDBRANCH  26  27
ENDBRANCH   1  26
TORSDOF 16
ENDMDL
MODEL 3
REMARK VINA RESULT:     -12.5      4.164      9.711
REMARK SMILES CCNC(=O)c1ccc(NC(=O)CC2(C(=O)OCCOC(=O)c3ccc(-c4c5nc(c(-c6c(F)c(F)c(F)c(F)c6F)c6ccc([nH]6)c(-c6c(F)c(F)c(F)c(F)c6F)c6nc(c(-c7c(F)c(F)c(F)c(F)c7F)c7ccc4[nH]7)C=C6)C=C5)cc3)CCCC2)cc1
REMARK SMILES IDX 17 1 15 2 16 3 14 4 86 5 89 6 87 7 88 8 13 9 11 10 10 11
REMARK SMILES IDX 12 13 9 14 6 15 7 16 91 17 8 18 90 19 4 20 3 21 5 23 2 24
REMARK SMILES IDX 1 25 18 26 19 27 20 28 21 29 22 30 23 31 24 32 85 33 25 34
REMARK SMILES IDX 84 35 26 36 27 37 28 38 78 39 29 40 83 41 77 42 79 43 30 44
REMARK SMILES IDX 82 45 76 46 75 47 31 49 63 50 43 51 62 52 44 53 47 54 61 55
REMARK SMILES IDX 80 56 45 57 46 58 60 60 81 61 48 62 32 63 33 64 41 65 34 66
REMARK SMILES IDX 35 67 39 68 42 69 36 70 37 71 40 72 38 73 64 74 65 75 73 76
REMARK SMILES IDX 66 77 67 78 71 79 74 80 68 81 69 82 72 83 70 84 49 85 50 86
REMARK SMILES IDX 58 87 51 88 52 89 56 90 59 91 53 92 54 93 57 94 55 95
REMARK H PARENT 10 12 3 22 79 48 47 59
REMARK Flexibility Score: inf
ROOT
ATOM      1  O   UNL A   1      32.011  29.137  24.684  1.00  0.00    -0.462 OA
ENDROOT
BRANCH   1   2
ATOM      2  C   UNL A   1      31.441  28.067  24.063  1.00  0.00     0.312 C 
ATOM      3  O   UNL A   1      30.291  28.068  23.632  1.00  0.00    -0.252 OA
BRANCH   2   4
ATOM      4  C   UNL A   1      32.381  26.842  23.883  1.00  0.00     0.077 C 
ATOM      5  C   UNL A   1      31.552  25.640  24.399  1.00  0.00     0.019 C 
ATOM      6  C   UNL A   1      33.623  26.726  24.783  1.00  0.00     0.019 C 
ATOM      7  C   UNL A   1      31.714  25.723  25.913  1.00  0.00     0.001 C 
ATOM      8  C   UNL A   1      33.158  26.148  26.119  1.00  0.00     0.001 C 
BRANCH   4   9
ATOM      9  C   UNL A   1      32.680  26.753  22.362  1.00  0.00     0.119 C 
BRANCH   9  10
ATOM     10  C   UNL A   1      32.185  25.638  21.437  1.00  0.00     0.225 C 
ATOM     11  N   UNL A   1      32.596  24.333  21.442  1.00  0.00    -0.326 N 
ATOM     12  H   UNL A   1      32.384  23.876  20.596  1.00  0.00     0.169 HD
ATOM     13  O   UNL A   1      31.432  25.953  20.503  1.00  0.00    -0.275 OA
BRANCH  11  14
ATOM     14  C   UNL A   1      33.245  23.482  22.353  1.00  0.00     0.041 A 
ATOM     15  C   UNL A   1      34.449  21.887  24.363  1.00  0.00     0.039 A 
ATOM     16  C   UNL A   1      35.130  22.944  23.785  1.00  0.00     0.016 A 
ATOM     17  C   UNL A   1      33.133  21.641  23.971  1.00  0.00     0.016 A 
ATOM     18  C   UNL A   1      34.548  23.668  22.750  1.00  0.00     0.027 A 
ATOM     19  C   UNL A   1      32.529  22.451  22.983  1.00  0.00     0.027 A 
BRANCH  15  20
ATOM     20  C   UNL A   1      35.204  21.114  25.370  1.00  0.00     0.251 C 
ATOM     21  N   UNL A   1      35.153  21.453  26.694  1.00  0.00    -0.352 N 
ATOM     22  H   UNL A   1      35.654  20.859  27.298  1.00  0.00     0.163 HD
ATOM     23  O   UNL A   1      35.806  20.102  25.017  1.00  0.00    -0.269 OA
BRANCH  21  24
ATOM     24  C   UNL A   1      34.471  22.556  27.340  1.00  0.00     0.112 C 
ATOM     25  C   UNL A   1      33.043  22.202  27.716  1.00  0.00     0.027 C 
ENDBRANCH  21  24
ENDBRANCH  15  20
ENDBRANCH  11  14
ENDBRANCH   9  10
ENDBRANCH   4   9
ENDBRANCH   2   4
ENDBRANCH   1   2
BRANCH   1  26
ATOM     26  C   UNL A   1      31.103  30.218  25.011  1.00  0.00     0.274 C 
BRANCH  26  27
ATOM     27  C   UNL A   1      31.481  30.991  26.286  1.00  0.00     0.275 C 
BRANCH  27  28
ATOM     28  O   UNL A   1      32.861  30.786  26.630  1.00  0.00    -0.458 OA
BRANCH  28  29
ATOM     29  C   UNL A   1      33.452  31.777  27.348  1.00  0.00     0.338 C 
ATOM     30  O   UNL A   1      32.956  32.858  27.624  1.00  0.00    -0.246 OA
BRANCH  29  31
ATOM     31  C   UNL A   1      34.788  31.337  27.840  1.00  0.00     0.060 A 
ATOM     32  C   UNL A   1      35.799  32.261  28.110  1.00  0.00     0.016 A 
ATOM     33  C   UNL A   1      35.051  29.975  28.034  1.00  0.00     0.016 A 
ATOM     34  C   UNL A   1      37.068  31.836  28.510  1.00  0.00     0.010 A 
ATOM     35  C   UNL A   1      36.292  29.556  28.540  1.00  0.00     0.010 A 
ATOM     36  C   UNL A   1      37.307  30.488  28.809  1.00  0.00    -0.014 A 
BRANCH  36  37
ATOM     37  C   UNL A   1      38.522  30.097  29.582  1.00  0.00     0.031 A 
ATOM     38  C   UNL A   1      39.543  29.133  29.047  1.00  0.00     0.074 A 
ATOM     39  C   UNL A   1      38.661  30.573  30.838  1.00  0.00     0.049 A 
ATOM     40  N   UNL A   1      40.550  28.567  29.669  1.00  0.00    -0.248 NA
ATOM     41  C   UNL A   1      39.412  28.741  27.638  1.00  0.00     0.031 C 
ATOM     42  C   UNL A   1      37.742  31.509  31.492  1.00  0.00     0.029 A 
ATOM     43  N   UNL A   1      39.617  30.336  31.793  1.00  0.00    -0.354 N 
ATOM     44  C   UNL A   1      41.146  27.718  28.745  1.00  0.00     0.074 A 
ATOM     45  C   UNL A   1      40.388  27.849  27.514  1.00  0.00     0.031 C 
ATOM     46  C   UNL A   1      38.199  31.800  32.715  1.00  0.00     0.029 A 
ATOM     47  C   UNL A   1      39.389  31.002  32.974  1.00  0.00     0.049 A 
ATOM     48  H   UNL A   1      40.392  29.747  31.648  1.00  0.00     0.167 HD
ATOM     49  C   UNL A   1      42.218  26.904  28.914  1.00  0.00     0.037 A 
ATOM     50  C   UNL A   1      40.032  30.954  34.154  1.00  0.00     0.037 A 
ATOM     51  C   UNL A   1      42.994  26.807  30.129  1.00  0.00     0.049 A 
ATOM     52  C   UNL A   1      41.204  30.036  34.316  1.00  0.00     0.074 A 
ATOM     53  C   UNL A   1      44.123  26.042  30.374  1.00  0.00     0.029 A 
ATOM     54  N   UNL A   1      42.724  27.498  31.302  1.00  0.00    -0.354 N 
ATOM     55  N   UNL A   1      41.749  29.232  33.438  1.00  0.00    -0.248 NA
ATOM     56  C   UNL A   1      41.843  30.011  35.638  1.00  0.00     0.031 C 
ATOM     57  C   UNL A   1      44.510  26.235  31.705  1.00  0.00     0.029 A 
ATOM     58  C   UNL A   1      43.654  27.160  32.277  1.00  0.00     0.049 A 
ATOM     59  H   UNL A   1      41.983  28.134  31.424  1.00  0.00     0.167 HD
ATOM     60  C   UNL A   1      42.809  28.622  34.091  1.00  0.00     0.074 A 
ATOM     61  C   UNL A   1      42.836  29.157  35.436  1.00  0.00     0.031 C 
ATOM     62  C   UNL A   1      43.680  27.701  33.612  1.00  0.00     0.037 A 
BRANCH  49  63
ATOM     63  C   UNL A   1      42.608  26.011  27.768  1.00  0.00     0.064 A 
ATOM     64  C   UNL A   1      41.976  24.782  27.534  1.00  0.00     0.173 A 
ATOM     65  C   UNL A   1      43.594  26.424  26.857  1.00  0.00     0.173 A 
ATOM     66  F   UNL A   1      41.033  24.335  28.376  1.00  0.00    -0.203 F 
ATOM     67  C   UNL A   1      42.336  23.987  26.446  1.00  0.00     0.198 A 
ATOM     68  C   UNL A   1      43.930  25.641  25.756  1.00  0.00     0.198 A 
ATOM     69  F   UNL A   1      44.223  27.597  27.028  1.00  0.00    -0.203 F 
ATOM     70  F   UNL A   1      41.750  22.795  26.267  1.00  0.00    -0.200 F 
ATOM     71  C   UNL A   1      43.306  24.420  25.556  1.00  0.00     0.200 A 
ATOM     72  F   UNL A   1      44.859  26.069  24.889  1.00  0.00    -0.200 F 
ATOM     73  F   UNL A   1      43.647  23.657  24.507  1.00  0.00    -0.200 F 
ENDBRANCH  49  63
BRANCH  50  74
ATOM     74  C   UNL A   1      39.562  31.805  35.276  1.00  0.00     0.064 A 
ATOM     75  C   UNL A   1      40.012  33.124  35.409  1.00  0.00     0.173 A 
ATOM     76  C   UNL A   1      38.629  31.333  36.212  1.00  0.00     0.173 A 
ATOM     77  F   UNL A   1      40.919  33.611  34.549  1.00  0.00    -0.203 F 
ATOM     78  C   UNL A   1      39.550  33.940  36.438  1.00  0.00     0.198 A 
ATOM     79  C   UNL A   1      38.145  32.159  37.223  1.00  0.00     0.198 A 
ATOM     80  F   UNL A   1      38.164  30.078  36.123  1.00  0.00    -0.203 F 
ATOM     81  F   UNL A   1      40.019  35.189  36.561  1.00  0.00    -0.200 F 
ATOM     82  C   UNL A   1      38.610  33.460  37.338  1.00  0.00     0.200 A 
ATOM     83  F   UNL A   1      37.224  31.697  38.078  1.00  0.00    -0.200 F 
ATOM     84  F   UNL A   1      38.154  34.251  38.319  1.00  0.00    -0.200 F 
ENDBRANCH  50  74
BRANCH  62  85
ATOM     85  C   UNL A   1      44.770  27.252  34.541  1.00  0.00     0.064 A 
ATOM     86  C   UNL A   1      44.618  26.131  35.371  1.00  0.00     0.173 A 
ATOM     87  C   UNL A   1      45.980  27.957  34.604  1.00  0.00     0.173 A 
ATOM     88  F   UNL A   1      43.471  25.437  35.365  1.00  0.00    -0.203 F 
ATOM     89  C   UNL A   1      45.629  25.751  36.251  1.00  0.00     0.198 A 
ATOM     90  C   UNL A   1      46.999  27.558  35.464  1.00  0.00     0.198 A 
ATOM     91  F   UNL A   1      46.174  29.036  33.830  1.00  0.00    -0.203 F 
ATOM     92  F   UNL A   1      45.442  24.710  37.074  1.00  0.00    -0.200 F 
ATOM     93  C   UNL A   1      46.819  26.461  36.293  1.00  0.00     0.200 A 
ATOM     94  F   UNL A   1      48.151  28.242  35.499  1.00  0.00    -0.200 F 
ATOM     95  F   UNL A   1      47.789  26.096  37.142  1.00  0.00    -0.200 F 
ENDBRANCH  62  85
ENDBRANCH  36  37
ENDBRANCH  29  31
ENDBRANCH  28  29
ENDBRANCH  27  28
ENDBRANCH  26  27
ENDBRANCH   1  26
TORSDOF 16
ENDMDL
