MODEL 1
REMARK VINA RESULT:     -12.9      0.000      0.000
REMARK SMILES Cc1cc(C)c(C(=O)NC[C@H]2CC[C@@H](C(=O)OCCOC(=O)c3ccc(-c4c5nc(c(-c6c(F)c(F)c(F)c(F)c6F)c6ccc([nH]6)c(-c6c(F)c(F)c(F)c(F)c6F)c6nc(c(-c7c(F)c(F)c(F)c(F)c7F)c7ccc4[nH]7)C=C6)C=C5)cc3)O2)c(C)c1
REMARK SMILES IDX 18 1 17 2 15 3 16 4 14 5 11 6 12 7 86 8 13 9 10 10 9 11 7 12
REMARK SMILES IDX 8 13 6 15 1 16 2 17 3 18 89 19 4 20 87 21 5 22 88 23 19 24
REMARK SMILES IDX 20 25 21 26 22 27 23 28 24 29 85 30 25 31 84 32 26 33 27 34
REMARK SMILES IDX 28 35 78 36 29 37 83 38 77 39 79 40 30 41 82 42 76 43 75 44
REMARK SMILES IDX 31 46 63 47 43 48 62 49 44 50 47 51 61 52 80 53 45 54 46 55
REMARK SMILES IDX 60 57 81 58 48 59 32 60 33 61 41 62 34 63 35 64 39 65 42 66
REMARK SMILES IDX 36 67 37 68 40 69 38 70 64 71 65 72 73 73 66 74 67 75 71 76
REMARK SMILES IDX 74 77 68 78 69 79 72 80 70 81 49 82 50 83 58 84 51 85 52 86
REMARK SMILES IDX 56 87 59 88 53 89 54 90 57 91 55 92
REMARK H PARENT 9 14 79 45 47 56
REMARK Flexibility Score: inf
ROOT
ATOM      1  C   UNL A   1      32.558  29.321  24.776  1.00  0.00     0.274 C 
ENDROOT
BRANCH   1   2
ATOM      2  O   UNL A   1      31.797  29.006  23.593  1.00  0.00    -0.460 OA
BRANCH   2   3
ATOM      3  C   UNL A   1      32.127  27.853  22.949  1.00  0.00     0.335 C 
ATOM      4  O   UNL A   1      33.262  27.534  22.614  1.00  0.00    -0.249 OA
BRANCH   3   5
ATOM      5  C   UNL A   1      30.886  27.003  22.673  1.00  0.00     0.228 C 
ATOM      6  C   UNL A   1      29.968  25.807  24.459  1.00  0.00     0.138 C 
ATOM      7  C   UNL A   1      28.843  26.632  23.865  1.00  0.00     0.037 C 
ATOM      8  O   UNL A   1      30.981  25.788  23.438  1.00  0.00    -0.361 OA
ATOM      9  C   UNL A   1      29.593  27.695  23.103  1.00  0.00     0.047 C 
BRANCH   6  10
ATOM     10  C   UNL A   1      30.552  26.386  25.766  1.00  0.00     0.148 C 
BRANCH  10  11
ATOM     11  N   UNL A   1      31.047  25.342  26.631  1.00  0.00    -0.349 N 
ATOM     12  C   UNL A   1      31.866  24.254  26.582  1.00  0.00     0.251 C 
ATOM     13  O   UNL A   1      31.643  23.526  27.561  1.00  0.00    -0.269 OA
ATOM     14  H   UNL A   1      30.681  25.450  27.540  1.00  0.00     0.163 HD
BRANCH  12  15
ATOM     15  C   UNL A   1      32.916  23.814  25.568  1.00  0.00     0.045 A 
ATOM     16  C   UNL A   1      36.533  22.762  23.326  1.00  0.00     0.044 C 
ATOM     17  C   UNL A   1      35.277  23.146  24.046  1.00  0.00    -0.051 A 
ATOM     18  C   UNL A   1      35.156  24.387  24.644  1.00  0.00     0.007 A 
ATOM     19  C   UNL A   1      34.199  22.277  24.134  1.00  0.00     0.007 A 
ATOM     20  C   UNL A   1      33.994  24.747  25.363  1.00  0.00    -0.038 A 
ATOM     21  C   UNL A   1      33.017  22.587  24.860  1.00  0.00    -0.038 A 
ATOM     22  C   UNL A   1      33.999  26.171  25.885  1.00  0.00     0.045 C 
ATOM     23  C   UNL A   1      31.978  21.519  24.738  1.00  0.00     0.045 C 
ENDBRANCH  12  15
ENDBRANCH  10  11
ENDBRANCH   6  10
ENDBRANCH   3   5
ENDBRANCH   2   3
ENDBRANCH   1   2
BRANCH   1  24
ATOM     24  C   UNL A   1      31.773  30.266  25.682  1.00  0.00     0.275 C 
BRANCH  24  25
ATOM     25  O   UNL A   1      32.407  30.335  26.972  1.00  0.00    -0.458 OA
BRANCH  25  26
ATOM     26  C   UNL A   1      33.077  31.480  27.233  1.00  0.00     0.338 C 
ATOM     27  O   UNL A   1      32.648  32.620  27.225  1.00  0.00    -0.246 OA
BRANCH  26  28
ATOM     28  C   UNL A   1      34.448  31.158  27.649  1.00  0.00     0.060 A 
ATOM     29  C   UNL A   1      34.757  29.827  27.913  1.00  0.00     0.016 A 
ATOM     30  C   UNL A   1      35.361  32.165  27.951  1.00  0.00     0.016 A 
ATOM     31  C   UNL A   1      35.935  29.495  28.574  1.00  0.00     0.010 A 
ATOM     32  C   UNL A   1      36.582  31.824  28.546  1.00  0.00     0.010 A 
ATOM     33  C   UNL A   1      36.858  30.493  28.913  1.00  0.00    -0.014 A 
BRANCH  33  34
ATOM     34  C   UNL A   1      38.036  30.157  29.759  1.00  0.00     0.031 A 
ATOM     35  C   UNL A   1      39.156  29.331  29.181  1.00  0.00     0.074 A 
ATOM     36  C   UNL A   1      38.152  30.636  31.013  1.00  0.00     0.049 A 
ATOM     37  N   UNL A   1      40.201  28.813  29.776  1.00  0.00    -0.248 NA
ATOM     38  C   UNL A   1      39.086  29.043  27.739  1.00  0.00     0.031 C 
ATOM     39  C   UNL A   1      37.184  31.502  31.684  1.00  0.00     0.029 A 
ATOM     40  N   UNL A   1      39.154  30.477  31.940  1.00  0.00    -0.354 N 
ATOM     41  C   UNL A   1      40.870  28.084  28.802  1.00  0.00     0.074 A 
ATOM     42  C   UNL A   1      40.124  28.236  27.572  1.00  0.00     0.031 C 
ATOM     43  C   UNL A   1      37.659  31.837  32.895  1.00  0.00     0.029 A 
ATOM     44  C   UNL A   1      38.932  31.155  33.112  1.00  0.00     0.049 A 
ATOM     45  H   UNL A   1      39.955  29.929  31.778  1.00  0.00     0.167 HD
ATOM     46  C   UNL A   1      42.001  27.350  28.923  1.00  0.00     0.037 A 
ATOM     47  C   UNL A   1      39.661  31.206  34.243  1.00  0.00     0.037 A 
ATOM     48  C   UNL A   1      42.788  27.254  30.123  1.00  0.00     0.049 A 
ATOM     49  C   UNL A   1      40.932  30.408  34.344  1.00  0.00     0.074 A 
ATOM     50  C   UNL A   1      43.933  26.510  30.352  1.00  0.00     0.029 A 
ATOM     51  N   UNL A   1      42.526  27.955  31.289  1.00  0.00    -0.354 N 
ATOM     52  N   UNL A   1      41.499  29.638  33.448  1.00  0.00    -0.248 NA
ATOM     53  C   UNL A   1      41.654  30.471  35.624  1.00  0.00     0.031 C 
ATOM     54  C   UNL A   1      44.361  26.758  31.662  1.00  0.00     0.029 A 
ATOM     55  C   UNL A   1      43.496  27.673  32.237  1.00  0.00     0.049 A 
ATOM     56  H   UNL A   1      41.764  28.563  31.424  1.00  0.00     0.167 HD
ATOM     57  C   UNL A   1      42.639  29.128  34.051  1.00  0.00     0.074 A 
ATOM     58  C   UNL A   1      42.701  29.695  35.382  1.00  0.00     0.031 C 
ATOM     59  C   UNL A   1      43.548  28.256  33.552  1.00  0.00     0.037 A 
BRANCH  46  60
ATOM     60  C   UNL A   1      42.436  26.558  27.728  1.00  0.00     0.064 A 
ATOM     61  C   UNL A   1      43.389  27.045  26.823  1.00  0.00     0.173 A 
ATOM     62  C   UNL A   1      41.899  25.282  27.498  1.00  0.00     0.173 A 
ATOM     63  F   UNL A   1      43.915  28.267  26.990  1.00  0.00    -0.203 F 
ATOM     64  C   UNL A   1      43.776  26.290  25.718  1.00  0.00     0.198 A 
ATOM     65  C   UNL A   1      42.303  24.521  26.405  1.00  0.00     0.198 A 
ATOM     66  F   UNL A   1      40.984  24.774  28.338  1.00  0.00    -0.203 F 
ATOM     67  F   UNL A   1      44.657  26.789  24.843  1.00  0.00    -0.200 F 
ATOM     68  C   UNL A   1      43.236  25.027  25.514  1.00  0.00     0.200 A 
ATOM     69  F   UNL A   1      41.785  23.300  26.212  1.00  0.00    -0.200 F 
ATOM     70  F   UNL A   1      43.610  24.302  24.451  1.00  0.00    -0.200 F 
ENDBRANCH  46  60
BRANCH  47  71
ATOM     71  C   UNL A   1      39.200  32.035  35.385  1.00  0.00     0.064 A 
ATOM     72  C   UNL A   1      39.554  33.389  35.479  1.00  0.00     0.173 A 
ATOM     73  C   UNL A   1      38.406  31.494  36.405  1.00  0.00     0.173 A 
ATOM     74  F   UNL A   1      40.336  33.942  34.541  1.00  0.00    -0.203 F 
ATOM     75  C   UNL A   1      39.138  34.167  36.558  1.00  0.00     0.198 A 
ATOM     76  C   UNL A   1      37.971  32.278  37.470  1.00  0.00     0.198 A 
ATOM     77  F   UNL A   1      38.046  30.203  36.361  1.00  0.00    -0.203 F 
ATOM     78  F   UNL A   1      39.522  35.447  36.645  1.00  0.00    -0.200 F 
ATOM     79  C   UNL A   1      38.341  33.613  37.549  1.00  0.00     0.200 A 
ATOM     80  F   UNL A   1      37.195  31.742  38.421  1.00  0.00    -0.200 F 
ATOM     81  F   UNL A   1      37.939  34.362  38.584  1.00  0.00    -0.200 F 
ENDBRANCH  47  71
BRANCH  59  82
ATOM     82  C   UNL A   1      44.694  27.880  34.440  1.00  0.00     0.064 A 
ATOM     83  C   UNL A   1      45.879  28.628  34.453  1.00  0.00     0.173 A 
ATOM     84  C   UNL A   1      44.594  26.779  35.302  1.00  0.00     0.173 A 
ATOM     85  F   UNL A   1      46.023  29.680  33.634  1.00  0.00    -0.203 F 
ATOM     86  C   UNL A   1      46.935  28.274  35.289  1.00  0.00     0.198 A 
ATOM     87  C   UNL A   1      45.645  26.439  36.149  1.00  0.00     0.198 A 
ATOM     88  F   UNL A   1      43.478  26.036  35.324  1.00  0.00    -0.203 F 
ATOM     89  F   UNL A   1      48.074  28.981  35.263  1.00  0.00    -0.200 F 
ATOM     90  C   UNL A   1      46.817  27.184  36.138  1.00  0.00     0.200 A 
ATOM     91  F   UNL A   1      45.529  25.388  36.973  1.00  0.00    -0.200 F 
ATOM     92  F   UNL A   1      47.834  26.844  36.941  1.00  0.00    -0.200 F 
ENDBRANCH  59  82
ENDBRANCH  33  34
ENDBRANCH  26  28
ENDBRANCH  25  26
ENDBRANCH  24  25
ENDBRANCH   1  24
TORSDOF 14
ENDMDL
MODEL 2
REMARK VINA RESULT:     -12.6      0.453      7.387
REMARK SMILES Cc1cc(C)c(C(=O)NC[C@H]2CC[C@@H](C(=O)OCCOC(=O)c3ccc(-c4c5nc(c(-c6c(F)c(F)c(F)c(F)c6F)c6ccc([nH]6)c(-c6c(F)c(F)c(F)c(F)c6F)c6nc(c(-c7c(F)c(F)c(F)c(F)c7F)c7ccc4[nH]7)C=C6)C=C5)cc3)O2)c(C)c1
REMARK SMILES IDX 18 1 17 2 15 3 16 4 14 5 11 6 12 7 86 8 13 9 10 10 9 11 7 12
REMARK SMILES IDX 8 13 6 15 1 16 2 17 3 18 89 19 4 20 87 21 5 22 88 23 19 24
REMARK SMILES IDX 20 25 21 26 22 27 23 28 24 29 85 30 25 31 84 32 26 33 27 34
REMARK SMILES IDX 28 35 78 36 29 37 83 38 77 39 79 40 30 41 82 42 76 43 75 44
REMARK SMILES IDX 31 46 63 47 43 48 62 49 44 50 47 51 61 52 80 53 45 54 46 55
REMARK SMILES IDX 60 57 81 58 48 59 32 60 33 61 41 62 34 63 35 64 39 65 42 66
REMARK SMILES IDX 36 67 37 68 40 69 38 70 64 71 65 72 73 73 66 74 67 75 71 76
REMARK SMILES IDX 74 77 68 78 69 79 72 80 70 81 49 82 50 83 58 84 51 85 52 86
REMARK SMILES IDX 56 87 59 88 53 89 54 90 57 91 55 92
REMARK H PARENT 9 14 79 45 47 56
REMARK Flexibility Score: inf
ROOT
ATOM      1  C   UNL A   1      32.408  29.695  25.037  1.00  0.00     0.274 C 
ENDROOT
BRANCH   1   2
ATOM      2  O   UNL A   1      31.456  29.249  24.051  1.00  0.00    -0.460 OA
BRANCH   2   3
ATOM      3  C   UNL A   1      31.912  28.359  23.127  1.00  0.00     0.335 C 
ATOM      4  O   UNL A   1      33.038  28.360  22.644  1.00  0.00    -0.249 OA
BRANCH   3   5
ATOM      5  C   UNL A   1      30.822  27.354  22.747  1.00  0.00     0.228 C 
ATOM      6  C   UNL A   1      30.100  25.858  24.391  1.00  0.00     0.138 C 
ATOM      7  C   UNL A   1      28.861  26.550  23.859  1.00  0.00     0.037 C 
ATOM      8  O   UNL A   1      31.108  26.101  23.393  1.00  0.00    -0.361 OA
ATOM      9  C   UNL A   1      29.434  27.788  23.218  1.00  0.00     0.047 C 
BRANCH   6  10
ATOM     10  C   UNL A   1      30.581  26.391  25.760  1.00  0.00     0.148 C 
BRANCH  10  11
ATOM     11  N   UNL A   1      31.033  25.319  26.614  1.00  0.00    -0.349 N 
ATOM     12  C   UNL A   1      31.844  24.225  26.568  1.00  0.00     0.251 C 
ATOM     13  O   UNL A   1      31.575  23.473  27.517  1.00  0.00    -0.269 OA
ATOM     14  H   UNL A   1      30.631  25.405  27.510  1.00  0.00     0.163 HD
BRANCH  12  15
ATOM     15  C   UNL A   1      32.931  23.804  25.585  1.00  0.00     0.045 A 
ATOM     16  C   UNL A   1      36.631  22.854  23.435  1.00  0.00     0.044 C 
ATOM     17  C   UNL A   1      35.346  23.201  24.122  1.00  0.00    -0.051 A 
ATOM     18  C   UNL A   1      35.156  24.454  24.677  1.00  0.00     0.007 A 
ATOM     19  C   UNL A   1      34.309  22.285  24.222  1.00  0.00     0.007 A 
ATOM     20  C   UNL A   1      33.966  24.781  25.366  1.00  0.00    -0.038 A 
ATOM     21  C   UNL A   1      33.101  22.561  24.920  1.00  0.00    -0.038 A 
ATOM     22  C   UNL A   1      33.896  26.219  25.841  1.00  0.00     0.045 C 
ATOM     23  C   UNL A   1      32.116  21.441  24.817  1.00  0.00     0.045 C 
ENDBRANCH  12  15
ENDBRANCH  10  11
ENDBRANCH   6  10
ENDBRANCH   3   5
ENDBRANCH   2   3
ENDBRANCH   1   2
BRANCH   1  24
ATOM     24  C   UNL A   1      31.760  30.696  25.991  1.00  0.00     0.275 C 
BRANCH  24  25
ATOM     25  O   UNL A   1      32.483  30.710  27.236  1.00  0.00    -0.458 OA
BRANCH  25  26
ATOM     26  C   UNL A   1      33.278  31.785  27.438  1.00  0.00     0.338 C 
ATOM     27  O   UNL A   1      32.964  32.961  27.446  1.00  0.00    -0.246 OA
BRANCH  26  28
ATOM     28  C   UNL A   1      34.637  31.330  27.763  1.00  0.00     0.060 A 
ATOM     29  C   UNL A   1      34.841  29.970  27.968  1.00  0.00     0.016 A 
ATOM     30  C   UNL A   1      35.650  32.243  28.041  1.00  0.00     0.016 A 
ATOM     31  C   UNL A   1      36.021  29.513  28.548  1.00  0.00     0.010 A 
ATOM     32  C   UNL A   1      36.868  31.778  28.552  1.00  0.00     0.010 A 
ATOM     33  C   UNL A   1      37.045  30.416  28.862  1.00  0.00    -0.014 A 
BRANCH  33  34
ATOM     34  C   UNL A   1      38.235  29.949  29.627  1.00  0.00     0.031 A 
ATOM     35  C   UNL A   1      38.413  30.382  31.059  1.00  0.00     0.074 A 
ATOM     36  C   UNL A   1      39.119  29.091  29.084  1.00  0.00     0.049 A 
ATOM     37  N   UNL A   1      39.435  30.206  31.860  1.00  0.00    -0.248 NA
ATOM     38  C   UNL A   1      37.296  31.119  31.671  1.00  0.00     0.031 C 
ATOM     39  C   UNL A   1      39.041  28.532  27.735  1.00  0.00     0.029 A 
ATOM     40  N   UNL A   1      40.250  28.519  29.615  1.00  0.00    -0.354 N 
ATOM     41  C   UNL A   1      39.113  30.867  33.038  1.00  0.00     0.074 A 
ATOM     42  C   UNL A   1      37.795  31.437  32.856  1.00  0.00     0.031 C 
ATOM     43  C   UNL A   1      40.051  27.664  27.560  1.00  0.00     0.029 A 
ATOM     44  C   UNL A   1      40.885  27.656  28.759  1.00  0.00     0.049 A 
ATOM     45  H   UNL A   1      40.574  28.712  30.525  1.00  0.00     0.167 HD
ATOM     46  C   UNL A   1      39.850  30.993  34.166  1.00  0.00     0.037 A 
ATOM     47  C   UNL A   1      42.023  26.951  28.913  1.00  0.00     0.037 A 
ATOM     48  C   UNL A   1      41.128  30.370  34.380  1.00  0.00     0.049 A 
ATOM     49  C   UNL A   1      42.809  27.081  30.188  1.00  0.00     0.074 A 
ATOM     50  C   UNL A   1      41.965  30.463  35.479  1.00  0.00     0.029 A 
ATOM     51  N   UNL A   1      41.736  29.503  33.486  1.00  0.00    -0.354 N 
ATOM     52  N   UNL A   1      42.544  27.794  31.255  1.00  0.00    -0.248 NA
ATOM     53  C   UNL A   1      44.066  26.322  30.272  1.00  0.00     0.031 C 
ATOM     54  C   UNL A   1      43.085  29.656  35.245  1.00  0.00     0.029 A 
ATOM     55  C   UNL A   1      42.932  29.045  34.013  1.00  0.00     0.049 A 
ATOM     56  H   UNL A   1      41.373  29.253  32.606  1.00  0.00     0.167 HD
ATOM     57  C   UNL A   1      43.593  27.570  32.134  1.00  0.00     0.074 A 
ATOM     58  C   UNL A   1      44.490  26.634  31.489  1.00  0.00     0.031 C 
ATOM     59  C   UNL A   1      43.805  28.104  33.362  1.00  0.00     0.037 A 
BRANCH  46  60
ATOM     60  C   UNL A   1      39.304  31.875  35.248  1.00  0.00     0.064 A 
ATOM     61  C   UNL A   1      38.495  31.373  36.275  1.00  0.00     0.173 A 
ATOM     62  C   UNL A   1      39.614  33.244  35.260  1.00  0.00     0.173 A 
ATOM     63  F   UNL A   1      38.154  30.076  36.293  1.00  0.00    -0.203 F 
ATOM     64  C   UNL A   1      37.998  32.214  37.268  1.00  0.00     0.198 A 
ATOM     65  C   UNL A   1      39.134  34.078  36.266  1.00  0.00     0.198 A 
ATOM     66  F   UNL A   1      40.386  33.771  34.297  1.00  0.00    -0.203 F 
ATOM     67  F   UNL A   1      37.192  31.722  38.219  1.00  0.00    -0.200 F 
ATOM     68  C   UNL A   1      38.322  33.563  37.266  1.00  0.00     0.200 A 
ATOM     69  F   UNL A   1      39.452  35.379  36.265  1.00  0.00    -0.200 F 
ATOM     70  F   UNL A   1      37.844  34.370  38.222  1.00  0.00    -0.200 F 
ENDBRANCH  46  60
BRANCH  47  71
ATOM     71  C   UNL A   1      42.499  26.066  27.822  1.00  0.00     0.064 A 
ATOM     72  C   UNL A   1      42.016  24.755  27.696  1.00  0.00     0.173 A 
ATOM     73  C   UNL A   1      43.449  26.506  26.888  1.00  0.00     0.173 A 
ATOM     74  F   UNL A   1      41.128  24.283  28.584  1.00  0.00    -0.203 F 
ATOM     75  C   UNL A   1      42.473  23.915  26.684  1.00  0.00     0.198 A 
ATOM     76  C   UNL A   1      43.887  25.673  25.862  1.00  0.00     0.198 A 
ATOM     77  F   UNL A   1      43.943  27.748  26.970  1.00  0.00    -0.203 F 
ATOM     78  F   UNL A   1      42.025  22.655  26.609  1.00  0.00    -0.200 F 
ATOM     79  C   UNL A   1      43.403  24.376  25.763  1.00  0.00     0.200 A 
ATOM     80  F   UNL A   1      44.779  26.124  24.971  1.00  0.00    -0.200 F 
ATOM     81  F   UNL A   1      43.840  23.568  24.788  1.00  0.00    -0.200 F 
ENDBRANCH  47  71
BRANCH  59  82
ATOM     82  C   UNL A   1      45.039  27.672  34.092  1.00  0.00     0.064 A 
ATOM     83  C   UNL A   1      46.242  28.380  33.968  1.00  0.00     0.173 A 
ATOM     84  C   UNL A   1      45.009  26.557  34.941  1.00  0.00     0.173 A 
ATOM     85  F   UNL A   1      46.319  29.444  33.155  1.00  0.00    -0.203 F 
ATOM     86  C   UNL A   1      47.381  27.974  34.658  1.00  0.00     0.198 A 
ATOM     87  C   UNL A   1      46.146  26.165  35.642  1.00  0.00     0.198 A 
ATOM     88  F   UNL A   1      43.879  25.851  35.091  1.00  0.00    -0.203 F 
ATOM     89  F   UNL A   1      48.532  28.643  34.501  1.00  0.00    -0.200 F 
ATOM     90  C   UNL A   1      47.332  26.870  35.497  1.00  0.00     0.200 A 
ATOM     91  F   UNL A   1      46.096  25.101  36.456  1.00  0.00    -0.200 F 
ATOM     92  F   UNL A   1      48.430  26.481  36.159  1.00  0.00    -0.200 F 
ENDBRANCH  59  82
ENDBRANCH  33  34
ENDBRANCH  26  28
ENDBRANCH  25  26
ENDBRANCH  24  25
ENDBRANCH   1  24
TORSDOF 14
ENDMDL
MODEL 3
REMARK VINA RESULT:     -12.6      0.449      7.305
REMARK SMILES Cc1cc(C)c(C(=O)NC[C@H]2CC[C@@H](C(=O)OCCOC(=O)c3ccc(-c4c5nc(c(-c6c(F)c(F)c(F)c(F)c6F)c6ccc([nH]6)c(-c6c(F)c(F)c(F)c(F)c6F)c6nc(c(-c7c(F)c(F)c(F)c(F)c7F)c7ccc4[nH]7)C=C6)C=C5)cc3)O2)c(C)c1
REMARK SMILES IDX 18 1 17 2 15 3 16 4 14 5 11 6 12 7 86 8 13 9 10 10 9 11 7 12
REMARK SMILES IDX 8 13 6 15 1 16 2 17 3 18 89 19 4 20 87 21 5 22 88 23 19 24
REMARK SMILES IDX 20 25 21 26 22 27 23 28 24 29 85 30 25 31 84 32 26 33 27 34
REMARK SMILES IDX 28 35 78 36 29 37 83 38 77 39 79 40 30 41 82 42 76 43 75 44
REMARK SMILES IDX 31 46 63 47 43 48 62 49 44 50 47 51 61 52 80 53 45 54 46 55
REMARK SMILES IDX 60 57 81 58 48 59 32 60 33 61 41 62 34 63 35 64 39 65 42 66
REMARK SMILES IDX 36 67 37 68 40 69 38 70 64 71 65 72 73 73 66 74 67 75 71 76
REMARK SMILES IDX 74 77 68 78 69 79 72 80 70 81 49 82 50 83 58 84 51 85 52 86
REMARK SMILES IDX 56 87 59 88 53 89 54 90 57 91 55 92
REMARK H PARENT 9 14 79 45 47 56
REMARK Flexibility Score: inf
ROOT
ATOM      1  C   UNL A   1      32.323  29.684  25.295  1.00  0.00     0.274 C 
ENDROOT
BRANCH   1   2
ATOM      2  O   UNL A   1      31.386  29.265  24.283  1.00  0.00    -0.460 OA
BRANCH   2   3
ATOM      3  C   UNL A   1      31.874  28.454  23.303  1.00  0.00     0.335 C 
ATOM      4  O   UNL A   1      32.994  28.538  22.813  1.00  0.00    -0.249 OA
BRANCH   3   5
ATOM      5  C   UNL A   1      30.828  27.425  22.870  1.00  0.00     0.228 C 
ATOM      6  C   UNL A   1      30.094  25.883  24.466  1.00  0.00     0.138 C 
ATOM      7  C   UNL A   1      28.854  26.547  23.900  1.00  0.00     0.037 C 
ATOM      8  O   UNL A   1      31.128  26.170  23.507  1.00  0.00    -0.361 OA
ATOM      9  C   UNL A   1      29.412  27.810  23.297  1.00  0.00     0.047 C 
BRANCH   6  10
ATOM     10  C   UNL A   1      30.510  26.408  25.858  1.00  0.00     0.148 C 
BRANCH  10  11
ATOM     11  N   UNL A   1      31.014  25.345  26.694  1.00  0.00    -0.349 N 
ATOM     12  C   UNL A   1      31.839  24.263  26.615  1.00  0.00     0.251 C 
ATOM     13  O   UNL A   1      31.622  23.509  27.575  1.00  0.00    -0.269 OA
ATOM     14  H   UNL A   1      30.649  25.426  27.606  1.00  0.00     0.163 HD
BRANCH  12  15
ATOM     15  C   UNL A   1      32.889  23.856  25.588  1.00  0.00     0.045 A 
ATOM     16  C   UNL A   1      36.509  22.902  23.307  1.00  0.00     0.044 C 
ATOM     17  C   UNL A   1      35.251  23.254  24.040  1.00  0.00    -0.051 A 
ATOM     18  C   UNL A   1      35.110  24.485  24.655  1.00  0.00     0.007 A 
ATOM     19  C   UNL A   1      34.191  22.363  24.125  1.00  0.00     0.007 A 
ATOM     20  C   UNL A   1      33.948  24.813  25.386  1.00  0.00    -0.038 A 
ATOM     21  C   UNL A   1      33.009  22.641  24.864  1.00  0.00    -0.038 A 
ATOM     22  C   UNL A   1      33.930  26.230  25.927  1.00  0.00     0.045 C 
ATOM     23  C   UNL A   1      31.989  21.555  24.736  1.00  0.00     0.045 C 
ENDBRANCH  12  15
ENDBRANCH  10  11
ENDBRANCH   6  10
ENDBRANCH   3   5
ENDBRANCH   2   3
ENDBRANCH   1   2
BRANCH   1  24
ATOM     24  C   UNL A   1      31.785  30.894  26.053  1.00  0.00     0.275 C 
BRANCH  24  25
ATOM     25  O   UNL A   1      32.429  30.982  27.338  1.00  0.00    -0.458 OA
BRANCH  25  26
ATOM     26  C   UNL A   1      33.239  32.050  27.514  1.00  0.00     0.338 C 
ATOM     27  O   UNL A   1      32.937  33.229  27.519  1.00  0.00    -0.246 OA
BRANCH  26  28
ATOM     28  C   UNL A   1      34.600  31.585  27.813  1.00  0.00     0.060 A 
ATOM     29  C   UNL A   1      34.797  30.222  28.012  1.00  0.00     0.016 A 
ATOM     30  C   UNL A   1      35.625  32.490  28.073  1.00  0.00     0.016 A 
ATOM     31  C   UNL A   1      35.983  29.756  28.570  1.00  0.00     0.010 A 
ATOM     32  C   UNL A   1      36.849  32.014  28.562  1.00  0.00     0.010 A 
ATOM     33  C   UNL A   1      37.021  30.650  28.867  1.00  0.00    -0.014 A 
BRANCH  33  34
ATOM     34  C   UNL A   1      38.220  30.173  29.609  1.00  0.00     0.031 A 
ATOM     35  C   UNL A   1      38.406  30.566  31.052  1.00  0.00     0.074 A 
ATOM     36  C   UNL A   1      39.108  29.339  29.035  1.00  0.00     0.049 A 
ATOM     37  N   UNL A   1      39.436  30.378  31.839  1.00  0.00    -0.248 NA
ATOM     38  C   UNL A   1      37.287  31.275  31.692  1.00  0.00     0.031 C 
ATOM     39  C   UNL A   1      39.025  28.818  27.671  1.00  0.00     0.029 A 
ATOM     40  N   UNL A   1      40.249  28.763  29.541  1.00  0.00    -0.354 N 
ATOM     41  C   UNL A   1      39.116  31.002  33.038  1.00  0.00     0.074 A 
ATOM     42  C   UNL A   1      37.792  31.564  32.883  1.00  0.00     0.031 C 
ATOM     43  C   UNL A   1      40.041  27.965  27.464  1.00  0.00     0.029 A 
ATOM     44  C   UNL A   1      40.885  27.930  28.656  1.00  0.00     0.049 A 
ATOM     45  H   UNL A   1      40.578  28.933  30.453  1.00  0.00     0.167 HD
ATOM     46  C   UNL A   1      39.861  31.102  34.164  1.00  0.00     0.037 A 
ATOM     47  C   UNL A   1      42.030  27.232  28.782  1.00  0.00     0.037 A 
ATOM     48  C   UNL A   1      41.146  30.485  34.350  1.00  0.00     0.049 A 
ATOM     49  C   UNL A   1      42.826  27.334  30.054  1.00  0.00     0.074 A 
ATOM     50  C   UNL A   1      41.991  30.555  35.445  1.00  0.00     0.029 A 
ATOM     51  N   UNL A   1      41.756  29.650  33.427  1.00  0.00    -0.354 N 
ATOM     52  N   UNL A   1      42.562  28.013  31.143  1.00  0.00    -0.248 NA
ATOM     53  C   UNL A   1      44.090  26.584  30.106  1.00  0.00     0.031 C 
ATOM     54  C   UNL A   1      43.117  29.766  35.180  1.00  0.00     0.029 A 
ATOM     55  C   UNL A   1      42.959  29.188  33.932  1.00  0.00     0.049 A 
ATOM     56  H   UNL A   1      41.388  29.421  32.543  1.00  0.00     0.167 HD
ATOM     57  C   UNL A   1      43.620  27.774  32.007  1.00  0.00     0.074 A 
ATOM     58  C   UNL A   1      44.520  26.865  31.328  1.00  0.00     0.031 C 
ATOM     59  C   UNL A   1      43.836  28.275  33.247  1.00  0.00     0.037 A 
BRANCH  46  60
ATOM     60  C   UNL A   1      39.315  31.948  35.274  1.00  0.00     0.064 A 
ATOM     61  C   UNL A   1      38.523  31.407  36.296  1.00  0.00     0.173 A 
ATOM     62  C   UNL A   1      39.608  33.320  35.321  1.00  0.00     0.173 A 
ATOM     63  F   UNL A   1      38.200  30.106  36.282  1.00  0.00    -0.203 F 
ATOM     64  C   UNL A   1      38.026  32.215  37.316  1.00  0.00     0.198 A 
ATOM     65  C   UNL A   1      39.128  34.120  36.353  1.00  0.00     0.198 A 
ATOM     66  F   UNL A   1      40.363  33.882  34.364  1.00  0.00    -0.203 F 
ATOM     67  F   UNL A   1      37.237  31.688  38.262  1.00  0.00    -0.200 F 
ATOM     68  C   UNL A   1      38.333  33.568  37.347  1.00  0.00     0.200 A 
ATOM     69  F   UNL A   1      39.429  35.425  36.384  1.00  0.00    -0.200 F 
ATOM     70  F   UNL A   1      37.855  34.343  38.330  1.00  0.00    -0.200 F 
ENDBRANCH  46  60
BRANCH  47  71
ATOM     71  C   UNL A   1      42.507  26.383  27.661  1.00  0.00     0.064 A 
ATOM     72  C   UNL A   1      43.465  26.860  26.756  1.00  0.00     0.173 A 
ATOM     73  C   UNL A   1      42.011  25.086  27.469  1.00  0.00     0.173 A 
ATOM     74  F   UNL A   1      43.946  28.105  26.885  1.00  0.00    -0.203 F 
ATOM     75  C   UNL A   1      43.902  26.072  25.692  1.00  0.00     0.198 A 
ATOM     76  C   UNL A   1      42.467  24.291  26.420  1.00  0.00     0.198 A 
ATOM     77  F   UNL A   1      41.091  24.588  28.306  1.00  0.00    -0.203 F 
ATOM     78  F   UNL A   1      44.789  26.565  24.818  1.00  0.00    -0.200 F 
ATOM     79  C   UNL A   1      43.408  24.787  25.529  1.00  0.00     0.200 A 
ATOM     80  F   UNL A   1      41.993  23.047  26.270  1.00  0.00    -0.200 F 
ATOM     81  F   UNL A   1      43.831  24.029  24.508  1.00  0.00    -0.200 F 
ENDBRANCH  47  71
BRANCH  59  82
ATOM     82  C   UNL A   1      45.079  27.834  33.956  1.00  0.00     0.064 A 
ATOM     83  C   UNL A   1      46.275  28.558  33.845  1.00  0.00     0.173 A 
ATOM     84  C   UNL A   1      45.067  26.693  34.771  1.00  0.00     0.173 A 
ATOM     85  F   UNL A   1      46.335  29.646  33.064  1.00  0.00    -0.203 F 
ATOM     86  C   UNL A   1      47.423  28.143  34.515  1.00  0.00     0.198 A 
ATOM     87  C   UNL A   1      46.213  26.292  35.452  1.00  0.00     0.198 A 
ATOM     88  F   UNL A   1      43.945  25.971  34.908  1.00  0.00    -0.203 F 
ATOM     89  F   UNL A   1      48.566  28.828  34.370  1.00  0.00    -0.200 F 
ATOM     90  C   UNL A   1      47.391  27.014  35.320  1.00  0.00     0.200 A 
ATOM     91  F   UNL A   1      46.180  25.204  36.234  1.00  0.00    -0.200 F 
ATOM     92  F   UNL A   1      48.497  26.616  35.963  1.00  0.00    -0.200 F 
ENDBRANCH  59  82
ENDBRANCH  33  34
ENDBRANCH  26  28
ENDBRANCH  25  26
ENDBRANCH  24  25
ENDBRANCH   1  24
TORSDOF 14
ENDMDL
