MODEL 1
REMARK VINA RESULT:     -11.6      0.000      0.000
REMARK SMILES C#CCN(CC(=O)OCCOC(=O)c1ccc(-c2c3nc(c(-c4c(F)c(F)c(F)c(F)c4F)c4ccc([nH]4)c(-c4c(F)c(F)c(F)c(F)c4F)c4nc(c(-c5c(F)c(F)c(F)c(F)c5F)c5ccc2[nH]5)C=C4)C=C3)cc1)C(=O)Nc1cccc(C#N)c1
REMARK SMILES IDX 9 1 8 2 6 3 7 4 5 5 4 6 3 7 2 8 1 9 77 10 78 11 79 12 80 14
REMARK SMILES IDX 81 15 87 16 82 17 84 18 83 19 85 20 86 21 10 22 11 23 12 24
REMARK SMILES IDX 13 25 14 26 15 27 76 28 16 29 75 30 17 31 18 32 19 33 69 34
REMARK SMILES IDX 20 35 74 36 68 37 70 38 21 39 73 40 67 41 66 42 22 44 54 45
REMARK SMILES IDX 34 46 53 47 35 48 38 49 52 50 71 51 36 52 37 53 51 55 72 56
REMARK SMILES IDX 39 57 23 58 24 59 32 60 25 61 26 62 30 63 33 64 27 65 28 66
REMARK SMILES IDX 31 67 29 68 55 69 56 70 64 71 57 72 58 73 62 74 65 75 59 76
REMARK SMILES IDX 60 77 63 78 61 79 40 80 41 81 49 82 42 83 43 84 47 85 50 86
REMARK SMILES IDX 44 87 45 88 48 89 46 90
REMARK H PARENT 79 13 70 43 38 54
REMARK Flexibility Score: inf
ROOT
ATOM      1  C   UNL A   1      30.768  29.676  24.584  1.00  0.00     0.274 C 
ENDROOT
BRANCH   1   2
ATOM      2  O   UNL A   1      30.662  28.785  23.426  1.00  0.00    -0.461 OA
BRANCH   2   3
ATOM      3  C   UNL A   1      30.521  27.436  23.677  1.00  0.00     0.325 C 
ATOM      4  O   UNL A   1      29.759  26.976  24.520  1.00  0.00    -0.250 OA
BRANCH   3   5
ATOM      5  C   UNL A   1      31.144  26.554  22.536  1.00  0.00     0.245 C 
BRANCH   5   6
ATOM      6  N   UNL A   1      32.607  26.563  22.480  1.00  0.00    -0.302 N 
BRANCH   6   7
ATOM      7  C   UNL A   1      33.040  25.534  21.649  1.00  0.00     0.211 C 
BRANCH   7   8
ATOM      8  C   UNL A   1      32.952  24.107  22.164  1.00  0.00    -0.085 C 
ATOM      9  C   UNL A   1      32.877  22.882  22.607  1.00  0.00     0.006 C 
ENDBRANCH   7   8
ENDBRANCH   6   7
BRANCH   6  10
ATOM     10  C   UNL A   1      33.631  27.098  23.207  1.00  0.00     0.323 C 
ATOM     11  O   UNL A   1      34.249  28.103  22.827  1.00  0.00    -0.248 OA
ATOM     12  N   UNL A   1      33.970  26.708  24.434  1.00  0.00    -0.308 N 
ATOM     13  H   UNL A   1      34.452  27.401  24.940  1.00  0.00     0.171 HD
BRANCH  12  14
ATOM     14  C   UNL A   1      33.794  25.553  25.145  1.00  0.00     0.044 A 
ATOM     15  C   UNL A   1      35.162  24.409  25.281  1.00  0.00     0.026 A 
ATOM     16  C   UNL A   1      32.249  25.000  25.772  1.00  0.00     0.045 A 
ATOM     17  C   UNL A   1      34.792  22.627  26.162  1.00  0.00     0.004 A 
ATOM     18  C   UNL A   1      31.935  23.428  26.526  1.00  0.00     0.054 A 
ATOM     19  C   UNL A   1      33.155  22.241  26.733  1.00  0.00     0.019 A 
BRANCH  18  20
ATOM     20  C   UNL A   1      30.608  23.209  27.016  1.00  0.00     0.099 C 
ATOM     21  N   UNL A   1      29.552  22.978  27.433  1.00  0.00    -0.192 NA
ENDBRANCH  18  20
ENDBRANCH  12  14
ENDBRANCH   6  10
ENDBRANCH   5   6
ENDBRANCH   3   5
ENDBRANCH   2   3
ENDBRANCH   1   2
BRANCH   1  22
ATOM     22  C   UNL A   1      32.247  29.796  25.062  1.00  0.00     0.275 C 
BRANCH  22  23
ATOM     23  O   UNL A   1      32.321  30.019  26.505  1.00  0.00    -0.458 OA
BRANCH  23  24
ATOM     24  C   UNL A   1      32.602  31.288  26.929  1.00  0.00     0.338 C 
ATOM     25  O   UNL A   1      31.820  32.220  26.762  1.00  0.00    -0.246 OA
BRANCH  24  26
ATOM     26  C   UNL A   1      33.960  31.536  27.809  1.00  0.00     0.060 A 
ATOM     27  C   UNL A   1      35.412  32.948  28.002  1.00  0.00     0.016 A 
ATOM     28  C   UNL A   1      34.449  29.832  28.198  1.00  0.00     0.016 A 
ATOM     29  C   UNL A   1      37.059  32.478  28.454  1.00  0.00     0.010 A 
ATOM     30  C   UNL A   1      36.111  29.522  28.698  1.00  0.00     0.010 A 
ATOM     31  C   UNL A   1      37.345  30.804  28.831  1.00  0.00    -0.014 A 
BRANCH  31  32
ATOM     32  C   UNL A   1      38.568  30.509  29.583  1.00  0.00     0.031 A 
ATOM     33  C   UNL A   1      39.528  29.537  29.007  1.00  0.00     0.074 A 
ATOM     34  C   UNL A   1      38.664  31.030  30.824  1.00  0.00     0.049 A 
ATOM     35  N   UNL A   1      40.493  28.895  29.597  1.00  0.00    -0.248 NA
ATOM     36  C   UNL A   1      39.353  29.205  27.583  1.00  0.00     0.031 C 
ATOM     37  C   UNL A   1      37.742  31.999  31.436  1.00  0.00     0.029 A 
ATOM     38  N   UNL A   1      39.561  30.786  31.827  1.00  0.00    -0.354 N 
ATOM     39  C   UNL A   1      41.021  28.056  28.628  1.00  0.00     0.074 A 
ATOM     40  C   UNL A   1      40.241  28.235  27.426  1.00  0.00     0.031 C 
ATOM     41  C   UNL A   1      38.105  32.254  32.695  1.00  0.00     0.029 A 
ATOM     42  C   UNL A   1      39.231  31.406  33.010  1.00  0.00     0.049 A 
ATOM     43  H   UNL A   1      40.360  30.223  31.714  1.00  0.00     0.167 HD
ATOM     44  C   UNL A   1      42.075  27.222  28.761  1.00  0.00     0.037 A 
ATOM     45  C   UNL A   1      39.748  31.259  34.240  1.00  0.00     0.037 A 
ATOM     46  C   UNL A   1      42.795  27.094  30.001  1.00  0.00     0.049 A 
ATOM     47  C   UNL A   1      40.886  30.300  34.366  1.00  0.00     0.074 A 
ATOM     48  C   UNL A   1      43.889  26.305  30.295  1.00  0.00     0.029 A 
ATOM     49  N   UNL A   1      42.470  27.786  31.166  1.00  0.00    -0.354 N 
ATOM     50  N   UNL A   1      41.402  29.518  33.446  1.00  0.00    -0.248 NA
ATOM     51  C   UNL A   1      41.529  30.211  35.675  1.00  0.00     0.031 C 
ATOM     52  C   UNL A   1      44.190  26.480  31.651  1.00  0.00     0.029 A 
ATOM     53  C   UNL A   1      43.333  27.433  32.186  1.00  0.00     0.049 A 
ATOM     54  H   UNL A   1      41.732  28.433  31.251  1.00  0.00     0.167 HD
ATOM     55  C   UNL A   1      42.465  28.875  34.049  1.00  0.00     0.074 A 
ATOM     56  C   UNL A   1      42.513  29.362  35.418  1.00  0.00     0.031 C 
ATOM     57  C   UNL A   1      43.332  27.975  33.525  1.00  0.00     0.037 A 
BRANCH  44  58
ATOM     58  C   UNL A   1      42.459  26.394  27.569  1.00  0.00     0.064 A 
ATOM     59  C   UNL A   1      41.872  25.143  27.314  1.00  0.00     0.173 A 
ATOM     60  C   UNL A   1      43.452  26.837  26.683  1.00  0.00     0.173 A 
ATOM     61  F   UNL A   1      40.932  24.657  28.139  1.00  0.00    -0.203 F 
ATOM     62  C   UNL A   1      42.295  24.351  26.248  1.00  0.00     0.198 A 
ATOM     63  C   UNL A   1      43.848  26.059  25.597  1.00  0.00     0.198 A 
ATOM     64  F   UNL A   1      44.055  28.020  26.877  1.00  0.00    -0.203 F 
ATOM     65  F   UNL A   1      41.771  23.130  26.073  1.00  0.00    -0.200 F 
ATOM     66  C   UNL A   1      43.279  24.812  25.387  1.00  0.00     0.200 A 
ATOM     67  F   UNL A   1      44.795  26.509  24.761  1.00  0.00    -0.200 F 
ATOM     68  F   UNL A   1      43.689  24.049  24.366  1.00  0.00    -0.200 F 
ENDBRANCH  44  58
BRANCH  45  69
ATOM     69  C   UNL A   1      39.211  32.047  35.379  1.00  0.00     0.064 A 
ATOM     70  C   UNL A   1      38.390  31.441  36.339  1.00  0.00     0.173 A 
ATOM     71  C   UNL A   1      39.554  33.395  35.579  1.00  0.00     0.173 A 
ATOM     72  F   UNL A   1      38.047  30.151  36.204  1.00  0.00    -0.203 F 
ATOM     73  C   UNL A   1      37.905  32.155  37.432  1.00  0.00     0.198 A 
ATOM     74  C   UNL A   1      39.093  34.101  36.690  1.00  0.00     0.198 A 
ATOM     75  F   UNL A   1      40.371  34.017  34.717  1.00  0.00    -0.203 F 
ATOM     76  F   UNL A   1      37.093  31.556  38.313  1.00  0.00    -0.200 F 
ATOM     77  C   UNL A   1      38.259  33.484  37.610  1.00  0.00     0.200 A 
ATOM     78  F   UNL A   1      39.466  35.376  36.875  1.00  0.00    -0.200 F 
ATOM     79  F   UNL A   1      37.800  34.168  38.667  1.00  0.00    -0.200 F 
ENDBRANCH  45  69
BRANCH  57  80
ATOM     80  C   UNL A   1      44.438  27.526  34.425  1.00  0.00     0.064 A 
ATOM     81  C   UNL A   1      44.327  26.373  35.213  1.00  0.00     0.173 A 
ATOM     82  C   UNL A   1      45.647  28.235  34.443  1.00  0.00     0.173 A 
ATOM     83  F   UNL A   1      43.178  25.680  35.240  1.00  0.00    -0.203 F 
ATOM     84  C   UNL A   1      45.388  25.954  36.005  1.00  0.00     0.198 A 
ATOM     85  C   UNL A   1      46.719  27.791  35.205  1.00  0.00     0.198 A 
ATOM     86  F   UNL A   1      45.793  29.344  33.702  1.00  0.00    -0.203 F 
ATOM     87  F   UNL A   1      45.250  24.877  36.789  1.00  0.00    -0.200 F 
ATOM     88  C   UNL A   1      46.587  26.654  35.989  1.00  0.00     0.200 A 
ATOM     89  F   UNL A   1      47.880  28.456  35.175  1.00  0.00    -0.200 F 
ATOM     90  F   UNL A   1      47.617  26.235  36.736  1.00  0.00    -0.200 F 
ENDBRANCH  57  80
ENDBRANCH  31  32
ENDBRANCH  24  26
ENDBRANCH  23  24
ENDBRANCH  22  23
ENDBRANCH   1  22
TORSDOF 17
ENDMDL
MODEL 2
REMARK VINA RESULT:     -11.5      4.375      9.850
REMARK SMILES C#CCN(CC(=O)OCCOC(=O)c1ccc(-c2c3nc(c(-c4c(F)c(F)c(F)c(F)c4F)c4ccc([nH]4)c(-c4c(F)c(F)c(F)c(F)c4F)c4nc(c(-c5c(F)c(F)c(F)c(F)c5F)c5ccc2[nH]5)C=C4)C=C3)cc1)C(=O)Nc1cccc(C#N)c1
REMARK SMILES IDX 9 1 8 2 6 3 7 4 5 5 4 6 3 7 2 8 1 9 77 10 78 11 79 12 80 14
REMARK SMILES IDX 81 15 87 16 82 17 84 18 83 19 85 20 86 21 10 22 11 23 12 24
REMARK SMILES IDX 13 25 14 26 15 27 76 28 16 29 75 30 17 31 18 32 19 33 69 34
REMARK SMILES IDX 20 35 74 36 68 37 70 38 21 39 73 40 67 41 66 42 22 44 54 45
REMARK SMILES IDX 34 46 53 47 35 48 38 49 52 50 71 51 36 52 37 53 51 55 72 56
REMARK SMILES IDX 39 57 23 58 24 59 32 60 25 61 26 62 30 63 33 64 27 65 28 66
REMARK SMILES IDX 31 67 29 68 55 69 56 70 64 71 57 72 58 73 62 74 65 75 59 76
REMARK SMILES IDX 60 77 63 78 61 79 40 80 41 81 49 82 42 83 43 84 47 85 50 86
REMARK SMILES IDX 44 87 45 88 48 89 46 90
REMARK H PARENT 79 13 70 43 38 54
REMARK Flexibility Score: inf
ROOT
ATOM      1  C   UNL A   1      34.641  21.067  25.468  1.00  0.00     0.274 C 
ENDROOT
BRANCH   1   2
ATOM      2  O   UNL A   1      34.658  21.684  26.796  1.00  0.00    -0.461 OA
BRANCH   2   3
ATOM      3  C   UNL A   1      33.501  22.305  27.219  1.00  0.00     0.325 C 
ATOM      4  O   UNL A   1      33.091  22.266  28.373  1.00  0.00    -0.250 OA
BRANCH   3   5
ATOM      5  C   UNL A   1      32.978  23.357  26.176  1.00  0.00     0.245 C 
BRANCH   5   6
ATOM      6  N   UNL A   1      31.567  23.215  25.813  1.00  0.00    -0.302 N 
BRANCH   6   7
ATOM      7  C   UNL A   1      31.468  22.976  24.445  1.00  0.00     0.211 C 
BRANCH   7   8
ATOM      8  C   UNL A   1      32.115  23.968  23.493  1.00  0.00    -0.085 C 
ATOM      9  C   UNL A   1      32.669  24.820  22.676  1.00  0.00     0.006 C 
ENDBRANCH   7   8
ENDBRANCH   6   7
BRANCH   6  10
ATOM     10  C   UNL A   1      30.357  23.518  26.368  1.00  0.00     0.323 C 
ATOM     11  O   UNL A   1      29.660  22.660  26.927  1.00  0.00    -0.248 OA
ATOM     12  N   UNL A   1      29.876  24.751  26.501  1.00  0.00    -0.308 N 
ATOM     13  H   UNL A   1      29.205  24.829  27.217  1.00  0.00     0.171 HD
BRANCH  12  14
ATOM     14  C   UNL A   1      30.110  25.936  25.859  1.00  0.00     0.044 A 
ATOM     15  C   UNL A   1      29.309  26.238  24.289  1.00  0.00     0.026 A 
ATOM     16  C   UNL A   1      31.311  27.116  26.362  1.00  0.00     0.045 A 
ATOM     17  C   UNL A   1      29.848  27.907  23.283  1.00  0.00     0.004 A 
ATOM     18  C   UNL A   1      31.785  28.566  25.462  1.00  0.00     0.054 A 
ATOM     19  C   UNL A   1      31.091  28.985  23.950  1.00  0.00     0.019 A 
BRANCH  18  20
ATOM     20  C   UNL A   1      32.749  29.418  26.088  1.00  0.00     0.099 C 
ATOM     21  N   UNL A   1      33.561  30.110  26.542  1.00  0.00    -0.192 NA
ENDBRANCH  18  20
ENDBRANCH  12  14
ENDBRANCH   6  10
ENDBRANCH   5   6
ENDBRANCH   3   5
ENDBRANCH   2   3
ENDBRANCH   1   2
BRANCH   1  22
ATOM     22  C   UNL A   1      36.084  20.699  25.006  1.00  0.00     0.275 C 
BRANCH  22  23
ATOM     23  O   UNL A   1      37.087  21.476  25.734  1.00  0.00    -0.458 OA
BRANCH  23  24
ATOM     24  C   UNL A   1      38.364  20.989  25.753  1.00  0.00     0.338 C 
ATOM     25  O   UNL A   1      38.656  19.904  25.256  1.00  0.00    -0.246 OA
BRANCH  24  26
ATOM     26  C   UNL A   1      39.559  21.948  26.330  1.00  0.00     0.060 A 
ATOM     27  C   UNL A   1      40.984  21.897  27.781  1.00  0.00     0.016 A 
ATOM     28  C   UNL A   1      38.947  23.594  25.872  1.00  0.00     0.016 A 
ATOM     29  C   UNL A   1      41.510  23.394  28.569  1.00  0.00     0.010 A 
ATOM     30  C   UNL A   1      39.609  25.003  26.698  1.00  0.00     0.010 A 
ATOM     31  C   UNL A   1      40.849  24.891  27.977  1.00  0.00    -0.014 A 
BRANCH  31  32
ATOM     32  C   UNL A   1      41.578  26.110  28.340  1.00  0.00     0.031 A 
ATOM     33  C   UNL A   1      40.838  27.188  29.038  1.00  0.00     0.074 A 
ATOM     34  C   UNL A   1      42.840  26.228  27.878  1.00  0.00     0.049 A 
ATOM     35  N   UNL A   1      41.161  28.439  29.182  1.00  0.00    -0.248 NA
ATOM     36  C   UNL A   1      39.532  26.824  29.614  1.00  0.00     0.031 C 
ATOM     37  C   UNL A   1      43.616  25.187  27.186  1.00  0.00     0.029 A 
ATOM     38  N   UNL A   1      43.692  27.298  27.873  1.00  0.00    -0.354 N 
ATOM     39  C   UNL A   1      40.087  29.023  29.835  1.00  0.00     0.074 A 
ATOM     40  C   UNL A   1      39.082  28.002  30.018  1.00  0.00     0.031 C 
ATOM     41  C   UNL A   1      44.806  25.664  26.816  1.00  0.00     0.029 A 
ATOM     42  C   UNL A   1      44.848  27.065  27.165  1.00  0.00     0.049 A 
ATOM     43  H   UNL A   1      43.496  28.148  28.328  1.00  0.00     0.167 HD
ATOM     44  C   UNL A   1      39.983  30.308  30.241  1.00  0.00     0.037 A 
ATOM     45  C   UNL A   1      45.817  27.912  26.784  1.00  0.00     0.037 A 
ATOM     46  C   UNL A   1      41.029  31.269  30.010  1.00  0.00     0.049 A 
ATOM     47  C   UNL A   1      45.656  29.334  27.212  1.00  0.00     0.074 A 
ATOM     48  C   UNL A   1      41.083  32.600  30.369  1.00  0.00     0.029 A 
ATOM     49  N   UNL A   1      42.218  30.981  29.341  1.00  0.00    -0.354 N 
ATOM     50  N   UNL A   1      44.649  29.887  27.847  1.00  0.00    -0.248 NA
ATOM     51  C   UNL A   1      46.755  30.244  26.898  1.00  0.00     0.031 C 
ATOM     52  C   UNL A   1      42.278  33.130  29.869  1.00  0.00     0.029 A 
ATOM     53  C   UNL A   1      43.006  32.113  29.264  1.00  0.00     0.049 A 
ATOM     54  H   UNL A   1      42.461  30.099  28.977  1.00  0.00     0.167 HD
ATOM     55  C   UNL A   1      45.010  31.203  28.056  1.00  0.00     0.074 A 
ATOM     56  C   UNL A   1      46.332  31.360  27.473  1.00  0.00     0.031 C 
ATOM     57  C   UNL A   1      44.325  32.192  28.681  1.00  0.00     0.037 A 
BRANCH  44  58
ATOM     58  C   UNL A   1      38.709  30.718  30.921  1.00  0.00     0.064 A 
ATOM     59  C   UNL A   1      37.576  31.120  30.194  1.00  0.00     0.173 A 
ATOM     60  C   UNL A   1      38.624  30.744  32.321  1.00  0.00     0.173 A 
ATOM     61  F   UNL A   1      37.605  31.136  28.852  1.00  0.00    -0.203 F 
ATOM     62  C   UNL A   1      36.427  31.573  30.840  1.00  0.00     0.198 A 
ATOM     63  C   UNL A   1      37.461  31.164  32.965  1.00  0.00     0.198 A 
ATOM     64  F   UNL A   1      39.675  30.378  33.070  1.00  0.00    -0.203 F 
ATOM     65  F   UNL A   1      35.389  32.022  30.121  1.00  0.00    -0.200 F 
ATOM     66  C   UNL A   1      36.369  31.590  32.225  1.00  0.00     0.200 A 
ATOM     67  F   UNL A   1      37.405  31.172  34.304  1.00  0.00    -0.200 F 
ATOM     68  F   UNL A   1      35.267  32.031  32.846  1.00  0.00    -0.200 F 
ENDBRANCH  44  58
BRANCH  45  69
ATOM     69  C   UNL A   1      46.983  27.418  26.007  1.00  0.00     0.064 A 
ATOM     70  C   UNL A   1      47.048  27.610  24.622  1.00  0.00     0.173 A 
ATOM     71  C   UNL A   1      48.087  26.809  26.628  1.00  0.00     0.173 A 
ATOM     72  F   UNL A   1      46.028  28.202  23.982  1.00  0.00    -0.203 F 
ATOM     73  C   UNL A   1      48.150  27.184  23.882  1.00  0.00     0.198 A 
ATOM     74  C   UNL A   1      49.203  26.411  25.892  1.00  0.00     0.198 A 
ATOM     75  F   UNL A   1      48.101  26.637  27.958  1.00  0.00    -0.203 F 
ATOM     76  F   UNL A   1      48.164  27.350  22.552  1.00  0.00    -0.200 F 
ATOM     77  C   UNL A   1      49.228  26.588  24.517  1.00  0.00     0.200 A 
ATOM     78  F   UNL A   1      50.257  25.866  26.516  1.00  0.00    -0.200 F 
ATOM     79  F   UNL A   1      50.291  26.187  23.806  1.00  0.00    -0.200 F 
ENDBRANCH  45  69
BRANCH  57  80
ATOM     80  C   UNL A   1      45.036  33.500  28.818  1.00  0.00     0.064 A 
ATOM     81  C   UNL A   1      44.896  34.519  27.868  1.00  0.00     0.173 A 
ATOM     82  C   UNL A   1      45.819  33.746  29.954  1.00  0.00     0.173 A 
ATOM     83  F   UNL A   1      44.174  34.313  26.756  1.00  0.00    -0.203 F 
ATOM     84  C   UNL A   1      45.532  35.741  28.045  1.00  0.00     0.198 A 
ATOM     85  C   UNL A   1      46.421  34.982  30.146  1.00  0.00     0.198 A 
ATOM     86  F   UNL A   1      45.978  32.795  30.887  1.00  0.00    -0.203 F 
ATOM     87  F   UNL A   1      45.427  36.690  27.104  1.00  0.00    -0.200 F 
ATOM     88  C   UNL A   1      46.282  35.976  29.189  1.00  0.00     0.200 A 
ATOM     89  F   UNL A   1      47.128  35.214  31.259  1.00  0.00    -0.200 F 
ATOM     90  F   UNL A   1      46.875  37.164  29.368  1.00  0.00    -0.200 F 
ENDBRANCH  57  80
ENDBRANCH  31  32
ENDBRANCH  24  26
ENDBRANCH  23  24
ENDBRANCH  22  23
ENDBRANCH   1  22
TORSDOF 17
ENDMDL
MODEL 3
REMARK VINA RESULT:     -11.3      1.287      2.138
REMARK SMILES C#CCN(CC(=O)OCCOC(=O)c1ccc(-c2c3nc(c(-c4c(F)c(F)c(F)c(F)c4F)c4ccc([nH]4)c(-c4c(F)c(F)c(F)c(F)c4F)c4nc(c(-c5c(F)c(F)c(F)c(F)c5F)c5ccc2[nH]5)C=C4)C=C3)cc1)C(=O)Nc1cccc(C#N)c1
REMARK SMILES IDX 9 1 8 2 6 3 7 4 5 5 4 6 3 7 2 8 1 9 77 10 78 11 79 12 80 14
REMARK SMILES IDX 81 15 87 16 82 17 84 18 83 19 85 20 86 21 10 22 11 23 12 24
REMARK SMILES IDX 13 25 14 26 15 27 76 28 16 29 75 30 17 31 18 32 19 33 69 34
REMARK SMILES IDX 20 35 74 36 68 37 70 38 21 39 73 40 67 41 66 42 22 44 54 45
REMARK SMILES IDX 34 46 53 47 35 48 38 49 52 50 71 51 36 52 37 53 51 55 72 56
REMARK SMILES IDX 39 57 23 58 24 59 32 60 25 61 26 62 30 63 33 64 27 65 28 66
REMARK SMILES IDX 31 67 29 68 55 69 56 70 64 71 57 72 58 73 62 74 65 75 59 76
REMARK SMILES IDX 60 77 63 78 61 79 40 80 41 81 49 82 42 83 43 84 47 85 50 86
REMARK SMILES IDX 44 87 45 88 48 89 46 90
REMARK H PARENT 79 13 70 43 38 54
REMARK Flexibility Score: inf
ROOT
ATOM      1  C   UNL A   1      33.445  28.970  25.123  1.00  0.00     0.274 C 
ENDROOT
BRANCH   1   2
ATOM      2  O   UNL A   1      33.465  27.714  25.875  1.00  0.00    -0.461 OA
BRANCH   2   3
ATOM      3  C   UNL A   1      33.690  26.554  25.163  1.00  0.00     0.325 C 
ATOM      4  O   UNL A   1      33.638  25.432  25.654  1.00  0.00    -0.250 OA
BRANCH   3   5
ATOM      5  C   UNL A   1      33.649  26.795  23.611  1.00  0.00     0.245 C 
BRANCH   5   6
ATOM      6  N   UNL A   1      32.551  26.123  22.912  1.00  0.00    -0.302 N 
BRANCH   6   7
ATOM      7  C   UNL A   1      31.399  26.202  23.688  1.00  0.00     0.211 C 
BRANCH   7   8
ATOM      8  C   UNL A   1      30.402  27.309  23.384  1.00  0.00    -0.085 C 
ATOM      9  C   UNL A   1      29.546  28.258  23.124  1.00  0.00     0.006 C 
ENDBRANCH   7   8
ENDBRANCH   6   7
BRANCH   6  10
ATOM     10  C   UNL A   1      32.416  25.233  21.886  1.00  0.00     0.323 C 
ATOM     11  O   UNL A   1      31.787  25.513  20.856  1.00  0.00    -0.248 OA
ATOM     12  N   UNL A   1      33.050  24.065  21.812  1.00  0.00    -0.308 N 
ATOM     13  H   UNL A   1      33.135  23.730  20.890  1.00  0.00     0.171 HD
BRANCH  12  14
ATOM     14  C   UNL A   1      33.607  23.227  22.737  1.00  0.00     0.044 A 
ATOM     15  C   UNL A   1      35.318  23.471  23.199  1.00  0.00     0.026 A 
ATOM     16  C   UNL A   1      32.828  21.784  23.366  1.00  0.00     0.045 A 
ATOM     17  C   UNL A   1      36.155  22.085  24.410  1.00  0.00     0.004 A 
ATOM     18  C   UNL A   1      33.579  20.568  24.414  1.00  0.00     0.054 A 
ATOM     19  C   UNL A   1      35.206  20.682  24.944  1.00  0.00     0.019 A 
BRANCH  18  20
ATOM     20  C   UNL A   1      32.738  19.496  24.852  1.00  0.00     0.099 C 
ATOM     21  N   UNL A   1      32.081  18.634  25.263  1.00  0.00    -0.192 NA
ENDBRANCH  18  20
ENDBRANCH  12  14
ENDBRANCH   6  10
ENDBRANCH   5   6
ENDBRANCH   3   5
ENDBRANCH   2   3
ENDBRANCH   1   2
BRANCH   1  22
ATOM     22  C   UNL A   1      32.175  29.806  25.468  1.00  0.00     0.275 C 
BRANCH  22  23
ATOM     23  O   UNL A   1      32.199  30.257  26.859  1.00  0.00    -0.458 OA
BRANCH  23  24
ATOM     24  C   UNL A   1      32.619  31.537  27.095  1.00  0.00     0.338 C 
ATOM     25  O   UNL A   1      31.934  32.512  26.802  1.00  0.00    -0.246 OA
BRANCH  24  26
ATOM     26  C   UNL A   1      34.014  31.761  27.921  1.00  0.00     0.060 A 
ATOM     27  C   UNL A   1      35.550  33.095  27.979  1.00  0.00     0.016 A 
ATOM     28  C   UNL A   1      34.416  30.062  28.413  1.00  0.00     0.016 A 
ATOM     29  C   UNL A   1      37.180  32.559  28.421  1.00  0.00     0.010 A 
ATOM     30  C   UNL A   1      36.070  29.687  28.891  1.00  0.00     0.010 A 
ATOM     31  C   UNL A   1      37.380  30.900  28.905  1.00  0.00    -0.014 A 
BRANCH  31  32
ATOM     32  C   UNL A   1      38.605  30.584  29.645  1.00  0.00     0.031 A 
ATOM     33  C   UNL A   1      39.540  29.593  29.061  1.00  0.00     0.074 A 
ATOM     34  C   UNL A   1      38.725  31.106  30.882  1.00  0.00     0.049 A 
ATOM     35  N   UNL A   1      40.499  28.934  29.641  1.00  0.00    -0.248 NA
ATOM     36  C   UNL A   1      39.343  29.260  27.639  1.00  0.00     0.031 C 
ATOM     37  C   UNL A   1      37.828  32.094  31.502  1.00  0.00     0.029 A 
ATOM     38  N   UNL A   1      39.628  30.848  31.877  1.00  0.00    -0.354 N 
ATOM     39  C   UNL A   1      41.001  28.083  28.670  1.00  0.00     0.074 A 
ATOM     40  C   UNL A   1      40.211  28.273  27.475  1.00  0.00     0.031 C 
ATOM     41  C   UNL A   1      38.210  32.346  32.756  1.00  0.00     0.029 A 
ATOM     42  C   UNL A   1      39.323  31.477  33.062  1.00  0.00     0.049 A 
ATOM     43  H   UNL A   1      40.415  30.270  31.757  1.00  0.00     0.167 HD
ATOM     44  C   UNL A   1      42.041  27.229  28.794  1.00  0.00     0.037 A 
ATOM     45  C   UNL A   1      39.851  31.324  34.286  1.00  0.00     0.037 A 
ATOM     46  C   UNL A   1      42.772  27.091  30.026  1.00  0.00     0.049 A 
ATOM     47  C   UNL A   1      40.972  30.344  34.402  1.00  0.00     0.074 A 
ATOM     48  C   UNL A   1      43.854  26.283  30.310  1.00  0.00     0.029 A 
ATOM     49  N   UNL A   1      42.472  27.793  31.193  1.00  0.00    -0.354 N 
ATOM     50  N   UNL A   1      41.462  29.550  33.479  1.00  0.00    -0.248 NA
ATOM     51  C   UNL A   1      41.627  30.247  35.705  1.00  0.00     0.031 C 
ATOM     52  C   UNL A   1      44.173  26.456  31.662  1.00  0.00     0.029 A 
ATOM     53  C   UNL A   1      43.340  27.427  32.204  1.00  0.00     0.049 A 
ATOM     54  H   UNL A   1      41.748  28.454  31.283  1.00  0.00     0.167 HD
ATOM     55  C   UNL A   1      42.520  28.889  34.072  1.00  0.00     0.074 A 
ATOM     56  C   UNL A   1      42.592  29.379  35.439  1.00  0.00     0.031 C 
ATOM     57  C   UNL A   1      43.364  27.971  33.541  1.00  0.00     0.037 A 
BRANCH  44  58
ATOM     58  C   UNL A   1      42.396  26.392  27.599  1.00  0.00     0.064 A 
ATOM     59  C   UNL A   1      41.775  25.157  27.349  1.00  0.00     0.173 A 
ATOM     60  C   UNL A   1      43.395  26.808  26.707  1.00  0.00     0.173 A 
ATOM     61  F   UNL A   1      40.828  24.696  28.180  1.00  0.00    -0.203 F 
ATOM     62  C   UNL A   1      42.171  24.354  26.280  1.00  0.00     0.198 A 
ATOM     63  C   UNL A   1      43.764  26.020  25.619  1.00  0.00     0.198 A 
ATOM     64  F   UNL A   1      44.029  27.975  26.897  1.00  0.00    -0.203 F 
ATOM     65  F   UNL A   1      41.614  23.146  26.110  1.00  0.00    -0.200 F 
ATOM     66  C   UNL A   1      43.162  24.788  25.413  1.00  0.00     0.200 A 
ATOM     67  F   UNL A   1      44.717  26.445  24.778  1.00  0.00    -0.200 F 
ATOM     68  F   UNL A   1      43.546  24.014  24.391  1.00  0.00    -0.200 F 
ENDBRANCH  44  58
BRANCH  45  69
ATOM     69  C   UNL A   1      39.340  32.125  35.429  1.00  0.00     0.064 A 
ATOM     70  C   UNL A   1      38.478  31.550  36.370  1.00  0.00     0.173 A 
ATOM     71  C   UNL A   1      39.751  33.450  35.650  1.00  0.00     0.173 A 
ATOM     72  F   UNL A   1      38.069  30.282  36.215  1.00  0.00    -0.203 F 
ATOM     73  C   UNL A   1      38.017  32.276  37.467  1.00  0.00     0.198 A 
ATOM     74  C   UNL A   1      39.314  34.166  36.765  1.00  0.00     0.198 A 
ATOM     75  F   UNL A   1      40.610  34.039  34.806  1.00  0.00    -0.203 F 
ATOM     76  F   UNL A   1      37.162  31.709  38.331  1.00  0.00    -0.200 F 
ATOM     77  C   UNL A   1      38.437  33.582  37.667  1.00  0.00     0.200 A 
ATOM     78  F   UNL A   1      39.750  35.417  36.971  1.00  0.00    -0.200 F 
ATOM     79  F   UNL A   1      38.001  34.275  38.727  1.00  0.00    -0.200 F 
ENDBRANCH  45  69
BRANCH  57  80
ATOM     80  C   UNL A   1      44.472  27.504  34.430  1.00  0.00     0.064 A 
ATOM     81  C   UNL A   1      45.687  28.194  34.520  1.00  0.00     0.173 A 
ATOM     82  C   UNL A   1      44.277  26.381  35.246  1.00  0.00     0.173 A 
ATOM     83  F   UNL A   1      45.919  29.260  33.738  1.00  0.00    -0.203 F 
ATOM     84  C   UNL A   1      46.681  27.763  35.389  1.00  0.00     0.198 A 
ATOM     85  C   UNL A   1      45.257  25.977  36.142  1.00  0.00     0.198 A 
ATOM     86  F   UNL A   1      43.126  25.693  35.189  1.00  0.00    -0.203 F 
ATOM     87  F   UNL A   1      47.856  28.406  35.429  1.00  0.00    -0.200 F 
ATOM     88  C   UNL A   1      46.460  26.665  36.209  1.00  0.00     0.200 A 
ATOM     89  F   UNL A   1      45.036  24.929  36.945  1.00  0.00    -0.200 F 
ATOM     90  F   UNL A   1      47.411  26.265  37.063  1.00  0.00    -0.200 F 
ENDBRANCH  57  80
ENDBRANCH  31  32
ENDBRANCH  24  26
ENDBRANCH  23  24
ENDBRANCH  22  23
ENDBRANCH   1  22
TORSDOF 17
ENDMDL
