MODEL 1
REMARK VINA RESULT:     -13.0      0.000      0.000
REMARK SMILES C[C@H]1CC[C@@](Nc2ccc(C(N)=O)nn2)(C(=O)OCCOC(=O)c2ccc(-c3c4nc(c(-c5c(F)c(F)c(F)c(F)c5F)c5ccc([nH]5)c(-c5c(F)c(F)c(F)c(F)c5F)c5nc(c(-c6c(F)c(F)c(F)c(F)c6F)c6ccc3[nH]6)C=C5)C=C4)cc2)CC1
REMARK SMILES IDX 19 1 18 2 16 3 17 4 5 5 1 6 2 7 88 8 3 9 87 10 4 11 6 12
REMARK SMILES IDX 7 14 8 15 15 16 9 17 14 18 10 19 11 20 12 21 13 22 20 25
REMARK SMILES IDX 21 26 22 27 23 28 24 29 25 30 86 31 26 32 85 33 27 34 28 35
REMARK SMILES IDX 29 36 79 37 30 38 84 39 78 40 80 41 31 42 83 43 77 44 76 45
REMARK SMILES IDX 32 47 64 48 44 49 63 50 45 51 48 52 62 53 81 54 46 55 47 56
REMARK SMILES IDX 61 58 82 59 49 60 33 61 34 62 42 63 35 64 36 65 40 66 43 67
REMARK SMILES IDX 37 68 38 69 41 70 39 71 65 72 66 73 74 74 67 75 68 76 72 77
REMARK SMILES IDX 75 78 69 79 70 80 73 81 71 82 50 83 51 84 59 85 52 86 53 87
REMARK SMILES IDX 57 88 60 89 54 90 55 91 58 92 56 93
REMARK H PARENT 6 13 12 23 12 24 80 46 48 57
REMARK Flexibility Score: inf
ROOT
ATOM      1  C   UNL A   1      36.033  20.079  25.004  1.00  0.00     0.274 C 
ENDROOT
BRANCH   1   2
ATOM      2  O   UNL A   1      35.290  21.214  24.510  1.00  0.00    -0.460 OA
BRANCH   2   3
ATOM      3  C   UNL A   1      34.135  21.483  25.178  1.00  0.00     0.331 C 
ATOM      4  O   UNL A   1      34.005  21.322  26.388  1.00  0.00    -0.249 OA
BRANCH   3   5
ATOM      5  C   UNL A   1      32.946  21.884  24.247  1.00  0.00     0.137 C 
ATOM      6  C   UNL A   1      33.703  26.238  24.412  1.00  0.00     0.007 C 
ATOM      7  C   UNL A   1      33.033  24.913  24.037  1.00  0.00    -0.014 C 
ATOM      8  C   UNL A   1      32.545  24.196  25.294  1.00  0.00     0.006 C 
ATOM      9  C   UNL A   1      34.008  24.023  23.261  1.00  0.00     0.006 C 
ATOM     10  C   UNL A   1      31.971  22.804  25.022  1.00  0.00     0.041 C 
ATOM     11  C   UNL A   1      33.419  22.640  22.978  1.00  0.00     0.041 C 
BRANCH   5  12
ATOM     12  N   UNL A   1      32.167  20.686  23.790  1.00  0.00    -0.353 N 
ATOM     13  H   UNL A   1      31.369  20.815  23.228  1.00  0.00     0.163 HD
BRANCH  12  14
ATOM     14  C   UNL A   1      32.548  19.400  24.141  1.00  0.00     0.149 A 
ATOM     15  C   UNL A   1      33.223  18.545  23.279  1.00  0.00     0.051 A 
ATOM     16  N   UNL A   1      32.166  18.965  25.360  1.00  0.00    -0.132 NA
ATOM     17  C   UNL A   1      33.390  17.207  23.623  1.00  0.00     0.040 A 
ATOM     18  N   UNL A   1      32.339  17.652  25.724  1.00  0.00    -0.143 NA
ATOM     19  C   UNL A   1      32.914  16.794  24.851  1.00  0.00     0.150 A 
BRANCH  19  20
ATOM     20  C   UNL A   1      32.974  15.361  25.256  1.00  0.00     0.269 C 
ATOM     21  N   UNL A   1      31.779  14.792  25.618  1.00  0.00    -0.364 N 
ATOM     22  O   UNL A   1      34.013  14.723  25.257  1.00  0.00    -0.268 OA
ATOM     23  H   UNL A   1      30.954  15.330  25.608  1.00  0.00     0.160 HD
ATOM     24  H   UNL A   1      31.746  13.846  25.887  1.00  0.00     0.160 HD
ENDBRANCH  19  20
ENDBRANCH  12  14
ENDBRANCH   5  12
ENDBRANCH   3   5
ENDBRANCH   2   3
ENDBRANCH   1   2
BRANCH   1  25
ATOM     25  C   UNL A   1      37.534  20.202  24.735  1.00  0.00     0.275 C 
BRANCH  25  26
ATOM     26  O   UNL A   1      38.077  21.352  25.412  1.00  0.00    -0.458 OA
BRANCH  26  27
ATOM     27  C   UNL A   1      39.228  21.160  26.095  1.00  0.00     0.338 C 
ATOM     28  O   UNL A   1      39.863  20.117  26.172  1.00  0.00    -0.246 OA
BRANCH  27  29
ATOM     29  C   UNL A   1      39.703  22.421  26.718  1.00  0.00     0.060 A 
ATOM     30  C   UNL A   1      39.195  23.652  26.317  1.00  0.00     0.016 A 
ATOM     31  C   UNL A   1      40.796  22.397  27.587  1.00  0.00     0.016 A 
ATOM     32  C   UNL A   1      39.878  24.828  26.616  1.00  0.00     0.010 A 
ATOM     33  C   UNL A   1      41.381  23.597  28.020  1.00  0.00     0.010 A 
ATOM     34  C   UNL A   1      40.964  24.834  27.498  1.00  0.00    -0.014 A 
BRANCH  34  35
ATOM     35  C   UNL A   1      41.665  26.114  27.829  1.00  0.00     0.031 A 
ATOM     36  C   UNL A   1      41.012  27.148  28.714  1.00  0.00     0.074 A 
ATOM     37  C   UNL A   1      42.913  26.356  27.371  1.00  0.00     0.049 A 
ATOM     38  N   UNL A   1      41.352  28.398  28.920  1.00  0.00    -0.248 NA
ATOM     39  C   UNL A   1      39.807  26.734  29.450  1.00  0.00     0.031 C 
ATOM     40  C   UNL A   1      43.708  25.447  26.543  1.00  0.00     0.029 A 
ATOM     41  N   UNL A   1      43.746  27.435  27.555  1.00  0.00    -0.354 N 
ATOM     42  C   UNL A   1      40.358  28.938  29.727  1.00  0.00     0.074 A 
ATOM     43  C   UNL A   1      39.412  27.877  29.996  1.00  0.00     0.031 C 
ATOM     44  C   UNL A   1      44.933  25.959  26.368  1.00  0.00     0.029 A 
ATOM     45  C   UNL A   1      44.969  27.296  26.944  1.00  0.00     0.049 A 
ATOM     46  H   UNL A   1      43.491  28.231  28.075  1.00  0.00     0.167 HD
ATOM     47  C   UNL A   1      40.243  30.209  30.187  1.00  0.00     0.037 A 
ATOM     48  C   UNL A   1      45.991  28.160  26.800  1.00  0.00     0.037 A 
ATOM     49  C   UNL A   1      41.234  31.239  29.996  1.00  0.00     0.049 A 
ATOM     50  C   UNL A   1      45.847  29.556  27.328  1.00  0.00     0.074 A 
ATOM     51  C   UNL A   1      41.213  32.552  30.436  1.00  0.00     0.029 A 
ATOM     52  N   UNL A   1      42.439  31.062  29.333  1.00  0.00    -0.354 N 
ATOM     53  N   UNL A   1      44.846  30.092  27.980  1.00  0.00    -0.248 NA
ATOM     54  C   UNL A   1      46.960  30.478  27.064  1.00  0.00     0.031 C 
ATOM     55  C   UNL A   1      42.395  33.176  30.017  1.00  0.00     0.029 A 
ATOM     56  C   UNL A   1      43.169  32.241  29.351  1.00  0.00     0.049 A 
ATOM     57  H   UNL A   1      42.735  30.221  28.913  1.00  0.00     0.167 HD
ATOM     58  C   UNL A   1      45.197  31.416  28.190  1.00  0.00     0.074 A 
ATOM     59  C   UNL A   1      46.524  31.592  27.634  1.00  0.00     0.031 C 
ATOM     60  C   UNL A   1      44.478  32.404  28.776  1.00  0.00     0.037 A 
BRANCH  47  61
ATOM     61  C   UNL A   1      38.979  30.583  30.909  1.00  0.00     0.064 A 
ATOM     62  C   UNL A   1      38.878  30.558  32.307  1.00  0.00     0.173 A 
ATOM     63  C   UNL A   1      37.864  31.028  30.179  1.00  0.00     0.173 A 
ATOM     64  F   UNL A   1      39.908  30.128  33.050  1.00  0.00    -0.203 F 
ATOM     65  C   UNL A   1      37.703  30.950  32.946  1.00  0.00     0.198 A 
ATOM     66  C   UNL A   1      36.703  31.445  30.822  1.00  0.00     0.198 A 
ATOM     67  F   UNL A   1      37.910  31.077  28.839  1.00  0.00    -0.203 F 
ATOM     68  F   UNL A   1      37.615  30.884  34.281  1.00  0.00    -0.200 F 
ATOM     69  C   UNL A   1      36.620  31.400  32.204  1.00  0.00     0.200 A 
ATOM     70  F   UNL A   1      35.663  31.892  30.103  1.00  0.00    -0.200 F 
ATOM     71  F   UNL A   1      35.495  31.788  32.822  1.00  0.00    -0.200 F 
ENDBRANCH  47  61
BRANCH  48  72
ATOM     72  C   UNL A   1      47.209  27.742  26.056  1.00  0.00     0.064 A 
ATOM     73  C   UNL A   1      48.346  27.284  26.733  1.00  0.00     0.173 A 
ATOM     74  C   UNL A   1      47.249  27.764  24.653  1.00  0.00     0.173 A 
ATOM     75  F   UNL A   1      48.368  27.275  28.075  1.00  0.00    -0.203 F 
ATOM     76  C   UNL A   1      49.475  26.860  26.036  1.00  0.00     0.198 A 
ATOM     77  C   UNL A   1      48.363  27.306  23.956  1.00  0.00     0.198 A 
ATOM     78  F   UNL A   1      46.187  28.199  23.958  1.00  0.00    -0.203 F 
ATOM     79  F   UNL A   1      50.563  26.456  26.707  1.00  0.00    -0.200 F 
ATOM     80  C   UNL A   1      49.478  26.858  24.648  1.00  0.00     0.200 A 
ATOM     81  F   UNL A   1      48.353  27.289  22.617  1.00  0.00    -0.200 F 
ATOM     82  F   UNL A   1      50.556  26.428  23.978  1.00  0.00    -0.200 F 
ENDBRANCH  48  72
BRANCH  60  83
ATOM     83  C   UNL A   1      45.122  33.757  28.839  1.00  0.00     0.064 A 
ATOM     84  C   UNL A   1      45.943  34.122  29.917  1.00  0.00     0.173 A 
ATOM     85  C   UNL A   1      44.904  34.699  27.825  1.00  0.00     0.173 A 
ATOM     86  F   UNL A   1      46.163  33.260  30.921  1.00  0.00    -0.203 F 
ATOM     87  C   UNL A   1      46.494  35.398  29.993  1.00  0.00     0.198 A 
ATOM     88  C   UNL A   1      45.478  35.965  27.893  1.00  0.00     0.198 A 
ATOM     89  F   UNL A   1      44.129  34.395  26.774  1.00  0.00    -0.203 F 
ATOM     90  F   UNL A   1      47.227  35.746  31.060  1.00  0.00    -0.200 F 
ATOM     91  C   UNL A   1      46.263  36.317  28.981  1.00  0.00     0.200 A 
ATOM     92  F   UNL A   1      45.259  36.852  26.911  1.00  0.00    -0.200 F 
ATOM     93  F   UNL A   1      46.786  37.548  29.061  1.00  0.00    -0.200 F 
ENDBRANCH  60  83
ENDBRANCH  34  35
ENDBRANCH  27  29
ENDBRANCH  26  27
ENDBRANCH  25  26
ENDBRANCH   1  25
TORSDOF 14
ENDMDL
MODEL 2
REMARK VINA RESULT:     -12.9      0.196      1.613
REMARK SMILES C[C@H]1CC[C@@](Nc2ccc(C(N)=O)nn2)(C(=O)OCCOC(=O)c2ccc(-c3c4nc(c(-c5c(F)c(F)c(F)c(F)c5F)c5ccc([nH]5)c(-c5c(F)c(F)c(F)c(F)c5F)c5nc(c(-c6c(F)c(F)c(F)c(F)c6F)c6ccc3[nH]6)C=C5)C=C4)cc2)CC1
REMARK SMILES IDX 19 1 18 2 16 3 17 4 5 5 1 6 2 7 88 8 3 9 87 10 4 11 6 12
REMARK SMILES IDX 7 14 8 15 15 16 9 17 14 18 10 19 11 20 12 21 13 22 20 25
REMARK SMILES IDX 21 26 22 27 23 28 24 29 25 30 86 31 26 32 85 33 27 34 28 35
REMARK SMILES IDX 29 36 79 37 30 38 84 39 78 40 80 41 31 42 83 43 77 44 76 45
REMARK SMILES IDX 32 47 64 48 44 49 63 50 45 51 48 52 62 53 81 54 46 55 47 56
REMARK SMILES IDX 61 58 82 59 49 60 33 61 34 62 42 63 35 64 36 65 40 66 43 67
REMARK SMILES IDX 37 68 38 69 41 70 39 71 65 72 66 73 74 74 67 75 68 76 72 77
REMARK SMILES IDX 75 78 69 79 70 80 73 81 71 82 50 83 51 84 59 85 52 86 53 87
REMARK SMILES IDX 57 88 60 89 54 90 55 91 58 92 56 93
REMARK H PARENT 6 13 12 23 12 24 80 46 48 57
REMARK Flexibility Score: inf
ROOT
ATOM      1  C   UNL A   1      36.117  20.073  25.026  1.00  0.00     0.274 C 
ENDROOT
BRANCH   1   2
ATOM      2  O   UNL A   1      35.303  21.125  24.465  1.00  0.00    -0.460 OA
BRANCH   2   3
ATOM      3  C   UNL A   1      34.199  21.452  25.191  1.00  0.00     0.331 C 
ATOM      4  O   UNL A   1      34.134  21.320  26.410  1.00  0.00    -0.249 OA
BRANCH   3   5
ATOM      5  C   UNL A   1      32.974  21.879  24.321  1.00  0.00     0.137 C 
ATOM      6  C   UNL A   1      33.750  26.226  24.566  1.00  0.00     0.007 C 
ATOM      7  C   UNL A   1      33.062  24.912  24.185  1.00  0.00    -0.014 C 
ATOM      8  C   UNL A   1      32.624  24.164  25.443  1.00  0.00     0.006 C 
ATOM      9  C   UNL A   1      34.001  24.040  23.347  1.00  0.00     0.006 C 
ATOM     10  C   UNL A   1      32.035  22.781  25.160  1.00  0.00     0.041 C 
ATOM     11  C   UNL A   1      33.396  22.666  23.053  1.00  0.00     0.041 C 
BRANCH   5  12
ATOM     12  N   UNL A   1      32.173  20.694  23.866  1.00  0.00    -0.353 N 
ATOM     13  H   UNL A   1      31.365  20.839  23.323  1.00  0.00     0.163 HD
BRANCH  12  14
ATOM     14  C   UNL A   1      32.547  19.401  24.195  1.00  0.00     0.149 A 
ATOM     15  C   UNL A   1      33.147  18.531  23.293  1.00  0.00     0.051 A 
ATOM     16  N   UNL A   1      32.234  18.974  25.436  1.00  0.00    -0.132 NA
ATOM     17  C   UNL A   1      33.306  17.189  23.628  1.00  0.00     0.040 A 
ATOM     18  N   UNL A   1      32.401  17.658  25.791  1.00  0.00    -0.143 NA
ATOM     19  C   UNL A   1      32.900  16.787  24.884  1.00  0.00     0.150 A 
BRANCH  19  20
ATOM     20  C   UNL A   1      32.955  15.353  25.288  1.00  0.00     0.269 C 
ATOM     21  N   UNL A   1      31.753  14.783  25.628  1.00  0.00    -0.364 N 
ATOM     22  O   UNL A   1      33.994  14.717  25.305  1.00  0.00    -0.268 OA
ATOM     23  H   UNL A   1      30.929  15.320  25.605  1.00  0.00     0.160 HD
ATOM     24  H   UNL A   1      31.717  13.836  25.894  1.00  0.00     0.160 HD
ENDBRANCH  19  20
ENDBRANCH  12  14
ENDBRANCH   5  12
ENDBRANCH   3   5
ENDBRANCH   2   3
ENDBRANCH   1   2
BRANCH   1  25
ATOM     25  C   UNL A   1      37.609  20.284  24.759  1.00  0.00     0.275 C 
BRANCH  25  26
ATOM     26  O   UNL A   1      38.106  21.400  25.521  1.00  0.00    -0.458 OA
BRANCH  26  27
ATOM     27  C   UNL A   1      39.263  21.202  26.192  1.00  0.00     0.338 C 
ATOM     28  O   UNL A   1      39.888  20.153  26.270  1.00  0.00    -0.246 OA
BRANCH  27  29
ATOM     29  C   UNL A   1      39.760  22.463  26.797  1.00  0.00     0.060 A 
ATOM     30  C   UNL A   1      39.247  23.694  26.404  1.00  0.00     0.016 A 
ATOM     31  C   UNL A   1      40.876  22.438  27.636  1.00  0.00     0.016 A 
ATOM     32  C   UNL A   1      39.942  24.869  26.680  1.00  0.00     0.010 A 
ATOM     33  C   UNL A   1      41.477  23.638  28.048  1.00  0.00     0.010 A 
ATOM     34  C   UNL A   1      41.052  24.874  27.532  1.00  0.00    -0.014 A 
BRANCH  34  35
ATOM     35  C   UNL A   1      41.767  26.153  27.839  1.00  0.00     0.031 A 
ATOM     36  C   UNL A   1      41.137  27.198  28.728  1.00  0.00     0.074 A 
ATOM     37  C   UNL A   1      43.007  26.383  27.356  1.00  0.00     0.049 A 
ATOM     38  N   UNL A   1      41.488  28.447  28.916  1.00  0.00    -0.248 NA
ATOM     39  C   UNL A   1      39.943  26.797  29.489  1.00  0.00     0.031 C 
ATOM     40  C   UNL A   1      43.781  25.461  26.521  1.00  0.00     0.029 A 
ATOM     41  N   UNL A   1      43.850  27.458  27.514  1.00  0.00    -0.354 N 
ATOM     42  C   UNL A   1      40.513  29.001  29.736  1.00  0.00     0.074 A 
ATOM     43  C   UNL A   1      39.566  27.947  30.033  1.00  0.00     0.031 C 
ATOM     44  C   UNL A   1      45.005  25.964  26.318  1.00  0.00     0.029 A 
ATOM     45  C   UNL A   1      45.061  27.306  26.882  1.00  0.00     0.049 A 
ATOM     46  H   UNL A   1      43.610  28.259  28.033  1.00  0.00     0.167 HD
ATOM     47  C   UNL A   1      40.414  30.276  30.188  1.00  0.00     0.037 A 
ATOM     48  C   UNL A   1      46.085  28.163  26.710  1.00  0.00     0.037 A 
ATOM     49  C   UNL A   1      41.407  31.298  29.969  1.00  0.00     0.049 A 
ATOM     50  C   UNL A   1      45.959  29.564  27.229  1.00  0.00     0.074 A 
ATOM     51  C   UNL A   1      41.403  32.615  30.398  1.00  0.00     0.029 A 
ATOM     52  N   UNL A   1      42.599  31.108  29.285  1.00  0.00    -0.354 N 
ATOM     53  N   UNL A   1      44.974  30.112  27.896  1.00  0.00    -0.248 NA
ATOM     54  C   UNL A   1      47.072  30.477  26.936  1.00  0.00     0.031 C 
ATOM     55  C   UNL A   1      42.580  33.228  29.952  1.00  0.00     0.029 A 
ATOM     56  C   UNL A   1      43.336  32.282  29.279  1.00  0.00     0.049 A 
ATOM     57  H   UNL A   1      42.882  30.262  28.867  1.00  0.00     0.167 HD
ATOM     58  C   UNL A   1      45.337  31.435  28.088  1.00  0.00     0.074 A 
ATOM     59  C   UNL A   1      46.654  31.598  27.505  1.00  0.00     0.031 C 
ATOM     60  C   UNL A   1      44.635  32.433  28.678  1.00  0.00     0.037 A 
BRANCH  47  61
ATOM     61  C   UNL A   1      39.166  30.664  30.930  1.00  0.00     0.064 A 
ATOM     62  C   UNL A   1      39.055  30.548  32.323  1.00  0.00     0.173 A 
ATOM     63  C   UNL A   1      38.081  31.215  30.229  1.00  0.00     0.173 A 
ATOM     64  F   UNL A   1      40.057  30.015  33.038  1.00  0.00    -0.203 F 
ATOM     65  C   UNL A   1      37.897  30.954  32.984  1.00  0.00     0.198 A 
ATOM     66  C   UNL A   1      36.938  31.646  30.896  1.00  0.00     0.198 A 
ATOM     67  F   UNL A   1      38.138  31.354  28.896  1.00  0.00    -0.203 F 
ATOM     68  F   UNL A   1      37.798  30.802  34.312  1.00  0.00    -0.200 F 
ATOM     69  C   UNL A   1      36.844  31.510  32.272  1.00  0.00     0.200 A 
ATOM     70  F   UNL A   1      35.927  32.195  30.207  1.00  0.00    -0.200 F 
ATOM     71  F   UNL A   1      35.737  31.912  32.912  1.00  0.00    -0.200 F 
ENDBRANCH  47  61
BRANCH  48  72
ATOM     72  C   UNL A   1      47.286  27.731  25.948  1.00  0.00     0.064 A 
ATOM     73  C   UNL A   1      47.302  27.760  24.548  1.00  0.00     0.173 A 
ATOM     74  C   UNL A   1      48.452  27.308  26.605  1.00  0.00     0.173 A 
ATOM     75  F   UNL A   1      46.200  28.126  23.874  1.00  0.00    -0.203 F 
ATOM     76  C   UNL A   1      48.438  27.388  23.834  1.00  0.00     0.198 A 
ATOM     77  C   UNL A   1      49.599  26.971  25.892  1.00  0.00     0.198 A 
ATOM     78  F   UNL A   1      48.487  27.257  27.945  1.00  0.00    -0.203 F 
ATOM     79  F   UNL A   1      48.418  27.394  22.494  1.00  0.00    -0.200 F 
ATOM     80  C   UNL A   1      49.591  27.007  24.507  1.00  0.00     0.200 A 
ATOM     81  F   UNL A   1      50.715  26.623  26.548  1.00  0.00    -0.200 F 
ATOM     82  F   UNL A   1      50.691  26.671  23.819  1.00  0.00    -0.200 F 
ENDBRANCH  48  72
BRANCH  60  83
ATOM     83  C   UNL A   1      45.289  33.782  28.718  1.00  0.00     0.064 A 
ATOM     84  C   UNL A   1      45.079  34.723  27.699  1.00  0.00     0.173 A 
ATOM     85  C   UNL A   1      46.143  34.129  29.773  1.00  0.00     0.173 A 
ATOM     86  F   UNL A   1      44.286  34.426  26.658  1.00  0.00    -0.203 F 
ATOM     87  C   UNL A   1      45.732  35.952  27.717  1.00  0.00     0.198 A 
ATOM     88  C   UNL A   1      46.774  35.370  29.801  1.00  0.00     0.198 A 
ATOM     89  F   UNL A   1      46.372  33.264  30.772  1.00  0.00    -0.203 F 
ATOM     90  F   UNL A   1      45.564  36.813  26.704  1.00  0.00    -0.200 F 
ATOM     91  C   UNL A   1      46.576  36.275  28.769  1.00  0.00     0.200 A 
ATOM     92  F   UNL A   1      47.586  35.684  30.821  1.00  0.00    -0.200 F 
ATOM     93  F   UNL A   1      47.212  37.455  28.781  1.00  0.00    -0.200 F 
ENDBRANCH  60  83
ENDBRANCH  34  35
ENDBRANCH  27  29
ENDBRANCH  26  27
ENDBRANCH  25  26
ENDBRANCH   1  25
TORSDOF 14
ENDMDL
MODEL 3
REMARK VINA RESULT:     -12.9      5.202     10.309
REMARK SMILES C[C@H]1CC[C@@](Nc2ccc(C(N)=O)nn2)(C(=O)OCCOC(=O)c2ccc(-c3c4nc(c(-c5c(F)c(F)c(F)c(F)c5F)c5ccc([nH]5)c(-c5c(F)c(F)c(F)c(F)c5F)c5nc(c(-c6c(F)c(F)c(F)c(F)c6F)c6ccc3[nH]6)C=C5)C=C4)cc2)CC1
REMARK SMILES IDX 19 1 18 2 16 3 17 4 5 5 1 6 2 7 88 8 3 9 87 10 4 11 6 12
REMARK SMILES IDX 7 14 8 15 15 16 9 17 14 18 10 19 11 20 12 21 13 22 20 25
REMARK SMILES IDX 21 26 22 27 23 28 24 29 25 30 86 31 26 32 85 33 27 34 28 35
REMARK SMILES IDX 29 36 79 37 30 38 84 39 78 40 80 41 31 42 83 43 77 44 76 45
REMARK SMILES IDX 32 47 64 48 44 49 63 50 45 51 48 52 62 53 81 54 46 55 47 56
REMARK SMILES IDX 61 58 82 59 49 60 33 61 34 62 42 63 35 64 36 65 40 66 43 67
REMARK SMILES IDX 37 68 38 69 41 70 39 71 65 72 66 73 74 74 67 75 68 76 72 77
REMARK SMILES IDX 75 78 69 79 70 80 73 81 71 82 50 83 51 84 59 85 52 86 53 87
REMARK SMILES IDX 57 88 60 89 54 90 55 91 58 92 56 93
REMARK H PARENT 6 13 12 23 12 24 80 46 48 57
REMARK Flexibility Score: inf
ROOT
ATOM      1  C   UNL A   1      33.103  29.197  24.649  1.00  0.00     0.274 C 
ENDROOT
BRANCH   1   2
ATOM      2  O   UNL A   1      33.162  27.767  24.835  1.00  0.00    -0.460 OA
BRANCH   2   3
ATOM      3  C   UNL A   1      33.451  27.050  23.715  1.00  0.00     0.331 C 
ATOM      4  O   UNL A   1      34.125  27.493  22.789  1.00  0.00    -0.249 OA
BRANCH   3   5
ATOM      5  C   UNL A   1      32.735  25.663  23.651  1.00  0.00     0.137 C 
ATOM      6  C   UNL A   1      35.692  23.521  26.146  1.00  0.00     0.007 C 
ATOM      7  C   UNL A   1      34.451  23.760  25.281  1.00  0.00    -0.014 C 
ATOM      8  C   UNL A   1      34.864  24.243  23.892  1.00  0.00     0.006 C 
ATOM      9  C   UNL A   1      33.524  24.780  25.947  1.00  0.00     0.006 C 
ATOM     10  C   UNL A   1      33.681  24.624  23.000  1.00  0.00     0.041 C 
ATOM     11  C   UNL A   1      32.334  25.140  25.056  1.00  0.00     0.041 C 
BRANCH   5  12
ATOM     12  N   UNL A   1      31.486  25.718  22.821  1.00  0.00    -0.353 N 
ATOM     13  H   UNL A   1      31.279  24.973  22.212  1.00  0.00     0.163 HD
BRANCH  12  14
ATOM     14  C   UNL A   1      30.618  26.796  22.894  1.00  0.00     0.149 A 
ATOM     15  C   UNL A   1      29.494  26.813  23.710  1.00  0.00     0.051 A 
ATOM     16  N   UNL A   1      30.865  27.832  22.065  1.00  0.00    -0.132 NA
ATOM     17  C   UNL A   1      28.560  27.837  23.579  1.00  0.00     0.040 A 
ATOM     18  N   UNL A   1      29.964  28.861  21.937  1.00  0.00    -0.143 NA
ATOM     19  C   UNL A   1      28.823  28.835  22.664  1.00  0.00     0.150 A 
BRANCH  19  20
ATOM     20  C   UNL A   1      27.834  29.918  22.400  1.00  0.00     0.269 C 
ATOM     21  N   UNL A   1      27.755  30.352  21.101  1.00  0.00    -0.364 N 
ATOM     22  O   UNL A   1      27.125  30.385  23.276  1.00  0.00    -0.268 OA
ATOM     23  H   UNL A   1      28.339  29.957  20.414  1.00  0.00     0.160 HD
ATOM     24  H   UNL A   1      27.115  31.058  20.856  1.00  0.00     0.160 HD
ENDBRANCH  19  20
ENDBRANCH  12  14
ENDBRANCH   5  12
ENDBRANCH   3   5
ENDBRANCH   2   3
ENDBRANCH   1   2
BRANCH   1  25
ATOM     25  C   UNL A   1      31.969  29.844  25.447  1.00  0.00     0.275 C 
BRANCH  25  26
ATOM     26  O   UNL A   1      32.359  30.028  26.822  1.00  0.00    -0.458 OA
BRANCH  26  27
ATOM     27  C   UNL A   1      33.021  31.171  27.111  1.00  0.00     0.338 C 
ATOM     28  O   UNL A   1      32.562  32.305  27.085  1.00  0.00    -0.246 OA
BRANCH  27  29
ATOM     29  C   UNL A   1      34.411  30.893  27.552  1.00  0.00     0.060 A 
ATOM     30  C   UNL A   1      34.831  29.593  27.813  1.00  0.00     0.016 A 
ATOM     31  C   UNL A   1      35.259  31.951  27.883  1.00  0.00     0.016 A 
ATOM     32  C   UNL A   1      35.981  29.360  28.563  1.00  0.00     0.010 A 
ATOM     33  C   UNL A   1      36.499  31.700  28.492  1.00  0.00     0.010 A 
ATOM     34  C   UNL A   1      36.857  30.401  28.892  1.00  0.00    -0.014 A 
BRANCH  34  35
ATOM     35  C   UNL A   1      38.104  30.125  29.673  1.00  0.00     0.031 A 
ATOM     36  C   UNL A   1      39.226  29.308  29.078  1.00  0.00     0.074 A 
ATOM     37  C   UNL A   1      38.266  30.630  30.915  1.00  0.00     0.049 A 
ATOM     38  N   UNL A   1      40.265  28.770  29.671  1.00  0.00    -0.248 NA
ATOM     39  C   UNL A   1      39.165  29.040  27.632  1.00  0.00     0.031 C 
ATOM     40  C   UNL A   1      37.304  31.478  31.623  1.00  0.00     0.029 A 
ATOM     41  N   UNL A   1      39.313  30.525  31.801  1.00  0.00    -0.354 N 
ATOM     42  C   UNL A   1      40.922  28.030  28.695  1.00  0.00     0.074 A 
ATOM     43  C   UNL A   1      40.181  28.206  27.464  1.00  0.00     0.031 C 
ATOM     44  C   UNL A   1      37.836  31.886  32.781  1.00  0.00     0.029 A 
ATOM     45  C   UNL A   1      39.115  31.216  32.972  1.00  0.00     0.049 A 
ATOM     46  H   UNL A   1      40.128  30.005  31.613  1.00  0.00     0.167 HD
ATOM     47  C   UNL A   1      42.035  27.265  28.823  1.00  0.00     0.037 A 
ATOM     48  C   UNL A   1      39.840  31.265  34.105  1.00  0.00     0.037 A 
ATOM     49  C   UNL A   1      42.823  27.167  30.027  1.00  0.00     0.049 A 
ATOM     50  C   UNL A   1      41.074  30.421  34.221  1.00  0.00     0.074 A 
ATOM     51  C   UNL A   1      43.974  26.430  30.250  1.00  0.00     0.029 A 
ATOM     52  N   UNL A   1      42.559  27.855  31.202  1.00  0.00    -0.354 N 
ATOM     53  N   UNL A   1      41.616  29.627  33.332  1.00  0.00    -0.248 NA
ATOM     54  C   UNL A   1      41.774  30.451  35.511  1.00  0.00     0.031 C 
ATOM     55  C   UNL A   1      44.391  26.651  31.568  1.00  0.00     0.029 A 
ATOM     56  C   UNL A   1      43.523  27.557  32.154  1.00  0.00     0.049 A 
ATOM     57  H   UNL A   1      41.799  28.466  31.341  1.00  0.00     0.167 HD
ATOM     58  C   UNL A   1      42.708  29.048  33.957  1.00  0.00     0.074 A 
ATOM     59  C   UNL A   1      42.779  29.616  35.289  1.00  0.00     0.031 C 
ATOM     60  C   UNL A   1      43.567  28.115  33.480  1.00  0.00     0.037 A 
BRANCH  47  61
ATOM     61  C   UNL A   1      42.451  26.429  27.647  1.00  0.00     0.064 A 
ATOM     62  C   UNL A   1      43.452  26.837  26.754  1.00  0.00     0.173 A 
ATOM     63  C   UNL A   1      41.870  25.166  27.448  1.00  0.00     0.173 A 
ATOM     64  F   UNL A   1      44.030  28.039  26.890  1.00  0.00    -0.203 F 
ATOM     65  C   UNL A   1      43.842  26.018  25.695  1.00  0.00     0.198 A 
ATOM     66  C   UNL A   1      42.282  24.340  26.406  1.00  0.00     0.198 A 
ATOM     67  F   UNL A   1      40.913  24.724  28.278  1.00  0.00    -0.203 F 
ATOM     68  F   UNL A   1      44.775  26.442  24.832  1.00  0.00    -0.200 F 
ATOM     69  C   UNL A   1      43.264  24.768  25.527  1.00  0.00     0.200 A 
ATOM     70  F   UNL A   1      41.730  23.127  26.255  1.00  0.00    -0.200 F 
ATOM     71  F   UNL A   1      43.650  23.978  24.516  1.00  0.00    -0.200 F 
ENDBRANCH  47  61
BRANCH  48  72
ATOM     72  C   UNL A   1      39.367  32.094  35.246  1.00  0.00     0.064 A 
ATOM     73  C   UNL A   1      39.674  33.458  35.324  1.00  0.00     0.173 A 
ATOM     74  C   UNL A   1      38.572  31.544  36.264  1.00  0.00     0.173 A 
ATOM     75  F   UNL A   1      40.457  34.022  34.392  1.00  0.00    -0.203 F 
ATOM     76  C   UNL A   1      39.202  34.242  36.375  1.00  0.00     0.198 A 
ATOM     77  C   UNL A   1      38.071  32.335  37.294  1.00  0.00     0.198 A 
ATOM     78  F   UNL A   1      38.254  30.241  36.238  1.00  0.00    -0.203 F 
ATOM     79  F   UNL A   1      39.537  35.538  36.444  1.00  0.00    -0.200 F 
ATOM     80  C   UNL A   1      38.390  33.683  37.351  1.00  0.00     0.200 A 
ATOM     81  F   UNL A   1      37.271  31.795  38.223  1.00  0.00    -0.200 F 
ATOM     82  F   UNL A   1      37.918  34.443  38.349  1.00  0.00    -0.200 F 
ENDBRANCH  48  72
BRANCH  60  83
ATOM     83  C   UNL A   1      44.652  27.661  34.410  1.00  0.00     0.064 A 
ATOM     84  C   UNL A   1      45.877  28.341  34.487  1.00  0.00     0.173 A 
ATOM     85  C   UNL A   1      44.472  26.530  35.217  1.00  0.00     0.173 A 
ATOM     86  F   UNL A   1      46.101  29.416  33.717  1.00  0.00    -0.203 F 
ATOM     87  C   UNL A   1      46.897  27.881  35.315  1.00  0.00     0.198 A 
ATOM     88  C   UNL A   1      45.485  26.089  36.063  1.00  0.00     0.198 A 
ATOM     89  F   UNL A   1      43.317  25.849  35.181  1.00  0.00    -0.203 F 
ATOM     90  F   UNL A   1      48.080  28.511  35.329  1.00  0.00    -0.200 F 
ATOM     91  C   UNL A   1      46.699  26.758  36.103  1.00  0.00     0.200 A 
ATOM     92  F   UNL A   1      45.293  25.006  36.829  1.00  0.00    -0.200 F 
ATOM     93  F   UNL A   1      47.686  26.310  36.892  1.00  0.00    -0.200 F 
ENDBRANCH  60  83
ENDBRANCH  34  35
ENDBRANCH  27  29
ENDBRANCH  26  27
ENDBRANCH  25  26
ENDBRANCH   1  25
TORSDOF 14
ENDMDL
