MODEL 1
REMARK VINA RESULT:     -13.1      0.000      0.000
REMARK SMILES O=C(OCCOC(=O)c1ccc(-c2c3nc(c(-c4c(F)c(F)c(F)c(F)c4F)c4ccc([nH]4)c(-c4c(F)c(F)c(F)c(F)c4F)c4nc(c(-c5c(F)c(F)c(F)c(F)c5F)c5ccc2[nH]5)C=C4)C=C3)cc1)C1=Cc2c(ccc(Cl)c2Sc2ccccc2)O[C@H]1C(F)(F)F
REMARK SMILES IDX 4 1 3 2 2 3 1 4 72 5 73 6 89 7 74 8 88 9 75 10 80 11 76 12
REMARK SMILES IDX 78 13 77 14 79 15 90 16 91 17 92 18 93 19 81 20 82 21 83 22
REMARK SMILES IDX 87 23 84 24 86 25 85 26 5 27 6 28 7 29 8 30 9 31 10 32 71 33
REMARK SMILES IDX 11 34 70 35 12 36 13 37 14 38 64 39 15 40 69 41 63 42 65 43
REMARK SMILES IDX 16 44 68 45 62 46 61 47 17 49 49 50 29 51 48 52 30 53 33 54
REMARK SMILES IDX 47 55 66 56 31 57 32 58 46 60 67 61 34 62 18 63 19 64 27 65
REMARK SMILES IDX 20 66 21 67 25 68 28 69 22 70 23 71 26 72 24 73 50 74 51 75
REMARK SMILES IDX 59 76 52 77 53 78 57 79 60 80 54 81 55 82 58 83 56 84 35 85
REMARK SMILES IDX 36 86 44 87 37 88 38 89 42 90 45 91 39 92 40 93 43 94 41 95
REMARK H PARENT 65 48 33 59
REMARK Flexibility Score: inf
ROOT
ATOM      1  C   UNL A   1      32.027  28.119  26.931  1.00  0.00     0.275 C 
ENDROOT
BRANCH   1   2
ATOM      2  O   UNL A   1      31.267  27.287  26.052  1.00  0.00    -0.459 OA
BRANCH   2   3
ATOM      3  C   UNL A   1      31.473  25.982  25.841  1.00  0.00     0.338 C 
ATOM      4  O   UNL A   1      31.561  25.221  26.800  1.00  0.00    -0.246 OA
BRANCH   3   5
ATOM      5  C   UNL A   1      31.648  25.459  24.468  1.00  0.00     0.087 C 
ATOM      6  C   UNL A   1      31.680  24.184  24.017  1.00  0.00     0.028 C 
ATOM      7  C   UNL A   1      32.367  26.424  23.584  1.00  0.00     0.316 C 
ATOM      8  C   UNL A   1      33.007  23.567  24.172  1.00  0.00     0.033 A 
ATOM      9  O   UNL A   1      33.496  25.719  22.950  1.00  0.00    -0.475 OA
ATOM     10  C   UNL A   1      33.915  24.511  23.546  1.00  0.00     0.129 A 
ATOM     11  C   UNL A   1      33.416  22.263  24.704  1.00  0.00     0.042 A 
ATOM     12  C   UNL A   1      35.241  24.194  23.391  1.00  0.00     0.049 A 
ATOM     13  C   UNL A   1      34.808  22.019  24.482  1.00  0.00     0.055 A 
ATOM     14  C   UNL A   1      35.674  22.955  23.850  1.00  0.00     0.025 A 
ATOM     15  Cl  UNL A   1      35.611  20.525  24.893  1.00  0.00    -0.083 Cl
BRANCH   7  16
ATOM     16  C   UNL A   1      31.319  27.050  22.634  1.00  0.00     0.430 C 
ATOM     17  F   UNL A   1      31.578  28.357  22.383  1.00  0.00    -0.167 F 
ATOM     18  F   UNL A   1      31.310  26.424  21.427  1.00  0.00    -0.167 F 
ATOM     19  F   UNL A   1      30.064  26.972  23.124  1.00  0.00    -0.167 F 
ENDBRANCH   7  16
BRANCH  11  20
ATOM     20  S   UNL A   1      32.545  20.679  25.389  1.00  0.00    -0.088 SA
BRANCH  20  21
ATOM     21  C   UNL A   1      32.652  18.934  24.843  1.00  0.00     0.012 A 
ATOM     22  C   UNL A   1      32.827  18.465  23.516  1.00  0.00     0.015 A 
ATOM     23  C   UNL A   1      32.630  17.920  25.843  1.00  0.00     0.015 A 
ATOM     24  C   UNL A   1      33.245  17.122  23.254  1.00  0.00     0.001 A 
ATOM     25  C   UNL A   1      33.036  16.583  25.579  1.00  0.00     0.001 A 
ATOM     26  C   UNL A   1      33.402  16.200  24.292  1.00  0.00     0.000 A 
ENDBRANCH  20  21
ENDBRANCH  11  20
ENDBRANCH   3   5
ENDBRANCH   2   3
ENDBRANCH   1   2
BRANCH   1  27
ATOM     27  C   UNL A   1      32.540  29.426  26.320  1.00  0.00     0.275 C 
BRANCH  27  28
ATOM     28  O   UNL A   1      33.875  29.678  26.555  1.00  0.00    -0.458 OA
BRANCH  28  29
ATOM     29  C   UNL A   1      33.907  30.831  27.200  1.00  0.00     0.338 C 
ATOM     30  O   UNL A   1      33.103  31.765  27.218  1.00  0.00    -0.246 OA
BRANCH  29  31
ATOM     31  C   UNL A   1      35.103  30.781  27.931  1.00  0.00     0.060 A 
ATOM     32  C   UNL A   1      35.220  29.564  28.573  1.00  0.00     0.016 A 
ATOM     33  C   UNL A   1      36.019  31.854  27.955  1.00  0.00     0.016 A 
ATOM     34  C   UNL A   1      36.299  29.412  29.349  1.00  0.00     0.010 A 
ATOM     35  C   UNL A   1      37.161  31.658  28.655  1.00  0.00     0.010 A 
ATOM     36  C   UNL A   1      37.255  30.439  29.326  1.00  0.00    -0.014 A 
BRANCH  36  37
ATOM     37  C   UNL A   1      38.448  30.125  30.038  1.00  0.00     0.031 A 
ATOM     38  C   UNL A   1      38.502  30.611  31.421  1.00  0.00     0.074 A 
ATOM     39  C   UNL A   1      39.246  29.296  29.356  1.00  0.00     0.049 A 
ATOM     40  N   UNL A   1      39.421  30.383  32.297  1.00  0.00    -0.248 NA
ATOM     41  C   UNL A   1      37.398  31.476  31.891  1.00  0.00     0.031 C 
ATOM     42  C   UNL A   1      39.032  28.856  27.961  1.00  0.00     0.029 A 
ATOM     43  N   UNL A   1      40.342  28.622  29.753  1.00  0.00    -0.354 N 
ATOM     44  C   UNL A   1      39.041  31.110  33.407  1.00  0.00     0.074 A 
ATOM     45  C   UNL A   1      37.810  31.794  33.108  1.00  0.00     0.031 C 
ATOM     46  C   UNL A   1      39.956  27.942  27.644  1.00  0.00     0.029 A 
ATOM     47  C   UNL A   1      40.856  27.815  28.775  1.00  0.00     0.049 A 
ATOM     48  H   UNL A   1      40.734  28.702  30.652  1.00  0.00     0.167 HD
ATOM     49  C   UNL A   1      39.734  31.168  34.556  1.00  0.00     0.037 A 
ATOM     50  C   UNL A   1      41.982  27.097  28.828  1.00  0.00     0.037 A 
ATOM     51  C   UNL A   1      40.947  30.414  34.713  1.00  0.00     0.049 A 
ATOM     52  C   UNL A   1      42.707  27.181  30.140  1.00  0.00     0.074 A 
ATOM     53  C   UNL A   1      41.777  30.324  35.805  1.00  0.00     0.029 A 
ATOM     54  N   UNL A   1      41.493  29.605  33.711  1.00  0.00    -0.354 N 
ATOM     55  N   UNL A   1      42.367  27.853  31.221  1.00  0.00    -0.248 NA
ATOM     56  C   UNL A   1      43.956  26.440  30.251  1.00  0.00     0.031 C 
ATOM     57  C   UNL A   1      42.853  29.504  35.444  1.00  0.00     0.029 A 
ATOM     58  C   UNL A   1      42.669  29.033  34.147  1.00  0.00     0.049 A 
ATOM     59  H   UNL A   1      41.096  29.466  32.821  1.00  0.00     0.167 HD
ATOM     60  C   UNL A   1      43.361  27.630  32.147  1.00  0.00     0.074 A 
ATOM     61  C   UNL A   1      44.298  26.716  31.503  1.00  0.00     0.031 C 
ATOM     62  C   UNL A   1      43.520  28.132  33.399  1.00  0.00     0.037 A 
BRANCH  49  63
ATOM     63  C   UNL A   1      39.241  32.096  35.616  1.00  0.00     0.064 A 
ATOM     64  C   UNL A   1      39.639  33.440  35.685  1.00  0.00     0.173 A 
ATOM     65  C   UNL A   1      38.377  31.617  36.610  1.00  0.00     0.173 A 
ATOM     66  F   UNL A   1      40.511  33.935  34.793  1.00  0.00    -0.203 F 
ATOM     67  C   UNL A   1      39.182  34.270  36.706  1.00  0.00     0.198 A 
ATOM     68  C   UNL A   1      37.901  32.455  37.613  1.00  0.00     0.198 A 
ATOM     69  F   UNL A   1      38.004  30.328  36.617  1.00  0.00    -0.203 F 
ATOM     70  F   UNL A   1      39.608  35.540  36.777  1.00  0.00    -0.200 F 
ATOM     71  C   UNL A   1      38.304  33.781  37.661  1.00  0.00     0.200 A 
ATOM     72  F   UNL A   1      37.061  31.977  38.541  1.00  0.00    -0.200 F 
ATOM     73  F   UNL A   1      37.855  34.584  38.636  1.00  0.00    -0.200 F 
ENDBRANCH  49  63
BRANCH  50  74
ATOM     74  C   UNL A   1      42.456  26.360  27.636  1.00  0.00     0.064 A 
ATOM     75  C   UNL A   1      43.413  26.904  26.774  1.00  0.00     0.173 A 
ATOM     76  C   UNL A   1      41.994  25.061  27.356  1.00  0.00     0.173 A 
ATOM     77  F   UNL A   1      43.900  28.132  27.005  1.00  0.00    -0.203 F 
ATOM     78  C   UNL A   1      43.865  26.196  25.662  1.00  0.00     0.198 A 
ATOM     79  C   UNL A   1      42.472  24.340  26.266  1.00  0.00     0.198 A 
ATOM     80  F   UNL A   1      41.096  24.475  28.163  1.00  0.00    -0.203 F 
ATOM     81  F   UNL A   1      44.748  26.760  24.827  1.00  0.00    -0.200 F 
ATOM     82  C   UNL A   1      43.397  24.914  25.410  1.00  0.00     0.200 A 
ATOM     83  F   UNL A   1      42.038  23.091  26.048  1.00  0.00    -0.200 F 
ATOM     84  F   UNL A   1      43.833  24.235  24.340  1.00  0.00    -0.200 F 
ENDBRANCH  50  74
BRANCH  62  85
ATOM     85  C   UNL A   1      44.750  27.678  34.105  1.00  0.00     0.064 A 
ATOM     86  C   UNL A   1      44.753  26.497  34.859  1.00  0.00     0.173 A 
ATOM     87  C   UNL A   1      45.940  28.402  33.971  1.00  0.00     0.173 A 
ATOM     88  F   UNL A   1      43.622  25.794  35.022  1.00  0.00    -0.203 F 
ATOM     89  C   UNL A   1      45.915  26.067  35.481  1.00  0.00     0.198 A 
ATOM     90  C   UNL A   1      47.109  27.945  34.561  1.00  0.00     0.198 A 
ATOM     91  F   UNL A   1      45.970  29.530  33.247  1.00  0.00    -0.203 F 
ATOM     92  F   UNL A   1      45.894  24.965  36.243  1.00  0.00    -0.200 F 
ATOM     93  C   UNL A   1      47.093  26.784  35.320  1.00  0.00     0.200 A 
ATOM     94  F   UNL A   1      48.251  28.624  34.389  1.00  0.00    -0.200 F 
ATOM     95  F   UNL A   1      48.218  26.355  35.907  1.00  0.00    -0.200 F 
ENDBRANCH  62  85
ENDBRANCH  36  37
ENDBRANCH  29  31
ENDBRANCH  28  29
ENDBRANCH  27  28
ENDBRANCH   1  27
TORSDOF 14
ENDMDL
MODEL 2
REMARK VINA RESULT:     -13.1      1.503      2.666
REMARK SMILES O=C(OCCOC(=O)c1ccc(-c2c3nc(c(-c4c(F)c(F)c(F)c(F)c4F)c4ccc([nH]4)c(-c4c(F)c(F)c(F)c(F)c4F)c4nc(c(-c5c(F)c(F)c(F)c(F)c5F)c5ccc2[nH]5)C=C4)C=C3)cc1)C1=Cc2c(ccc(Cl)c2Sc2ccccc2)O[C@H]1C(F)(F)F
REMARK SMILES IDX 4 1 3 2 2 3 1 4 72 5 73 6 89 7 74 8 88 9 75 10 80 11 76 12
REMARK SMILES IDX 78 13 77 14 79 15 90 16 91 17 92 18 93 19 81 20 82 21 83 22
REMARK SMILES IDX 87 23 84 24 86 25 85 26 5 27 6 28 7 29 8 30 9 31 10 32 71 33
REMARK SMILES IDX 11 34 70 35 12 36 13 37 14 38 64 39 15 40 69 41 63 42 65 43
REMARK SMILES IDX 16 44 68 45 62 46 61 47 17 49 49 50 29 51 48 52 30 53 33 54
REMARK SMILES IDX 47 55 66 56 31 57 32 58 46 60 67 61 34 62 18 63 19 64 27 65
REMARK SMILES IDX 20 66 21 67 25 68 28 69 22 70 23 71 26 72 24 73 50 74 51 75
REMARK SMILES IDX 59 76 52 77 53 78 57 79 60 80 54 81 55 82 58 83 56 84 35 85
REMARK SMILES IDX 36 86 44 87 37 88 38 89 42 90 45 91 39 92 40 93 43 94 41 95
REMARK H PARENT 65 48 33 59
REMARK Flexibility Score: inf
ROOT
ATOM      1  C   UNL A   1      33.241  29.310  24.245  1.00  0.00     0.275 C 
ENDROOT
BRANCH   1   2
ATOM      2  O   UNL A   1      33.806  28.048  23.882  1.00  0.00    -0.459 OA
BRANCH   2   3
ATOM      3  C   UNL A   1      33.153  27.042  23.292  1.00  0.00     0.338 C 
ATOM      4  O   UNL A   1      33.352  26.806  22.104  1.00  0.00    -0.246 OA
BRANCH   3   5
ATOM      5  C   UNL A   1      32.155  26.247  24.042  1.00  0.00     0.087 C 
ATOM      6  C   UNL A   1      32.325  25.349  25.040  1.00  0.00     0.028 C 
ATOM      7  C   UNL A   1      30.895  26.046  23.266  1.00  0.00     0.316 C 
ATOM      8  C   UNL A   1      32.671  24.011  24.539  1.00  0.00     0.033 A 
ATOM      9  O   UNL A   1      30.588  24.604  23.247  1.00  0.00    -0.475 OA
ATOM     10  C   UNL A   1      31.641  23.719  23.558  1.00  0.00     0.129 A 
ATOM     11  C   UNL A   1      33.711  23.059  24.946  1.00  0.00     0.042 A 
ATOM     12  C   UNL A   1      31.575  22.479  22.974  1.00  0.00     0.049 A 
ATOM     13  C   UNL A   1      33.550  21.796  24.294  1.00  0.00     0.055 A 
ATOM     14  C   UNL A   1      32.520  21.530  23.349  1.00  0.00     0.025 A 
ATOM     15  Cl  UNL A   1      34.547  20.400  24.620  1.00  0.00    -0.083 Cl
BRANCH   7  16
ATOM     16  C   UNL A   1      29.821  26.975  23.879  1.00  0.00     0.430 C 
ATOM     17  F   UNL A   1      29.095  27.610  22.926  1.00  0.00    -0.167 F 
ATOM     18  F   UNL A   1      28.932  26.273  24.632  1.00  0.00    -0.167 F 
ATOM     19  F   UNL A   1      30.352  27.921  24.682  1.00  0.00    -0.167 F 
ENDBRANCH   7  16
BRANCH  11  20
ATOM     20  S   UNL A   1      35.080  22.958  26.306  1.00  0.00    -0.088 SA
BRANCH  20  21
ATOM     21  C   UNL A   1      36.906  23.008  26.161  1.00  0.00     0.012 A 
ATOM     22  C   UNL A   1      37.761  24.079  26.522  1.00  0.00     0.015 A 
ATOM     23  C   UNL A   1      37.570  21.832  25.705  1.00  0.00     0.015 A 
ATOM     24  C   UNL A   1      39.167  23.879  26.695  1.00  0.00     0.001 A 
ATOM     25  C   UNL A   1      38.969  21.639  25.868  1.00  0.00     0.001 A 
ATOM     26  C   UNL A   1      39.759  22.643  26.421  1.00  0.00     0.000 A 
ENDBRANCH  20  21
ENDBRANCH  11  20
ENDBRANCH   3   5
ENDBRANCH   2   3
ENDBRANCH   1   2
BRANCH   1  27
ATOM     27  C   UNL A   1      33.114  29.566  25.749  1.00  0.00     0.275 C 
BRANCH  27  28
ATOM     28  O   UNL A   1      34.318  29.637  26.417  1.00  0.00    -0.458 OA
BRANCH  28  29
ATOM     29  C   UNL A   1      34.224  30.697  27.200  1.00  0.00     0.338 C 
ATOM     30  O   UNL A   1      33.337  31.546  27.302  1.00  0.00    -0.246 OA
BRANCH  29  31
ATOM     31  C   UNL A   1      35.397  30.660  27.968  1.00  0.00     0.060 A 
ATOM     32  C   UNL A   1      35.511  29.443  28.611  1.00  0.00     0.016 A 
ATOM     33  C   UNL A   1      36.299  31.745  28.021  1.00  0.00     0.016 A 
ATOM     34  C   UNL A   1      36.567  29.303  29.419  1.00  0.00     0.010 A 
ATOM     35  C   UNL A   1      37.422  31.562  28.754  1.00  0.00     0.010 A 
ATOM     36  C   UNL A   1      37.511  30.343  29.426  1.00  0.00    -0.014 A 
BRANCH  36  37
ATOM     37  C   UNL A   1      38.685  30.042  30.173  1.00  0.00     0.031 A 
ATOM     38  C   UNL A   1      38.685  30.513  31.563  1.00  0.00     0.074 A 
ATOM     39  C   UNL A   1      39.521  29.236  29.509  1.00  0.00     0.049 A 
ATOM     40  N   UNL A   1      39.580  30.292  32.466  1.00  0.00    -0.248 NA
ATOM     41  C   UNL A   1      37.551  31.352  32.006  1.00  0.00     0.031 C 
ATOM     42  C   UNL A   1      39.361  28.809  28.102  1.00  0.00     0.029 A 
ATOM     43  N   UNL A   1      40.616  28.578  29.934  1.00  0.00    -0.354 N 
ATOM     44  C   UNL A   1      39.150  30.998  33.570  1.00  0.00     0.074 A 
ATOM     45  C   UNL A   1      37.917  31.663  33.239  1.00  0.00     0.031 C 
ATOM     46  C   UNL A   1      40.312  27.915  27.806  1.00  0.00     0.029 A 
ATOM     47  C   UNL A   1      41.176  27.791  28.964  1.00  0.00     0.049 A 
ATOM     48  H   UNL A   1      40.976  28.654  30.846  1.00  0.00     0.167 HD
ATOM     49  C   UNL A   1      39.804  31.056  34.743  1.00  0.00     0.037 A 
ATOM     50  C   UNL A   1      42.313  27.094  29.046  1.00  0.00     0.037 A 
ATOM     51  C   UNL A   1      41.025  30.322  34.931  1.00  0.00     0.049 A 
ATOM     52  C   UNL A   1      42.993  27.176  30.382  1.00  0.00     0.074 A 
ATOM     53  C   UNL A   1      41.821  30.234  36.048  1.00  0.00     0.029 A 
ATOM     54  N   UNL A   1      41.619  29.535  33.938  1.00  0.00    -0.354 N 
ATOM     55  N   UNL A   1      42.606  27.829  31.459  1.00  0.00    -0.248 NA
ATOM     56  C   UNL A   1      44.252  26.456  30.526  1.00  0.00     0.031 C 
ATOM     57  C   UNL A   1      42.923  29.439  35.713  1.00  0.00     0.029 A 
ATOM     58  C   UNL A   1      42.790  28.979  34.406  1.00  0.00     0.049 A 
ATOM     59  H   UNL A   1      41.254  29.398  33.034  1.00  0.00     0.167 HD
ATOM     60  C   UNL A   1      43.573  27.613  32.415  1.00  0.00     0.074 A 
ATOM     61  C   UNL A   1      44.547  26.724  31.792  1.00  0.00     0.031 C 
ATOM     62  C   UNL A   1      43.682  28.103  33.676  1.00  0.00     0.037 A 
BRANCH  49  63
ATOM     63  C   UNL A   1      39.260  31.961  35.796  1.00  0.00     0.064 A 
ATOM     64  C   UNL A   1      38.293  31.543  36.723  1.00  0.00     0.173 A 
ATOM     65  C   UNL A   1      39.692  33.293  35.857  1.00  0.00     0.173 A 
ATOM     66  F   UNL A   1      37.802  30.295  36.672  1.00  0.00    -0.203 F 
ATOM     67  C   UNL A   1      37.785  32.424  37.675  1.00  0.00     0.198 A 
ATOM     68  C   UNL A   1      39.202  34.164  36.825  1.00  0.00     0.198 A 
ATOM     69  F   UNL A   1      40.580  33.757  34.965  1.00  0.00    -0.203 F 
ATOM     70  F   UNL A   1      36.830  32.014  38.523  1.00  0.00    -0.200 F 
ATOM     71  C   UNL A   1      38.249  33.729  37.734  1.00  0.00     0.200 A 
ATOM     72  F   UNL A   1      39.646  35.427  36.874  1.00  0.00    -0.200 F 
ATOM     73  F   UNL A   1      37.769  34.572  38.658  1.00  0.00    -0.200 F 
ENDBRANCH  49  63
BRANCH  50  74
ATOM     74  C   UNL A   1      42.839  26.379  27.862  1.00  0.00     0.064 A 
ATOM     75  C   UNL A   1      43.622  27.031  26.905  1.00  0.00     0.173 A 
ATOM     76  C   UNL A   1      42.610  25.002  27.685  1.00  0.00     0.173 A 
ATOM     77  F   UNL A   1      43.886  28.340  27.035  1.00  0.00    -0.203 F 
ATOM     78  C   UNL A   1      44.126  26.347  25.800  1.00  0.00     0.198 A 
ATOM     79  C   UNL A   1      43.143  24.311  26.602  1.00  0.00     0.198 A 
ATOM     80  F   UNL A   1      41.890  24.317  28.586  1.00  0.00    -0.203 F 
ATOM     81  F   UNL A   1      44.834  27.007  24.874  1.00  0.00    -0.200 F 
ATOM     82  C   UNL A   1      43.890  24.987  25.650  1.00  0.00     0.200 A 
ATOM     83  F   UNL A   1      42.936  22.993  26.482  1.00  0.00    -0.200 F 
ATOM     84  F   UNL A   1      44.376  24.331  24.588  1.00  0.00    -0.200 F 
ENDBRANCH  50  74
BRANCH  62  85
ATOM     85  C   UNL A   1      44.896  27.663  34.417  1.00  0.00     0.064 A 
ATOM     86  C   UNL A   1      44.893  26.480  35.169  1.00  0.00     0.173 A 
ATOM     87  C   UNL A   1      46.081  28.402  34.320  1.00  0.00     0.173 A 
ATOM     88  F   UNL A   1      43.766  25.762  35.297  1.00  0.00    -0.203 F 
ATOM     89  C   UNL A   1      46.041  26.064  35.824  1.00  0.00     0.198 A 
ATOM     90  C   UNL A   1      47.237  27.959  34.943  1.00  0.00     0.198 A 
ATOM     91  F   UNL A   1      46.116  29.533  33.599  1.00  0.00    -0.203 F 
ATOM     92  F   UNL A   1      46.012  24.960  36.583  1.00  0.00    -0.200 F 
ATOM     93  C   UNL A   1      47.214  26.796  35.699  1.00  0.00     0.200 A 
ATOM     94  F   UNL A   1      48.375  28.653  34.806  1.00  0.00    -0.200 F 
ATOM     95  F   UNL A   1      48.327  26.381  36.318  1.00  0.00    -0.200 F 
ENDBRANCH  62  85
ENDBRANCH  36  37
ENDBRANCH  29  31
ENDBRANCH  28  29
ENDBRANCH  27  28
ENDBRANCH   1  27
TORSDOF 14
ENDMDL
MODEL 3
REMARK VINA RESULT:     -12.9      4.618      9.931
REMARK SMILES O=C(OCCOC(=O)c1ccc(-c2c3nc(c(-c4c(F)c(F)c(F)c(F)c4F)c4ccc([nH]4)c(-c4c(F)c(F)c(F)c(F)c4F)c4nc(c(-c5c(F)c(F)c(F)c(F)c5F)c5ccc2[nH]5)C=C4)C=C3)cc1)C1=Cc2c(ccc(Cl)c2Sc2ccccc2)O[C@H]1C(F)(F)F
REMARK SMILES IDX 4 1 3 2 2 3 1 4 72 5 73 6 89 7 74 8 88 9 75 10 80 11 76 12
REMARK SMILES IDX 78 13 77 14 79 15 90 16 91 17 92 18 93 19 81 20 82 21 83 22
REMARK SMILES IDX 87 23 84 24 86 25 85 26 5 27 6 28 7 29 8 30 9 31 10 32 71 33
REMARK SMILES IDX 11 34 70 35 12 36 13 37 14 38 64 39 15 40 69 41 63 42 65 43
REMARK SMILES IDX 16 44 68 45 62 46 61 47 17 49 49 50 29 51 48 52 30 53 33 54
REMARK SMILES IDX 47 55 66 56 31 57 32 58 46 60 67 61 34 62 18 63 19 64 27 65
REMARK SMILES IDX 20 66 21 67 25 68 28 69 22 70 23 71 26 72 24 73 50 74 51 75
REMARK SMILES IDX 59 76 52 77 53 78 57 79 60 80 54 81 55 82 58 83 56 84 35 85
REMARK SMILES IDX 36 86 44 87 37 88 38 89 42 90 45 91 39 92 40 93 43 94 41 95
REMARK H PARENT 65 48 33 59
REMARK Flexibility Score: inf
ROOT
ATOM      1  C   UNL A   1      37.228  21.182  24.603  1.00  0.00     0.275 C 
ENDROOT
BRANCH   1   2
ATOM      2  O   UNL A   1      36.047  20.505  25.037  1.00  0.00    -0.459 OA
BRANCH   2   3
ATOM      3  C   UNL A   1      34.947  21.090  25.523  1.00  0.00     0.338 C 
ATOM      4  O   UNL A   1      34.958  21.545  26.663  1.00  0.00    -0.246 OA
BRANCH   3   5
ATOM      5  C   UNL A   1      33.704  21.143  24.722  1.00  0.00     0.087 C 
ATOM      6  C   UNL A   1      33.122  22.182  24.080  1.00  0.00     0.028 C 
ATOM      7  C   UNL A   1      32.747  20.057  25.091  1.00  0.00     0.316 C 
ATOM      8  C   UNL A   1      32.302  23.008  24.980  1.00  0.00     0.033 A 
ATOM      9  O   UNL A   1      31.436  20.671  25.371  1.00  0.00    -0.475 OA
ATOM     10  C   UNL A   1      31.419  22.057  25.631  1.00  0.00     0.129 A 
ATOM     11  C   UNL A   1      32.225  24.461  25.166  1.00  0.00     0.042 A 
ATOM     12  C   UNL A   1      30.414  22.500  26.455  1.00  0.00     0.049 A 
ATOM     13  C   UNL A   1      31.141  24.823  26.026  1.00  0.00     0.055 A 
ATOM     14  C   UNL A   1      30.279  23.872  26.639  1.00  0.00     0.025 A 
ATOM     15  Cl  UNL A   1      30.693  26.472  26.383  1.00  0.00    -0.083 Cl
BRANCH   7  16
ATOM     16  C   UNL A   1      32.791  18.999  23.965  1.00  0.00     0.430 C 
ATOM     17  F   UNL A   1      34.020  18.442  23.839  1.00  0.00    -0.167 F 
ATOM     18  F   UNL A   1      31.932  17.975  24.215  1.00  0.00    -0.167 F 
ATOM     19  F   UNL A   1      32.452  19.508  22.761  1.00  0.00    -0.167 F 
ENDBRANCH   7  16
BRANCH  11  20
ATOM     20  S   UNL A   1      33.020  26.032  24.368  1.00  0.00    -0.088 SA
BRANCH  20  21
ATOM     21  C   UNL A   1      33.193  27.736  25.017  1.00  0.00     0.012 A 
ATOM     22  C   UNL A   1      32.499  28.891  24.576  1.00  0.00     0.015 A 
ATOM     23  C   UNL A   1      34.057  27.941  26.132  1.00  0.00     0.015 A 
ATOM     24  C   UNL A   1      32.451  30.078  25.375  1.00  0.00     0.001 A 
ATOM     25  C   UNL A   1      34.015  29.124  26.918  1.00  0.00     0.001 A 
ATOM     26  C   UNL A   1      33.165  30.170  26.572  1.00  0.00     0.000 A 
ENDBRANCH  20  21
ENDBRANCH  11  20
ENDBRANCH   3   5
ENDBRANCH   2   3
ENDBRANCH   1   2
BRANCH   1  27
ATOM     27  C   UNL A   1      38.462  20.988  25.489  1.00  0.00     0.275 C 
BRANCH  27  28
ATOM     28  O   UNL A   1      38.616  21.948  26.466  1.00  0.00    -0.458 OA
BRANCH  28  29
ATOM     29  C   UNL A   1      39.868  21.835  26.876  1.00  0.00     0.338 C 
ATOM     30  O   UNL A   1      40.580  20.840  27.020  1.00  0.00    -0.246 OA
BRANCH  29  31
ATOM     31  C   UNL A   1      40.271  23.158  27.111  1.00  0.00     0.060 A 
ATOM     32  C   UNL A   1      41.320  23.185  28.010  1.00  0.00     0.016 A 
ATOM     33  C   UNL A   1      39.658  24.259  26.476  1.00  0.00     0.016 A 
ATOM     34  C   UNL A   1      41.763  24.399  28.358  1.00  0.00     0.010 A 
ATOM     35  C   UNL A   1      40.178  25.479  26.747  1.00  0.00     0.010 A 
ATOM     36  C   UNL A   1      41.213  25.499  27.681  1.00  0.00    -0.014 A 
BRANCH  36  37
ATOM     37  C   UNL A   1      41.858  26.733  27.981  1.00  0.00     0.031 A 
ATOM     38  C   UNL A   1      43.163  26.933  27.342  1.00  0.00     0.074 A 
ATOM     39  C   UNL A   1      41.073  27.565  28.674  1.00  0.00     0.049 A 
ATOM     40  N   UNL A   1      43.900  27.991  27.377  1.00  0.00    -0.248 NA
ATOM     41  C   UNL A   1      43.735  25.805  26.574  1.00  0.00     0.031 C 
ATOM     42  C   UNL A   1      39.742  27.227  29.224  1.00  0.00     0.029 A 
ATOM     43  N   UNL A   1      41.234  28.868  28.973  1.00  0.00    -0.354 N 
ATOM     44  C   UNL A   1      45.042  27.651  26.682  1.00  0.00     0.074 A 
ATOM     45  C   UNL A   1      44.917  26.289  26.232  1.00  0.00     0.031 C 
ATOM     46  C   UNL A   1      39.195  28.327  29.753  1.00  0.00     0.029 A 
ATOM     47  C   UNL A   1      40.171  29.396  29.654  1.00  0.00     0.049 A 
ATOM     48  H   UNL A   1      42.034  29.387  28.727  1.00  0.00     0.167 HD
ATOM     49  C   UNL A   1      46.092  28.468  26.489  1.00  0.00     0.037 A 
ATOM     50  C   UNL A   1      40.071  30.625  30.168  1.00  0.00     0.037 A 
ATOM     51  C   UNL A   1      46.066  29.815  26.989  1.00  0.00     0.049 A 
ATOM     52  C   UNL A   1      41.261  31.503  29.908  1.00  0.00     0.074 A 
ATOM     53  C   UNL A   1      47.018  30.800  26.877  1.00  0.00     0.029 A 
ATOM     54  N   UNL A   1      44.995  30.356  27.707  1.00  0.00    -0.354 N 
ATOM     55  N   UNL A   1      42.359  31.215  29.239  1.00  0.00    -0.248 NA
ATOM     56  C   UNL A   1      41.222  32.848  30.465  1.00  0.00     0.031 C 
ATOM     57  C   UNL A   1      46.546  31.918  27.574  1.00  0.00     0.029 A 
ATOM     58  C   UNL A   1      45.273  31.655  28.073  1.00  0.00     0.049 A 
ATOM     59  H   UNL A   1      44.162  29.877  27.922  1.00  0.00     0.167 HD
ATOM     60  C   UNL A   1      43.156  32.337  29.299  1.00  0.00     0.074 A 
ATOM     61  C   UNL A   1      42.382  33.328  30.037  1.00  0.00     0.031 C 
ATOM     62  C   UNL A   1      44.409  32.546  28.819  1.00  0.00     0.037 A 
BRANCH  49  63
ATOM     63  C   UNL A   1      47.296  27.901  25.815  1.00  0.00     0.064 A 
ATOM     64  C   UNL A   1      47.409  27.819  24.418  1.00  0.00     0.173 A 
ATOM     65  C   UNL A   1      48.351  27.396  26.587  1.00  0.00     0.173 A 
ATOM     66  F   UNL A   1      46.403  28.235  23.633  1.00  0.00    -0.203 F 
ATOM     67  C   UNL A   1      48.535  27.257  23.822  1.00  0.00     0.198 A 
ATOM     68  C   UNL A   1      49.486  26.858  25.989  1.00  0.00     0.198 A 
ATOM     69  F   UNL A   1      48.273  27.407  27.927  1.00  0.00    -0.203 F 
ATOM     70  F   UNL A   1      48.602  27.149  22.487  1.00  0.00    -0.200 F 
ATOM     71  C   UNL A   1      49.578  26.789  24.607  1.00  0.00     0.200 A 
ATOM     72  F   UNL A   1      50.488  26.398  26.751  1.00  0.00    -0.200 F 
ATOM     73  F   UNL A   1      50.667  26.260  24.033  1.00  0.00    -0.200 F 
ENDBRANCH  49  63
BRANCH  50  74
ATOM     74  C   UNL A   1      38.891  31.003  30.976  1.00  0.00     0.064 A 
ATOM     75  C   UNL A   1      38.860  30.804  32.360  1.00  0.00     0.173 A 
ATOM     76  C   UNL A   1      37.776  31.624  30.385  1.00  0.00     0.173 A 
ATOM     77  F   UNL A   1      39.905  30.233  32.977  1.00  0.00    -0.203 F 
ATOM     78  C   UNL A   1      37.750  31.178  33.116  1.00  0.00     0.198 A 
ATOM     79  C   UNL A   1      36.682  32.030  31.145  1.00  0.00     0.198 A 
ATOM     80  F   UNL A   1      37.759  31.867  29.065  1.00  0.00    -0.203 F 
ATOM     81  F   UNL A   1      37.728  30.934  34.433  1.00  0.00    -0.200 F 
ATOM     82  C   UNL A   1      36.664  31.793  32.509  1.00  0.00     0.200 A 
ATOM     83  F   UNL A   1      35.652  32.651  30.555  1.00  0.00    -0.200 F 
ATOM     84  F   UNL A   1      35.598  32.151  33.238  1.00  0.00    -0.200 F 
ENDBRANCH  50  74
BRANCH  62  85
ATOM     85  C   UNL A   1      44.970  33.897  29.100  1.00  0.00     0.064 A 
ATOM     86  C   UNL A   1      45.746  34.132  30.243  1.00  0.00     0.173 A 
ATOM     87  C   UNL A   1      44.774  34.938  28.185  1.00  0.00     0.173 A 
ATOM     88  F   UNL A   1      45.933  33.158  31.147  1.00  0.00    -0.203 F 
ATOM     89  C   UNL A   1      46.292  35.385  30.472  1.00  0.00     0.198 A 
ATOM     90  C   UNL A   1      45.356  36.178  28.399  1.00  0.00     0.198 A 
ATOM     91  F   UNL A   1      44.044  34.739  27.078  1.00  0.00    -0.203 F 
ATOM     92  F   UNL A   1      46.987  35.613  31.594  1.00  0.00    -0.200 F 
ATOM     93  C   UNL A   1      46.107  36.402  29.544  1.00  0.00     0.200 A 
ATOM     94  F   UNL A   1      45.197  37.153  27.495  1.00  0.00    -0.200 F 
ATOM     95  F   UNL A   1      46.651  37.607  29.760  1.00  0.00    -0.200 F 
ENDBRANCH  62  85
ENDBRANCH  36  37
ENDBRANCH  29  31
ENDBRANCH  28  29
ENDBRANCH  27  28
ENDBRANCH   1  27
TORSDOF 14
ENDMDL
