MODEL 1
REMARK VINA RESULT:     -11.0      0.000      0.000
REMARK SMILES CC[C@@H]1CCC[C@@H]([NH+]2CC(n3cc(C(=O)OCCOC(=O)c4ccc(-c5c6nc(c(-c7c(F)c(F)c(F)c(F)c7F)c7ccc([nH]7)c(-c7c(F)c(F)c(F)c(F)c7F)c7nc(c(-c8c(F)c(F)c(F)c(F)c8F)c8ccc5[nH]8)C=C7)C=C6)cc4)nn3)C2)C1
REMARK SMILES IDX 17 1 16 2 14 3 15 4 13 5 11 6 12 7 86 8 85 9 10 10 8 11 9 12
REMARK SMILES IDX 87 13 7 15 3 16 4 17 88 18 5 19 6 20 2 21 1 22 18 23 19 24
REMARK SMILES IDX 20 25 21 26 22 27 23 28 84 29 24 30 83 31 25 32 26 33 27 34
REMARK SMILES IDX 77 35 28 36 82 37 76 38 78 39 29 40 81 41 75 42 74 43 30 45
REMARK SMILES IDX 62 46 42 47 61 48 43 49 46 50 60 51 79 52 44 53 45 54 59 56
REMARK SMILES IDX 80 57 47 58 31 59 32 60 40 61 33 62 34 63 38 64 41 65 35 66
REMARK SMILES IDX 36 67 39 68 37 69 63 70 64 71 72 72 65 73 66 74 70 75 73 76
REMARK SMILES IDX 67 77 68 78 71 79 69 80 48 81 49 82 57 83 50 84 51 85 55 86
REMARK SMILES IDX 58 87 52 88 53 89 56 90 54 91
REMARK H PARENT 8 14 78 44 46 55
REMARK Flexibility Score: inf
ROOT
ATOM      1  C   UNL A   1      42.156  19.449  26.405  1.00  0.00     0.275 C 
ENDROOT
BRANCH   1   2
ATOM      2  O   UNL A   1      42.808  19.475  25.129  1.00  0.00    -0.457 OA
BRANCH   2   3
ATOM      3  C   UNL A   1      44.109  19.909  25.118  1.00  0.00     0.360 C 
ATOM      4  O   UNL A   1      45.086  19.164  25.157  1.00  0.00    -0.244 OA
BRANCH   3   5
ATOM      5  C   UNL A   1      44.194  21.350  24.999  1.00  0.00     0.190 A 
ATOM      6  N   UNL A   1      44.847  23.410  25.056  1.00  0.00    -0.237 N 
ATOM      7  C   UNL A   1      45.283  22.143  25.288  1.00  0.00     0.147 A 
ATOM      8  N   UNL A   1      43.562  23.421  24.664  1.00  0.00    -0.066 NA
ATOM      9  N   UNL A   1      43.146  22.160  24.627  1.00  0.00    -0.123 NA
BRANCH   6  10
ATOM     10  C   UNL A   1      45.591  24.550  25.461  1.00  0.00     0.218 C 
ATOM     11  N   UNL A   1      47.423  25.094  26.366  1.00  0.00    -0.329 N 
ATOM     12  C   UNL A   1      47.054  24.605  25.018  1.00  0.00     0.296 C 
ATOM     13  C   UNL A   1      46.171  24.472  26.886  1.00  0.00     0.296 C 
ATOM     14  H   UNL A   1      48.349  24.880  26.736  1.00  0.00     0.348 HD
BRANCH  11  15
ATOM     15  C   UNL A   1      47.502  26.558  26.585  1.00  0.00     0.184 C 
ATOM     16  C   UNL A   1      49.900  26.899  27.494  1.00  0.00    -0.006 C 
ATOM     17  C   UNL A   1      50.219  27.818  26.301  1.00  0.00     0.004 C 
ATOM     18  C   UNL A   1      48.393  26.898  27.805  1.00  0.00     0.068 C 
ATOM     19  C   UNL A   1      49.327  27.593  25.085  1.00  0.00     0.006 C 
ATOM     20  C   UNL A   1      47.848  27.541  25.446  1.00  0.00     0.065 C 
BRANCH  16  21
ATOM     21  C   UNL A   1      50.726  27.286  28.733  1.00  0.00     0.000 C 
ATOM     22  C   UNL A   1      49.935  28.173  29.689  1.00  0.00     0.004 C 
ENDBRANCH  16  21
ENDBRANCH  11  15
ENDBRANCH   6  10
ENDBRANCH   3   5
ENDBRANCH   2   3
ENDBRANCH   1   2
BRANCH   1  23
ATOM     23  C   UNL A   1      40.697  19.856  26.281  1.00  0.00     0.275 C 
BRANCH  23  24
ATOM     24  O   UNL A   1      40.400  20.956  27.134  1.00  0.00    -0.458 OA
BRANCH  24  25
ATOM     25  C   UNL A   1      39.655  21.943  26.586  1.00  0.00     0.338 C 
ATOM     26  O   UNL A   1      38.699  21.820  25.840  1.00  0.00    -0.246 OA
BRANCH  25  27
ATOM     27  C   UNL A   1      40.344  23.216  26.822  1.00  0.00     0.060 A 
ATOM     28  C   UNL A   1      41.476  23.209  27.648  1.00  0.00     0.016 A 
ATOM     29  C   UNL A   1      39.690  24.405  26.471  1.00  0.00     0.016 A 
ATOM     30  C   UNL A   1      41.856  24.388  28.255  1.00  0.00     0.010 A 
ATOM     31  C   UNL A   1      40.040  25.563  27.108  1.00  0.00     0.010 A 
ATOM     32  C   UNL A   1      41.080  25.527  28.037  1.00  0.00    -0.014 A 
BRANCH  32  33
ATOM     33  C   UNL A   1      41.430  26.770  28.693  1.00  0.00     0.031 A 
ATOM     34  C   UNL A   1      42.685  27.367  28.167  1.00  0.00     0.074 A 
ATOM     35  C   UNL A   1      40.535  27.372  29.503  1.00  0.00     0.049 A 
ATOM     36  N   UNL A   1      43.719  27.770  28.829  1.00  0.00    -0.248 NA
ATOM     37  C   UNL A   1      42.874  27.395  26.701  1.00  0.00     0.031 C 
ATOM     38  C   UNL A   1      39.168  26.929  29.803  1.00  0.00     0.029 A 
ATOM     39  N   UNL A   1      40.596  28.583  30.117  1.00  0.00    -0.354 N 
ATOM     40  C   UNL A   1      44.596  28.283  27.875  1.00  0.00     0.074 A 
ATOM     41  C   UNL A   1      44.120  27.851  26.593  1.00  0.00     0.031 C 
ATOM     42  C   UNL A   1      38.469  27.958  30.331  1.00  0.00     0.029 A 
ATOM     43  C   UNL A   1      39.357  29.092  30.497  1.00  0.00     0.049 A 
ATOM     44  H   UNL A   1      41.442  29.059  30.280  1.00  0.00     0.167 HD
ATOM     45  C   UNL A   1      45.467  29.274  28.200  1.00  0.00     0.037 A 
ATOM     46  C   UNL A   1      39.088  30.388  30.806  1.00  0.00     0.037 A 
ATOM     47  C   UNL A   1      45.736  29.275  29.615  1.00  0.00     0.049 A 
ATOM     48  C   UNL A   1      40.391  31.052  31.084  1.00  0.00     0.074 A 
ATOM     49  C   UNL A   1      46.238  28.337  30.497  1.00  0.00     0.029 A 
ATOM     50  N   UNL A   1      45.120  30.224  30.393  1.00  0.00    -0.354 N 
ATOM     51  N   UNL A   1      41.144  30.772  32.112  1.00  0.00    -0.248 NA
ATOM     52  C   UNL A   1      41.074  31.676  29.960  1.00  0.00     0.031 C 
ATOM     53  C   UNL A   1      45.481  28.510  31.692  1.00  0.00     0.029 A 
ATOM     54  C   UNL A   1      44.618  29.588  31.498  1.00  0.00     0.049 A 
ATOM     55  H   UNL A   1      45.053  31.186  30.194  1.00  0.00     0.167 HD
ATOM     56  C   UNL A   1      42.438  30.777  31.611  1.00  0.00     0.074 A 
ATOM     57  C   UNL A   1      42.339  31.408  30.297  1.00  0.00     0.031 C 
ATOM     58  C   UNL A   1      43.412  30.003  32.173  1.00  0.00     0.037 A 
BRANCH  45  59
ATOM     59  C   UNL A   1      45.714  30.475  27.314  1.00  0.00     0.064 A 
ATOM     60  C   UNL A   1      47.037  30.932  27.155  1.00  0.00     0.173 A 
ATOM     61  C   UNL A   1      44.710  31.373  26.882  1.00  0.00     0.173 A 
ATOM     62  F   UNL A   1      48.073  30.169  27.535  1.00  0.00    -0.203 F 
ATOM     63  C   UNL A   1      47.323  32.224  26.705  1.00  0.00     0.198 A 
ATOM     64  C   UNL A   1      45.002  32.639  26.383  1.00  0.00     0.198 A 
ATOM     65  F   UNL A   1      43.403  31.121  27.023  1.00  0.00    -0.203 F 
ATOM     66  F   UNL A   1      48.589  32.662  26.710  1.00  0.00    -0.200 F 
ATOM     67  C   UNL A   1      46.305  33.080  26.331  1.00  0.00     0.200 A 
ATOM     68  F   UNL A   1      43.997  33.459  26.040  1.00  0.00    -0.200 F 
ATOM     69  F   UNL A   1      46.571  34.342  25.971  1.00  0.00    -0.200 F 
ENDBRANCH  45  59
BRANCH  46  70
ATOM     70  C   UNL A   1      37.854  31.160  30.505  1.00  0.00     0.064 A 
ATOM     71  C   UNL A   1      37.398  31.308  29.183  1.00  0.00     0.173 A 
ATOM     72  C   UNL A   1      36.949  31.543  31.516  1.00  0.00     0.173 A 
ATOM     73  F   UNL A   1      38.173  30.925  28.157  1.00  0.00    -0.203 F 
ATOM     74  C   UNL A   1      36.113  31.782  28.894  1.00  0.00     0.198 A 
ATOM     75  C   UNL A   1      35.673  32.028  31.228  1.00  0.00     0.198 A 
ATOM     76  F   UNL A   1      37.242  31.364  32.811  1.00  0.00    -0.203 F 
ATOM     77  F   UNL A   1      35.692  31.847  27.623  1.00  0.00    -0.200 F 
ATOM     78  C   UNL A   1      35.248  32.134  29.917  1.00  0.00     0.200 A 
ATOM     79  F   UNL A   1      34.835  32.330  32.230  1.00  0.00    -0.200 F 
ATOM     80  F   UNL A   1      33.998  32.533  29.645  1.00  0.00    -0.200 F 
ENDBRANCH  46  70
BRANCH  58  81
ATOM     81  C   UNL A   1      43.114  29.346  33.492  1.00  0.00     0.064 A 
ATOM     82  C   UNL A   1      43.261  29.978  34.740  1.00  0.00     0.173 A 
ATOM     83  C   UNL A   1      42.513  28.081  33.479  1.00  0.00     0.173 A 
ATOM     84  F   UNL A   1      43.728  31.229  34.828  1.00  0.00    -0.203 F 
ATOM     85  C   UNL A   1      42.866  29.349  35.920  1.00  0.00     0.198 A 
ATOM     86  C   UNL A   1      42.084  27.473  34.655  1.00  0.00     0.198 A 
ATOM     87  F   UNL A   1      42.293  27.454  32.312  1.00  0.00    -0.203 F 
ATOM     88  F   UNL A   1      43.030  29.970  37.098  1.00  0.00    -0.200 F 
ATOM     89  C   UNL A   1      42.270  28.101  35.874  1.00  0.00     0.200 A 
ATOM     90  F   UNL A   1      41.460  26.288  34.600  1.00  0.00    -0.200 F 
ATOM     91  F   UNL A   1      41.850  27.515  37.004  1.00  0.00    -0.200 F 
ENDBRANCH  58  81
ENDBRANCH  32  33
ENDBRANCH  25  27
ENDBRANCH  24  25
ENDBRANCH  23  24
ENDBRANCH   1  23
TORSDOF 14
ENDMDL
MODEL 2
REMARK VINA RESULT:     -10.9      4.385     10.930
REMARK SMILES CC[C@@H]1CCC[C@@H]([NH+]2CC(n3cc(C(=O)OCCOC(=O)c4ccc(-c5c6nc(c(-c7c(F)c(F)c(F)c(F)c7F)c7ccc([nH]7)c(-c7c(F)c(F)c(F)c(F)c7F)c7nc(c(-c8c(F)c(F)c(F)c(F)c8F)c8ccc5[nH]8)C=C7)C=C6)cc4)nn3)C2)C1
REMARK SMILES IDX 17 1 16 2 14 3 15 4 13 5 11 6 12 7 86 8 85 9 10 10 8 11 9 12
REMARK SMILES IDX 87 13 7 15 3 16 4 17 88 18 5 19 6 20 2 21 1 22 18 23 19 24
REMARK SMILES IDX 20 25 21 26 22 27 23 28 84 29 24 30 83 31 25 32 26 33 27 34
REMARK SMILES IDX 77 35 28 36 82 37 76 38 78 39 29 40 81 41 75 42 74 43 30 45
REMARK SMILES IDX 62 46 42 47 61 48 43 49 46 50 60 51 79 52 44 53 45 54 59 56
REMARK SMILES IDX 80 57 47 58 31 59 32 60 40 61 33 62 34 63 38 64 41 65 35 66
REMARK SMILES IDX 36 67 39 68 37 69 63 70 64 71 72 72 65 73 66 74 70 75 73 76
REMARK SMILES IDX 67 77 68 78 71 79 69 80 48 81 49 82 57 83 50 84 51 85 55 86
REMARK SMILES IDX 58 87 52 88 53 89 56 90 54 91
REMARK H PARENT 8 14 78 44 46 55
REMARK Flexibility Score: inf
ROOT
ATOM      1  C   UNL A   1      33.490  35.502  29.327  1.00  0.00     0.275 C 
ENDROOT
BRANCH   1   2
ATOM      2  O   UNL A   1      32.452  35.308  30.296  1.00  0.00    -0.457 OA
BRANCH   2   3
ATOM      3  C   UNL A   1      32.698  35.791  31.556  1.00  0.00     0.360 C 
ATOM      4  O   UNL A   1      32.156  36.785  32.033  1.00  0.00    -0.244 OA
BRANCH   3   5
ATOM      5  C   UNL A   1      33.635  34.954  32.278  1.00  0.00     0.190 A 
ATOM      6  N   UNL A   1      35.423  34.060  33.103  1.00  0.00    -0.237 N 
ATOM      7  C   UNL A   1      35.002  35.113  32.352  1.00  0.00     0.147 A 
ATOM      8  N   UNL A   1      34.393  33.277  33.466  1.00  0.00    -0.066 NA
ATOM      9  N   UNL A   1      33.288  33.813  32.963  1.00  0.00    -0.123 NA
BRANCH   6  10
ATOM     10  C   UNL A   1      36.796  33.718  33.220  1.00  0.00     0.218 C 
ATOM     11  N   UNL A   1      38.726  34.579  33.164  1.00  0.00    -0.329 N 
ATOM     12  C   UNL A   1      37.636  34.576  34.167  1.00  0.00     0.296 C 
ATOM     13  C   UNL A   1      37.704  34.293  32.117  1.00  0.00     0.296 C 
ATOM     14  H   UNL A   1      39.362  35.376  33.123  1.00  0.00     0.348 HD
BRANCH  11  15
ATOM     15  C   UNL A   1      39.782  33.543  33.271  1.00  0.00     0.184 C 
ATOM     16  C   UNL A   1      41.898  34.754  32.410  1.00  0.00    -0.006 C 
ATOM     17  C   UNL A   1      42.583  34.520  33.769  1.00  0.00     0.004 C 
ATOM     18  C   UNL A   1      40.826  33.685  32.138  1.00  0.00     0.068 C 
ATOM     19  C   UNL A   1      41.613  34.295  34.924  1.00  0.00     0.006 C 
ATOM     20  C   UNL A   1      40.535  33.271  34.591  1.00  0.00     0.065 C 
BRANCH  16  21
ATOM     21  C   UNL A   1      42.930  34.816  31.269  1.00  0.00     0.000 C 
ATOM     22  C   UNL A   1      42.521  33.944  30.087  1.00  0.00     0.004 C 
ENDBRANCH  16  21
ENDBRANCH  11  15
ENDBRANCH   6  10
ENDBRANCH   3   5
ENDBRANCH   2   3
ENDBRANCH   1   2
BRANCH   1  23
ATOM     23  C   UNL A   1      33.639  34.279  28.436  1.00  0.00     0.275 C 
BRANCH  23  24
ATOM     24  O   UNL A   1      34.933  33.701  28.577  1.00  0.00    -0.458 OA
BRANCH  24  25
ATOM     25  C   UNL A   1      35.000  32.585  29.338  1.00  0.00     0.338 C 
ATOM     26  O   UNL A   1      34.280  32.284  30.274  1.00  0.00    -0.246 OA
BRANCH  25  27
ATOM     27  C   UNL A   1      36.258  31.899  29.026  1.00  0.00     0.060 A 
ATOM     28  C   UNL A   1      36.265  30.498  29.037  1.00  0.00     0.016 A 
ATOM     29  C   UNL A   1      37.444  32.645  29.028  1.00  0.00     0.016 A 
ATOM     30  C   UNL A   1      37.467  29.845  29.214  1.00  0.00     0.010 A 
ATOM     31  C   UNL A   1      38.630  32.000  29.249  1.00  0.00     0.010 A 
ATOM     32  C   UNL A   1      38.618  30.613  29.398  1.00  0.00    -0.014 A 
BRANCH  32  33
ATOM     33  C   UNL A   1      39.889  29.957  29.627  1.00  0.00     0.031 A 
ATOM     34  C   UNL A   1      40.263  29.912  31.065  1.00  0.00     0.074 A 
ATOM     35  C   UNL A   1      40.478  29.276  28.624  1.00  0.00     0.049 A 
ATOM     36  N   UNL A   1      41.375  30.278  31.614  1.00  0.00    -0.248 NA
ATOM     37  C   UNL A   1      39.217  29.537  32.039  1.00  0.00     0.031 C 
ATOM     38  C   UNL A   1      39.964  29.072  27.264  1.00  0.00     0.029 A 
ATOM     39  N   UNL A   1      41.591  28.494  28.640  1.00  0.00    -0.354 N 
ATOM     40  C   UNL A   1      41.232  29.990  32.971  1.00  0.00     0.074 A 
ATOM     41  C   UNL A   1      39.840  29.729  33.199  1.00  0.00     0.031 C 
ATOM     42  C   UNL A   1      40.627  28.049  26.682  1.00  0.00     0.029 A 
ATOM     43  C   UNL A   1      41.670  27.594  27.582  1.00  0.00     0.049 A 
ATOM     44  H   UNL A   1      42.281  28.559  29.339  1.00  0.00     0.167 HD
ATOM     45  C   UNL A   1      42.317  29.693  33.731  1.00  0.00     0.037 A 
ATOM     46  C   UNL A   1      42.463  26.491  27.530  1.00  0.00     0.037 A 
ATOM     47  C   UNL A   1      43.515  30.248  33.154  1.00  0.00     0.049 A 
ATOM     48  C   UNL A   1      43.512  26.657  28.573  1.00  0.00     0.074 A 
ATOM     49  C   UNL A   1      43.912  31.528  32.817  1.00  0.00     0.029 A 
ATOM     50  N   UNL A   1      44.362  29.407  32.477  1.00  0.00    -0.354 N 
ATOM     51  N   UNL A   1      44.452  27.560  28.522  1.00  0.00    -0.248 NA
ATOM     52  C   UNL A   1      43.220  26.132  29.900  1.00  0.00     0.031 C 
ATOM     53  C   UNL A   1      44.635  31.382  31.596  1.00  0.00     0.029 A 
ATOM     54  C   UNL A   1      44.702  30.021  31.301  1.00  0.00     0.049 A 
ATOM     55  H   UNL A   1      44.670  28.522  32.783  1.00  0.00     0.167 HD
ATOM     56  C   UNL A   1      44.560  28.027  29.823  1.00  0.00     0.074 A 
ATOM     57  C   UNL A   1      43.827  27.064  30.641  1.00  0.00     0.031 C 
ATOM     58  C   UNL A   1      44.974  29.303  30.079  1.00  0.00     0.037 A 
BRANCH  45  59
ATOM     59  C   UNL A   1      42.337  28.555  34.729  1.00  0.00     0.064 A 
ATOM     60  C   UNL A   1      43.095  28.708  35.906  1.00  0.00     0.173 A 
ATOM     61  C   UNL A   1      41.919  27.234  34.446  1.00  0.00     0.173 A 
ATOM     62  F   UNL A   1      43.552  29.914  36.273  1.00  0.00    -0.203 F 
ATOM     63  C   UNL A   1      43.494  27.610  36.673  1.00  0.00     0.198 A 
ATOM     64  C   UNL A   1      42.274  26.150  35.244  1.00  0.00     0.198 A 
ATOM     65  F   UNL A   1      41.248  26.907  33.336  1.00  0.00    -0.203 F 
ATOM     66  F   UNL A   1      44.336  27.790  37.700  1.00  0.00    -0.200 F 
ATOM     67  C   UNL A   1      43.094  26.331  36.335  1.00  0.00     0.200 A 
ATOM     68  F   UNL A   1      41.886  24.916  34.889  1.00  0.00    -0.200 F 
ATOM     69  F   UNL A   1      43.536  25.272  37.025  1.00  0.00    -0.200 F 
ENDBRANCH  45  59
BRANCH  46  70
ATOM     70  C   UNL A   1      42.151  25.170  26.922  1.00  0.00     0.064 A 
ATOM     71  C   UNL A   1      42.916  24.665  25.857  1.00  0.00     0.173 A 
ATOM     72  C   UNL A   1      41.271  24.257  27.539  1.00  0.00     0.173 A 
ATOM     73  F   UNL A   1      43.814  25.448  25.242  1.00  0.00    -0.203 F 
ATOM     74  C   UNL A   1      42.826  23.327  25.454  1.00  0.00     0.198 A 
ATOM     75  C   UNL A   1      41.172  22.927  27.128  1.00  0.00     0.198 A 
ATOM     76  F   UNL A   1      40.557  24.603  28.619  1.00  0.00    -0.203 F 
ATOM     77  F   UNL A   1      43.620  22.867  24.476  1.00  0.00    -0.200 F 
ATOM     78  C   UNL A   1      41.960  22.457  26.095  1.00  0.00     0.200 A 
ATOM     79  F   UNL A   1      40.355  22.089  27.783  1.00  0.00    -0.200 F 
ATOM     80  F   UNL A   1      41.914  21.163  25.749  1.00  0.00    -0.200 F 
ENDBRANCH  46  70
BRANCH  58  81
ATOM     81  C   UNL A   1      45.546  30.099  28.940  1.00  0.00     0.064 A 
ATOM     82  C   UNL A   1      44.784  30.919  28.089  1.00  0.00     0.173 A 
ATOM     83  C   UNL A   1      46.939  30.151  28.804  1.00  0.00     0.173 A 
ATOM     84  F   UNL A   1      43.455  31.008  28.224  1.00  0.00    -0.203 F 
ATOM     85  C   UNL A   1      45.389  31.715  27.118  1.00  0.00     0.198 A 
ATOM     86  C   UNL A   1      47.543  30.976  27.861  1.00  0.00     0.198 A 
ATOM     87  F   UNL A   1      47.721  29.434  29.628  1.00  0.00    -0.203 F 
ATOM     88  F   UNL A   1      44.637  32.478  26.310  1.00  0.00    -0.200 F 
ATOM     89  C   UNL A   1      46.769  31.749  27.011  1.00  0.00     0.200 A 
ATOM     90  F   UNL A   1      48.880  31.045  27.797  1.00  0.00    -0.200 F 
ATOM     91  F   UNL A   1      47.355  32.547  26.108  1.00  0.00    -0.200 F 
ENDBRANCH  58  81
ENDBRANCH  32  33
ENDBRANCH  25  27
ENDBRANCH  24  25
ENDBRANCH  23  24
ENDBRANCH   1  23
TORSDOF 14
ENDMDL
MODEL 3
REMARK VINA RESULT:     -10.7      1.153      2.335
REMARK SMILES CC[C@@H]1CCC[C@@H]([NH+]2CC(n3cc(C(=O)OCCOC(=O)c4ccc(-c5c6nc(c(-c7c(F)c(F)c(F)c(F)c7F)c7ccc([nH]7)c(-c7c(F)c(F)c(F)c(F)c7F)c7nc(c(-c8c(F)c(F)c(F)c(F)c8F)c8ccc5[nH]8)C=C7)C=C6)cc4)nn3)C2)C1
REMARK SMILES IDX 17 1 16 2 14 3 15 4 13 5 11 6 12 7 86 8 85 9 10 10 8 11 9 12
REMARK SMILES IDX 87 13 7 15 3 16 4 17 88 18 5 19 6 20 2 21 1 22 18 23 19 24
REMARK SMILES IDX 20 25 21 26 22 27 23 28 84 29 24 30 83 31 25 32 26 33 27 34
REMARK SMILES IDX 77 35 28 36 82 37 76 38 78 39 29 40 81 41 75 42 74 43 30 45
REMARK SMILES IDX 62 46 42 47 61 48 43 49 46 50 60 51 79 52 44 53 45 54 59 56
REMARK SMILES IDX 80 57 47 58 31 59 32 60 40 61 33 62 34 63 38 64 41 65 35 66
REMARK SMILES IDX 36 67 39 68 37 69 63 70 64 71 72 72 65 73 66 74 70 75 73 76
REMARK SMILES IDX 67 77 68 78 71 79 69 80 48 81 49 82 57 83 50 84 51 85 55 86
REMARK SMILES IDX 58 87 52 88 53 89 56 90 54 91
REMARK H PARENT 8 14 78 44 46 55
REMARK Flexibility Score: inf
ROOT
ATOM      1  C   UNL A   1      43.022  18.941  26.061  1.00  0.00     0.275 C 
ENDROOT
BRANCH   1   2
ATOM      2  O   UNL A   1      43.393  19.175  24.697  1.00  0.00    -0.457 OA
BRANCH   2   3
ATOM      3  C   UNL A   1      44.718  19.443  24.463  1.00  0.00     0.360 C 
ATOM      4  O   UNL A   1      45.565  18.586  24.226  1.00  0.00    -0.244 OA
BRANCH   3   5
ATOM      5  C   UNL A   1      44.987  20.866  24.475  1.00  0.00     0.190 A 
ATOM      6  N   UNL A   1      45.557  22.874  25.041  1.00  0.00    -0.237 N 
ATOM      7  C   UNL A   1      45.563  21.592  25.496  1.00  0.00     0.147 A 
ATOM      8  N   UNL A   1      44.998  22.957  23.822  1.00  0.00    -0.066 NA
ATOM      9  N   UNL A   1      44.641  21.730  23.463  1.00  0.00    -0.123 NA
BRANCH   6  10
ATOM     10  C   UNL A   1      45.846  23.976  25.889  1.00  0.00     0.218 C 
ATOM     11  N   UNL A   1      47.154  24.572  27.439  1.00  0.00    -0.329 N 
ATOM     12  C   UNL A   1      47.312  24.405  25.976  1.00  0.00     0.296 C 
ATOM     13  C   UNL A   1      46.005  23.623  27.380  1.00  0.00     0.296 C 
ATOM     14  H   UNL A   1      47.963  24.433  28.045  1.00  0.00     0.348 HD
BRANCH  11  15
ATOM     15  C   UNL A   1      46.798  25.914  27.958  1.00  0.00     0.184 C 
ATOM     16  C   UNL A   1      46.889  25.606  30.525  1.00  0.00    -0.006 C 
ATOM     17  C   UNL A   1      47.981  26.688  30.614  1.00  0.00     0.004 C 
ATOM     18  C   UNL A   1      46.004  25.813  29.283  1.00  0.00     0.068 C 
ATOM     19  C   UNL A   1      48.757  26.899  29.319  1.00  0.00     0.006 C 
ATOM     20  C   UNL A   1      47.843  27.041  28.107  1.00  0.00     0.065 C 
BRANCH  16  21
ATOM     21  C   UNL A   1      46.045  25.558  31.811  1.00  0.00     0.000 C 
ATOM     22  C   UNL A   1      44.592  25.942  31.552  1.00  0.00     0.004 C 
ENDBRANCH  16  21
ENDBRANCH  11  15
ENDBRANCH   6  10
ENDBRANCH   3   5
ENDBRANCH   2   3
ENDBRANCH   1   2
BRANCH   1  23
ATOM     23  C   UNL A   1      41.787  19.744  26.437  1.00  0.00     0.275 C 
BRANCH  23  24
ATOM     24  O   UNL A   1      42.148  21.009  26.981  1.00  0.00    -0.458 OA
BRANCH  24  25
ATOM     25  C   UNL A   1      41.838  22.086  26.223  1.00  0.00     0.338 C 
ATOM     26  O   UNL A   1      41.967  22.203  25.016  1.00  0.00    -0.246 OA
BRANCH  25  27
ATOM     27  C   UNL A   1      41.561  23.210  27.124  1.00  0.00     0.060 A 
ATOM     28  C   UNL A   1      40.667  24.197  26.691  1.00  0.00     0.016 A 
ATOM     29  C   UNL A   1      42.407  23.408  28.224  1.00  0.00     0.016 A 
ATOM     30  C   UNL A   1      40.737  25.449  27.266  1.00  0.00     0.010 A 
ATOM     31  C   UNL A   1      42.506  24.661  28.763  1.00  0.00     0.010 A 
ATOM     32  C   UNL A   1      41.712  25.680  28.237  1.00  0.00    -0.014 A 
BRANCH  32  33
ATOM     33  C   UNL A   1      41.837  26.995  28.830  1.00  0.00     0.031 A 
ATOM     34  C   UNL A   1      42.971  27.775  28.268  1.00  0.00     0.074 A 
ATOM     35  C   UNL A   1      40.848  27.470  29.613  1.00  0.00     0.049 A 
ATOM     36  N   UNL A   1      43.915  28.385  28.906  1.00  0.00    -0.248 NA
ATOM     37  C   UNL A   1      43.158  27.764  26.803  1.00  0.00     0.031 C 
ATOM     38  C   UNL A   1      39.577  26.811  29.941  1.00  0.00     0.029 A 
ATOM     39  N   UNL A   1      40.693  28.702  30.167  1.00  0.00    -0.354 N 
ATOM     40  C   UNL A   1      44.694  28.995  27.924  1.00  0.00     0.074 A 
ATOM     41  C   UNL A   1      44.305  28.424  26.667  1.00  0.00     0.031 C 
ATOM     42  C   UNL A   1      38.708  27.726  30.421  1.00  0.00     0.029 A 
ATOM     43  C   UNL A   1      39.384  29.005  30.528  1.00  0.00     0.049 A 
ATOM     44  H   UNL A   1      41.444  29.326  30.303  1.00  0.00     0.167 HD
ATOM     45  C   UNL A   1      45.377  30.138  28.195  1.00  0.00     0.037 A 
ATOM     46  C   UNL A   1      38.891  30.248  30.774  1.00  0.00     0.037 A 
ATOM     47  C   UNL A   1      45.636  30.255  29.607  1.00  0.00     0.049 A 
ATOM     48  C   UNL A   1      40.057  31.142  31.013  1.00  0.00     0.074 A 
ATOM     49  C   UNL A   1      46.291  29.464  30.532  1.00  0.00     0.029 A 
ATOM     50  N   UNL A   1      44.861  31.119  30.341  1.00  0.00    -0.354 N 
ATOM     51  N   UNL A   1      40.844  31.048  32.050  1.00  0.00    -0.248 NA
ATOM     52  C   UNL A   1      40.625  31.820  29.856  1.00  0.00     0.031 C 
ATOM     53  C   UNL A   1      45.510  29.560  31.721  1.00  0.00     0.029 A 
ATOM     54  C   UNL A   1      44.473  30.460  31.478  1.00  0.00     0.049 A 
ATOM     55  H   UNL A   1      44.628  32.044  30.095  1.00  0.00     0.167 HD
ATOM     56  C   UNL A   1      42.119  31.254  31.543  1.00  0.00     0.074 A 
ATOM     57  C   UNL A   1      41.916  31.793  30.200  1.00  0.00     0.031 C 
ATOM     58  C   UNL A   1      43.210  30.691  32.138  1.00  0.00     0.037 A 
BRANCH  45  59
ATOM     59  C   UNL A   1      45.414  31.319  27.251  1.00  0.00     0.064 A 
ATOM     60  C   UNL A   1      46.646  31.966  27.032  1.00  0.00     0.173 A 
ATOM     61  C   UNL A   1      44.272  32.029  26.810  1.00  0.00     0.173 A 
ATOM     62  F   UNL A   1      47.796  31.392  27.414  1.00  0.00    -0.203 F 
ATOM     63  C   UNL A   1      46.717  33.263  26.517  1.00  0.00     0.198 A 
ATOM     64  C   UNL A   1      44.352  33.300  26.248  1.00  0.00     0.198 A 
ATOM     65  F   UNL A   1      43.025  31.586  27.001  1.00  0.00    -0.203 F 
ATOM     66  F   UNL A   1      47.899  33.892  26.465  1.00  0.00    -0.200 F 
ATOM     67  C   UNL A   1      45.570  33.934  26.137  1.00  0.00     0.200 A 
ATOM     68  F   UNL A   1      43.225  33.937  25.899  1.00  0.00    -0.200 F 
ATOM     69  F   UNL A   1      45.628  35.203  25.714  1.00  0.00    -0.200 F 
ENDBRANCH  45  59
BRANCH  46  70
ATOM     70  C   UNL A   1      37.542  30.777  30.441  1.00  0.00     0.064 A 
ATOM     71  C   UNL A   1      36.661  31.197  31.452  1.00  0.00     0.173 A 
ATOM     72  C   UNL A   1      37.187  31.133  29.124  1.00  0.00     0.173 A 
ATOM     73  F   UNL A   1      36.942  30.946  32.739  1.00  0.00    -0.203 F 
ATOM     74  C   UNL A   1      35.513  31.947  31.165  1.00  0.00     0.198 A 
ATOM     75  C   UNL A   1      36.036  31.868  28.837  1.00  0.00     0.198 A 
ATOM     76  F   UNL A   1      37.995  30.861  28.090  1.00  0.00    -0.203 F 
ATOM     77  F   UNL A   1      34.732  32.385  32.163  1.00  0.00    -0.200 F 
ATOM     78  C   UNL A   1      35.206  32.288  29.859  1.00  0.00     0.200 A 
ATOM     79  F   UNL A   1      35.772  32.221  27.571  1.00  0.00    -0.200 F 
ATOM     80  F   UNL A   1      34.140  33.054  29.587  1.00  0.00    -0.200 F 
ENDBRANCH  46  70
BRANCH  58  81
ATOM     81  C   UNL A   1      43.027  30.057  33.488  1.00  0.00     0.064 A 
ATOM     82  C   UNL A   1      42.589  28.735  33.687  1.00  0.00     0.173 A 
ATOM     83  C   UNL A   1      43.460  30.766  34.616  1.00  0.00     0.173 A 
ATOM     84  F   UNL A   1      42.260  27.955  32.651  1.00  0.00    -0.203 F 
ATOM     85  C   UNL A   1      42.542  28.172  34.961  1.00  0.00     0.198 A 
ATOM     86  C   UNL A   1      43.450  30.189  35.881  1.00  0.00     0.198 A 
ATOM     87  F   UNL A   1      43.944  32.012  34.480  1.00  0.00    -0.203 F 
ATOM     88  F   UNL A   1      42.108  26.913  35.124  1.00  0.00    -0.200 F 
ATOM     89  C   UNL A   1      42.981  28.897  36.056  1.00  0.00     0.200 A 
ATOM     90  F   UNL A   1      43.924  30.876  36.929  1.00  0.00    -0.200 F 
ATOM     91  F   UNL A   1      42.979  28.343  37.276  1.00  0.00    -0.200 F 
ENDBRANCH  58  81
ENDBRANCH  32  33
ENDBRANCH  25  27
ENDBRANCH  24  25
ENDBRANCH  23  24
ENDBRANCH   1  23
TORSDOF 14
ENDMDL
