MODEL 1
REMARK VINA RESULT:     -11.8      0.000      0.000
REMARK SMILES CCN(CC)c1ccc(NC(=O)c2ccc(OC)cc2)cc1C(=O)OCCOC(=O)c1ccc(-c2c3nc(c(-c4c(F)c(F)c(F)c(F)c4F)c4ccc([nH]4)c(-c4c(F)c(F)c(F)c(F)c4F)c4nc(c(-c5c(F)c(F)c(F)c(F)c5F)c5ccc2[nH]5)C=C4)C=C3)cc1
REMARK SMILES IDX 26 1 25 2 23 3 24 4 22 5 6 6 7 7 8 8 21 9 9 10 3 11 2 12
REMARK SMILES IDX 1 13 4 14 5 15 10 16 11 17 12 19 13 20 14 21 20 22 15 23
REMARK SMILES IDX 19 24 16 25 17 26 18 27 27 28 28 29 29 30 30 31 31 32 32 33
REMARK SMILES IDX 93 34 33 35 92 36 34 37 35 38 36 39 86 40 37 41 91 42 85 43
REMARK SMILES IDX 87 44 38 45 90 46 84 47 83 48 39 50 71 51 51 52 70 53 52 54
REMARK SMILES IDX 55 55 69 56 88 57 53 58 54 59 68 61 89 62 56 63 40 64 41 65
REMARK SMILES IDX 49 66 42 67 43 68 47 69 50 70 44 71 45 72 48 73 46 74 72 75
REMARK SMILES IDX 73 76 81 77 74 78 75 79 79 80 82 81 76 82 77 83 80 84 78 85
REMARK SMILES IDX 57 86 58 87 66 88 59 89 60 90 64 91 67 92 61 93 62 94 65 95
REMARK SMILES IDX 63 96
REMARK H PARENT 10 18 87 49 55 60
REMARK Flexibility Score: inf
ROOT
ATOM      1  C   UNL A   1      36.757  22.741  23.490  1.00  0.00     0.275 C 
ENDROOT
BRANCH   1   2
ATOM      2  O   UNL A   1      35.339  22.991  23.412  1.00  0.00    -0.458 OA
BRANCH   2   3
ATOM      3  C   UNL A   1      34.811  23.829  24.341  1.00  0.00     0.340 C 
ATOM      4  O   UNL A   1      35.430  24.538  25.119  1.00  0.00    -0.246 OA
BRANCH   3   5
ATOM      5  C   UNL A   1      33.341  23.899  24.190  1.00  0.00     0.085 A 
ATOM      6  C   UNL A   1      32.468  22.920  24.704  1.00  0.00     0.051 A 
ATOM      7  C   UNL A   1      31.139  23.008  24.266  1.00  0.00     0.029 A 
ATOM      8  C   UNL A   1      30.679  24.051  23.453  1.00  0.00     0.028 A 
ATOM      9  C   UNL A   1      32.864  24.994  23.433  1.00  0.00     0.044 A 
ATOM     10  C   UNL A   1      31.519  25.092  23.086  1.00  0.00     0.042 A 
BRANCH   6  11
ATOM     11  N   UNL A   1      32.837  21.954  25.636  1.00  0.00    -0.371 N 
BRANCH  11  12
ATOM     12  C   UNL A   1      33.504  20.732  25.158  1.00  0.00     0.113 C 
ATOM     13  C   UNL A   1      32.528  19.595  24.896  1.00  0.00     0.027 C 
ENDBRANCH  11  12
BRANCH  11  14
ATOM     14  C   UNL A   1      32.910  22.268  27.070  1.00  0.00     0.113 C 
ATOM     15  C   UNL A   1      34.330  22.267  27.629  1.00  0.00     0.027 C 
ENDBRANCH  11  14
ENDBRANCH   6  11
BRANCH  10  16
ATOM     16  N   UNL A   1      31.106  26.217  22.344  1.00  0.00    -0.322 N 
ATOM     17  C   UNL A   1      30.921  27.534  22.723  1.00  0.00     0.255 C 
ATOM     18  H   UNL A   1      30.916  26.035  21.396  1.00  0.00     0.170 HD
ATOM     19  O   UNL A   1      30.306  28.311  21.996  1.00  0.00    -0.269 OA
BRANCH  17  20
ATOM     20  C   UNL A   1      31.526  28.046  23.970  1.00  0.00     0.040 A 
ATOM     21  C   UNL A   1      31.011  27.633  25.201  1.00  0.00     0.017 A 
ATOM     22  C   UNL A   1      32.641  28.892  23.916  1.00  0.00     0.017 A 
ATOM     23  C   UNL A   1      31.687  27.976  26.373  1.00  0.00     0.047 A 
ATOM     24  C   UNL A   1      33.317  29.223  25.090  1.00  0.00     0.047 A 
ATOM     25  C   UNL A   1      32.867  28.726  26.315  1.00  0.00     0.118 A 
BRANCH  25  26
ATOM     26  O   UNL A   1      33.500  28.928  27.511  1.00  0.00    -0.497 OA
ATOM     27  C   UNL A   1      34.862  29.335  27.402  1.00  0.00     0.278 C 
ENDBRANCH  25  26
ENDBRANCH  17  20
ENDBRANCH  10  16
ENDBRANCH   3   5
ENDBRANCH   2   3
ENDBRANCH   1   2
BRANCH   1  28
ATOM     28  C   UNL A   1      37.024  21.453  24.265  1.00  0.00     0.275 C 
BRANCH  28  29
ATOM     29  O   UNL A   1      37.406  21.802  25.605  1.00  0.00    -0.458 OA
BRANCH  29  30
ATOM     30  C   UNL A   1      38.656  21.450  25.963  1.00  0.00     0.338 C 
ATOM     31  O   UNL A   1      39.247  20.400  25.744  1.00  0.00    -0.246 OA
BRANCH  30  32
ATOM     32  C   UNL A   1      39.297  22.631  26.539  1.00  0.00     0.060 A 
ATOM     33  C   UNL A   1      38.827  23.879  26.131  1.00  0.00     0.016 A 
ATOM     34  C   UNL A   1      40.378  22.521  27.407  1.00  0.00     0.016 A 
ATOM     35  C   UNL A   1      39.464  25.040  26.555  1.00  0.00     0.010 A 
ATOM     36  C   UNL A   1      41.002  23.687  27.857  1.00  0.00     0.010 A 
ATOM     37  C   UNL A   1      40.567  24.951  27.411  1.00  0.00    -0.014 A 
BRANCH  37  38
ATOM     38  C   UNL A   1      41.350  26.166  27.747  1.00  0.00     0.031 A 
ATOM     39  C   UNL A   1      40.702  27.239  28.575  1.00  0.00     0.074 A 
ATOM     40  C   UNL A   1      42.623  26.308  27.339  1.00  0.00     0.049 A 
ATOM     41  N   UNL A   1      41.092  28.467  28.800  1.00  0.00    -0.248 NA
ATOM     42  C   UNL A   1      39.431  26.880  29.224  1.00  0.00     0.031 C 
ATOM     43  C   UNL A   1      43.393  25.308  26.600  1.00  0.00     0.029 A 
ATOM     44  N   UNL A   1      43.493  27.359  27.488  1.00  0.00    -0.354 N 
ATOM     45  C   UNL A   1      40.083  29.045  29.560  1.00  0.00     0.074 A 
ATOM     46  C   UNL A   1      39.070  28.033  29.766  1.00  0.00     0.031 C 
ATOM     47  C   UNL A   1      44.626  25.788  26.370  1.00  0.00     0.029 A 
ATOM     48  C   UNL A   1      44.707  27.155  26.879  1.00  0.00     0.049 A 
ATOM     49  H   UNL A   1      43.269  28.179  27.984  1.00  0.00     0.167 HD
ATOM     50  C   UNL A   1      40.012  30.313  30.031  1.00  0.00     0.037 A 
ATOM     51  C   UNL A   1      45.746  27.995  26.711  1.00  0.00     0.037 A 
ATOM     52  C   UNL A   1      41.054  31.291  29.871  1.00  0.00     0.049 A 
ATOM     53  C   UNL A   1      45.641  29.403  27.231  1.00  0.00     0.074 A 
ATOM     54  C   UNL A   1      41.087  32.603  30.307  1.00  0.00     0.029 A 
ATOM     55  N   UNL A   1      42.266  31.049  29.238  1.00  0.00    -0.354 N 
ATOM     56  N   UNL A   1      44.651  29.977  27.870  1.00  0.00    -0.248 NA
ATOM     57  C   UNL A   1      46.790  30.287  26.989  1.00  0.00     0.031 C 
ATOM     58  C   UNL A   1      42.308  33.163  29.915  1.00  0.00     0.029 A 
ATOM     59  C   UNL A   1      43.051  32.188  29.267  1.00  0.00     0.049 A 
ATOM     60  H   UNL A   1      42.528  30.192  28.828  1.00  0.00     0.167 HD
ATOM     61  C   UNL A   1      45.055  31.283  28.109  1.00  0.00     0.074 A 
ATOM     62  C   UNL A   1      46.392  31.411  27.566  1.00  0.00     0.031 C 
ATOM     63  C   UNL A   1      44.379  32.289  28.718  1.00  0.00     0.037 A 
BRANCH  50  64
ATOM     64  C   UNL A   1      38.742  30.722  30.716  1.00  0.00     0.064 A 
ATOM     65  C   UNL A   1      37.623  31.179  30.005  1.00  0.00     0.173 A 
ATOM     66  C   UNL A   1      38.647  30.653  32.115  1.00  0.00     0.173 A 
ATOM     67  F   UNL A   1      37.668  31.282  28.670  1.00  0.00    -0.203 F 
ATOM     68  C   UNL A   1      36.466  31.578  30.672  1.00  0.00     0.198 A 
ATOM     69  C   UNL A   1      37.481  31.028  32.776  1.00  0.00     0.198 A 
ATOM     70  F   UNL A   1      39.690  30.224  32.843  1.00  0.00    -0.203 F 
ATOM     71  F   UNL A   1      35.427  32.062  29.977  1.00  0.00    -0.200 F 
ATOM     72  C   UNL A   1      36.395  31.498  32.055  1.00  0.00     0.200 A 
ATOM     73  F   UNL A   1      37.412  30.942  34.112  1.00  0.00    -0.200 F 
ATOM     74  F   UNL A   1      35.283  31.884  32.694  1.00  0.00    -0.200 F 
ENDBRANCH  50  64
BRANCH  51  75
ATOM     75  C   UNL A   1      46.954  27.534  25.981  1.00  0.00     0.064 A 
ATOM     76  C   UNL A   1      47.058  27.681  24.591  1.00  0.00     0.173 A 
ATOM     77  C   UNL A   1      48.038  26.954  26.658  1.00  0.00     0.173 A 
ATOM     78  F   UNL A   1      46.036  28.202  23.895  1.00  0.00    -0.203 F 
ATOM     79  C   UNL A   1      48.199  27.266  23.906  1.00  0.00     0.198 A 
ATOM     80  C   UNL A   1      49.189  26.565  25.977  1.00  0.00     0.198 A 
ATOM     81  F   UNL A   1      47.987  26.787  27.988  1.00  0.00    -0.203 F 
ATOM     82  F   UNL A   1      48.261  27.389  22.574  1.00  0.00    -0.200 F 
ATOM     83  C   UNL A   1      49.267  26.717  24.602  1.00  0.00     0.200 A 
ATOM     84  F   UNL A   1      50.222  26.046  26.654  1.00  0.00    -0.200 F 
ATOM     85  F   UNL A   1      50.369  26.331  23.944  1.00  0.00    -0.200 F 
ENDBRANCH  51  75
BRANCH  63  86
ATOM     86  C   UNL A   1      45.083  33.606  28.841  1.00  0.00     0.064 A 
ATOM     87  C   UNL A   1      45.919  33.887  29.931  1.00  0.00     0.173 A 
ATOM     88  C   UNL A   1      44.950  34.579  27.840  1.00  0.00     0.173 A 
ATOM     89  F   UNL A   1      46.063  32.993  30.920  1.00  0.00    -0.203 F 
ATOM     90  C   UNL A   1      46.584  35.107  30.023  1.00  0.00     0.198 A 
ATOM     91  C   UNL A   1      45.634  35.788  27.925  1.00  0.00     0.198 A 
ATOM     92  F   UNL A   1      44.166  34.352  26.776  1.00  0.00    -0.203 F 
ATOM     93  F   UNL A   1      47.349  35.372  31.091  1.00  0.00    -0.200 F 
ATOM     94  C   UNL A   1      46.444  36.053  29.018  1.00  0.00     0.200 A 
ATOM     95  F   UNL A   1      45.507  36.698  26.949  1.00  0.00    -0.200 F 
ATOM     96  F   UNL A   1      47.088  37.225  29.107  1.00  0.00    -0.200 F 
ENDBRANCH  63  86
ENDBRANCH  37  38
ENDBRANCH  30  32
ENDBRANCH  29  30
ENDBRANCH  28  29
ENDBRANCH   1  28
TORSDOF 17
ENDMDL
MODEL 2
REMARK VINA RESULT:     -11.7      1.084      2.285
REMARK SMILES CCN(CC)c1ccc(NC(=O)c2ccc(OC)cc2)cc1C(=O)OCCOC(=O)c1ccc(-c2c3nc(c(-c4c(F)c(F)c(F)c(F)c4F)c4ccc([nH]4)c(-c4c(F)c(F)c(F)c(F)c4F)c4nc(c(-c5c(F)c(F)c(F)c(F)c5F)c5ccc2[nH]5)C=C4)C=C3)cc1
REMARK SMILES IDX 26 1 25 2 23 3 24 4 22 5 6 6 7 7 8 8 21 9 9 10 3 11 2 12
REMARK SMILES IDX 1 13 4 14 5 15 10 16 11 17 12 19 13 20 14 21 20 22 15 23
REMARK SMILES IDX 19 24 16 25 17 26 18 27 27 28 28 29 29 30 30 31 31 32 32 33
REMARK SMILES IDX 93 34 33 35 92 36 34 37 35 38 36 39 86 40 37 41 91 42 85 43
REMARK SMILES IDX 87 44 38 45 90 46 84 47 83 48 39 50 71 51 51 52 70 53 52 54
REMARK SMILES IDX 55 55 69 56 88 57 53 58 54 59 68 61 89 62 56 63 40 64 41 65
REMARK SMILES IDX 49 66 42 67 43 68 47 69 50 70 44 71 45 72 48 73 46 74 72 75
REMARK SMILES IDX 73 76 81 77 74 78 75 79 79 80 82 81 76 82 77 83 80 84 78 85
REMARK SMILES IDX 57 86 58 87 66 88 59 89 60 90 64 91 67 92 61 93 62 94 65 95
REMARK SMILES IDX 63 96
REMARK H PARENT 10 18 87 49 55 60
REMARK Flexibility Score: inf
ROOT
ATOM      1  C   UNL A   1      35.982  21.268  24.632  1.00  0.00     0.275 C 
ENDROOT
BRANCH   1   2
ATOM      2  O   UNL A   1      35.940  22.696  24.831  1.00  0.00    -0.458 OA
BRANCH   2   3
ATOM      3  C   UNL A   1      35.192  23.415  23.955  1.00  0.00     0.340 C 
ATOM      4  O   UNL A   1      35.319  23.446  22.741  1.00  0.00    -0.246 OA
BRANCH   3   5
ATOM      5  C   UNL A   1      34.065  24.065  24.659  1.00  0.00     0.085 A 
ATOM      6  C   UNL A   1      32.763  23.526  24.688  1.00  0.00     0.051 A 
ATOM      7  C   UNL A   1      31.768  24.381  25.184  1.00  0.00     0.029 A 
ATOM      8  C   UNL A   1      32.053  25.648  25.709  1.00  0.00     0.028 A 
ATOM      9  C   UNL A   1      34.365  25.310  25.258  1.00  0.00     0.044 A 
ATOM     10  C   UNL A   1      33.361  26.097  25.817  1.00  0.00     0.042 A 
BRANCH   6  11
ATOM     11  N   UNL A   1      32.449  22.220  24.324  1.00  0.00    -0.371 N 
BRANCH  11  12
ATOM     12  C   UNL A   1      32.022  21.280  25.373  1.00  0.00     0.113 C 
ATOM     13  C   UNL A   1      33.063  21.111  26.469  1.00  0.00     0.027 C 
ENDBRANCH  11  12
BRANCH  11  14
ATOM     14  C   UNL A   1      32.186  21.863  22.923  1.00  0.00     0.113 C 
ATOM     15  C   UNL A   1      32.153  20.358  22.667  1.00  0.00     0.027 C 
ENDBRANCH  11  14
ENDBRANCH   6  11
BRANCH  10  16
ATOM     16  N   UNL A   1      33.730  27.320  26.413  1.00  0.00    -0.322 N 
ATOM     17  C   UNL A   1      33.630  28.619  25.951  1.00  0.00     0.255 C 
ATOM     18  H   UNL A   1      34.125  27.235  27.310  1.00  0.00     0.170 HD
ATOM     19  O   UNL A   1      34.245  29.526  26.508  1.00  0.00    -0.269 OA
BRANCH  17  20
ATOM     20  C   UNL A   1      32.723  28.948  24.833  1.00  0.00     0.040 A 
ATOM     21  C   UNL A   1      33.178  28.811  23.520  1.00  0.00     0.017 A 
ATOM     22  C   UNL A   1      31.403  29.338  25.089  1.00  0.00     0.017 A 
ATOM     23  C   UNL A   1      32.274  28.954  22.466  1.00  0.00     0.047 A 
ATOM     24  C   UNL A   1      30.502  29.470  24.031  1.00  0.00     0.047 A 
ATOM     25  C   UNL A   1      30.927  29.232  22.723  1.00  0.00     0.118 A 
BRANCH  25  26
ATOM     26  O   UNL A   1      30.108  29.259  21.627  1.00  0.00    -0.497 OA
ATOM     27  C   UNL A   1      29.144  30.310  21.630  1.00  0.00     0.278 C 
ENDBRANCH  25  26
ENDBRANCH  17  20
ENDBRANCH  10  16
ENDBRANCH   3   5
ENDBRANCH   2   3
ENDBRANCH   1   2
BRANCH   1  28
ATOM     28  C   UNL A   1      37.365  20.727  24.986  1.00  0.00     0.275 C 
BRANCH  28  29
ATOM     29  O   UNL A   1      38.159  21.812  25.493  1.00  0.00    -0.458 OA
BRANCH  29  30
ATOM     30  C   UNL A   1      39.278  21.454  26.152  1.00  0.00     0.338 C 
ATOM     31  O   UNL A   1      39.818  20.356  26.203  1.00  0.00    -0.246 OA
BRANCH  30  32
ATOM     32  C   UNL A   1      39.878  22.673  26.693  1.00  0.00     0.060 A 
ATOM     33  C   UNL A   1      39.424  23.890  26.186  1.00  0.00     0.016 A 
ATOM     34  C   UNL A   1      40.909  22.624  27.625  1.00  0.00     0.016 A 
ATOM     35  C   UNL A   1      40.028  25.080  26.576  1.00  0.00     0.010 A 
ATOM     36  C   UNL A   1      41.499  23.820  28.040  1.00  0.00     0.010 A 
ATOM     37  C   UNL A   1      41.082  25.052  27.497  1.00  0.00    -0.014 A 
BRANCH  37  38
ATOM     38  C   UNL A   1      41.837  26.292  27.804  1.00  0.00     0.031 A 
ATOM     39  C   UNL A   1      41.175  27.356  28.632  1.00  0.00     0.074 A 
ATOM     40  C   UNL A   1      43.098  26.465  27.371  1.00  0.00     0.049 A 
ATOM     41  N   UNL A   1      41.534  28.597  28.836  1.00  0.00    -0.248 NA
ATOM     42  C   UNL A   1      39.926  26.970  29.309  1.00  0.00     0.031 C 
ATOM     43  C   UNL A   1      43.882  25.477  26.630  1.00  0.00     0.029 A 
ATOM     44  N   UNL A   1      43.941  27.540  27.492  1.00  0.00    -0.354 N 
ATOM     45  C   UNL A   1      40.524  29.156  29.608  1.00  0.00     0.074 A 
ATOM     46  C   UNL A   1      39.543  28.119  29.844  1.00  0.00     0.031 C 
ATOM     47  C   UNL A   1      45.096  25.989  26.371  1.00  0.00     0.029 A 
ATOM     48  C   UNL A   1      45.148  27.364  26.862  1.00  0.00     0.049 A 
ATOM     49  H   UNL A   1      43.703  28.360  27.983  1.00  0.00     0.167 HD
ATOM     50  C   UNL A   1      40.425  30.427  30.066  1.00  0.00     0.037 A 
ATOM     51  C   UNL A   1      46.161  28.230  26.666  1.00  0.00     0.037 A 
ATOM     52  C   UNL A   1      41.437  31.432  29.875  1.00  0.00     0.049 A 
ATOM     53  C   UNL A   1      46.026  29.640  27.172  1.00  0.00     0.074 A 
ATOM     54  C   UNL A   1      41.441  32.749  30.296  1.00  0.00     0.029 A 
ATOM     55  N   UNL A   1      42.643  31.216  29.223  1.00  0.00    -0.354 N 
ATOM     56  N   UNL A   1      45.032  30.195  27.822  1.00  0.00    -0.248 NA
ATOM     57  C   UNL A   1      47.145  30.553  26.898  1.00  0.00     0.031 C 
ATOM     58  C   UNL A   1      42.639  33.338  29.875  1.00  0.00     0.029 A 
ATOM     59  C   UNL A   1      43.397  32.377  29.224  1.00  0.00     0.049 A 
ATOM     60  H   UNL A   1      42.922  30.362  28.818  1.00  0.00     0.167 HD
ATOM     61  C   UNL A   1      45.404  31.513  28.040  1.00  0.00     0.074 A 
ATOM     62  C   UNL A   1      46.726  31.672  27.470  1.00  0.00     0.031 C 
ATOM     63  C   UNL A   1      44.711  32.507  28.649  1.00  0.00     0.037 A 
BRANCH  50  64
ATOM     64  C   UNL A   1      39.157  30.809  30.770  1.00  0.00     0.064 A 
ATOM     65  C   UNL A   1      38.051  31.331  30.086  1.00  0.00     0.173 A 
ATOM     66  C   UNL A   1      39.052  30.646  32.161  1.00  0.00     0.173 A 
ATOM     67  F   UNL A   1      38.107  31.525  28.761  1.00  0.00    -0.203 F 
ATOM     68  C   UNL A   1      36.896  31.703  30.772  1.00  0.00     0.198 A 
ATOM     69  C   UNL A   1      37.888  30.994  32.839  1.00  0.00     0.198 A 
ATOM     70  F   UNL A   1      40.083  30.151  32.863  1.00  0.00    -0.203 F 
ATOM     71  F   UNL A   1      35.869  32.250  30.105  1.00  0.00    -0.200 F 
ATOM     72  C   UNL A   1      36.814  31.529  32.146  1.00  0.00     0.200 A 
ATOM     73  F   UNL A   1      37.808  30.818  34.166  1.00  0.00    -0.200 F 
ATOM     74  F   UNL A   1      35.703  31.889  32.803  1.00  0.00    -0.200 F 
ENDBRANCH  50  64
BRANCH  51  75
ATOM     75  C   UNL A   1      47.367  27.794  25.918  1.00  0.00     0.064 A 
ATOM     76  C   UNL A   1      48.516  27.357  26.592  1.00  0.00     0.173 A 
ATOM     77  C   UNL A   1      47.392  27.785  24.516  1.00  0.00     0.173 A 
ATOM     78  F   UNL A   1      48.552  27.375  27.933  1.00  0.00    -0.203 F 
ATOM     79  C   UNL A   1      49.642  26.929  25.892  1.00  0.00     0.198 A 
ATOM     80  C   UNL A   1      48.508  27.332  23.817  1.00  0.00     0.198 A 
ATOM     81  F   UNL A   1      46.320  28.198  23.823  1.00  0.00    -0.203 F 
ATOM     82  F   UNL A   1      50.738  26.546  26.560  1.00  0.00    -0.200 F 
ATOM     83  C   UNL A   1      49.633  26.908  24.505  1.00  0.00     0.200 A 
ATOM     84  F   UNL A   1      48.490  27.302  22.477  1.00  0.00    -0.200 F 
ATOM     85  F   UNL A   1      50.712  26.483  23.833  1.00  0.00    -0.200 F 
ENDBRANCH  51  75
BRANCH  63  86
ATOM     86  C   UNL A   1      45.380  33.845  28.745  1.00  0.00     0.064 A 
ATOM     87  C   UNL A   1      46.257  34.149  29.795  1.00  0.00     0.173 A 
ATOM     88  C   UNL A   1      45.172  34.816  27.755  1.00  0.00     0.173 A 
ATOM     89  F   UNL A   1      46.475  33.257  30.773  1.00  0.00    -0.203 F 
ATOM     90  C   UNL A   1      46.889  35.388  29.861  1.00  0.00     0.198 A 
ATOM     91  C   UNL A   1      45.821  36.045  27.812  1.00  0.00     0.198 A 
ATOM     92  F   UNL A   1      44.345  34.568  26.728  1.00  0.00    -0.203 F 
ATOM     93  F   UNL A   1      47.695  35.673  30.893  1.00  0.00    -0.200 F 
ATOM     94  C   UNL A   1      46.674  36.332  28.867  1.00  0.00     0.200 A 
ATOM     95  F   UNL A   1      45.621  36.954  26.847  1.00  0.00    -0.200 F 
ATOM     96  F   UNL A   1      47.286  37.523  28.930  1.00  0.00    -0.200 F 
ENDBRANCH  63  86
ENDBRANCH  37  38
ENDBRANCH  30  32
ENDBRANCH  29  30
ENDBRANCH  28  29
ENDBRANCH   1  28
TORSDOF 17
ENDMDL
MODEL 3
REMARK VINA RESULT:     -11.7      4.036      9.779
REMARK SMILES CCN(CC)c1ccc(NC(=O)c2ccc(OC)cc2)cc1C(=O)OCCOC(=O)c1ccc(-c2c3nc(c(-c4c(F)c(F)c(F)c(F)c4F)c4ccc([nH]4)c(-c4c(F)c(F)c(F)c(F)c4F)c4nc(c(-c5c(F)c(F)c(F)c(F)c5F)c5ccc2[nH]5)C=C4)C=C3)cc1
REMARK SMILES IDX 26 1 25 2 23 3 24 4 22 5 6 6 7 7 8 8 21 9 9 10 3 11 2 12
REMARK SMILES IDX 1 13 4 14 5 15 10 16 11 17 12 19 13 20 14 21 20 22 15 23
REMARK SMILES IDX 19 24 16 25 17 26 18 27 27 28 28 29 29 30 30 31 31 32 32 33
REMARK SMILES IDX 93 34 33 35 92 36 34 37 35 38 36 39 86 40 37 41 91 42 85 43
REMARK SMILES IDX 87 44 38 45 90 46 84 47 83 48 39 50 71 51 51 52 70 53 52 54
REMARK SMILES IDX 55 55 69 56 88 57 53 58 54 59 68 61 89 62 56 63 40 64 41 65
REMARK SMILES IDX 49 66 42 67 43 68 47 69 50 70 44 71 45 72 48 73 46 74 72 75
REMARK SMILES IDX 73 76 81 77 74 78 75 79 79 80 82 81 76 82 77 83 80 84 78 85
REMARK SMILES IDX 57 86 58 87 66 88 59 89 60 90 64 91 67 92 61 93 62 94 65 95
REMARK SMILES IDX 63 96
REMARK H PARENT 10 18 87 49 55 60
REMARK Flexibility Score: inf
ROOT
ATOM      1  C   UNL A   1      32.026  28.643  25.993  1.00  0.00     0.275 C 
ENDROOT
BRANCH   1   2
ATOM      2  O   UNL A   1      33.008  27.625  26.271  1.00  0.00    -0.458 OA
BRANCH   2   3
ATOM      3  C   UNL A   1      32.590  26.335  26.208  1.00  0.00     0.340 C 
ATOM      4  O   UNL A   1      31.702  25.823  26.871  1.00  0.00    -0.246 OA
BRANCH   3   5
ATOM      5  C   UNL A   1      33.259  25.635  25.090  1.00  0.00     0.085 A 
ATOM      6  C   UNL A   1      32.718  25.566  23.791  1.00  0.00     0.051 A 
ATOM      7  C   UNL A   1      33.351  24.666  22.921  1.00  0.00     0.029 A 
ATOM      8  C   UNL A   1      34.503  23.954  23.278  1.00  0.00     0.028 A 
ATOM      9  C   UNL A   1      34.465  24.976  25.426  1.00  0.00     0.044 A 
ATOM     10  C   UNL A   1      35.112  24.154  24.508  1.00  0.00     0.042 A 
BRANCH   6  11
ATOM     11  N   UNL A   1      31.673  26.364  23.336  1.00  0.00    -0.371 N 
BRANCH  11  12
ATOM     12  C   UNL A   1      31.953  27.368  22.297  1.00  0.00     0.113 C 
ATOM     13  C   UNL A   1      33.192  28.197  22.601  1.00  0.00     0.027 C 
ENDBRANCH  11  12
BRANCH  11  14
ATOM     14  C   UNL A   1      30.271  26.000  23.588  1.00  0.00     0.113 C 
ATOM     15  C   UNL A   1      29.296  27.164  23.438  1.00  0.00     0.027 C 
ENDBRANCH  11  14
ENDBRANCH   6  11
BRANCH  10  16
ATOM     16  N   UNL A   1      36.319  23.540  24.901  1.00  0.00    -0.322 N 
ATOM     17  C   UNL A   1      36.557  22.343  25.550  1.00  0.00     0.255 C 
ATOM     18  H   UNL A   1      37.130  24.050  24.675  1.00  0.00     0.170 HD
ATOM     19  O   UNL A   1      37.661  22.107  26.035  1.00  0.00    -0.269 OA
BRANCH  17  20
ATOM     20  C   UNL A   1      35.513  21.300  25.601  1.00  0.00     0.040 A 
ATOM     21  C   UNL A   1      34.398  21.486  26.420  1.00  0.00     0.017 A 
ATOM     22  C   UNL A   1      35.616  20.161  24.792  1.00  0.00     0.017 A 
ATOM     23  C   UNL A   1      33.333  20.587  26.339  1.00  0.00     0.047 A 
ATOM     24  C   UNL A   1      34.544  19.272  24.708  1.00  0.00     0.047 A 
ATOM     25  C   UNL A   1      33.384  19.510  25.447  1.00  0.00     0.118 A 
BRANCH  25  26
ATOM     26  O   UNL A   1      32.252  18.744  25.378  1.00  0.00    -0.497 OA
ATOM     27  C   UNL A   1      32.486  17.337  25.351  1.00  0.00     0.278 C 
ENDBRANCH  25  26
ENDBRANCH  17  20
ENDBRANCH  10  16
ENDBRANCH   3   5
ENDBRANCH   2   3
ENDBRANCH   1   2
BRANCH   1  28
ATOM     28  C   UNL A   1      32.693  30.015  25.925  1.00  0.00     0.275 C 
BRANCH  28  29
ATOM     29  O   UNL A   1      32.613  30.622  27.225  1.00  0.00    -0.458 OA
BRANCH  29  30
ATOM     30  C   UNL A   1      33.298  31.773  27.372  1.00  0.00     0.338 C 
ATOM     31  O   UNL A   1      32.899  32.923  27.235  1.00  0.00    -0.246 OA
BRANCH  30  32
ATOM     32  C   UNL A   1      34.616  31.435  27.908  1.00  0.00     0.060 A 
ATOM     33  C   UNL A   1      34.802  30.135  28.378  1.00  0.00     0.016 A 
ATOM     34  C   UNL A   1      35.624  32.387  28.012  1.00  0.00     0.016 A 
ATOM     35  C   UNL A   1      35.994  29.781  29.000  1.00  0.00     0.010 A 
ATOM     36  C   UNL A   1      36.833  32.025  28.611  1.00  0.00     0.010 A 
ATOM     37  C   UNL A   1      37.014  30.729  29.135  1.00  0.00    -0.014 A 
BRANCH  37  38
ATOM     38  C   UNL A   1      38.226  30.413  29.931  1.00  0.00     0.031 A 
ATOM     39  C   UNL A   1      39.267  29.509  29.336  1.00  0.00     0.074 A 
ATOM     40  C   UNL A   1      38.410  30.936  31.156  1.00  0.00     0.049 A 
ATOM     41  N   UNL A   1      40.280  28.913  29.911  1.00  0.00    -0.248 NA
ATOM     42  C   UNL A   1      39.136  29.225  27.898  1.00  0.00     0.031 C 
ATOM     43  C   UNL A   1      37.516  31.889  31.813  1.00  0.00     0.029 A 
ATOM     44  N   UNL A   1      39.413  30.732  32.069  1.00  0.00    -0.354 N 
ATOM     45  C   UNL A   1      40.865  28.134  28.922  1.00  0.00     0.074 A 
ATOM     46  C   UNL A   1      40.103  28.339  27.709  1.00  0.00     0.031 C 
ATOM     47  C   UNL A   1      38.018  32.197  33.020  1.00  0.00     0.029 A 
ATOM     48  C   UNL A   1      39.225  31.407  33.250  1.00  0.00     0.049 A 
ATOM     49  H   UNL A   1      40.193  30.157  31.894  1.00  0.00     0.167 HD
ATOM     50  C   UNL A   1      41.938  27.313  29.027  1.00  0.00     0.037 A 
ATOM     51  C   UNL A   1      39.923  31.356  34.401  1.00  0.00     0.037 A 
ATOM     52  C   UNL A   1      42.723  27.165  30.223  1.00  0.00     0.049 A 
ATOM     53  C   UNL A   1      41.104  30.429  34.500  1.00  0.00     0.074 A 
ATOM     54  C   UNL A   1      43.830  26.363  30.440  1.00  0.00     0.029 A 
ATOM     55  N   UNL A   1      42.494  27.860  31.402  1.00  0.00    -0.354 N 
ATOM     56  N   UNL A   1      41.602  29.624  33.593  1.00  0.00    -0.248 NA
ATOM     57  C   UNL A   1      41.806  30.386  35.790  1.00  0.00     0.031 C 
ATOM     58  C   UNL A   1      44.254  26.553  31.760  1.00  0.00     0.029 A 
ATOM     59  C   UNL A   1      43.434  27.501  32.353  1.00  0.00     0.049 A 
ATOM     60  H   UNL A   1      41.769  28.512  31.543  1.00  0.00     0.167 HD
ATOM     61  C   UNL A   1      42.676  28.984  34.197  1.00  0.00     0.074 A 
ATOM     62  C   UNL A   1      42.770  29.511  35.543  1.00  0.00     0.031 C 
ATOM     63  C   UNL A   1      43.505  28.040  33.687  1.00  0.00     0.037 A 
BRANCH  50  64
ATOM     64  C   UNL A   1      42.285  26.478  27.830  1.00  0.00     0.064 A 
ATOM     65  C   UNL A   1      43.250  26.877  26.895  1.00  0.00     0.173 A 
ATOM     66  C   UNL A   1      41.635  25.252  27.620  1.00  0.00     0.173 A 
ATOM     67  F   UNL A   1      43.886  28.049  27.039  1.00  0.00    -0.203 F 
ATOM     68  C   UNL A   1      43.532  26.093  25.778  1.00  0.00     0.198 A 
ATOM     69  C   UNL A   1      41.937  24.458  26.517  1.00  0.00     0.198 A 
ATOM     70  F   UNL A   1      40.703  24.823  28.485  1.00  0.00    -0.203 F 
ATOM     71  F   UNL A   1      44.419  26.519  24.868  1.00  0.00    -0.200 F 
ATOM     72  C   UNL A   1      42.879  24.883  25.593  1.00  0.00     0.200 A 
ATOM     73  F   UNL A   1      41.311  23.285  26.345  1.00  0.00    -0.200 F 
ATOM     74  F   UNL A   1      43.149  24.131  24.517  1.00  0.00    -0.200 F 
ENDBRANCH  50  64
BRANCH  51  75
ATOM     75  C   UNL A   1      39.491  32.178  35.560  1.00  0.00     0.064 A 
ATOM     76  C   UNL A   1      38.585  31.675  36.503  1.00  0.00     0.173 A 
ATOM     77  C   UNL A   1      39.989  33.474  35.760  1.00  0.00     0.173 A 
ATOM     78  F   UNL A   1      38.057  30.453  36.340  1.00  0.00    -0.203 F 
ATOM     79  C   UNL A   1      38.193  32.438  37.602  1.00  0.00     0.198 A 
ATOM     80  C   UNL A   1      39.619  34.225  36.873  1.00  0.00     0.198 A 
ATOM     81  F   UNL A   1      40.856  34.002  34.883  1.00  0.00    -0.203 F 
ATOM     82  F   UNL A   1      37.302  31.947  38.473  1.00  0.00    -0.200 F 
ATOM     83  C   UNL A   1      38.718  33.708  37.791  1.00  0.00     0.200 A 
ATOM     84  F   UNL A   1      40.138  35.447  37.056  1.00  0.00    -0.200 F 
ATOM     85  F   UNL A   1      38.352  34.436  38.855  1.00  0.00    -0.200 F 
ENDBRANCH  51  75
BRANCH  63  86
ATOM     86  C   UNL A   1      44.594  27.534  34.583  1.00  0.00     0.064 A 
ATOM     87  C   UNL A   1      45.835  28.181  34.662  1.00  0.00     0.173 A 
ATOM     88  C   UNL A   1      44.379  26.414  35.399  1.00  0.00     0.173 A 
ATOM     89  F   UNL A   1      46.091  29.247  33.889  1.00  0.00    -0.203 F 
ATOM     90  C   UNL A   1      46.831  27.712  35.515  1.00  0.00     0.198 A 
ATOM     91  C   UNL A   1      45.368  25.961  36.266  1.00  0.00     0.198 A 
ATOM     92  F   UNL A   1      43.205  25.765  35.361  1.00  0.00    -0.203 F 
ATOM     93  F   UNL A   1      48.023  28.322  35.548  1.00  0.00    -0.200 F 
ATOM     94  C   UNL A   1      46.595  26.606  36.319  1.00  0.00     0.200 A 
ATOM     95  F   UNL A   1      45.137  24.898  37.050  1.00  0.00    -0.200 F 
ATOM     96  F   UNL A   1      47.553  26.159  37.141  1.00  0.00    -0.200 F 
ENDBRANCH  63  86
ENDBRANCH  37  38
ENDBRANCH  30  32
ENDBRANCH  29  30
ENDBRANCH  28  29
ENDBRANCH   1  28
TORSDOF 17
ENDMDL
