MODEL 1
REMARK VINA RESULT:     -12.9      0.000      0.000
REMARK SMILES C[C@H]1C[N@H+]2CCCC[C@@H]2CN1c1ccc(C(=O)OCCOC(=O)c2ccc(-c3c4nc(c(-c5c(F)c(F)c(F)c(F)c5F)c5ccc([nH]5)c(-c5c(F)c(F)c(F)c(F)c5F)c5nc(c(-c6c(F)c(F)c(F)c(F)c6F)c6ccc3[nH]6)C=C5)C=C4)cc2)cc1Cl
REMARK SMILES IDX 20 1 19 2 18 3 16 4 17 5 15 6 12 7 13 8 88 9 14 10 87 11
REMARK SMILES IDX 89 12 11 13 1 14 2 15 3 16 4 17 10 18 5 19 9 20 6 22 8 23
REMARK SMILES IDX 7 24 21 25 22 26 23 27 24 28 25 29 86 30 26 31 85 32 27 33
REMARK SMILES IDX 28 34 29 35 79 36 30 37 84 38 78 39 80 40 31 41 83 42 77 43
REMARK SMILES IDX 76 44 32 46 64 47 44 48 63 49 45 50 48 51 62 52 81 53 46 54
REMARK SMILES IDX 47 55 61 57 82 58 49 59 33 60 34 61 42 62 35 63 36 64 40 65
REMARK SMILES IDX 43 66 37 67 38 68 41 69 39 70 65 71 66 72 74 73 67 74 68 75
REMARK SMILES IDX 72 76 75 77 69 78 70 79 73 80 71 81 50 82 51 83 59 84 52 85
REMARK SMILES IDX 53 86 57 87 60 88 54 89 55 90 58 91 56 92
REMARK H PARENT 4 21 80 45 48 56
REMARK Flexibility Score: inf
ROOT
ATOM      1  C   UNL A   1      43.321  21.406  25.395  1.00  0.00     0.275 C 
ENDROOT
BRANCH   1   2
ATOM      2  C   UNL A   1      42.393  20.603  26.306  1.00  0.00     0.275 C 
BRANCH   2   3
ATOM      3  O   UNL A   1      41.026  21.015  26.112  1.00  0.00    -0.458 OA
BRANCH   3   4
ATOM      4  C   UNL A   1      40.148  20.039  25.774  1.00  0.00     0.338 C 
ATOM      5  O   UNL A   1      40.371  18.841  25.734  1.00  0.00    -0.246 OA
BRANCH   4   6
ATOM      6  C   UNL A   1      38.797  20.614  25.562  1.00  0.00     0.061 A 
ATOM      7  C   UNL A   1      36.163  21.588  25.220  1.00  0.00     0.056 A 
ATOM      8  C   UNL A   1      36.479  20.260  24.916  1.00  0.00     0.028 A 
ATOM      9  C   UNL A   1      37.209  22.424  25.679  1.00  0.00     0.065 A 
ATOM     10  C   UNL A   1      37.784  19.782  25.064  1.00  0.00     0.018 A 
ATOM     11  C   UNL A   1      38.508  21.944  25.860  1.00  0.00     0.038 A 
ATOM     12  Cl  UNL A   1      36.927  24.093  26.066  1.00  0.00    -0.082 Cl
BRANCH   7  13
ATOM     13  N   UNL A   1      34.887  22.078  25.014  1.00  0.00    -0.356 N 
ATOM     14  C   UNL A   1      34.064  21.585  27.336  1.00  0.00     0.037 C 
ATOM     15  C   UNL A   1      33.709  21.801  25.862  1.00  0.00     0.134 C 
ATOM     16  C   UNL A   1      32.732  23.021  25.759  1.00  0.00     0.287 C 
ATOM     17  N   UNL A   1      32.390  23.438  24.375  1.00  0.00    -0.329 N 
ATOM     18  C   UNL A   1      34.548  22.391  23.617  1.00  0.00     0.182 C 
ATOM     19  C   UNL A   1      31.608  24.686  24.403  1.00  0.00     0.262 C 
ATOM     20  C   UNL A   1      33.635  23.636  23.586  1.00  0.00     0.203 C 
ATOM     21  H   UNL A   1      31.828  22.709  23.936  1.00  0.00     0.348 HD
ATOM     22  C   UNL A   1      31.232  25.147  22.992  1.00  0.00     0.062 C 
ATOM     23  C   UNL A   1      33.285  23.992  22.135  1.00  0.00     0.067 C 
ATOM     24  C   UNL A   1      32.455  25.268  22.088  1.00  0.00     0.012 C 
ENDBRANCH   7  13
ENDBRANCH   4   6
ENDBRANCH   3   4
ENDBRANCH   2   3
ENDBRANCH   1   2
BRANCH   1  25
ATOM     25  O   UNL A   1      42.664  22.626  25.005  1.00  0.00    -0.458 OA
BRANCH  25  26
ATOM     26  C   UNL A   1      43.434  23.737  24.990  1.00  0.00     0.338 C 
ATOM     27  O   UNL A   1      44.411  23.963  24.302  1.00  0.00    -0.246 OA
BRANCH  26  28
ATOM     28  C   UNL A   1      42.902  24.700  25.970  1.00  0.00     0.060 A 
ATOM     29  C   UNL A   1      43.347  26.019  25.947  1.00  0.00     0.016 A 
ATOM     30  C   UNL A   1      42.040  24.267  26.976  1.00  0.00     0.016 A 
ATOM     31  C   UNL A   1      42.977  26.904  26.960  1.00  0.00     0.010 A 
ATOM     32  C   UNL A   1      41.613  25.175  27.953  1.00  0.00     0.010 A 
ATOM     33  C   UNL A   1      42.099  26.496  27.973  1.00  0.00    -0.014 A 
BRANCH  33  34
ATOM     34  C   UNL A   1      41.731  27.426  29.078  1.00  0.00     0.031 A 
ATOM     35  C   UNL A   1      42.546  27.450  30.345  1.00  0.00     0.074 A 
ATOM     36  C   UNL A   1      40.677  28.258  28.956  1.00  0.00     0.049 A 
ATOM     37  N   UNL A   1      42.296  28.052  31.481  1.00  0.00    -0.248 NA
ATOM     38  C   UNL A   1      43.803  26.686  30.337  1.00  0.00     0.031 C 
ATOM     39  C   UNL A   1      39.820  28.374  27.776  1.00  0.00     0.029 A 
ATOM     40  N   UNL A   1      40.148  29.168  29.840  1.00  0.00    -0.354 N 
ATOM     41  C   UNL A   1      43.327  27.687  32.339  1.00  0.00     0.074 A 
ATOM     42  C   UNL A   1      44.213  26.821  31.591  1.00  0.00     0.031 C 
ATOM     43  C   UNL A   1      38.889  29.315  27.998  1.00  0.00     0.029 A 
ATOM     44  C   UNL A   1      39.036  29.817  29.361  1.00  0.00     0.049 A 
ATOM     45  H   UNL A   1      40.530  29.338  30.731  1.00  0.00     0.167 HD
ATOM     46  C   UNL A   1      43.515  28.042  33.632  1.00  0.00     0.037 A 
ATOM     47  C   UNL A   1      38.201  30.688  29.962  1.00  0.00     0.037 A 
ATOM     48  C   UNL A   1      42.677  28.961  34.357  1.00  0.00     0.049 A 
ATOM     49  C   UNL A   1      38.437  31.071  31.397  1.00  0.00     0.074 A 
ATOM     50  C   UNL A   1      42.812  29.406  35.661  1.00  0.00     0.029 A 
ATOM     51  N   UNL A   1      41.560  29.592  33.834  1.00  0.00    -0.354 N 
ATOM     52  N   UNL A   1      39.390  30.686  32.209  1.00  0.00    -0.248 NA
ATOM     53  C   UNL A   1      37.469  31.996  32.005  1.00  0.00     0.031 C 
ATOM     54  C   UNL A   1      41.760  30.286  35.936  1.00  0.00     0.029 A 
ATOM     55  C   UNL A   1      40.992  30.416  34.791  1.00  0.00     0.049 A 
ATOM     56  H   UNL A   1      41.221  29.474  32.917  1.00  0.00     0.167 HD
ATOM     57  C   UNL A   1      39.141  31.322  33.418  1.00  0.00     0.074 A 
ATOM     58  C   UNL A   1      37.962  32.140  33.226  1.00  0.00     0.031 C 
ATOM     59  C   UNL A   1      39.822  31.228  34.585  1.00  0.00     0.037 A 
BRANCH  46  60
ATOM     60  C   UNL A   1      44.660  27.416  34.371  1.00  0.00     0.064 A 
ATOM     61  C   UNL A   1      45.921  28.024  34.437  1.00  0.00     0.173 A 
ATOM     62  C   UNL A   1      44.466  26.222  35.082  1.00  0.00     0.173 A 
ATOM     63  F   UNL A   1      46.158  29.160  33.763  1.00  0.00    -0.203 F 
ATOM     64  C   UNL A   1      46.951  27.453  35.180  1.00  0.00     0.198 A 
ATOM     65  C   UNL A   1      45.490  25.666  35.842  1.00  0.00     0.198 A 
ATOM     66  F   UNL A   1      43.274  25.605  35.056  1.00  0.00    -0.203 F 
ATOM     67  F   UNL A   1      48.157  28.035  35.209  1.00  0.00    -0.200 F 
ATOM     68  C   UNL A   1      46.732  26.280  35.889  1.00  0.00     0.200 A 
ATOM     69  F   UNL A   1      45.273  24.540  36.537  1.00  0.00    -0.200 F 
ATOM     70  F   UNL A   1      47.720  25.740  36.616  1.00  0.00    -0.200 F 
ENDBRANCH  46  60
BRANCH  47  71
ATOM     71  C   UNL A   1      37.032  31.228  29.219  1.00  0.00     0.064 A 
ATOM     72  C   UNL A   1      37.007  32.557  28.776  1.00  0.00     0.173 A 
ATOM     73  C   UNL A   1      35.911  30.427  28.951  1.00  0.00     0.173 A 
ATOM     74  F   UNL A   1      38.042  33.369  29.035  1.00  0.00    -0.203 F 
ATOM     75  C   UNL A   1      35.898  33.069  28.104  1.00  0.00     0.198 A 
ATOM     76  C   UNL A   1      34.817  30.932  28.253  1.00  0.00     0.198 A 
ATOM     77  F   UNL A   1      35.885  29.150  29.359  1.00  0.00    -0.203 F 
ATOM     78  F   UNL A   1      35.880  34.356  27.732  1.00  0.00    -0.200 F 
ATOM     79  C   UNL A   1      34.808  32.254  27.838  1.00  0.00     0.200 A 
ATOM     80  F   UNL A   1      33.771  30.139  27.987  1.00  0.00    -0.200 F 
ATOM     81  F   UNL A   1      33.745  32.747  27.188  1.00  0.00    -0.200 F 
ENDBRANCH  47  71
BRANCH  59  82
ATOM     82  C   UNL A   1      39.321  32.044  35.738  1.00  0.00     0.064 A 
ATOM     83  C   UNL A   1      38.395  31.526  36.653  1.00  0.00     0.173 A 
ATOM     84  C   UNL A   1      39.798  33.347  35.947  1.00  0.00     0.173 A 
ATOM     85  F   UNL A   1      37.900  30.290  36.483  1.00  0.00    -0.203 F 
ATOM     86  C   UNL A   1      37.947  32.289  37.727  1.00  0.00     0.198 A 
ATOM     87  C   UNL A   1      39.365  34.100  37.035  1.00  0.00     0.198 A 
ATOM     88  F   UNL A   1      40.689  33.885  35.101  1.00  0.00    -0.203 F 
ATOM     89  F   UNL A   1      37.031  31.789  38.568  1.00  0.00    -0.200 F 
ATOM     90  C   UNL A   1      38.436  33.573  37.920  1.00  0.00     0.200 A 
ATOM     91  F   UNL A   1      39.845  35.337  37.225  1.00  0.00    -0.200 F 
ATOM     92  F   UNL A   1      38.005  34.306  38.956  1.00  0.00    -0.200 F 
ENDBRANCH  59  82
ENDBRANCH  33  34
ENDBRANCH  26  28
ENDBRANCH  25  26
ENDBRANCH   1  25
TORSDOF 12
ENDMDL
MODEL 2
REMARK VINA RESULT:     -12.7      3.679      8.259
REMARK SMILES C[C@H]1C[N@H+]2CCCC[C@@H]2CN1c1ccc(C(=O)OCCOC(=O)c2ccc(-c3c4nc(c(-c5c(F)c(F)c(F)c(F)c5F)c5ccc([nH]5)c(-c5c(F)c(F)c(F)c(F)c5F)c5nc(c(-c6c(F)c(F)c(F)c(F)c6F)c6ccc3[nH]6)C=C5)C=C4)cc2)cc1Cl
REMARK SMILES IDX 20 1 19 2 18 3 16 4 17 5 15 6 12 7 13 8 88 9 14 10 87 11
REMARK SMILES IDX 89 12 11 13 1 14 2 15 3 16 4 17 10 18 5 19 9 20 6 22 8 23
REMARK SMILES IDX 7 24 21 25 22 26 23 27 24 28 25 29 86 30 26 31 85 32 27 33
REMARK SMILES IDX 28 34 29 35 79 36 30 37 84 38 78 39 80 40 31 41 83 42 77 43
REMARK SMILES IDX 76 44 32 46 64 47 44 48 63 49 45 50 48 51 62 52 81 53 46 54
REMARK SMILES IDX 47 55 61 57 82 58 49 59 33 60 34 61 42 62 35 63 36 64 40 65
REMARK SMILES IDX 43 66 37 67 38 68 41 69 39 70 65 71 66 72 74 73 67 74 68 75
REMARK SMILES IDX 72 76 75 77 69 78 70 79 73 80 71 81 50 82 51 83 59 84 52 85
REMARK SMILES IDX 53 86 57 87 60 88 54 89 55 90 58 91 56 92
REMARK H PARENT 4 21 80 45 48 56
REMARK Flexibility Score: inf
ROOT
ATOM      1  C   UNL A   1      31.720  29.709  25.901  1.00  0.00     0.275 C 
ENDROOT
BRANCH   1   2
ATOM      2  C   UNL A   1      31.275  29.729  24.439  1.00  0.00     0.275 C 
BRANCH   2   3
ATOM      3  O   UNL A   1      30.330  28.670  24.191  1.00  0.00    -0.458 OA
BRANCH   3   4
ATOM      4  C   UNL A   1      30.622  27.835  23.163  1.00  0.00     0.338 C 
ATOM      5  O   UNL A   1      30.275  27.962  22.001  1.00  0.00    -0.246 OA
BRANCH   4   6
ATOM      6  C   UNL A   1      31.548  26.767  23.615  1.00  0.00     0.061 A 
ATOM      7  C   UNL A   1      33.427  24.823  24.447  1.00  0.00     0.056 A 
ATOM      8  C   UNL A   1      33.627  25.554  23.272  1.00  0.00     0.028 A 
ATOM      9  C   UNL A   1      32.246  25.075  25.184  1.00  0.00     0.065 A 
ATOM     10  C   UNL A   1      32.691  26.500  22.848  1.00  0.00     0.018 A 
ATOM     11  C   UNL A   1      31.321  26.042  24.783  1.00  0.00     0.038 A 
ATOM     12  Cl  UNL A   1      31.892  24.210  26.647  1.00  0.00    -0.082 Cl
BRANCH   7  13
ATOM     13  N   UNL A   1      34.322  23.844  24.834  1.00  0.00    -0.356 N 
ATOM     14  C   UNL A   1      33.089  21.947  23.744  1.00  0.00     0.037 C 
ATOM     15  C   UNL A   1      34.062  22.390  24.840  1.00  0.00     0.134 C 
ATOM     16  C   UNL A   1      35.424  21.645  24.626  1.00  0.00     0.287 C 
ATOM     17  N   UNL A   1      36.519  22.063  25.540  1.00  0.00    -0.329 N 
ATOM     18  C   UNL A   1      35.336  24.266  25.814  1.00  0.00     0.182 C 
ATOM     19  C   UNL A   1      37.783  21.423  25.137  1.00  0.00     0.262 C 
ATOM     20  C   UNL A   1      36.665  23.543  25.508  1.00  0.00     0.203 C 
ATOM     21  H   UNL A   1      36.291  21.770  26.490  1.00  0.00     0.348 HD
ATOM     22  C   UNL A   1      38.937  21.826  26.059  1.00  0.00     0.062 C 
ATOM     23  C   UNL A   1      37.743  23.984  26.507  1.00  0.00     0.067 C 
ATOM     24  C   UNL A   1      39.081  23.341  26.163  1.00  0.00     0.012 C 
ENDBRANCH   7  13
ENDBRANCH   4   6
ENDBRANCH   3   4
ENDBRANCH   2   3
ENDBRANCH   1   2
BRANCH   1  25
ATOM     25  O   UNL A   1      33.074  30.190  25.991  1.00  0.00    -0.458 OA
BRANCH  25  26
ATOM     26  C   UNL A   1      33.309  31.131  26.933  1.00  0.00     0.338 C 
ATOM     27  O   UNL A   1      32.599  32.067  27.251  1.00  0.00    -0.246 OA
BRANCH  26  28
ATOM     28  C   UNL A   1      34.610  30.858  27.567  1.00  0.00     0.060 A 
ATOM     29  C   UNL A   1      34.953  29.549  27.895  1.00  0.00     0.016 A 
ATOM     30  C   UNL A   1      35.445  31.914  27.930  1.00  0.00     0.016 A 
ATOM     31  C   UNL A   1      36.106  29.288  28.635  1.00  0.00     0.010 A 
ATOM     32  C   UNL A   1      36.637  31.645  28.611  1.00  0.00     0.010 A 
ATOM     33  C   UNL A   1      36.968  30.331  28.997  1.00  0.00    -0.014 A 
BRANCH  33  34
ATOM     34  C   UNL A   1      38.181  30.062  29.820  1.00  0.00     0.031 A 
ATOM     35  C   UNL A   1      39.289  29.202  29.271  1.00  0.00     0.074 A 
ATOM     36  C   UNL A   1      38.305  30.589  31.055  1.00  0.00     0.049 A 
ATOM     37  N   UNL A   1      40.337  28.709  29.883  1.00  0.00    -0.248 NA
ATOM     38  C   UNL A   1      39.201  28.838  27.849  1.00  0.00     0.031 C 
ATOM     39  C   UNL A   1      37.333  31.469  31.703  1.00  0.00     0.029 A 
ATOM     40  N   UNL A   1      39.306  30.457  31.988  1.00  0.00    -0.354 N 
ATOM     41  C   UNL A   1      40.994  27.928  28.940  1.00  0.00     0.074 A 
ATOM     42  C   UNL A   1      40.234  28.019  27.711  1.00  0.00     0.031 C 
ATOM     43  C   UNL A   1      37.794  31.819  32.915  1.00  0.00     0.029 A 
ATOM     44  C   UNL A   1      39.057  31.129  33.160  1.00  0.00     0.049 A 
ATOM     45  H   UNL A   1      40.124  29.933  31.830  1.00  0.00     0.167 HD
ATOM     46  C   UNL A   1      42.126  27.199  29.087  1.00  0.00     0.037 A 
ATOM     47  C   UNL A   1      39.745  31.157  34.319  1.00  0.00     0.037 A 
ATOM     48  C   UNL A   1      42.924  27.164  30.285  1.00  0.00     0.049 A 
ATOM     49  C   UNL A   1      41.003  30.344  34.454  1.00  0.00     0.074 A 
ATOM     50  C   UNL A   1      44.107  26.481  30.513  1.00  0.00     0.029 A 
ATOM     51  N   UNL A   1      42.633  27.857  31.448  1.00  0.00    -0.354 N 
ATOM     52  N   UNL A   1      41.589  29.576  33.570  1.00  0.00    -0.248 NA
ATOM     53  C   UNL A   1      41.685  30.388  35.756  1.00  0.00     0.031 C 
ATOM     54  C   UNL A   1      44.517  26.739  31.825  1.00  0.00     0.029 A 
ATOM     55  C   UNL A   1      43.608  27.611  32.401  1.00  0.00     0.049 A 
ATOM     56  H   UNL A   1      41.849  28.439  31.580  1.00  0.00     0.167 HD
ATOM     57  C   UNL A   1      42.707  29.050  34.203  1.00  0.00     0.074 A 
ATOM     58  C   UNL A   1      42.733  29.608  35.539  1.00  0.00     0.031 C 
ATOM     59  C   UNL A   1      43.624  28.176  33.724  1.00  0.00     0.037 A 
BRANCH  46  60
ATOM     60  C   UNL A   1      42.568  26.350  27.933  1.00  0.00     0.064 A 
ATOM     61  C   UNL A   1      43.461  26.825  26.963  1.00  0.00     0.173 A 
ATOM     62  C   UNL A   1      42.142  25.016  27.841  1.00  0.00     0.173 A 
ATOM     63  F   UNL A   1      43.887  28.096  27.002  1.00  0.00    -0.203 F 
ATOM     64  C   UNL A   1      43.904  25.996  25.935  1.00  0.00     0.198 A 
ATOM     65  C   UNL A   1      42.604  24.185  26.826  1.00  0.00     0.198 A 
ATOM     66  F   UNL A   1      41.292  24.514  28.750  1.00  0.00    -0.203 F 
ATOM     67  F   UNL A   1      44.736  26.475  25.001  1.00  0.00    -0.200 F 
ATOM     68  C   UNL A   1      43.482  24.675  25.872  1.00  0.00     0.200 A 
ATOM     69  F   UNL A   1      42.205  22.905  26.775  1.00  0.00    -0.200 F 
ATOM     70  F   UNL A   1      43.921  23.875  24.890  1.00  0.00    -0.200 F 
ENDBRANCH  46  60
BRANCH  47  71
ATOM     71  C   UNL A   1      39.232  31.951  35.467  1.00  0.00     0.064 A 
ATOM     72  C   UNL A   1      39.570  33.302  35.620  1.00  0.00     0.173 A 
ATOM     73  C   UNL A   1      38.405  31.368  36.440  1.00  0.00     0.173 A 
ATOM     74  F   UNL A   1      40.382  33.894  34.732  1.00  0.00    -0.203 F 
ATOM     75  C   UNL A   1      39.112  34.037  36.712  1.00  0.00     0.198 A 
ATOM     76  C   UNL A   1      37.924  32.113  37.513  1.00  0.00     0.198 A 
ATOM     77  F   UNL A   1      38.058  30.078  36.341  1.00  0.00    -0.203 F 
ATOM     78  F   UNL A   1      39.488  35.315  36.860  1.00  0.00    -0.200 F 
ATOM     79  C   UNL A   1      38.284  33.445  37.653  1.00  0.00     0.200 A 
ATOM     80  F   UNL A   1      37.115  31.540  38.414  1.00  0.00    -0.200 F 
ATOM     81  F   UNL A   1      37.841  34.154  38.699  1.00  0.00    -0.200 F 
ENDBRANCH  47  71
BRANCH  59  82
ATOM     82  C   UNL A   1      44.742  27.784  34.642  1.00  0.00     0.064 A 
ATOM     83  C   UNL A   1      45.922  28.537  34.720  1.00  0.00     0.173 A 
ATOM     84  C   UNL A   1      44.618  26.663  35.476  1.00  0.00     0.173 A 
ATOM     85  F   UNL A   1      46.090  29.609  33.930  1.00  0.00    -0.203 F 
ATOM     86  C   UNL A   1      46.948  28.171  35.585  1.00  0.00     0.198 A 
ATOM     87  C   UNL A   1      45.637  26.312  36.357  1.00  0.00     0.198 A 
ATOM     88  F   UNL A   1      43.506  25.913  35.441  1.00  0.00    -0.203 F 
ATOM     89  F   UNL A   1      48.084  28.882  35.616  1.00  0.00    -0.200 F 
ATOM     90  C   UNL A   1      46.803  27.063  36.407  1.00  0.00     0.200 A 
ATOM     91  F   UNL A   1      45.492  25.246  37.156  1.00  0.00    -0.200 F 
ATOM     92  F   UNL A   1      47.791  26.712  37.242  1.00  0.00    -0.200 F 
ENDBRANCH  59  82
ENDBRANCH  33  34
ENDBRANCH  26  28
ENDBRANCH  25  26
ENDBRANCH   1  25
TORSDOF 12
ENDMDL
MODEL 3
REMARK VINA RESULT:     -12.6      4.650      8.868
REMARK SMILES C[C@H]1C[N@H+]2CCCC[C@@H]2CN1c1ccc(C(=O)OCCOC(=O)c2ccc(-c3c4nc(c(-c5c(F)c(F)c(F)c(F)c5F)c5ccc([nH]5)c(-c5c(F)c(F)c(F)c(F)c5F)c5nc(c(-c6c(F)c(F)c(F)c(F)c6F)c6ccc3[nH]6)C=C5)C=C4)cc2)cc1Cl
REMARK SMILES IDX 20 1 19 2 18 3 16 4 17 5 15 6 12 7 13 8 88 9 14 10 87 11
REMARK SMILES IDX 89 12 11 13 1 14 2 15 3 16 4 17 10 18 5 19 9 20 6 22 8 23
REMARK SMILES IDX 7 24 21 25 22 26 23 27 24 28 25 29 86 30 26 31 85 32 27 33
REMARK SMILES IDX 28 34 29 35 79 36 30 37 84 38 78 39 80 40 31 41 83 42 77 43
REMARK SMILES IDX 76 44 32 46 64 47 44 48 63 49 45 50 48 51 62 52 81 53 46 54
REMARK SMILES IDX 47 55 61 57 82 58 49 59 33 60 34 61 42 62 35 63 36 64 40 65
REMARK SMILES IDX 43 66 37 67 38 68 41 69 39 70 65 71 66 72 74 73 67 74 68 75
REMARK SMILES IDX 72 76 75 77 69 78 70 79 73 80 71 81 50 82 51 83 59 84 52 85
REMARK SMILES IDX 53 86 57 87 60 88 54 89 55 90 58 91 56 92
REMARK H PARENT 4 21 80 45 48 56
REMARK Flexibility Score: inf
ROOT
ATOM      1  C   UNL A   1      36.379  20.862  24.996  1.00  0.00     0.275 C 
ENDROOT
BRANCH   1   2
ATOM      2  C   UNL A   1      34.977  20.643  25.562  1.00  0.00     0.275 C 
BRANCH   2   3
ATOM      3  O   UNL A   1      34.022  20.509  24.490  1.00  0.00    -0.458 OA
BRANCH   3   4
ATOM      4  C   UNL A   1      32.759  20.924  24.758  1.00  0.00     0.338 C 
ATOM      5  O   UNL A   1      31.796  20.217  25.000  1.00  0.00    -0.246 OA
BRANCH   4   6
ATOM      6  C   UNL A   1      32.711  22.405  24.839  1.00  0.00     0.061 A 
ATOM      7  C   UNL A   1      32.677  25.219  25.130  1.00  0.00     0.056 A 
ATOM      8  C   UNL A   1      32.242  24.387  26.168  1.00  0.00     0.028 A 
ATOM      9  C   UNL A   1      33.108  24.603  23.931  1.00  0.00     0.065 A 
ATOM     10  C   UNL A   1      32.239  22.998  26.019  1.00  0.00     0.018 A 
ATOM     11  C   UNL A   1      33.137  23.214  23.788  1.00  0.00     0.038 A 
ATOM     12  Cl  UNL A   1      33.649  25.544  22.577  1.00  0.00    -0.082 Cl
BRANCH   7  13
ATOM     13  N   UNL A   1      32.622  26.594  25.255  1.00  0.00    -0.356 N 
ATOM     14  C   UNL A   1      30.321  26.833  24.277  1.00  0.00     0.037 C 
ATOM     15  C   UNL A   1      31.677  27.487  24.555  1.00  0.00     0.134 C 
ATOM     16  C   UNL A   1      31.444  28.754  25.447  1.00  0.00     0.287 C 
ATOM     17  N   UNL A   1      32.682  29.434  25.909  1.00  0.00    -0.329 N 
ATOM     18  C   UNL A   1      33.890  27.246  25.619  1.00  0.00     0.182 C 
ATOM     19  C   UNL A   1      32.344  30.499  26.868  1.00  0.00     0.262 C 
ATOM     20  C   UNL A   1      33.593  28.445  26.545  1.00  0.00     0.203 C 
ATOM     21  H   UNL A   1      33.153  29.852  25.106  1.00  0.00     0.348 HD
ATOM     22  C   UNL A   1      33.597  31.227  27.364  1.00  0.00     0.062 C 
ATOM     23  C   UNL A   1      34.904  29.128  26.955  1.00  0.00     0.067 C 
ATOM     24  C   UNL A   1      34.629  30.260  27.936  1.00  0.00     0.012 C 
ENDBRANCH   7  13
ENDBRANCH   4   6
ENDBRANCH   3   4
ENDBRANCH   2   3
ENDBRANCH   1   2
BRANCH   1  25
ATOM     25  O   UNL A   1      37.131  21.693  25.899  1.00  0.00    -0.458 OA
BRANCH  25  26
ATOM     26  C   UNL A   1      38.463  21.465  25.947  1.00  0.00     0.338 C 
ATOM     27  O   UNL A   1      39.065  20.463  25.609  1.00  0.00    -0.246 OA
BRANCH  26  28
ATOM     28  C   UNL A   1      39.133  22.659  26.490  1.00  0.00     0.060 A 
ATOM     29  C   UNL A   1      38.676  23.925  26.131  1.00  0.00     0.016 A 
ATOM     30  C   UNL A   1      40.278  22.522  27.272  1.00  0.00     0.016 A 
ATOM     31  C   UNL A   1      39.390  25.063  26.505  1.00  0.00     0.010 A 
ATOM     32  C   UNL A   1      40.955  23.668  27.707  1.00  0.00     0.010 A 
ATOM     33  C   UNL A   1      40.535  24.950  27.305  1.00  0.00    -0.014 A 
BRANCH  33  34
ATOM     34  C   UNL A   1      41.324  26.160  27.676  1.00  0.00     0.031 A 
ATOM     35  C   UNL A   1      40.701  27.232  28.532  1.00  0.00     0.074 A 
ATOM     36  C   UNL A   1      42.598  26.305  27.260  1.00  0.00     0.049 A 
ATOM     37  N   UNL A   1      41.149  28.429  28.820  1.00  0.00    -0.248 NA
ATOM     38  C   UNL A   1      39.395  26.922  29.134  1.00  0.00     0.031 C 
ATOM     39  C   UNL A   1      43.344  25.335  26.459  1.00  0.00     0.029 A 
ATOM     40  N   UNL A   1      43.492  27.331  27.456  1.00  0.00    -0.354 N 
ATOM     41  C   UNL A   1      40.156  29.033  29.580  1.00  0.00     0.074 A 
ATOM     42  C   UNL A   1      39.084  28.071  29.719  1.00  0.00     0.031 C 
ATOM     43  C   UNL A   1      44.588  25.798  26.252  1.00  0.00     0.029 A 
ATOM     44  C   UNL A   1      44.704  27.129  26.841  1.00  0.00     0.049 A 
ATOM     45  H   UNL A   1      43.284  28.133  27.987  1.00  0.00     0.167 HD
ATOM     46  C   UNL A   1      40.139  30.279  30.111  1.00  0.00     0.037 A 
ATOM     47  C   UNL A   1      45.776  27.938  26.726  1.00  0.00     0.037 A 
ATOM     48  C   UNL A   1      41.233  31.213  30.037  1.00  0.00     0.049 A 
ATOM     49  C   UNL A   1      45.733  29.314  27.331  1.00  0.00     0.074 A 
ATOM     50  C   UNL A   1      41.317  32.485  30.577  1.00  0.00     0.029 A 
ATOM     51  N   UNL A   1      42.439  30.967  29.402  1.00  0.00    -0.354 N 
ATOM     52  N   UNL A   1      44.772  29.889  28.010  1.00  0.00    -0.248 NA
ATOM     53  C   UNL A   1      46.920  30.160  27.138  1.00  0.00     0.031 C 
ATOM     54  C   UNL A   1      42.566  33.021  30.244  1.00  0.00     0.029 A 
ATOM     55  C   UNL A   1      43.271  32.068  29.528  1.00  0.00     0.049 A 
ATOM     56  H   UNL A   1      42.671  30.134  28.931  1.00  0.00     0.167 HD
ATOM     57  C   UNL A   1      45.237  31.158  28.327  1.00  0.00     0.074 A 
ATOM     58  C   UNL A   1      46.577  31.260  27.791  1.00  0.00     0.031 C 
ATOM     59  C   UNL A   1      44.604  32.154  28.995  1.00  0.00     0.037 A 
BRANCH  46  60
ATOM     60  C   UNL A   1      38.887  30.730  30.802  1.00  0.00     0.064 A 
ATOM     61  C   UNL A   1      38.712  30.589  32.185  1.00  0.00     0.173 A 
ATOM     62  C   UNL A   1      37.878  31.376  30.072  1.00  0.00     0.173 A 
ATOM     63  F   UNL A   1      39.644  29.968  32.924  1.00  0.00    -0.203 F 
ATOM     64  C   UNL A   1      37.566  31.072  32.812  1.00  0.00     0.198 A 
ATOM     65  C   UNL A   1      36.744  31.877  30.705  1.00  0.00     0.198 A 
ATOM     66  F   UNL A   1      38.002  31.540  28.746  1.00  0.00    -0.203 F 
ATOM     67  F   UNL A   1      37.405  30.904  34.131  1.00  0.00    -0.200 F 
ATOM     68  C   UNL A   1      36.587  31.722  32.073  1.00  0.00     0.200 A 
ATOM     69  F   UNL A   1      35.806  32.515  29.991  1.00  0.00    -0.200 F 
ATOM     70  F   UNL A   1      35.492  32.198  32.681  1.00  0.00    -0.200 F 
ENDBRANCH  46  60
BRANCH  47  71
ATOM     71  C   UNL A   1      46.970  27.483  25.966  1.00  0.00     0.064 A 
ATOM     72  C   UNL A   1      47.050  27.649  24.577  1.00  0.00     0.173 A 
ATOM     73  C   UNL A   1      48.048  26.859  26.614  1.00  0.00     0.173 A 
ATOM     74  F   UNL A   1      46.032  28.212  23.911  1.00  0.00    -0.203 F 
ATOM     75  C   UNL A   1      48.157  27.197  23.863  1.00  0.00     0.198 A 
ATOM     76  C   UNL A   1      49.166  26.435  25.902  1.00  0.00     0.198 A 
ATOM     77  F   UNL A   1      48.016  26.672  27.941  1.00  0.00    -0.203 F 
ATOM     78  F   UNL A   1      48.189  27.326  22.529  1.00  0.00    -0.200 F 
ATOM     79  C   UNL A   1      49.217  26.597  24.526  1.00  0.00     0.200 A 
ATOM     80  F   UNL A   1      50.193  25.867  26.549  1.00  0.00    -0.200 F 
ATOM     81  F   UNL A   1      50.283  26.166  23.838  1.00  0.00    -0.200 F 
ENDBRANCH  47  71
BRANCH  59  82
ATOM     82  C   UNL A   1      45.362  33.430  29.199  1.00  0.00     0.064 A 
ATOM     83  C   UNL A   1      46.179  33.623  30.322  1.00  0.00     0.173 A 
ATOM     84  C   UNL A   1      45.297  34.457  28.246  1.00  0.00     0.173 A 
ATOM     85  F   UNL A   1      46.261  32.673  31.267  1.00  0.00    -0.203 F 
ATOM     86  C   UNL A   1      46.889  34.808  30.495  1.00  0.00     0.198 A 
ATOM     87  C   UNL A   1      46.024  35.632  28.411  1.00  0.00     0.198 A 
ATOM     88  F   UNL A   1      44.532  34.318  27.153  1.00  0.00    -0.203 F 
ATOM     89  F   UNL A   1      47.633  34.988  31.595  1.00  0.00    -0.200 F 
ATOM     90  C   UNL A   1      46.815  35.809  29.537  1.00  0.00     0.200 A 
ATOM     91  F   UNL A   1      45.960  36.595  27.481  1.00  0.00    -0.200 F 
ATOM     92  F   UNL A   1      47.501  36.948  29.704  1.00  0.00    -0.200 F 
ENDBRANCH  59  82
ENDBRANCH  33  34
ENDBRANCH  26  28
ENDBRANCH  25  26
ENDBRANCH   1  25
TORSDOF 12
ENDMDL
