MODEL 1
REMARK VINA RESULT:     -12.1      0.000      0.000
REMARK SMILES CCOC(=O)C1=NN(c2ccc(Cl)cc2[N+](=O)[O-])[C@@](C)(C(=O)OCCOC(=O)c2ccc(-c3c4nc(c(-c5c(F)c(F)c(F)c(F)c5F)c5ccc([nH]5)c(-c5c(F)c(F)c(F)c(F)c5F)c5nc(c(-c6c(F)c(F)c(F)c(F)c6F)c6ccc3[nH]6)C=C5)C=C4)cc2)C1
REMARK SMILES IDX 24 1 23 2 21 3 22 4 19 5 6 6 7 7 92 8 8 9 20 10 4 11 5 12
REMARK SMILES IDX 3 13 2 14 1 15 9 16 10 17 15 18 11 19 14 20 12 21 13 22
REMARK SMILES IDX 16 23 17 24 18 25 25 26 26 27 27 28 28 29 29 30 30 31 91 32
REMARK SMILES IDX 31 33 90 34 32 35 33 36 34 37 84 38 35 39 89 40 83 41 85 42
REMARK SMILES IDX 36 43 88 44 82 45 81 46 37 48 69 49 49 50 68 51 50 52 53 53
REMARK SMILES IDX 67 54 86 55 51 56 52 57 66 59 87 60 54 61 38 62 39 63 47 64
REMARK SMILES IDX 40 65 41 66 45 67 48 68 42 69 43 70 46 71 44 72 70 73 71 74
REMARK SMILES IDX 79 75 72 76 73 77 77 78 80 79 74 80 75 81 78 82 76 83 55 84
REMARK SMILES IDX 56 85 64 86 57 87 58 88 62 89 65 90 59 91 60 92 63 93 61 94
REMARK H PARENT 85 47 53 58
REMARK Flexibility Score: inf
ROOT
ATOM      1  C   UNL A   1      31.975  27.955  26.753  1.00  0.00     0.274 C 
ENDROOT
BRANCH   1   2
ATOM      2  O   UNL A   1      30.912  27.060  26.358  1.00  0.00    -0.460 OA
BRANCH   2   3
ATOM      3  C   UNL A   1      31.245  25.761  26.139  1.00  0.00     0.334 C 
ATOM      4  O   UNL A   1      31.538  24.964  27.027  1.00  0.00    -0.249 OA
BRANCH   3   5
ATOM      5  C   UNL A   1      31.291  25.376  24.647  1.00  0.00     0.163 C 
ATOM      6  C   UNL A   1      31.493  27.197  23.227  1.00  0.00     0.149 C 
ATOM      7  N   UNL A   1      32.702  26.736  23.310  1.00  0.00    -0.168 NA
ATOM      8  C   UNL A   1      30.421  26.363  23.837  1.00  0.00     0.108 C 
ATOM      9  N   UNL A   1      32.628  25.572  24.023  1.00  0.00    -0.241 N 
ATOM     10  C   UNL A   1      30.704  23.973  24.529  1.00  0.00     0.050 C 
BRANCH   6  11
ATOM     11  C   UNL A   1      31.140  28.457  22.487  1.00  0.00     0.354 C 
ATOM     12  O   UNL A   1      31.906  29.396  22.386  1.00  0.00    -0.245 OA
BRANCH  11  13
ATOM     13  O   UNL A   1      29.876  28.355  22.030  1.00  0.00    -0.461 OA
BRANCH  13  14
ATOM     14  C   UNL A   1      29.038  29.493  22.285  1.00  0.00     0.230 C 
ATOM     15  C   UNL A   1      27.694  29.036  22.818  1.00  0.00     0.049 C 
ENDBRANCH  13  14
ENDBRANCH  11  13
ENDBRANCH   6  11
BRANCH   9  16
ATOM     16  C   UNL A   1      33.778  24.801  24.128  1.00  0.00     0.138 A 
ATOM     17  C   UNL A   1      34.667  24.971  25.203  1.00  0.00     0.037 A 
ATOM     18  C   UNL A   1      34.092  23.735  23.258  1.00  0.00     0.295 A 
ATOM     19  C   UNL A   1      35.802  24.164  25.374  1.00  0.00     0.023 A 
ATOM     20  C   UNL A   1      35.228  22.920  23.402  1.00  0.00     0.108 A 
ATOM     21  C   UNL A   1      36.080  23.147  24.470  1.00  0.00     0.048 A 
ATOM     22  Cl  UNL A   1      37.473  22.165  24.684  1.00  0.00    -0.084 Cl
BRANCH  18  23
ATOM     23  N   UNL A   1      33.277  23.462  22.094  1.00  0.00     0.065 N 
ATOM     24  O   UNL A   1      33.383  24.253  21.147  1.00  0.00    -0.258 OA
ATOM     25  O   UNL A   1      32.656  22.391  22.077  1.00  0.00    -0.258 OA
ENDBRANCH  18  23
ENDBRANCH   9  16
ENDBRANCH   3   5
ENDBRANCH   2   3
ENDBRANCH   1   2
BRANCH   1  26
ATOM     26  C   UNL A   1      31.739  29.364  26.208  1.00  0.00     0.275 C 
BRANCH  26  27
ATOM     27  O   UNL A   1      33.009  30.008  26.051  1.00  0.00    -0.458 OA
BRANCH  27  28
ATOM     28  C   UNL A   1      33.262  31.038  26.893  1.00  0.00     0.338 C 
ATOM     29  O   UNL A   1      32.578  32.029  27.060  1.00  0.00    -0.246 OA
BRANCH  28  30
ATOM     30  C   UNL A   1      34.552  30.789  27.587  1.00  0.00     0.060 A 
ATOM     31  C   UNL A   1      34.958  29.496  27.936  1.00  0.00     0.016 A 
ATOM     32  C   UNL A   1      35.364  31.874  27.921  1.00  0.00     0.016 A 
ATOM     33  C   UNL A   1      36.125  29.293  28.671  1.00  0.00     0.010 A 
ATOM     34  C   UNL A   1      36.579  31.662  28.578  1.00  0.00     0.010 A 
ATOM     35  C   UNL A   1      36.963  30.371  28.982  1.00  0.00    -0.014 A 
BRANCH  35  36
ATOM     36  C   UNL A   1      38.229  30.162  29.736  1.00  0.00     0.031 A 
ATOM     37  C   UNL A   1      39.333  29.331  29.144  1.00  0.00     0.074 A 
ATOM     38  C   UNL A   1      38.396  30.707  30.959  1.00  0.00     0.049 A 
ATOM     39  N   UNL A   1      40.415  28.862  29.715  1.00  0.00    -0.248 NA
ATOM     40  C   UNL A   1      39.206  28.975  27.721  1.00  0.00     0.031 C 
ATOM     41  C   UNL A   1      37.434  31.575  31.641  1.00  0.00     0.029 A 
ATOM     42  N   UNL A   1      39.438  30.608  31.848  1.00  0.00    -0.354 N 
ATOM     43  C   UNL A   1      41.066  28.118  28.742  1.00  0.00     0.074 A 
ATOM     44  C   UNL A   1      40.266  28.200  27.538  1.00  0.00     0.031 C 
ATOM     45  C   UNL A   1      37.944  31.957  32.821  1.00  0.00     0.029 A 
ATOM     46  C   UNL A   1      39.223  31.285  33.023  1.00  0.00     0.049 A 
ATOM     47  H   UNL A   1      40.261  30.100  31.661  1.00  0.00     0.167 HD
ATOM     48  C   UNL A   1      42.226  27.428  28.846  1.00  0.00     0.037 A 
ATOM     49  C   UNL A   1      39.939  31.319  34.163  1.00  0.00     0.037 A 
ATOM     50  C   UNL A   1      43.046  27.379  30.027  1.00  0.00     0.049 A 
ATOM     51  C   UNL A   1      41.178  30.481  34.281  1.00  0.00     0.074 A 
ATOM     52  C   UNL A   1      44.257  26.733  30.213  1.00  0.00     0.029 A 
ATOM     53  N   UNL A   1      42.741  28.009  31.223  1.00  0.00    -0.354 N 
ATOM     54  N   UNL A   1      41.750  29.724  33.379  1.00  0.00    -0.248 NA
ATOM     55  C   UNL A   1      41.845  30.466  35.591  1.00  0.00     0.031 C 
ATOM     56  C   UNL A   1      44.673  26.952  31.532  1.00  0.00     0.029 A 
ATOM     57  C   UNL A   1      43.731  27.753  32.158  1.00  0.00     0.049 A 
ATOM     58  H   UNL A   1      41.940  28.558  31.384  1.00  0.00     0.167 HD
ATOM     59  C   UNL A   1      42.833  29.131  34.011  1.00  0.00     0.074 A 
ATOM     60  C   UNL A   1      42.856  29.638  35.367  1.00  0.00     0.031 C 
ATOM     61  C   UNL A   1      43.723  28.241  33.512  1.00  0.00     0.037 A 
BRANCH  48  62
ATOM     62  C   UNL A   1      42.673  26.646  27.649  1.00  0.00     0.064 A 
ATOM     63  C   UNL A   1      43.601  27.166  26.738  1.00  0.00     0.173 A 
ATOM     64  C   UNL A   1      42.205  25.339  27.444  1.00  0.00     0.173 A 
ATOM     65  F   UNL A   1      44.065  28.416  26.885  1.00  0.00    -0.203 F 
ATOM     66  C   UNL A   1      44.038  26.408  25.655  1.00  0.00     0.198 A 
ATOM     67  C   UNL A   1      42.656  24.579  26.369  1.00  0.00     0.198 A 
ATOM     68  F   UNL A   1      41.318  24.798  28.293  1.00  0.00    -0.203 F 
ATOM     69  F   UNL A   1      44.909  26.932  24.780  1.00  0.00    -0.200 F 
ATOM     70  C   UNL A   1      43.571  25.114  25.475  1.00  0.00     0.200 A 
ATOM     71  F   UNL A   1      42.209  23.326  26.201  1.00  0.00    -0.200 F 
ATOM     72  F   UNL A   1      44.001  24.383  24.437  1.00  0.00    -0.200 F 
ENDBRANCH  48  62
BRANCH  49  73
ATOM     73  C   UNL A   1      39.453  32.127  35.309  1.00  0.00     0.064 A 
ATOM     74  C   UNL A   1      39.808  33.475  35.439  1.00  0.00     0.173 A 
ATOM     75  C   UNL A   1      38.597  31.576  36.276  1.00  0.00     0.173 A 
ATOM     76  F   UNL A   1      40.645  34.035  34.554  1.00  0.00    -0.203 F 
ATOM     77  C   UNL A   1      39.318  34.247  36.490  1.00  0.00     0.198 A 
ATOM     78  C   UNL A   1      38.090  32.355  37.312  1.00  0.00     0.198 A 
ATOM     79  F   UNL A   1      38.234  30.288  36.195  1.00  0.00    -0.203 F 
ATOM     80  F   UNL A   1      39.686  35.530  36.605  1.00  0.00    -0.200 F 
ATOM     81  C   UNL A   1      38.451  33.689  37.420  1.00  0.00     0.200 A 
ATOM     82  F   UNL A   1      37.244  31.815  38.200  1.00  0.00    -0.200 F 
ATOM     83  F   UNL A   1      37.966  34.437  38.420  1.00  0.00    -0.200 F 
ENDBRANCH  49  73
BRANCH  61  84
ATOM     84  C   UNL A   1      44.781  27.744  34.445  1.00  0.00     0.064 A 
ATOM     85  C   UNL A   1      44.601  26.563  35.178  1.00  0.00     0.173 A 
ATOM     86  C   UNL A   1      45.992  28.434  34.589  1.00  0.00     0.173 A 
ATOM     87  F   UNL A   1      43.449  25.880  35.084  1.00  0.00    -0.203 F 
ATOM     88  C   UNL A   1      45.593  26.096  36.034  1.00  0.00     0.198 A 
ATOM     89  C   UNL A   1      46.988  27.957  35.435  1.00  0.00     0.198 A 
ATOM     90  F   UNL A   1      46.208  29.569  33.908  1.00  0.00    -0.203 F 
ATOM     91  F   UNL A   1      45.389  24.983  36.751  1.00  0.00    -0.200 F 
ATOM     92  C   UNL A   1      46.788  26.791  36.160  1.00  0.00     0.200 A 
ATOM     93  F   UNL A   1      48.143  28.627  35.553  1.00  0.00    -0.200 F 
ATOM     94  F   UNL A   1      47.742  26.342  36.985  1.00  0.00    -0.200 F 
ENDBRANCH  61  84
ENDBRANCH  35  36
ENDBRANCH  28  30
ENDBRANCH  27  28
ENDBRANCH  26  27
ENDBRANCH   1  26
TORSDOF 16
ENDMDL
MODEL 2
REMARK VINA RESULT:     -12.0      0.292      1.250
REMARK SMILES CCOC(=O)C1=NN(c2ccc(Cl)cc2[N+](=O)[O-])[C@@](C)(C(=O)OCCOC(=O)c2ccc(-c3c4nc(c(-c5c(F)c(F)c(F)c(F)c5F)c5ccc([nH]5)c(-c5c(F)c(F)c(F)c(F)c5F)c5nc(c(-c6c(F)c(F)c(F)c(F)c6F)c6ccc3[nH]6)C=C5)C=C4)cc2)C1
REMARK SMILES IDX 24 1 23 2 21 3 22 4 19 5 6 6 7 7 92 8 8 9 20 10 4 11 5 12
REMARK SMILES IDX 3 13 2 14 1 15 9 16 10 17 15 18 11 19 14 20 12 21 13 22
REMARK SMILES IDX 16 23 17 24 18 25 25 26 26 27 27 28 28 29 29 30 30 31 91 32
REMARK SMILES IDX 31 33 90 34 32 35 33 36 34 37 84 38 35 39 89 40 83 41 85 42
REMARK SMILES IDX 36 43 88 44 82 45 81 46 37 48 69 49 49 50 68 51 50 52 53 53
REMARK SMILES IDX 67 54 86 55 51 56 52 57 66 59 87 60 54 61 38 62 39 63 47 64
REMARK SMILES IDX 40 65 41 66 45 67 48 68 42 69 43 70 46 71 44 72 70 73 71 74
REMARK SMILES IDX 79 75 72 76 73 77 77 78 80 79 74 80 75 81 78 82 76 83 55 84
REMARK SMILES IDX 56 85 64 86 57 87 58 88 62 89 65 90 59 91 60 92 63 93 61 94
REMARK H PARENT 85 47 53 58
REMARK Flexibility Score: inf
ROOT
ATOM      1  C   UNL A   1      31.999  27.893  26.729  1.00  0.00     0.274 C 
ENDROOT
BRANCH   1   2
ATOM      2  O   UNL A   1      30.909  27.017  26.364  1.00  0.00    -0.460 OA
BRANCH   2   3
ATOM      3  C   UNL A   1      31.213  25.715  26.124  1.00  0.00     0.334 C 
ATOM      4  O   UNL A   1      31.486  24.897  26.999  1.00  0.00    -0.249 OA
BRANCH   3   5
ATOM      5  C   UNL A   1      31.257  25.355  24.625  1.00  0.00     0.163 C 
ATOM      6  C   UNL A   1      31.490  27.196  23.237  1.00  0.00     0.149 C 
ATOM      7  N   UNL A   1      32.691  26.715  23.314  1.00  0.00    -0.168 NA
ATOM      8  C   UNL A   1      30.404  26.368  23.831  1.00  0.00     0.108 C 
ATOM      9  N   UNL A   1      32.598  25.541  24.007  1.00  0.00    -0.241 N 
ATOM     10  C   UNL A   1      30.648  23.963  24.483  1.00  0.00     0.050 C 
BRANCH   6  11
ATOM     11  C   UNL A   1      31.158  28.474  22.518  1.00  0.00     0.354 C 
ATOM     12  O   UNL A   1      31.955  29.383  22.394  1.00  0.00    -0.245 OA
BRANCH  11  13
ATOM     13  O   UNL A   1      29.875  28.423  22.108  1.00  0.00    -0.461 OA
BRANCH  13  14
ATOM     14  C   UNL A   1      29.232  29.696  21.944  1.00  0.00     0.230 C 
ATOM     15  C   UNL A   1      27.876  29.681  22.623  1.00  0.00     0.049 C 
ENDBRANCH  13  14
ENDBRANCH  11  13
ENDBRANCH   6  11
BRANCH   9  16
ATOM     16  C   UNL A   1      33.736  24.750  24.102  1.00  0.00     0.138 A 
ATOM     17  C   UNL A   1      34.642  24.911  25.163  1.00  0.00     0.037 A 
ATOM     18  C   UNL A   1      34.018  23.673  23.234  1.00  0.00     0.295 A 
ATOM     19  C   UNL A   1      35.765  24.085  25.323  1.00  0.00     0.023 A 
ATOM     20  C   UNL A   1      35.142  22.839  23.367  1.00  0.00     0.108 A 
ATOM     21  C   UNL A   1      36.013  23.058  24.422  1.00  0.00     0.048 A 
ATOM     22  Cl  UNL A   1      37.391  22.052  24.623  1.00  0.00    -0.084 Cl
BRANCH  18  23
ATOM     23  N   UNL A   1      33.183  23.408  22.083  1.00  0.00     0.065 N 
ATOM     24  O   UNL A   1      33.281  24.198  21.134  1.00  0.00    -0.258 OA
ATOM     25  O   UNL A   1      32.553  22.341  22.075  1.00  0.00    -0.258 OA
ENDBRANCH  18  23
ENDBRANCH   9  16
ENDBRANCH   3   5
ENDBRANCH   2   3
ENDBRANCH   1   2
BRANCH   1  26
ATOM     26  C   UNL A   1      31.769  29.307  26.197  1.00  0.00     0.275 C 
BRANCH  26  27
ATOM     27  O   UNL A   1      33.042  29.951  26.057  1.00  0.00    -0.458 OA
BRANCH  27  28
ATOM     28  C   UNL A   1      33.248  31.037  26.839  1.00  0.00     0.338 C 
ATOM     29  O   UNL A   1      32.567  32.043  26.885  1.00  0.00    -0.246 OA
BRANCH  28  30
ATOM     30  C   UNL A   1      34.483  30.828  27.640  1.00  0.00     0.060 A 
ATOM     31  C   UNL A   1      35.366  31.878  27.910  1.00  0.00     0.016 A 
ATOM     32  C   UNL A   1      34.778  29.547  28.109  1.00  0.00     0.016 A 
ATOM     33  C   UNL A   1      36.566  31.641  28.580  1.00  0.00     0.010 A 
ATOM     34  C   UNL A   1      35.937  29.328  28.861  1.00  0.00     0.010 A 
ATOM     35  C   UNL A   1      36.856  30.367  29.085  1.00  0.00    -0.014 A 
BRANCH  35  36
ATOM     36  C   UNL A   1      38.117  30.111  29.832  1.00  0.00     0.031 A 
ATOM     37  C   UNL A   1      39.176  29.218  29.245  1.00  0.00     0.074 A 
ATOM     38  C   UNL A   1      38.321  30.670  31.042  1.00  0.00     0.049 A 
ATOM     39  N   UNL A   1      40.239  28.709  29.816  1.00  0.00    -0.248 NA
ATOM     40  C   UNL A   1      39.018  28.844  27.831  1.00  0.00     0.031 C 
ATOM     41  C   UNL A   1      37.409  31.595  31.716  1.00  0.00     0.029 A 
ATOM     42  N   UNL A   1      39.366  30.537  31.925  1.00  0.00    -0.354 N 
ATOM     43  C   UNL A   1      40.845  27.917  28.851  1.00  0.00     0.074 A 
ATOM     44  C   UNL A   1      40.038  28.016  27.653  1.00  0.00     0.031 C 
ATOM     45  C   UNL A   1      37.946  31.973  32.885  1.00  0.00     0.029 A 
ATOM     46  C   UNL A   1      39.194  31.244  33.089  1.00  0.00     0.049 A 
ATOM     47  H   UNL A   1      40.162  29.988  31.740  1.00  0.00     0.167 HD
ATOM     48  C   UNL A   1      41.972  27.174  28.958  1.00  0.00     0.037 A 
ATOM     49  C   UNL A   1      39.922  31.265  34.222  1.00  0.00     0.037 A 
ATOM     50  C   UNL A   1      42.800  27.108  30.133  1.00  0.00     0.049 A 
ATOM     51  C   UNL A   1      41.121  30.371  34.345  1.00  0.00     0.074 A 
ATOM     52  C   UNL A   1      43.980  26.408  30.321  1.00  0.00     0.029 A 
ATOM     53  N   UNL A   1      42.536  27.773  31.320  1.00  0.00    -0.354 N 
ATOM     54  N   UNL A   1      41.647  29.572  33.452  1.00  0.00    -0.248 NA
ATOM     55  C   UNL A   1      41.798  30.348  35.649  1.00  0.00     0.031 C 
ATOM     56  C   UNL A   1      44.418  26.631  31.632  1.00  0.00     0.029 A 
ATOM     57  C   UNL A   1      43.521  27.487  32.251  1.00  0.00     0.049 A 
ATOM     58  H   UNL A   1      41.763  28.362  31.478  1.00  0.00     0.167 HD
ATOM     59  C   UNL A   1      42.707  28.940  34.086  1.00  0.00     0.074 A 
ATOM     60  C   UNL A   1      42.766  29.469  35.432  1.00  0.00     0.031 C 
ATOM     61  C   UNL A   1      43.548  27.999  33.596  1.00  0.00     0.037 A 
BRANCH  48  62
ATOM     62  C   UNL A   1      42.370  26.350  27.772  1.00  0.00     0.064 A 
ATOM     63  C   UNL A   1      43.350  26.787  26.872  1.00  0.00     0.173 A 
ATOM     64  C   UNL A   1      41.800  25.085  27.567  1.00  0.00     0.173 A 
ATOM     65  F   UNL A   1      43.912  27.997  27.019  1.00  0.00    -0.203 F 
ATOM     66  C   UNL A   1      43.739  25.989  25.799  1.00  0.00     0.198 A 
ATOM     67  C   UNL A   1      42.203  24.283  26.504  1.00  0.00     0.198 A 
ATOM     68  F   UNL A   1      40.860  24.624  28.406  1.00  0.00    -0.203 F 
ATOM     69  F   UNL A   1      44.661  26.435  24.934  1.00  0.00    -0.200 F 
ATOM     70  C   UNL A   1      43.170  24.737  25.620  1.00  0.00     0.200 A 
ATOM     71  F   UNL A   1      41.657  23.070  26.336  1.00  0.00    -0.200 F 
ATOM     72  F   UNL A   1      43.553  23.966  24.592  1.00  0.00    -0.200 F 
ENDBRANCH  48  62
BRANCH  49  73
ATOM     73  C   UNL A   1      39.485  32.116  35.357  1.00  0.00     0.064 A 
ATOM     74  C   UNL A   1      39.925  33.440  35.472  1.00  0.00     0.173 A 
ATOM     75  C   UNL A   1      38.593  31.632  36.327  1.00  0.00     0.173 A 
ATOM     76  F   UNL A   1      40.798  33.935  34.584  1.00  0.00    -0.203 F 
ATOM     77  C   UNL A   1      39.482  34.254  36.513  1.00  0.00     0.198 A 
ATOM     78  C   UNL A   1      38.135  32.453  37.353  1.00  0.00     0.198 A 
ATOM     79  F   UNL A   1      38.149  30.369  36.260  1.00  0.00    -0.203 F 
ATOM     80  F   UNL A   1      39.931  35.512  36.615  1.00  0.00    -0.200 F 
ATOM     81  C   UNL A   1      38.579  33.763  37.446  1.00  0.00     0.200 A 
ATOM     82  F   UNL A   1      37.253  31.979  38.244  1.00  0.00    -0.200 F 
ATOM     83  F   UNL A   1      38.141  34.552  38.436  1.00  0.00    -0.200 F 
ENDBRANCH  49  73
BRANCH  61  84
ATOM     84  C   UNL A   1      44.591  27.469  34.529  1.00  0.00     0.064 A 
ATOM     85  C   UNL A   1      45.820  28.124  34.684  1.00  0.00     0.173 A 
ATOM     86  C   UNL A   1      44.353  26.318  35.292  1.00  0.00     0.173 A 
ATOM     87  F   UNL A   1      46.097  29.220  33.960  1.00  0.00    -0.203 F 
ATOM     88  C   UNL A   1      46.782  27.637  35.563  1.00  0.00     0.198 A 
ATOM     89  C   UNL A   1      45.311  25.842  36.181  1.00  0.00     0.198 A 
ATOM     90  F   UNL A   1      43.191  25.658  35.175  1.00  0.00    -0.203 F 
ATOM     91  F   UNL A   1      47.964  28.259  35.674  1.00  0.00    -0.200 F 
ATOM     92  C   UNL A   1      46.526  26.499  36.315  1.00  0.00     0.200 A 
ATOM     93  F   UNL A   1      45.061  24.743  36.908  1.00  0.00    -0.200 F 
ATOM     94  F   UNL A   1      47.453  26.029  37.160  1.00  0.00    -0.200 F 
ENDBRANCH  61  84
ENDBRANCH  35  36
ENDBRANCH  28  30
ENDBRANCH  27  28
ENDBRANCH  26  27
ENDBRANCH   1  26
TORSDOF 16
ENDMDL
MODEL 3
REMARK VINA RESULT:     -11.9      4.192      9.472
REMARK SMILES CCOC(=O)C1=NN(c2ccc(Cl)cc2[N+](=O)[O-])[C@@](C)(C(=O)OCCOC(=O)c2ccc(-c3c4nc(c(-c5c(F)c(F)c(F)c(F)c5F)c5ccc([nH]5)c(-c5c(F)c(F)c(F)c(F)c5F)c5nc(c(-c6c(F)c(F)c(F)c(F)c6F)c6ccc3[nH]6)C=C5)C=C4)cc2)C1
REMARK SMILES IDX 24 1 23 2 21 3 22 4 19 5 6 6 7 7 92 8 8 9 20 10 4 11 5 12
REMARK SMILES IDX 3 13 2 14 1 15 9 16 10 17 15 18 11 19 14 20 12 21 13 22
REMARK SMILES IDX 16 23 17 24 18 25 25 26 26 27 27 28 28 29 29 30 30 31 91 32
REMARK SMILES IDX 31 33 90 34 32 35 33 36 34 37 84 38 35 39 89 40 83 41 85 42
REMARK SMILES IDX 36 43 88 44 82 45 81 46 37 48 69 49 49 50 68 51 50 52 53 53
REMARK SMILES IDX 67 54 86 55 51 56 52 57 66 59 87 60 54 61 38 62 39 63 47 64
REMARK SMILES IDX 40 65 41 66 45 67 48 68 42 69 43 70 46 71 44 72 70 73 71 74
REMARK SMILES IDX 79 75 72 76 73 77 77 78 80 79 74 80 75 81 78 82 76 83 55 84
REMARK SMILES IDX 56 85 64 86 57 87 58 88 62 89 65 90 59 91 60 92 63 93 61 94
REMARK H PARENT 85 47 53 58
REMARK Flexibility Score: inf
ROOT
ATOM      1  C   UNL A   1      35.870  23.170  23.694  1.00  0.00     0.274 C 
ENDROOT
BRANCH   1   2
ATOM      2  O   UNL A   1      34.710  23.071  22.837  1.00  0.00    -0.460 OA
BRANCH   2   3
ATOM      3  C   UNL A   1      33.852  24.123  22.832  1.00  0.00     0.334 C 
ATOM      4  O   UNL A   1      34.082  25.199  22.284  1.00  0.00    -0.249 OA
BRANCH   3   5
ATOM      5  C   UNL A   1      32.564  23.878  23.644  1.00  0.00     0.163 C 
ATOM      6  C   UNL A   1      32.758  22.163  25.190  1.00  0.00     0.149 C 
ATOM      7  N   UNL A   1      32.916  23.236  25.900  1.00  0.00    -0.168 NA
ATOM      8  C   UNL A   1      32.327  22.358  23.779  1.00  0.00     0.108 C 
ATOM      9  N   UNL A   1      32.671  24.293  25.069  1.00  0.00    -0.241 N 
ATOM     10  C   UNL A   1      31.415  24.500  22.857  1.00  0.00     0.050 C 
BRANCH   6  11
ATOM     11  C   UNL A   1      32.907  20.775  25.750  1.00  0.00     0.354 C 
ATOM     12  O   UNL A   1      33.638  20.520  26.687  1.00  0.00    -0.245 OA
BRANCH  11  13
ATOM     13  O   UNL A   1      32.152  19.928  25.021  1.00  0.00    -0.461 OA
BRANCH  13  14
ATOM     14  C   UNL A   1      32.856  18.812  24.455  1.00  0.00     0.230 C 
ATOM     15  C   UNL A   1      32.529  17.549  25.228  1.00  0.00     0.049 C 
ENDBRANCH  13  14
ENDBRANCH  11  13
ENDBRANCH   6  11
BRANCH   9  16
ATOM     16  C   UNL A   1      32.632  25.564  25.628  1.00  0.00     0.138 A 
ATOM     17  C   UNL A   1      33.795  26.345  25.731  1.00  0.00     0.037 A 
ATOM     18  C   UNL A   1      31.443  26.209  26.029  1.00  0.00     0.295 A 
ATOM     19  C   UNL A   1      33.777  27.656  26.229  1.00  0.00     0.023 A 
ATOM     20  C   UNL A   1      31.401  27.517  26.542  1.00  0.00     0.108 A 
ATOM     21  C   UNL A   1      32.582  28.233  26.638  1.00  0.00     0.048 A 
ATOM     22  Cl  UNL A   1      32.569  29.839  27.250  1.00  0.00    -0.084 Cl
BRANCH  18  23
ATOM     23  N   UNL A   1      30.175  25.514  26.003  1.00  0.00     0.065 N 
ATOM     24  O   UNL A   1      29.997  24.653  26.875  1.00  0.00    -0.258 OA
ATOM     25  O   UNL A   1      29.317  25.930  25.211  1.00  0.00    -0.258 OA
ENDBRANCH  18  23
ENDBRANCH   9  16
ENDBRANCH   3   5
ENDBRANCH   2   3
ENDBRANCH   1   2
BRANCH   1  26
ATOM     26  C   UNL A   1      36.261  21.801  24.251  1.00  0.00     0.275 C 
BRANCH  26  27
ATOM     27  O   UNL A   1      36.768  21.981  25.580  1.00  0.00    -0.458 OA
BRANCH  27  28
ATOM     28  C   UNL A   1      38.054  21.606  25.780  1.00  0.00     0.338 C 
ATOM     29  O   UNL A   1      38.524  20.496  25.621  1.00  0.00    -0.246 OA
BRANCH  28  30
ATOM     30  C   UNL A   1      38.828  22.778  26.265  1.00  0.00     0.060 A 
ATOM     31  C   UNL A   1      38.360  24.085  26.096  1.00  0.00     0.016 A 
ATOM     32  C   UNL A   1      40.063  22.568  26.879  1.00  0.00     0.016 A 
ATOM     33  C   UNL A   1      39.146  25.174  26.471  1.00  0.00     0.010 A 
ATOM     34  C   UNL A   1      40.810  23.657  27.339  1.00  0.00     0.010 A 
ATOM     35  C   UNL A   1      40.372  24.974  27.119  1.00  0.00    -0.014 A 
BRANCH  35  36
ATOM     36  C   UNL A   1      41.202  26.129  27.555  1.00  0.00     0.031 A 
ATOM     37  C   UNL A   1      40.606  27.205  28.421  1.00  0.00     0.074 A 
ATOM     38  C   UNL A   1      42.493  26.227  27.175  1.00  0.00     0.049 A 
ATOM     39  N   UNL A   1      41.093  28.380  28.734  1.00  0.00    -0.248 NA
ATOM     40  C   UNL A   1      39.287  26.926  29.012  1.00  0.00     0.031 C 
ATOM     41  C   UNL A   1      43.221  25.238  26.378  1.00  0.00     0.029 A 
ATOM     42  N   UNL A   1      43.422  27.212  27.407  1.00  0.00    -0.354 N 
ATOM     43  C   UNL A   1      40.123  28.997  29.510  1.00  0.00     0.074 A 
ATOM     44  C   UNL A   1      39.019  28.067  29.631  1.00  0.00     0.031 C 
ATOM     45  C   UNL A   1      44.488  25.647  26.218  1.00  0.00     0.029 A 
ATOM     46  C   UNL A   1      44.637  26.969  26.815  1.00  0.00     0.049 A 
ATOM     47  H   UNL A   1      43.235  28.014  27.946  1.00  0.00     0.167 HD
ATOM     48  C   UNL A   1      40.151  30.230  30.069  1.00  0.00     0.037 A 
ATOM     49  C   UNL A   1      45.734  27.744  26.710  1.00  0.00     0.037 A 
ATOM     50  C   UNL A   1      41.262  31.140  29.988  1.00  0.00     0.049 A 
ATOM     51  C   UNL A   1      45.711  29.136  27.268  1.00  0.00     0.074 A 
ATOM     52  C   UNL A   1      41.393  32.397  30.554  1.00  0.00     0.029 A 
ATOM     53  N   UNL A   1      42.439  30.886  29.302  1.00  0.00    -0.354 N 
ATOM     54  N   UNL A   1      44.763  29.738  27.941  1.00  0.00    -0.248 NA
ATOM     55  C   UNL A   1      46.893  29.972  27.012  1.00  0.00     0.031 C 
ATOM     56  C   UNL A   1      42.642  32.915  30.188  1.00  0.00     0.029 A 
ATOM     57  C   UNL A   1      43.295  31.968  29.414  1.00  0.00     0.049 A 
ATOM     58  H   UNL A   1      42.637  30.057  28.808  1.00  0.00     0.167 HD
ATOM     59  C   UNL A   1      45.223  31.025  28.176  1.00  0.00     0.074 A 
ATOM     60  C   UNL A   1      46.549  31.110  27.598  1.00  0.00     0.031 C 
ATOM     61  C   UNL A   1      44.598  32.047  28.808  1.00  0.00     0.037 A 
BRANCH  48  62
ATOM     62  C   UNL A   1      38.928  30.681  30.808  1.00  0.00     0.064 A 
ATOM     63  C   UNL A   1      37.829  31.233  30.138  1.00  0.00     0.173 A 
ATOM     64  C   UNL A   1      38.838  30.508  32.197  1.00  0.00     0.173 A 
ATOM     65  F   UNL A   1      37.876  31.432  28.813  1.00  0.00    -0.203 F 
ATOM     66  C   UNL A   1      36.683  31.607  30.837  1.00  0.00     0.198 A 
ATOM     67  C   UNL A   1      37.686  30.867  32.890  1.00  0.00     0.198 A 
ATOM     68  F   UNL A   1      39.865  29.979  32.880  1.00  0.00    -0.203 F 
ATOM     69  F   UNL A   1      35.651  32.156  30.181  1.00  0.00    -0.200 F 
ATOM     70  C   UNL A   1      36.610  31.418  32.209  1.00  0.00     0.200 A 
ATOM     71  F   UNL A   1      37.615  30.677  34.215  1.00  0.00    -0.200 F 
ATOM     72  F   UNL A   1      35.503  31.769  32.877  1.00  0.00    -0.200 F 
ENDBRANCH  48  62
BRANCH  49  73
ATOM     73  C   UNL A   1      46.922  27.234  25.981  1.00  0.00     0.064 A 
ATOM     74  C   UNL A   1      47.088  27.485  24.613  1.00  0.00     0.173 A 
ATOM     75  C   UNL A   1      47.930  26.516  26.644  1.00  0.00     0.173 A 
ATOM     76  F   UNL A   1      46.137  28.143  23.934  1.00  0.00    -0.203 F 
ATOM     77  C   UNL A   1      48.223  27.045  23.936  1.00  0.00     0.198 A 
ATOM     78  C   UNL A   1      49.073  26.097  25.971  1.00  0.00     0.198 A 
ATOM     79  F   UNL A   1      47.812  26.248  27.952  1.00  0.00    -0.203 F 
ATOM     80  F   UNL A   1      48.351  27.281  22.624  1.00  0.00    -0.200 F 
ATOM     81  C   UNL A   1      49.220  26.361  24.617  1.00  0.00     0.200 A 
ATOM     82  F   UNL A   1      50.039  25.448  26.636  1.00  0.00    -0.200 F 
ATOM     83  F   UNL A   1      50.319  25.954  23.969  1.00  0.00    -0.200 F 
ENDBRANCH  49  73
BRANCH  61  84
ATOM     84  C   UNL A   1      45.334  33.348  28.887  1.00  0.00     0.064 A 
ATOM     85  C   UNL A   1      46.221  33.611  29.941  1.00  0.00     0.173 A 
ATOM     86  C   UNL A   1      45.175  34.324  27.895  1.00  0.00     0.173 A 
ATOM     87  F   UNL A   1      46.389  32.711  30.922  1.00  0.00    -0.203 F 
ATOM     88  C   UNL A   1      46.914  34.816  30.004  1.00  0.00     0.198 A 
ATOM     89  C   UNL A   1      45.882  35.521  27.953  1.00  0.00     0.198 A 
ATOM     90  F   UNL A   1      44.337  34.114  26.869  1.00  0.00    -0.203 F 
ATOM     91  F   UNL A   1      47.732  35.063  31.036  1.00  0.00    -0.200 F 
ATOM     92  C   UNL A   1      46.748  35.768  29.009  1.00  0.00     0.200 A 
ATOM     93  F   UNL A   1      45.722  36.440  26.990  1.00  0.00    -0.200 F 
ATOM     94  F   UNL A   1      47.415  36.928  29.072  1.00  0.00    -0.200 F 
ENDBRANCH  61  84
ENDBRANCH  35  36
ENDBRANCH  28  30
ENDBRANCH  27  28
ENDBRANCH  26  27
ENDBRANCH   1  26
TORSDOF 16
ENDMDL
