MODEL 1
REMARK VINA RESULT:     -12.9      0.000      0.000
REMARK SMILES O=C(CN1C(=O)/C(=C/c2cccs2)SC1=S)Nc1ccc(O)cc1C(=O)OCCOC(=O)c1ccc(-c2c3nc(c(-c4c(F)c(F)c(F)c(F)c4F)c4ccc([nH]4)c(-c4c(F)c(F)c(F)c(F)c4F)c4nc(c(-c5c(F)c(F)c(F)c(F)c5F)c5ccc2[nH]5)C=C4)C=C3)cc1
REMARK SMILES IDX 28 1 27 2 25 3 26 4 24 5 18 6 19 7 20 8 23 9 21 10 17 11
REMARK SMILES IDX 1 12 2 13 3 15 4 16 5 17 15 18 6 19 7 20 14 21 16 22 8 23
REMARK SMILES IDX 9 24 10 25 13 26 11 27 12 28 22 29 29 31 30 32 31 33 32 34
REMARK SMILES IDX 33 35 34 36 95 37 35 38 94 39 36 40 37 41 38 42 88 43 39 44
REMARK SMILES IDX 93 45 87 46 89 47 40 48 92 49 86 50 85 51 41 53 73 54 53 55
REMARK SMILES IDX 72 56 54 57 57 58 71 59 90 60 55 61 56 62 70 64 91 65 58 66
REMARK SMILES IDX 42 67 43 68 51 69 44 70 45 71 49 72 52 73 46 74 47 75 50 76
REMARK SMILES IDX 48 77 74 78 75 79 83 80 76 81 77 82 81 83 84 84 78 85 79 86
REMARK SMILES IDX 82 87 80 88 59 89 60 90 68 91 61 92 62 93 66 94 69 95 63 96
REMARK SMILES IDX 64 97 67 98 65 99
REMARK H PARENT 17 14 22 30 89 52 57 63
REMARK Flexibility Score: inf
ROOT
ATOM      1  C   UNL A   1      31.858  30.848  26.787  1.00  0.00     0.275 C 
ENDROOT
BRANCH   1   2
ATOM      2  O   UNL A   1      31.936  30.482  25.388  1.00  0.00    -0.458 OA
BRANCH   2   3
ATOM      3  C   UNL A   1      32.254  29.183  25.141  1.00  0.00     0.340 C 
ATOM      4  O   UNL A   1      33.321  28.659  25.419  1.00  0.00    -0.246 OA
BRANCH   3   5
ATOM      5  C   UNL A   1      31.108  28.396  24.596  1.00  0.00     0.087 A 
ATOM      6  C   UNL A   1      30.889  27.010  24.759  1.00  0.00     0.056 A 
ATOM      7  C   UNL A   1      29.767  26.449  24.119  1.00  0.00     0.031 A 
ATOM      8  C   UNL A   1      28.900  27.213  23.327  1.00  0.00     0.048 A 
ATOM      9  C   UNL A   1      30.197  29.162  23.835  1.00  0.00     0.064 A 
ATOM     10  C   UNL A   1      29.129  28.566  23.185  1.00  0.00     0.116 A 
BRANCH   6  11
ATOM     11  N   UNL A   1      31.743  26.221  25.584  1.00  0.00    -0.324 N 
ATOM     12  O   UNL A   1      33.014  25.087  24.000  1.00  0.00    -0.273 OA
ATOM     13  C   UNL A   1      32.709  25.313  25.170  1.00  0.00     0.244 C 
ATOM     14  H   UNL A   1      31.636  26.334  26.557  1.00  0.00     0.170 HD
BRANCH  13  15
ATOM     15  C   UNL A   1      33.240  24.367  26.256  1.00  0.00     0.227 C 
BRANCH  15  16
ATOM     16  N   UNL A   1      33.665  23.046  25.803  1.00  0.00    -0.283 N 
ATOM     17  C   UNL A   1      32.700  22.058  25.698  1.00  0.00     0.266 C 
ATOM     18  C   UNL A   1      34.965  22.666  25.569  1.00  0.00     0.148 C 
ATOM     19  O   UNL A   1      31.508  22.196  25.926  1.00  0.00    -0.268 OA
ATOM     20  C   UNL A   1      33.320  20.766  25.291  1.00  0.00     0.081 C 
ATOM     21  S   UNL A   1      35.011  20.977  25.092  1.00  0.00    -0.054 SA
ATOM     22  S   UNL A   1      36.341  23.600  25.675  1.00  0.00    -0.052 S 
ATOM     23  C   UNL A   1      32.557  19.680  25.106  1.00  0.00     0.040 C 
BRANCH  23  24
ATOM     24  C   UNL A   1      33.002  18.403  24.649  1.00  0.00     0.028 A 
ATOM     25  C   UNL A   1      33.623  17.995  23.478  1.00  0.00     0.020 A 
ATOM     26  S   UNL A   1      32.792  17.045  25.701  1.00  0.00    -0.144 S 
ATOM     27  C   UNL A   1      33.855  16.589  23.419  1.00  0.00     0.012 A 
ATOM     28  C   UNL A   1      33.447  15.954  24.567  1.00  0.00     0.065 A 
ENDBRANCH  23  24
ENDBRANCH  15  16
ENDBRANCH  13  15
ENDBRANCH   6  11
BRANCH  10  29
ATOM     29  O   UNL A   1      28.340  29.349  22.400  1.00  0.00    -0.508 OA
ATOM     30  H   UNL A   1      27.849  30.049  22.781  1.00  0.00     0.293 HD
ENDBRANCH  10  29
ENDBRANCH   3   5
ENDBRANCH   2   3
ENDBRANCH   1   2
BRANCH   1  31
ATOM     31  C   UNL A   1      31.693  32.361  26.954  1.00  0.00     0.275 C 
BRANCH  31  32
ATOM     32  O   UNL A   1      32.965  33.024  26.816  1.00  0.00    -0.458 OA
BRANCH  32  33
ATOM     33  C   UNL A   1      33.457  33.543  27.962  1.00  0.00     0.338 C 
ATOM     34  O   UNL A   1      32.898  34.321  28.721  1.00  0.00    -0.246 OA
BRANCH  33  35
ATOM     35  C   UNL A   1      34.728  32.884  28.295  1.00  0.00     0.060 A 
ATOM     36  C   UNL A   1      34.654  31.558  28.716  1.00  0.00     0.016 A 
ATOM     37  C   UNL A   1      35.948  33.561  28.302  1.00  0.00     0.016 A 
ATOM     38  C   UNL A   1      35.781  30.905  29.197  1.00  0.00     0.010 A 
ATOM     39  C   UNL A   1      37.090  32.900  28.777  1.00  0.00     0.010 A 
ATOM     40  C   UNL A   1      37.006  31.579  29.261  1.00  0.00    -0.014 A 
BRANCH  40  41
ATOM     41  C   UNL A   1      38.140  30.938  29.975  1.00  0.00     0.031 A 
ATOM     42  C   UNL A   1      38.335  31.211  31.441  1.00  0.00     0.074 A 
ATOM     43  C   UNL A   1      38.931  30.044  29.351  1.00  0.00     0.049 A 
ATOM     44  N   UNL A   1      39.288  30.813  32.245  1.00  0.00    -0.248 NA
ATOM     45  C   UNL A   1      37.315  32.051  32.090  1.00  0.00     0.031 C 
ATOM     46  C   UNL A   1      38.800  29.630  27.956  1.00  0.00     0.029 A 
ATOM     47  N   UNL A   1      39.989  29.306  29.822  1.00  0.00    -0.354 N 
ATOM     48  C   UNL A   1      39.008  31.388  33.478  1.00  0.00     0.074 A 
ATOM     49  C   UNL A   1      37.800  32.168  33.318  1.00  0.00     0.031 C 
ATOM     50  C   UNL A   1      39.720  28.688  27.691  1.00  0.00     0.029 A 
ATOM     51  C   UNL A   1      40.538  28.471  28.881  1.00  0.00     0.049 A 
ATOM     52  H   UNL A   1      40.320  29.368  30.747  1.00  0.00     0.167 HD
ATOM     53  C   UNL A   1      39.696  31.274  34.639  1.00  0.00     0.037 A 
ATOM     54  C   UNL A   1      41.594  27.638  28.968  1.00  0.00     0.037 A 
ATOM     55  C   UNL A   1      40.868  30.458  34.811  1.00  0.00     0.049 A 
ATOM     56  C   UNL A   1      42.350  27.539  30.265  1.00  0.00     0.074 A 
ATOM     57  C   UNL A   1      41.651  30.293  35.940  1.00  0.00     0.029 A 
ATOM     58  N   UNL A   1      41.411  29.646  33.825  1.00  0.00    -0.354 N 
ATOM     59  N   UNL A   1      42.122  28.142  31.406  1.00  0.00    -0.248 NA
ATOM     60  C   UNL A   1      43.520  26.649  30.283  1.00  0.00     0.031 C 
ATOM     61  C   UNL A   1      42.683  29.398  35.630  1.00  0.00     0.029 A 
ATOM     62  C   UNL A   1      42.517  28.976  34.321  1.00  0.00     0.049 A 
ATOM     63  H   UNL A   1      41.062  29.560  32.909  1.00  0.00     0.167 HD
ATOM     64  C   UNL A   1      43.099  27.691  32.281  1.00  0.00     0.074 A 
ATOM     65  C   UNL A   1      43.917  26.750  31.544  1.00  0.00     0.031 C 
ATOM     66  C   UNL A   1      43.306  28.028  33.577  1.00  0.00     0.037 A 
BRANCH  53  67
ATOM     67  C   UNL A   1      39.213  32.085  35.806  1.00  0.00     0.064 A 
ATOM     68  C   UNL A   1      39.638  33.405  36.018  1.00  0.00     0.173 A 
ATOM     69  C   UNL A   1      38.305  31.532  36.721  1.00  0.00     0.173 A 
ATOM     70  F   UNL A   1      40.520  33.973  35.183  1.00  0.00    -0.203 F 
ATOM     71  C   UNL A   1      39.192  34.131  37.121  1.00  0.00     0.198 A 
ATOM     72  C   UNL A   1      37.840  32.270  37.806  1.00  0.00     0.198 A 
ATOM     73  F   UNL A   1      37.866  30.274  36.561  1.00  0.00    -0.203 F 
ATOM     74  F   UNL A   1      39.649  35.372  37.333  1.00  0.00    -0.200 F 
ATOM     75  C   UNL A   1      38.290  33.564  38.010  1.00  0.00     0.200 A 
ATOM     76  F   UNL A   1      36.961  31.724  38.658  1.00  0.00    -0.200 F 
ATOM     77  F   UNL A   1      37.862  34.265  39.070  1.00  0.00    -0.200 F 
ENDBRANCH  53  67
BRANCH  54  78
ATOM     78  C   UNL A   1      42.003  26.833  27.787  1.00  0.00     0.064 A 
ATOM     79  C   UNL A   1      41.456  25.564  27.553  1.00  0.00     0.173 A 
ATOM     80  C   UNL A   1      42.957  27.310  26.876  1.00  0.00     0.173 A 
ATOM     81  F   UNL A   1      40.562  25.052  28.411  1.00  0.00    -0.203 F 
ATOM     82  C   UNL A   1      41.855  24.799  26.458  1.00  0.00     0.198 A 
ATOM     83  C   UNL A   1      43.336  26.556  25.768  1.00  0.00     0.198 A 
ATOM     84  F   UNL A   1      43.516  28.516  27.059  1.00  0.00    -0.203 F 
ATOM     85  F   UNL A   1      41.348  23.571  26.282  1.00  0.00    -0.200 F 
ATOM     86  C   UNL A   1      42.788  25.299  25.563  1.00  0.00     0.200 A 
ATOM     87  F   UNL A   1      44.232  27.047  24.900  1.00  0.00    -0.200 F 
ATOM     88  F   UNL A   1      43.169  24.564  24.510  1.00  0.00    -0.200 F 
ENDBRANCH  54  78
BRANCH  66  89
ATOM     89  C   UNL A   1      44.430  27.341  34.294  1.00  0.00     0.064 A 
ATOM     90  C   UNL A   1      45.716  27.894  34.347  1.00  0.00     0.173 A 
ATOM     91  C   UNL A   1      44.205  26.127  34.960  1.00  0.00     0.173 A 
ATOM     92  F   UNL A   1      45.983  29.046  33.713  1.00  0.00    -0.203 F 
ATOM     93  C   UNL A   1      46.747  27.244  35.022  1.00  0.00     0.198 A 
ATOM     94  C   UNL A   1      45.231  25.491  35.654  1.00  0.00     0.198 A 
ATOM     95  F   UNL A   1      42.989  25.560  34.944  1.00  0.00    -0.203 F 
ATOM     96  F   UNL A   1      47.979  27.768  35.023  1.00  0.00    -0.200 F 
ATOM     97  C   UNL A   1      46.502  26.047  35.678  1.00  0.00     0.200 A 
ATOM     98  F   UNL A   1      44.991  24.340  36.295  1.00  0.00    -0.200 F 
ATOM     99  F   UNL A   1      47.494  25.423  36.327  1.00  0.00    -0.200 F 
ENDBRANCH  66  89
ENDBRANCH  40  41
ENDBRANCH  33  35
ENDBRANCH  32  33
ENDBRANCH  31  32
ENDBRANCH   1  31
TORSDOF 16
ENDMDL
MODEL 2
REMARK VINA RESULT:     -12.9      1.925      2.559
REMARK SMILES O=C(CN1C(=O)/C(=C/c2cccs2)SC1=S)Nc1ccc(O)cc1C(=O)OCCOC(=O)c1ccc(-c2c3nc(c(-c4c(F)c(F)c(F)c(F)c4F)c4ccc([nH]4)c(-c4c(F)c(F)c(F)c(F)c4F)c4nc(c(-c5c(F)c(F)c(F)c(F)c5F)c5ccc2[nH]5)C=C4)C=C3)cc1
REMARK SMILES IDX 28 1 27 2 25 3 26 4 24 5 18 6 19 7 20 8 23 9 21 10 17 11
REMARK SMILES IDX 1 12 2 13 3 15 4 16 5 17 15 18 6 19 7 20 14 21 16 22 8 23
REMARK SMILES IDX 9 24 10 25 13 26 11 27 12 28 22 29 29 31 30 32 31 33 32 34
REMARK SMILES IDX 33 35 34 36 95 37 35 38 94 39 36 40 37 41 38 42 88 43 39 44
REMARK SMILES IDX 93 45 87 46 89 47 40 48 92 49 86 50 85 51 41 53 73 54 53 55
REMARK SMILES IDX 72 56 54 57 57 58 71 59 90 60 55 61 56 62 70 64 91 65 58 66
REMARK SMILES IDX 42 67 43 68 51 69 44 70 45 71 49 72 52 73 46 74 47 75 50 76
REMARK SMILES IDX 48 77 74 78 75 79 83 80 76 81 77 82 81 83 84 84 78 85 79 86
REMARK SMILES IDX 82 87 80 88 59 89 60 90 68 91 61 92 62 93 66 94 69 95 63 96
REMARK SMILES IDX 64 97 67 98 65 99
REMARK H PARENT 17 14 22 30 89 52 57 63
REMARK Flexibility Score: inf
ROOT
ATOM      1  C   UNL A   1      31.763  30.921  26.637  1.00  0.00     0.275 C 
ENDROOT
BRANCH   1   2
ATOM      2  O   UNL A   1      31.367  30.874  25.244  1.00  0.00    -0.458 OA
BRANCH   2   3
ATOM      3  C   UNL A   1      31.091  29.635  24.757  1.00  0.00     0.340 C 
ATOM      4  O   UNL A   1      31.691  28.615  25.058  1.00  0.00    -0.246 OA
BRANCH   3   5
ATOM      5  C   UNL A   1      29.875  29.607  23.892  1.00  0.00     0.087 A 
ATOM      6  C   UNL A   1      29.341  28.478  23.231  1.00  0.00     0.056 A 
ATOM      7  C   UNL A   1      28.208  28.677  22.418  1.00  0.00     0.031 A 
ATOM      8  C   UNL A   1      27.628  29.939  22.240  1.00  0.00     0.048 A 
ATOM      9  C   UNL A   1      29.249  30.864  23.742  1.00  0.00     0.064 A 
ATOM     10  C   UNL A   1      28.161  31.027  22.900  1.00  0.00     0.116 A 
BRANCH   6  11
ATOM     11  N   UNL A   1      29.898  27.180  23.422  1.00  0.00    -0.324 N 
ATOM     12  O   UNL A   1      31.395  27.043  21.645  1.00  0.00    -0.273 OA
ATOM     13  C   UNL A   1      30.845  26.546  22.628  1.00  0.00     0.244 C 
ATOM     14  H   UNL A   1      29.576  26.678  24.205  1.00  0.00     0.170 HD
BRANCH  13  15
ATOM     15  C   UNL A   1      31.014  25.040  22.870  1.00  0.00     0.227 C 
BRANCH  15  16
ATOM     16  N   UNL A   1      32.125  24.651  23.733  1.00  0.00    -0.283 N 
ATOM     17  C   UNL A   1      33.330  24.329  23.130  1.00  0.00     0.266 C 
ATOM     18  C   UNL A   1      32.051  24.474  25.094  1.00  0.00     0.148 C 
ATOM     19  O   UNL A   1      33.561  24.365  21.931  1.00  0.00    -0.268 OA
ATOM     20  C   UNL A   1      34.323  23.893  24.150  1.00  0.00     0.081 C 
ATOM     21  S   UNL A   1      33.611  23.956  25.710  1.00  0.00    -0.054 SA
ATOM     22  S   UNL A   1      30.735  24.714  26.088  1.00  0.00    -0.052 S 
ATOM     23  C   UNL A   1      35.568  23.558  23.782  1.00  0.00     0.040 C 
BRANCH  23  24
ATOM     24  C   UNL A   1      36.638  23.194  24.654  1.00  0.00     0.028 A 
ATOM     25  C   UNL A   1      37.364  23.913  25.591  1.00  0.00     0.020 A 
ATOM     26  S   UNL A   1      37.186  21.553  24.624  1.00  0.00    -0.144 S 
ATOM     27  C   UNL A   1      38.393  23.150  26.218  1.00  0.00     0.012 A 
ATOM     28  C   UNL A   1      38.405  21.848  25.780  1.00  0.00     0.065 A 
ENDBRANCH  23  24
ENDBRANCH  15  16
ENDBRANCH  13  15
ENDBRANCH   6  11
BRANCH  10  29
ATOM     29  O   UNL A   1      27.661  32.282  22.736  1.00  0.00    -0.508 OA
ATOM     30  H   UNL A   1      28.172  33.026  22.987  1.00  0.00     0.293 HD
ENDBRANCH  10  29
ENDBRANCH   3   5
ENDBRANCH   2   3
ENDBRANCH   1   2
BRANCH   1  31
ATOM     31  C   UNL A   1      31.729  32.355  27.172  1.00  0.00     0.275 C 
BRANCH  31  32
ATOM     32  O   UNL A   1      32.993  33.008  26.944  1.00  0.00    -0.458 OA
BRANCH  32  33
ATOM     33  C   UNL A   1      33.532  33.590  28.037  1.00  0.00     0.338 C 
ATOM     34  O   UNL A   1      33.012  34.425  28.762  1.00  0.00    -0.246 OA
BRANCH  33  35
ATOM     35  C   UNL A   1      34.803  32.931  28.370  1.00  0.00     0.060 A 
ATOM     36  C   UNL A   1      34.732  31.595  28.759  1.00  0.00     0.016 A 
ATOM     37  C   UNL A   1      36.019  33.614  28.407  1.00  0.00     0.016 A 
ATOM     38  C   UNL A   1      35.858  30.938  29.238  1.00  0.00     0.010 A 
ATOM     39  C   UNL A   1      37.159  32.949  28.880  1.00  0.00     0.010 A 
ATOM     40  C   UNL A   1      37.077  31.617  29.333  1.00  0.00    -0.014 A 
BRANCH  40  41
ATOM     41  C   UNL A   1      38.207  30.965  30.044  1.00  0.00     0.031 A 
ATOM     42  C   UNL A   1      38.392  31.218  31.516  1.00  0.00     0.074 A 
ATOM     43  C   UNL A   1      39.002  30.081  29.413  1.00  0.00     0.049 A 
ATOM     44  N   UNL A   1      39.340  30.808  32.320  1.00  0.00    -0.248 NA
ATOM     45  C   UNL A   1      37.368  32.048  32.170  1.00  0.00     0.031 C 
ATOM     46  C   UNL A   1      38.880  29.686  28.012  1.00  0.00     0.029 A 
ATOM     47  N   UNL A   1      40.057  29.336  29.881  1.00  0.00    -0.354 N 
ATOM     48  C   UNL A   1      39.052  31.366  33.560  1.00  0.00     0.074 A 
ATOM     49  C   UNL A   1      37.845  32.148  33.402  1.00  0.00     0.031 C 
ATOM     50  C   UNL A   1      39.802  28.748  27.739  1.00  0.00     0.029 A 
ATOM     51  C   UNL A   1      40.613  28.514  28.932  1.00  0.00     0.049 A 
ATOM     52  H   UNL A   1      40.382  29.385  30.809  1.00  0.00     0.167 HD
ATOM     53  C   UNL A   1      39.732  31.235  34.724  1.00  0.00     0.037 A 
ATOM     54  C   UNL A   1      41.668  27.680  29.014  1.00  0.00     0.037 A 
ATOM     55  C   UNL A   1      40.902  30.417  34.891  1.00  0.00     0.049 A 
ATOM     56  C   UNL A   1      42.416  27.563  30.314  1.00  0.00     0.074 A 
ATOM     57  C   UNL A   1      41.679  30.236  36.023  1.00  0.00     0.029 A 
ATOM     58  N   UNL A   1      41.452  29.620  33.897  1.00  0.00    -0.354 N 
ATOM     59  N   UNL A   1      42.179  28.150  31.462  1.00  0.00    -0.248 NA
ATOM     60  C   UNL A   1      43.586  26.673  30.327  1.00  0.00     0.031 C 
ATOM     61  C   UNL A   1      42.712  29.346  35.708  1.00  0.00     0.029 A 
ATOM     62  C   UNL A   1      42.555  28.943  34.392  1.00  0.00     0.049 A 
ATOM     63  H   UNL A   1      41.109  29.547  32.978  1.00  0.00     0.167 HD
ATOM     64  C   UNL A   1      43.152  27.686  32.337  1.00  0.00     0.074 A 
ATOM     65  C   UNL A   1      43.975  26.756  31.593  1.00  0.00     0.031 C 
ATOM     66  C   UNL A   1      43.349  28.006  33.640  1.00  0.00     0.037 A 
BRANCH  53  67
ATOM     67  C   UNL A   1      39.241  32.030  35.898  1.00  0.00     0.064 A 
ATOM     68  C   UNL A   1      38.326  31.502  36.821  1.00  0.00     0.173 A 
ATOM     69  C   UNL A   1      39.703  33.338  36.106  1.00  0.00     0.173 A 
ATOM     70  F   UNL A   1      37.841  30.263  36.657  1.00  0.00    -0.203 F 
ATOM     71  C   UNL A   1      37.869  32.267  37.892  1.00  0.00     0.198 A 
ATOM     72  C   UNL A   1      39.266  34.090  37.194  1.00  0.00     0.198 A 
ATOM     73  F   UNL A   1      40.581  33.889  35.254  1.00  0.00    -0.203 F 
ATOM     74  F   UNL A   1      36.956  31.761  38.733  1.00  0.00    -0.200 F 
ATOM     75  C   UNL A   1      38.344  33.557  38.080  1.00  0.00     0.200 A 
ATOM     76  F   UNL A   1      39.733  35.333  37.378  1.00  0.00    -0.200 F 
ATOM     77  F   UNL A   1      37.903  34.291  39.112  1.00  0.00    -0.200 F 
ENDBRANCH  53  67
BRANCH  54  78
ATOM     78  C   UNL A   1      42.085  26.892  27.824  1.00  0.00     0.064 A 
ATOM     79  C   UNL A   1      41.593  25.598  27.606  1.00  0.00     0.173 A 
ATOM     80  C   UNL A   1      42.992  27.412  26.889  1.00  0.00     0.173 A 
ATOM     81  F   UNL A   1      40.746  25.047  28.487  1.00  0.00    -0.203 F 
ATOM     82  C   UNL A   1      42.000  24.850  26.503  1.00  0.00     0.198 A 
ATOM     83  C   UNL A   1      43.378  26.673  25.773  1.00  0.00     0.198 A 
ATOM     84  F   UNL A   1      43.498  28.642  27.056  1.00  0.00    -0.203 F 
ATOM     85  F   UNL A   1      41.548  23.599  26.341  1.00  0.00    -0.200 F 
ATOM     86  C   UNL A   1      42.886  25.390  25.584  1.00  0.00     0.200 A 
ATOM     87  F   UNL A   1      44.228  27.203  24.882  1.00  0.00    -0.200 F 
ATOM     88  F   UNL A   1      43.275  24.671  24.523  1.00  0.00    -0.200 F 
ENDBRANCH  54  78
BRANCH  66  89
ATOM     89  C   UNL A   1      44.469  27.308  34.353  1.00  0.00     0.064 A 
ATOM     90  C   UNL A   1      45.757  27.857  34.416  1.00  0.00     0.173 A 
ATOM     91  C   UNL A   1      44.238  26.089  35.009  1.00  0.00     0.173 A 
ATOM     92  F   UNL A   1      46.029  29.013  33.793  1.00  0.00    -0.203 F 
ATOM     93  C   UNL A   1      46.783  27.197  35.088  1.00  0.00     0.198 A 
ATOM     94  C   UNL A   1      45.259  25.444  35.700  1.00  0.00     0.198 A 
ATOM     95  F   UNL A   1      43.020  25.527  34.983  1.00  0.00    -0.203 F 
ATOM     96  F   UNL A   1      48.017  27.717  35.099  1.00  0.00    -0.200 F 
ATOM     97  C   UNL A   1      46.532  25.995  35.733  1.00  0.00     0.200 A 
ATOM     98  F   UNL A   1      45.013  24.287  36.330  1.00  0.00    -0.200 F 
ATOM     99  F   UNL A   1      47.519  25.362  36.380  1.00  0.00    -0.200 F 
ENDBRANCH  66  89
ENDBRANCH  40  41
ENDBRANCH  33  35
ENDBRANCH  32  33
ENDBRANCH  31  32
ENDBRANCH   1  31
TORSDOF 16
ENDMDL
MODEL 3
REMARK VINA RESULT:     -12.9      4.372     10.350
REMARK SMILES O=C(CN1C(=O)/C(=C/c2cccs2)SC1=S)Nc1ccc(O)cc1C(=O)OCCOC(=O)c1ccc(-c2c3nc(c(-c4c(F)c(F)c(F)c(F)c4F)c4ccc([nH]4)c(-c4c(F)c(F)c(F)c(F)c4F)c4nc(c(-c5c(F)c(F)c(F)c(F)c5F)c5ccc2[nH]5)C=C4)C=C3)cc1
REMARK SMILES IDX 28 1 27 2 25 3 26 4 24 5 18 6 19 7 20 8 23 9 21 10 17 11
REMARK SMILES IDX 1 12 2 13 3 15 4 16 5 17 15 18 6 19 7 20 14 21 16 22 8 23
REMARK SMILES IDX 9 24 10 25 13 26 11 27 12 28 22 29 29 31 30 32 31 33 32 34
REMARK SMILES IDX 33 35 34 36 95 37 35 38 94 39 36 40 37 41 38 42 88 43 39 44
REMARK SMILES IDX 93 45 87 46 89 47 40 48 92 49 86 50 85 51 41 53 73 54 53 55
REMARK SMILES IDX 72 56 54 57 57 58 71 59 90 60 55 61 56 62 70 64 91 65 58 66
REMARK SMILES IDX 42 67 43 68 51 69 44 70 45 71 49 72 52 73 46 74 47 75 50 76
REMARK SMILES IDX 48 77 74 78 75 79 83 80 76 81 77 82 81 83 84 84 78 85 79 86
REMARK SMILES IDX 82 87 80 88 59 89 60 90 68 91 61 92 62 93 66 94 69 95 63 96
REMARK SMILES IDX 64 97 67 98 65 99
REMARK H PARENT 17 14 22 30 89 52 57 63
REMARK Flexibility Score: inf
ROOT
ATOM      1  C   UNL A   1      36.585  21.774  25.839  1.00  0.00     0.275 C 
ENDROOT
BRANCH   1   2
ATOM      2  O   UNL A   1      35.363  21.660  25.069  1.00  0.00    -0.458 OA
BRANCH   2   3
ATOM      3  C   UNL A   1      34.393  20.885  25.624  1.00  0.00     0.340 C 
ATOM      4  O   UNL A   1      34.033  20.941  26.789  1.00  0.00    -0.246 OA
BRANCH   3   5
ATOM      5  C   UNL A   1      33.698  20.019  24.625  1.00  0.00     0.087 A 
ATOM      6  C   UNL A   1      32.660  20.412  23.751  1.00  0.00     0.056 A 
ATOM      7  C   UNL A   1      32.103  19.422  22.917  1.00  0.00     0.031 A 
ATOM      8  C   UNL A   1      32.531  18.089  22.952  1.00  0.00     0.048 A 
ATOM      9  C   UNL A   1      34.153  18.681  24.613  1.00  0.00     0.064 A 
ATOM     10  C   UNL A   1      33.550  17.728  23.808  1.00  0.00     0.116 A 
BRANCH   6  11
ATOM     11  N   UNL A   1      32.231  21.769  23.681  1.00  0.00    -0.324 N 
ATOM     12  O   UNL A   1      31.077  22.004  25.688  1.00  0.00    -0.273 OA
ATOM     13  C   UNL A   1      31.465  22.458  24.612  1.00  0.00     0.244 C 
ATOM     14  H   UNL A   1      32.508  22.273  22.882  1.00  0.00     0.170 HD
BRANCH  13  15
ATOM     15  C   UNL A   1      30.873  23.790  24.130  1.00  0.00     0.227 C 
BRANCH  15  16
ATOM     16  N   UNL A   1      31.666  24.983  24.410  1.00  0.00    -0.283 N 
ATOM     17  C   UNL A   1      31.464  25.624  25.621  1.00  0.00     0.266 C 
ATOM     18  C   UNL A   1      32.527  25.591  23.527  1.00  0.00     0.148 C 
ATOM     19  O   UNL A   1      30.694  25.265  26.500  1.00  0.00    -0.268 OA
ATOM     20  C   UNL A   1      32.302  26.852  25.707  1.00  0.00     0.081 C 
ATOM     21  S   UNL A   1      33.222  27.021  24.269  1.00  0.00    -0.054 SA
ATOM     22  S   UNL A   1      32.925  25.102  21.985  1.00  0.00    -0.052 S 
ATOM     23  C   UNL A   1      32.278  27.610  26.812  1.00  0.00     0.040 C 
BRANCH  23  24
ATOM     24  C   UNL A   1      33.078  28.766  27.061  1.00  0.00     0.028 A 
ATOM     25  C   UNL A   1      34.407  28.921  27.423  1.00  0.00     0.020 A 
ATOM     26  S   UNL A   1      32.339  30.320  26.873  1.00  0.00    -0.144 S 
ATOM     27  C   UNL A   1      34.788  30.283  27.611  1.00  0.00     0.012 A 
ATOM     28  C   UNL A   1      33.753  31.146  27.345  1.00  0.00     0.065 A 
ENDBRANCH  23  24
ENDBRANCH  15  16
ENDBRANCH  13  15
ENDBRANCH   6  11
BRANCH  10  29
ATOM     29  O   UNL A   1      33.981  16.441  23.909  1.00  0.00    -0.508 OA
ATOM     30  H   UNL A   1      34.896  16.249  23.861  1.00  0.00     0.293 HD
ENDBRANCH  10  29
ENDBRANCH   3   5
ENDBRANCH   2   3
ENDBRANCH   1   2
BRANCH   1  31
ATOM     31  C   UNL A   1      37.632  20.763  25.364  1.00  0.00     0.275 C 
BRANCH  31  32
ATOM     32  O   UNL A   1      38.936  21.374  25.317  1.00  0.00    -0.458 OA
BRANCH  32  33
ATOM     33  C   UNL A   1      39.708  21.139  26.400  1.00  0.00     0.338 C 
ATOM     34  O   UNL A   1      40.171  20.067  26.759  1.00  0.00    -0.246 OA
BRANCH  33  35
ATOM     35  C   UNL A   1      40.094  22.417  27.016  1.00  0.00     0.060 A 
ATOM     36  C   UNL A   1      39.452  23.559  26.543  1.00  0.00     0.016 A 
ATOM     37  C   UNL A   1      41.124  22.521  27.950  1.00  0.00     0.016 A 
ATOM     38  C   UNL A   1      39.860  24.821  26.955  1.00  0.00     0.010 A 
ATOM     39  C   UNL A   1      41.531  23.794  28.376  1.00  0.00     0.010 A 
ATOM     40  C   UNL A   1      40.924  24.954  27.853  1.00  0.00    -0.014 A 
BRANCH  40  41
ATOM     41  C   UNL A   1      41.480  26.307  28.110  1.00  0.00     0.031 A 
ATOM     42  C   UNL A   1      42.843  26.655  27.577  1.00  0.00     0.074 A 
ATOM     43  C   UNL A   1      40.743  27.251  28.726  1.00  0.00     0.049 A 
ATOM     44  N   UNL A   1      43.548  27.747  27.735  1.00  0.00    -0.248 NA
ATOM     45  C   UNL A   1      43.504  25.630  26.753  1.00  0.00     0.031 C 
ATOM     46  C   UNL A   1      39.380  27.068  29.219  1.00  0.00     0.029 A 
ATOM     47  N   UNL A   1      41.033  28.561  29.018  1.00  0.00    -0.354 N 
ATOM     48  C   UNL A   1      44.748  27.523  27.071  1.00  0.00     0.074 A 
ATOM     49  C   UNL A   1      44.681  26.189  26.513  1.00  0.00     0.031 C 
ATOM     50  C   UNL A   1      38.938  28.232  29.725  1.00  0.00     0.029 A 
ATOM     51  C   UNL A   1      40.005  29.226  29.639  1.00  0.00     0.049 A 
ATOM     52  H   UNL A   1      41.895  28.983  28.802  1.00  0.00     0.167 HD
ATOM     53  C   UNL A   1      45.808  28.355  26.938  1.00  0.00     0.037 A 
ATOM     54  C   UNL A   1      39.939  30.490  30.101  1.00  0.00     0.037 A 
ATOM     55  C   UNL A   1      45.853  29.698  27.450  1.00  0.00     0.049 A 
ATOM     56  C   UNL A   1      41.136  31.391  29.954  1.00  0.00     0.074 A 
ATOM     57  C   UNL A   1      46.889  30.614  27.389  1.00  0.00     0.029 A 
ATOM     58  N   UNL A   1      44.800  30.328  28.098  1.00  0.00    -0.354 N 
ATOM     59  N   UNL A   1      42.293  31.146  29.388  1.00  0.00    -0.248 NA
ATOM     60  C   UNL A   1      41.020  32.743  30.519  1.00  0.00     0.031 C 
ATOM     61  C   UNL A   1      46.471  31.792  28.021  1.00  0.00     0.029 A 
ATOM     62  C   UNL A   1      45.161  31.622  28.439  1.00  0.00     0.049 A 
ATOM     63  H   UNL A   1      43.927  29.916  28.288  1.00  0.00     0.167 HD
ATOM     64  C   UNL A   1      43.032  32.315  29.508  1.00  0.00     0.074 A 
ATOM     65  C   UNL A   1      42.188  33.276  30.187  1.00  0.00     0.031 C 
ATOM     66  C   UNL A   1      44.299  32.569  29.097  1.00  0.00     0.037 A 
BRANCH  53  67
ATOM     67  C   UNL A   1      47.021  27.815  26.240  1.00  0.00     0.064 A 
ATOM     68  C   UNL A   1      48.115  27.297  26.948  1.00  0.00     0.173 A 
ATOM     69  C   UNL A   1      47.084  27.811  24.839  1.00  0.00     0.173 A 
ATOM     70  F   UNL A   1      48.112  27.295  28.289  1.00  0.00    -0.203 F 
ATOM     71  C   UNL A   1      49.240  26.820  26.277  1.00  0.00     0.198 A 
ATOM     72  C   UNL A   1      48.198  27.309  24.171  1.00  0.00     0.198 A 
ATOM     73  F   UNL A   1      46.063  28.294  24.114  1.00  0.00    -0.203 F 
ATOM     74  F   UNL A   1      50.295  26.376  26.975  1.00  0.00    -0.200 F 
ATOM     75  C   UNL A   1      49.278  26.822  24.891  1.00  0.00     0.200 A 
ATOM     76  F   UNL A   1      48.228  27.302  22.831  1.00  0.00    -0.200 F 
ATOM     77  F   UNL A   1      50.361  26.363  24.248  1.00  0.00    -0.200 F 
ENDBRANCH  53  67
BRANCH  54  78
ATOM     78  C   UNL A   1      38.696  30.979  30.753  1.00  0.00     0.064 A 
ATOM     79  C   UNL A   1      37.651  31.526  29.996  1.00  0.00     0.173 A 
ATOM     80  C   UNL A   1      38.533  30.920  32.144  1.00  0.00     0.173 A 
ATOM     81  F   UNL A   1      37.772  31.631  28.665  1.00  0.00    -0.203 F 
ATOM     82  C   UNL A   1      36.494  32.005  30.608  1.00  0.00     0.198 A 
ATOM     83  C   UNL A   1      37.365  31.375  32.752  1.00  0.00     0.198 A 
ATOM     84  F   UNL A   1      39.507  30.412  32.914  1.00  0.00    -0.203 F 
ATOM     85  F   UNL A   1      35.528  32.563  29.865  1.00  0.00    -0.200 F 
ATOM     86  C   UNL A   1      36.349  31.922  31.984  1.00  0.00     0.200 A 
ATOM     87  F   UNL A   1      37.226  31.284  34.083  1.00  0.00    -0.200 F 
ATOM     88  F   UNL A   1      35.236  32.380  32.571  1.00  0.00    -0.200 F 
ENDBRANCH  54  78
BRANCH  66  89
ATOM     89  C   UNL A   1      44.830  33.952  29.329  1.00  0.00     0.064 A 
ATOM     90  C   UNL A   1      44.649  34.976  28.389  1.00  0.00     0.173 A 
ATOM     91  C   UNL A   1      45.500  34.261  30.522  1.00  0.00     0.173 A 
ATOM     92  F   UNL A   1      44.027  34.726  27.228  1.00  0.00    -0.203 F 
ATOM     93  C   UNL A   1      45.145  36.257  28.624  1.00  0.00     0.198 A 
ATOM     94  C   UNL A   1      45.973  35.548  30.764  1.00  0.00     0.198 A 
ATOM     95  F   UNL A   1      45.692  33.316  31.455  1.00  0.00    -0.203 F 
ATOM     96  F   UNL A   1      45.000  37.210  27.694  1.00  0.00    -0.200 F 
ATOM     97  C   UNL A   1      45.801  36.543  29.812  1.00  0.00     0.200 A 
ATOM     98  F   UNL A   1      46.599  35.825  31.916  1.00  0.00    -0.200 F 
ATOM     99  F   UNL A   1      46.276  37.774  30.037  1.00  0.00    -0.200 F 
ENDBRANCH  66  89
ENDBRANCH  40  41
ENDBRANCH  33  35
ENDBRANCH  32  33
ENDBRANCH  31  32
ENDBRANCH   1  31
TORSDOF 16
ENDMDL
