MODEL 1
REMARK VINA RESULT:     -11.0      0.000      0.000
REMARK SMILES C[N@H+](CCS(C)(=O)=O)[C@H](CC(=O)OCCOC(=O)c1ccc(-c2c3nc(c(-c4c(F)c(F)c(F)c(F)c4F)c4ccc([nH]4)c(-c4c(F)c(F)c(F)c(F)c4F)c4nc(c(-c5c(F)c(F)c(F)c(F)c5F)c5ccc2[nH]5)C=C4)C=C3)cc1)c1ccccc1
REMARK SMILES IDX 13 1 11 2 12 3 10 4 9 5 2 6 1 7 3 9 4 10 5 11 6 12 7 13 8 14
REMARK SMILES IDX 82 15 83 16 87 17 84 18 86 19 85 20 14 21 15 22 16 23 17 24
REMARK SMILES IDX 18 25 19 26 20 27 81 28 21 29 80 30 22 31 23 32 24 33 74 34
REMARK SMILES IDX 25 35 79 36 73 37 75 38 26 39 78 40 72 41 71 42 27 44 59 45
REMARK SMILES IDX 39 46 58 47 40 48 43 49 57 50 76 51 41 52 42 53 56 55 77 56
REMARK SMILES IDX 44 57 28 58 29 59 37 60 30 61 31 62 35 63 38 64 32 65 33 66
REMARK SMILES IDX 36 67 34 68 60 69 61 70 69 71 62 72 63 73 67 74 70 75 64 76
REMARK SMILES IDX 65 77 68 78 66 79 45 80 46 81 54 82 47 83 48 84 52 85 55 86
REMARK SMILES IDX 49 87 50 88 53 89 51 90
REMARK H PARENT 2 8 75 43 43 54
REMARK Flexibility Score: inf
ROOT
ATOM      1  O   UNL A   1      33.036  28.418  24.108  1.00  0.00    -0.462 OA
ENDROOT
BRANCH   1   2
ATOM      2  C   UNL A   1      33.058  27.070  24.113  1.00  0.00     0.312 C 
ATOM      3  O   UNL A   1      32.558  26.369  23.236  1.00  0.00    -0.252 OA
BRANCH   2   4
ATOM      4  C   UNL A   1      33.666  26.430  25.334  1.00  0.00     0.192 C 
BRANCH   4   5
ATOM      5  C   UNL A   1      33.669  24.902  25.593  1.00  0.00     0.226 C 
BRANCH   5   6
ATOM      6  N   UNL A   1      32.371  24.146  25.631  1.00  0.00    -0.330 N 
ATOM      7  C   UNL A   1      31.235  24.852  26.202  1.00  0.00     0.333 C 
ATOM      8  H   UNL A   1      32.135  24.041  24.644  1.00  0.00     0.348 HD
BRANCH   6   9
ATOM      9  C   UNL A   1      32.526  22.803  26.248  1.00  0.00     0.278 C 
BRANCH   9  10
ATOM     10  C   UNL A   1      31.755  21.606  25.685  1.00  0.00     0.197 C 
BRANCH  10  11
ATOM     11  S   UNL A   1      32.685  20.453  24.704  1.00  0.00     0.152 S 
ATOM     12  C   UNL A   1      34.329  20.517  25.375  1.00  0.00     0.158 C 
ATOM     13  O   UNL A   1      32.153  19.137  25.012  1.00  0.00    -0.229 OA
ATOM     14  O   UNL A   1      32.732  20.907  23.330  1.00  0.00    -0.229 OA
ENDBRANCH  10  11
ENDBRANCH   9  10
ENDBRANCH   6   9
ENDBRANCH   5   6
BRANCH   5  15
ATOM     15  C   UNL A   1      34.913  24.201  25.025  1.00  0.00     0.010 A 
ATOM     16  C   UNL A   1      36.067  23.886  25.755  1.00  0.00     0.010 A 
ATOM     17  C   UNL A   1      34.857  23.738  23.693  1.00  0.00     0.010 A 
ATOM     18  C   UNL A   1      37.111  23.143  25.191  1.00  0.00     0.001 A 
ATOM     19  C   UNL A   1      35.899  22.998  23.126  1.00  0.00     0.001 A 
ATOM     20  C   UNL A   1      37.028  22.698  23.878  1.00  0.00     0.000 A 
ENDBRANCH   5  15
ENDBRANCH   4   5
ENDBRANCH   2   4
ENDBRANCH   1   2
BRANCH   1  21
ATOM     21  C   UNL A   1      31.735  29.028  24.226  1.00  0.00     0.274 C 
BRANCH  21  22
ATOM     22  C   UNL A   1      31.711  30.031  25.376  1.00  0.00     0.275 C 
BRANCH  22  23
ATOM     23  O   UNL A   1      33.015  30.113  25.978  1.00  0.00    -0.458 OA
BRANCH  23  24
ATOM     24  C   UNL A   1      33.179  31.104  26.877  1.00  0.00     0.338 C 
ATOM     25  O   UNL A   1      32.441  32.061  27.073  1.00  0.00    -0.246 OA
BRANCH  24  26
ATOM     26  C   UNL A   1      34.410  30.894  27.661  1.00  0.00     0.060 A 
ATOM     27  C   UNL A   1      35.279  31.953  27.940  1.00  0.00     0.016 A 
ATOM     28  C   UNL A   1      34.766  29.588  28.000  1.00  0.00     0.016 A 
ATOM     29  C   UNL A   1      36.526  31.702  28.510  1.00  0.00     0.010 A 
ATOM     30  C   UNL A   1      35.977  29.349  28.652  1.00  0.00     0.010 A 
ATOM     31  C   UNL A   1      36.871  30.402  28.903  1.00  0.00    -0.014 A 
BRANCH  31  32
ATOM     32  C   UNL A   1      38.131  30.136  29.640  1.00  0.00     0.031 A 
ATOM     33  C   UNL A   1      39.174  29.215  29.074  1.00  0.00     0.074 A 
ATOM     34  C   UNL A   1      38.301  30.680  30.860  1.00  0.00     0.049 A 
ATOM     35  N   UNL A   1      40.227  28.707  29.660  1.00  0.00    -0.248 NA
ATOM     36  C   UNL A   1      39.008  28.810  27.671  1.00  0.00     0.031 C 
ATOM     37  C   UNL A   1      37.371  31.605  31.510  1.00  0.00     0.029 A 
ATOM     38  N   UNL A   1      39.304  30.515  31.781  1.00  0.00    -0.354 N 
ATOM     39  C   UNL A   1      40.830  27.890  28.713  1.00  0.00     0.074 A 
ATOM     40  C   UNL A   1      40.028  27.976  27.509  1.00  0.00     0.031 C 
ATOM     41  C   UNL A   1      37.846  31.927  32.721  1.00  0.00     0.029 A 
ATOM     42  C   UNL A   1      39.074  31.178  32.960  1.00  0.00     0.049 A 
ATOM     43  H   UNL A   1      40.110  29.975  31.612  1.00  0.00     0.167 HD
ATOM     44  C   UNL A   1      41.945  27.133  28.845  1.00  0.00     0.037 A 
ATOM     45  C   UNL A   1      39.744  31.148  34.127  1.00  0.00     0.037 A 
ATOM     46  C   UNL A   1      42.754  27.071  30.035  1.00  0.00     0.049 A 
ATOM     47  C   UNL A   1      40.956  30.275  34.255  1.00  0.00     0.074 A 
ATOM     48  C   UNL A   1      43.921  26.358  30.250  1.00  0.00     0.029 A 
ATOM     49  N   UNL A   1      42.481  27.753  31.212  1.00  0.00    -0.354 N 
ATOM     50  N   UNL A   1      41.505  29.489  33.363  1.00  0.00    -0.248 NA
ATOM     51  C   UNL A   1      41.634  30.274  35.558  1.00  0.00     0.031 C 
ATOM     52  C   UNL A   1      44.338  26.584  31.568  1.00  0.00     0.029 A 
ATOM     53  C   UNL A   1      43.449  27.465  32.160  1.00  0.00     0.049 A 
ATOM     54  H   UNL A   1      41.714  28.353  31.352  1.00  0.00     0.167 HD
ATOM     55  C   UNL A   1      42.596  28.905  33.990  1.00  0.00     0.074 A 
ATOM     56  C   UNL A   1      42.641  29.441  35.335  1.00  0.00     0.031 C 
ATOM     57  C   UNL A   1      43.476  28.002  33.496  1.00  0.00     0.037 A 
BRANCH  44  58
ATOM     58  C   UNL A   1      42.351  26.283  27.680  1.00  0.00     0.064 A 
ATOM     59  C   UNL A   1      43.335  26.699  26.771  1.00  0.00     0.173 A 
ATOM     60  C   UNL A   1      41.795  25.005  27.510  1.00  0.00     0.173 A 
ATOM     61  F   UNL A   1      43.892  27.912  26.892  1.00  0.00    -0.203 F 
ATOM     62  C   UNL A   1      43.739  25.870  25.728  1.00  0.00     0.198 A 
ATOM     63  C   UNL A   1      42.215  24.172  26.478  1.00  0.00     0.198 A 
ATOM     64  F   UNL A   1      40.857  24.560  28.359  1.00  0.00    -0.203 F 
ATOM     65  F   UNL A   1      44.670  26.291  24.861  1.00  0.00    -0.200 F 
ATOM     66  C   UNL A   1      43.185  24.606  25.586  1.00  0.00     0.200 A 
ATOM     67  F   UNL A   1      41.688  22.946  26.351  1.00  0.00    -0.200 F 
ATOM     68  F   UNL A   1      43.587  23.803  24.591  1.00  0.00    -0.200 F 
ENDBRANCH  44  58
BRANCH  45  69
ATOM     69  C   UNL A   1      39.251  31.953  35.271  1.00  0.00     0.064 A 
ATOM     70  C   UNL A   1      39.550  33.316  35.370  1.00  0.00     0.173 A 
ATOM     71  C   UNL A   1      38.448  31.381  36.269  1.00  0.00     0.173 A 
ATOM     72  F   UNL A   1      40.333  33.898  34.449  1.00  0.00    -0.203 F 
ATOM     73  C   UNL A   1      39.067  34.082  36.429  1.00  0.00     0.198 A 
ATOM     74  C   UNL A   1      37.944  32.152  37.313  1.00  0.00     0.198 A 
ATOM     75  F   UNL A   1      38.132  30.078  36.213  1.00  0.00    -0.203 F 
ATOM     76  F   UNL A   1      39.388  35.379  36.516  1.00  0.00    -0.200 F 
ATOM     77  C   UNL A   1      38.258  33.500  37.394  1.00  0.00     0.200 A 
ATOM     78  F   UNL A   1      37.151  31.590  38.236  1.00  0.00    -0.200 F 
ATOM     79  F   UNL A   1      37.781  34.240  38.405  1.00  0.00    -0.200 F 
ENDBRANCH  45  69
BRANCH  57  80
ATOM     80  C   UNL A   1      44.573  27.556  34.412  1.00  0.00     0.064 A 
ATOM     81  C   UNL A   1      45.780  28.264  34.506  1.00  0.00     0.173 A 
ATOM     82  C   UNL A   1      44.410  26.418  35.215  1.00  0.00     0.173 A 
ATOM     83  F   UNL A   1      45.988  29.346  33.741  1.00  0.00    -0.203 F 
ATOM     84  C   UNL A   1      46.794  27.837  35.358  1.00  0.00     0.198 A 
ATOM     85  C   UNL A   1      45.419  26.006  36.083  1.00  0.00     0.198 A 
ATOM     86  F   UNL A   1      43.274  25.708  35.160  1.00  0.00    -0.203 F 
ATOM     87  F   UNL A   1      47.956  28.503  35.402  1.00  0.00    -0.200 F 
ATOM     88  C   UNL A   1      46.611  26.711  36.149  1.00  0.00     0.200 A 
ATOM     89  F   UNL A   1      45.239  24.921  36.849  1.00  0.00    -0.200 F 
ATOM     90  F   UNL A   1      47.589  26.300  36.968  1.00  0.00    -0.200 F 
ENDBRANCH  57  80
ENDBRANCH  31  32
ENDBRANCH  24  26
ENDBRANCH  23  24
ENDBRANCH  22  23
ENDBRANCH  21  22
ENDBRANCH   1  21
TORSDOF 17
ENDMDL
MODEL 2
REMARK VINA RESULT:     -10.9      0.540      1.789
REMARK SMILES C[N@H+](CCS(C)(=O)=O)[C@H](CC(=O)OCCOC(=O)c1ccc(-c2c3nc(c(-c4c(F)c(F)c(F)c(F)c4F)c4ccc([nH]4)c(-c4c(F)c(F)c(F)c(F)c4F)c4nc(c(-c5c(F)c(F)c(F)c(F)c5F)c5ccc2[nH]5)C=C4)C=C3)cc1)c1ccccc1
REMARK SMILES IDX 13 1 11 2 12 3 10 4 9 5 2 6 1 7 3 9 4 10 5 11 6 12 7 13 8 14
REMARK SMILES IDX 82 15 83 16 87 17 84 18 86 19 85 20 14 21 15 22 16 23 17 24
REMARK SMILES IDX 18 25 19 26 20 27 81 28 21 29 80 30 22 31 23 32 24 33 74 34
REMARK SMILES IDX 25 35 79 36 73 37 75 38 26 39 78 40 72 41 71 42 27 44 59 45
REMARK SMILES IDX 39 46 58 47 40 48 43 49 57 50 76 51 41 52 42 53 56 55 77 56
REMARK SMILES IDX 44 57 28 58 29 59 37 60 30 61 31 62 35 63 38 64 32 65 33 66
REMARK SMILES IDX 36 67 34 68 60 69 61 70 69 71 62 72 63 73 67 74 70 75 64 76
REMARK SMILES IDX 65 77 68 78 66 79 45 80 46 81 54 82 47 83 48 84 52 85 55 86
REMARK SMILES IDX 49 87 50 88 53 89 51 90
REMARK H PARENT 2 8 75 43 43 54
REMARK Flexibility Score: inf
ROOT
ATOM      1  O   UNL A   1      33.117  28.070  24.207  1.00  0.00    -0.462 OA
ENDROOT
BRANCH   1   2
ATOM      2  C   UNL A   1      33.510  27.550  23.029  1.00  0.00     0.312 C 
ATOM      3  O   UNL A   1      34.020  28.204  22.121  1.00  0.00    -0.252 OA
BRANCH   2   4
ATOM      4  C   UNL A   1      33.205  26.089  22.823  1.00  0.00     0.192 C 
BRANCH   4   5
ATOM      5  C   UNL A   1      33.148  25.051  23.973  1.00  0.00     0.226 C 
BRANCH   5   6
ATOM      6  N   UNL A   1      31.859  24.343  24.279  1.00  0.00    -0.330 N 
ATOM      7  C   UNL A   1      30.655  25.157  24.235  1.00  0.00     0.333 C 
ATOM      8  H   UNL A   1      31.757  23.696  23.497  1.00  0.00     0.348 HD
BRANCH   6   9
ATOM      9  C   UNL A   1      31.934  23.573  25.549  1.00  0.00     0.278 C 
BRANCH   9  10
ATOM     10  C   UNL A   1      31.431  22.128  25.602  1.00  0.00     0.197 C 
BRANCH  10  11
ATOM     11  S   UNL A   1      32.390  20.921  24.720  1.00  0.00     0.152 S 
ATOM     12  C   UNL A   1      33.973  20.928  25.527  1.00  0.00     0.158 C 
ATOM     13  O   UNL A   1      31.778  19.633  25.000  1.00  0.00    -0.229 OA
ATOM     14  O   UNL A   1      32.572  21.349  23.349  1.00  0.00    -0.229 OA
ENDBRANCH  10  11
ENDBRANCH   9  10
ENDBRANCH   6   9
ENDBRANCH   5   6
BRANCH   5  15
ATOM     15  C   UNL A   1      34.469  24.288  24.155  1.00  0.00     0.010 A 
ATOM     16  C   UNL A   1      35.104  23.523  23.167  1.00  0.00     0.010 A 
ATOM     17  C   UNL A   1      35.161  24.452  25.375  1.00  0.00     0.010 A 
ATOM     18  C   UNL A   1      36.365  22.953  23.378  1.00  0.00     0.001 A 
ATOM     19  C   UNL A   1      36.419  23.881  25.590  1.00  0.00     0.001 A 
ATOM     20  C   UNL A   1      37.024  23.132  24.588  1.00  0.00     0.000 A 
ENDBRANCH   5  15
ENDBRANCH   4   5
ENDBRANCH   2   4
ENDBRANCH   1   2
BRANCH   1  21
ATOM     21  C   UNL A   1      31.890  28.827  24.185  1.00  0.00     0.274 C 
BRANCH  21  22
ATOM     22  C   UNL A   1      31.816  29.772  25.380  1.00  0.00     0.275 C 
BRANCH  22  23
ATOM     23  O   UNL A   1      33.144  30.095  25.828  1.00  0.00    -0.458 OA
BRANCH  23  24
ATOM     24  C   UNL A   1      33.220  31.024  26.803  1.00  0.00     0.338 C 
ATOM     25  O   UNL A   1      32.417  31.916  27.044  1.00  0.00    -0.246 OA
BRANCH  24  26
ATOM     26  C   UNL A   1      34.439  30.831  27.608  1.00  0.00     0.060 A 
ATOM     27  C   UNL A   1      35.321  31.889  27.848  1.00  0.00     0.016 A 
ATOM     28  C   UNL A   1      34.773  29.538  28.010  1.00  0.00     0.016 A 
ATOM     29  C   UNL A   1      36.558  31.647  28.443  1.00  0.00     0.010 A 
ATOM     30  C   UNL A   1      35.973  29.311  28.684  1.00  0.00     0.010 A 
ATOM     31  C   UNL A   1      36.880  30.361  28.897  1.00  0.00    -0.014 A 
BRANCH  31  32
ATOM     32  C   UNL A   1      38.129  30.111  29.659  1.00  0.00     0.031 A 
ATOM     33  C   UNL A   1      39.188  29.194  29.120  1.00  0.00     0.074 A 
ATOM     34  C   UNL A   1      38.272  30.665  30.878  1.00  0.00     0.049 A 
ATOM     35  N   UNL A   1      40.235  28.698  29.728  1.00  0.00    -0.248 NA
ATOM     36  C   UNL A   1      39.052  28.777  27.716  1.00  0.00     0.031 C 
ATOM     37  C   UNL A   1      37.322  31.587  31.505  1.00  0.00     0.029 A 
ATOM     38  N   UNL A   1      39.259  30.515  31.818  1.00  0.00    -0.354 N 
ATOM     39  C   UNL A   1      40.861  27.880  28.798  1.00  0.00     0.074 A 
ATOM     40  C   UNL A   1      40.081  27.951  27.579  1.00  0.00     0.031 C 
ATOM     41  C   UNL A   1      37.773  31.922  32.722  1.00  0.00     0.029 A 
ATOM     42  C   UNL A   1      39.002  31.184  32.989  1.00  0.00     0.049 A 
ATOM     43  H   UNL A   1      40.072  29.980  31.668  1.00  0.00     0.167 HD
ATOM     44  C   UNL A   1      41.980  27.133  28.956  1.00  0.00     0.037 A 
ATOM     45  C   UNL A   1      39.651  31.168  34.167  1.00  0.00     0.037 A 
ATOM     46  C   UNL A   1      42.767  27.086  30.161  1.00  0.00     0.049 A 
ATOM     47  C   UNL A   1      40.868  30.306  34.324  1.00  0.00     0.074 A 
ATOM     48  C   UNL A   1      43.936  26.383  30.403  1.00  0.00     0.029 A 
ATOM     49  N   UNL A   1      42.468  27.774  31.327  1.00  0.00    -0.354 N 
ATOM     50  N   UNL A   1      41.439  29.518  33.447  1.00  0.00    -0.248 NA
ATOM     51  C   UNL A   1      41.521  30.320  35.639  1.00  0.00     0.031 C 
ATOM     52  C   UNL A   1      44.327  26.622  31.726  1.00  0.00     0.029 A 
ATOM     53  C   UNL A   1      43.421  27.501  32.296  1.00  0.00     0.049 A 
ATOM     54  H   UNL A   1      41.693  28.369  31.449  1.00  0.00     0.167 HD
ATOM     55  C   UNL A   1      42.522  28.947  34.099  1.00  0.00     0.074 A 
ATOM     56  C   UNL A   1      42.539  29.493  35.441  1.00  0.00     0.031 C 
ATOM     57  C   UNL A   1      43.419  28.048  33.628  1.00  0.00     0.037 A 
BRANCH  44  58
ATOM     58  C   UNL A   1      42.414  26.277  27.805  1.00  0.00     0.064 A 
ATOM     59  C   UNL A   1      41.819  25.034  27.545  1.00  0.00     0.173 A 
ATOM     60  C   UNL A   1      43.391  26.740  26.910  1.00  0.00     0.173 A 
ATOM     61  F   UNL A   1      40.882  24.550  28.374  1.00  0.00    -0.203 F 
ATOM     62  C   UNL A   1      42.195  24.280  26.437  1.00  0.00     0.198 A 
ATOM     63  C   UNL A   1      43.751  25.993  25.793  1.00  0.00     0.198 A 
ATOM     64  F   UNL A   1      43.982  27.927  27.112  1.00  0.00    -0.203 F 
ATOM     65  F   UNL A   1      41.626  23.088  26.213  1.00  0.00    -0.200 F 
ATOM     66  C   UNL A   1      43.155  24.763  25.558  1.00  0.00     0.200 A 
ATOM     67  F   UNL A   1      44.668  26.467  24.938  1.00  0.00    -0.200 F 
ATOM     68  F   UNL A   1      43.504  24.044  24.482  1.00  0.00    -0.200 F 
ENDBRANCH  44  58
BRANCH  45  69
ATOM     69  C   UNL A   1      39.131  31.977  35.296  1.00  0.00     0.064 A 
ATOM     70  C   UNL A   1      38.376  31.383  36.314  1.00  0.00     0.173 A 
ATOM     71  C   UNL A   1      39.406  33.348  35.395  1.00  0.00     0.173 A 
ATOM     72  F   UNL A   1      38.071  30.079  36.248  1.00  0.00    -0.203 F 
ATOM     73  C   UNL A   1      37.908  32.134  37.391  1.00  0.00     0.198 A 
ATOM     74  C   UNL A   1      38.960  34.093  36.484  1.00  0.00     0.198 A 
ATOM     75  F   UNL A   1      40.131  33.959  34.445  1.00  0.00    -0.203 F 
ATOM     76  F   UNL A   1      37.165  31.549  38.339  1.00  0.00    -0.200 F 
ATOM     77  C   UNL A   1      38.208  33.485  37.479  1.00  0.00     0.200 A 
ATOM     78  F   UNL A   1      39.265  35.395  36.573  1.00  0.00    -0.200 F 
ATOM     79  F   UNL A   1      37.771  34.204  38.521  1.00  0.00    -0.200 F 
ENDBRANCH  45  69
BRANCH  57  80
ATOM     80  C   UNL A   1      44.502  27.617  34.567  1.00  0.00     0.064 A 
ATOM     81  C   UNL A   1      45.706  28.330  34.670  1.00  0.00     0.173 A 
ATOM     82  C   UNL A   1      44.330  26.489  35.382  1.00  0.00     0.173 A 
ATOM     83  F   UNL A   1      45.922  29.402  33.894  1.00  0.00    -0.203 F 
ATOM     84  C   UNL A   1      46.707  27.917  35.544  1.00  0.00     0.198 A 
ATOM     85  C   UNL A   1      45.326  26.092  36.271  1.00  0.00     0.198 A 
ATOM     86  F   UNL A   1      43.197  25.776  35.319  1.00  0.00    -0.203 F 
ATOM     87  F   UNL A   1      47.866  28.587  35.597  1.00  0.00    -0.200 F 
ATOM     88  C   UNL A   1      46.514  26.801  36.347  1.00  0.00     0.200 A 
ATOM     89  F   UNL A   1      45.137  25.017  37.049  1.00  0.00    -0.200 F 
ATOM     90  F   UNL A   1      47.480  26.404  37.186  1.00  0.00    -0.200 F 
ENDBRANCH  57  80
ENDBRANCH  31  32
ENDBRANCH  24  26
ENDBRANCH  23  24
ENDBRANCH  22  23
ENDBRANCH  21  22
ENDBRANCH   1  21
TORSDOF 17
ENDMDL
MODEL 3
REMARK VINA RESULT:     -10.8      4.159      9.588
REMARK SMILES C[N@H+](CCS(C)(=O)=O)[C@H](CC(=O)OCCOC(=O)c1ccc(-c2c3nc(c(-c4c(F)c(F)c(F)c(F)c4F)c4ccc([nH]4)c(-c4c(F)c(F)c(F)c(F)c4F)c4nc(c(-c5c(F)c(F)c(F)c(F)c5F)c5ccc2[nH]5)C=C4)C=C3)cc1)c1ccccc1
REMARK SMILES IDX 13 1 11 2 12 3 10 4 9 5 2 6 1 7 3 9 4 10 5 11 6 12 7 13 8 14
REMARK SMILES IDX 82 15 83 16 87 17 84 18 86 19 85 20 14 21 15 22 16 23 17 24
REMARK SMILES IDX 18 25 19 26 20 27 81 28 21 29 80 30 22 31 23 32 24 33 74 34
REMARK SMILES IDX 25 35 79 36 73 37 75 38 26 39 78 40 72 41 71 42 27 44 59 45
REMARK SMILES IDX 39 46 58 47 40 48 43 49 57 50 76 51 41 52 42 53 56 55 77 56
REMARK SMILES IDX 44 57 28 58 29 59 37 60 30 61 31 62 35 63 38 64 32 65 33 66
REMARK SMILES IDX 36 67 34 68 60 69 61 70 69 71 62 72 63 73 67 74 70 75 64 76
REMARK SMILES IDX 65 77 68 78 66 79 45 80 46 81 54 82 47 83 48 84 52 85 55 86
REMARK SMILES IDX 49 87 50 88 53 89 51 90
REMARK H PARENT 2 8 75 43 43 54
REMARK Flexibility Score: inf
ROOT
ATOM      1  O   UNL A   1      33.936  22.429  24.987  1.00  0.00    -0.462 OA
ENDROOT
BRANCH   1   2
ATOM      2  C   UNL A   1      33.566  23.165  26.053  1.00  0.00     0.312 C 
ATOM      3  O   UNL A   1      34.157  23.164  27.131  1.00  0.00    -0.252 OA
BRANCH   2   4
ATOM      4  C   UNL A   1      32.292  23.955  25.893  1.00  0.00     0.192 C 
BRANCH   4   5
ATOM      5  C   UNL A   1      32.173  25.229  25.019  1.00  0.00     0.226 C 
BRANCH   5   6
ATOM      6  N   UNL A   1      31.228  25.249  23.851  1.00  0.00    -0.330 N 
ATOM      7  C   UNL A   1      30.618  23.977  23.499  1.00  0.00     0.333 C 
ATOM      8  H   UNL A   1      30.452  25.818  24.189  1.00  0.00     0.348 HD
BRANCH   6   9
ATOM      9  C   UNL A   1      31.832  25.897  22.657  1.00  0.00     0.278 C 
BRANCH   9  10
ATOM     10  C   UNL A   1      31.806  27.421  22.515  1.00  0.00     0.197 C 
BRANCH  10  11
ATOM     11  S   UNL A   1      30.263  28.225  22.872  1.00  0.00     0.152 S 
ATOM     12  C   UNL A   1      30.664  29.437  24.107  1.00  0.00     0.158 C 
ATOM     13  O   UNL A   1      29.897  28.953  21.669  1.00  0.00    -0.229 OA
ATOM     14  O   UNL A   1      29.337  27.272  23.447  1.00  0.00    -0.229 OA
ENDBRANCH  10  11
ENDBRANCH   9  10
ENDBRANCH   6   9
ENDBRANCH   5   6
BRANCH   5  15
ATOM     15  C   UNL A   1      32.386  26.524  25.817  1.00  0.00     0.010 A 
ATOM     16  C   UNL A   1      31.462  27.084  26.710  1.00  0.00     0.010 A 
ATOM     17  C   UNL A   1      33.649  27.148  25.735  1.00  0.00     0.010 A 
ATOM     18  C   UNL A   1      31.779  28.206  27.485  1.00  0.00     0.001 A 
ATOM     19  C   UNL A   1      33.968  28.270  26.506  1.00  0.00     0.001 A 
ATOM     20  C   UNL A   1      33.031  28.798  27.385  1.00  0.00     0.000 A 
ENDBRANCH   5  15
ENDBRANCH   4   5
ENDBRANCH   2   4
ENDBRANCH   1   2
BRANCH   1  21
ATOM     21  C   UNL A   1      34.632  21.200  25.280  1.00  0.00     0.274 C 
BRANCH  21  22
ATOM     22  C   UNL A   1      36.085  21.280  24.823  1.00  0.00     0.275 C 
BRANCH  22  23
ATOM     23  O   UNL A   1      36.920  21.681  25.923  1.00  0.00    -0.458 OA
BRANCH  23  24
ATOM     24  C   UNL A   1      38.229  21.382  25.799  1.00  0.00     0.338 C 
ATOM     25  O   UNL A   1      38.719  20.339  25.385  1.00  0.00    -0.246 OA
BRANCH  24  26
ATOM     26  C   UNL A   1      39.062  22.521  26.226  1.00  0.00     0.060 A 
ATOM     27  C   UNL A   1      40.206  22.328  27.006  1.00  0.00     0.016 A 
ATOM     28  C   UNL A   1      38.610  23.813  25.955  1.00  0.00     0.016 A 
ATOM     29  C   UNL A   1      40.869  23.422  27.559  1.00  0.00     0.010 A 
ATOM     30  C   UNL A   1      39.326  24.911  26.435  1.00  0.00     0.010 A 
ATOM     31  C   UNL A   1      40.454  24.725  27.250  1.00  0.00    -0.014 A 
BRANCH  31  32
ATOM     32  C   UNL A   1      41.230  25.903  27.711  1.00  0.00     0.031 A 
ATOM     33  C   UNL A   1      40.579  26.979  28.531  1.00  0.00     0.074 A 
ATOM     34  C   UNL A   1      42.514  26.029  27.328  1.00  0.00     0.049 A 
ATOM     35  N   UNL A   1      41.035  28.165  28.843  1.00  0.00    -0.248 NA
ATOM     36  C   UNL A   1      39.241  26.687  29.066  1.00  0.00     0.031 C 
ATOM     37  C   UNL A   1      43.265  25.044  26.547  1.00  0.00     0.029 A 
ATOM     38  N   UNL A   1      43.408  27.051  27.522  1.00  0.00    -0.354 N 
ATOM     39  C   UNL A   1      40.028  28.778  29.575  1.00  0.00     0.074 A 
ATOM     40  C   UNL A   1      38.937  27.829  29.669  1.00  0.00     0.031 C 
ATOM     41  C   UNL A   1      44.504  25.507  26.330  1.00  0.00     0.029 A 
ATOM     42  C   UNL A   1      44.612  26.848  26.893  1.00  0.00     0.049 A 
ATOM     43  H   UNL A   1      43.207  27.852  28.059  1.00  0.00     0.167 HD
ATOM     44  C   UNL A   1      40.017  30.023  30.110  1.00  0.00     0.037 A 
ATOM     45  C   UNL A   1      45.668  27.666  26.739  1.00  0.00     0.037 A 
ATOM     46  C   UNL A   1      41.114  30.952  30.037  1.00  0.00     0.049 A 
ATOM     47  C   UNL A   1      45.616  29.050  27.312  1.00  0.00     0.074 A 
ATOM     48  C   UNL A   1      41.207  32.223  30.579  1.00  0.00     0.029 A 
ATOM     49  N   UNL A   1      42.314  30.709  29.385  1.00  0.00    -0.354 N 
ATOM     50  N   UNL A   1      44.651  29.629  27.983  1.00  0.00    -0.248 NA
ATOM     51  C   UNL A   1      46.794  29.900  27.095  1.00  0.00     0.031 C 
ATOM     52  C   UNL A   1      42.451  32.761  30.227  1.00  0.00     0.029 A 
ATOM     53  C   UNL A   1      43.145  31.811  29.497  1.00  0.00     0.049 A 
ATOM     54  H   UNL A   1      42.540  29.876  28.912  1.00  0.00     0.167 HD
ATOM     55  C   UNL A   1      45.104  30.907  28.275  1.00  0.00     0.074 A 
ATOM     56  C   UNL A   1      46.440  31.013  27.724  1.00  0.00     0.031 C 
ATOM     57  C   UNL A   1      44.469  31.903  28.937  1.00  0.00     0.037 A 
BRANCH  44  58
ATOM     58  C   UNL A   1      38.767  30.470  30.805  1.00  0.00     0.064 A 
ATOM     59  C   UNL A   1      38.650  30.444  32.202  1.00  0.00     0.173 A 
ATOM     60  C   UNL A   1      37.697  30.997  30.064  1.00  0.00     0.173 A 
ATOM     61  F   UNL A   1      39.645  29.947  32.951  1.00  0.00    -0.203 F 
ATOM     62  C   UNL A   1      37.502  30.918  32.831  1.00  0.00     0.198 A 
ATOM     63  C   UNL A   1      36.559  31.487  30.697  1.00  0.00     0.198 A 
ATOM     64  F   UNL A   1      37.767  31.052  28.725  1.00  0.00    -0.203 F 
ATOM     65  F   UNL A   1      37.402  30.870  34.166  1.00  0.00    -0.200 F 
ATOM     66  C   UNL A   1      36.462  31.445  32.080  1.00  0.00     0.200 A 
ATOM     67  F   UNL A   1      35.562  32.010  29.970  1.00  0.00    -0.200 F 
ATOM     68  F   UNL A   1      35.364  31.917  32.688  1.00  0.00    -0.200 F 
ENDBRANCH  44  58
BRANCH  45  69
ATOM     69  C   UNL A   1      46.849  27.195  25.975  1.00  0.00     0.064 A 
ATOM     70  C   UNL A   1      46.992  27.500  24.617  1.00  0.00     0.173 A 
ATOM     71  C   UNL A   1      47.870  26.460  26.595  1.00  0.00     0.173 A 
ATOM     72  F   UNL A   1      46.030  28.183  23.979  1.00  0.00    -0.203 F 
ATOM     73  C   UNL A   1      48.113  27.083  23.902  1.00  0.00     0.198 A 
ATOM     74  C   UNL A   1      49.001  26.064  25.887  1.00  0.00     0.198 A 
ATOM     75  F   UNL A   1      47.778  26.148  27.897  1.00  0.00    -0.203 F 
ATOM     76  F   UNL A   1      48.215  27.364  22.597  1.00  0.00    -0.200 F 
ATOM     77  C   UNL A   1      49.120  26.373  24.540  1.00  0.00     0.200 A 
ATOM     78  F   UNL A   1      49.978  25.391  26.510  1.00  0.00    -0.200 F 
ATOM     79  F   UNL A   1      50.204  25.984  23.856  1.00  0.00    -0.200 F 
ENDBRANCH  45  69
BRANCH  57  80
ATOM     80  C   UNL A   1      45.221  33.185  29.116  1.00  0.00     0.064 A 
ATOM     81  C   UNL A   1      45.105  34.234  28.192  1.00  0.00     0.173 A 
ATOM     82  C   UNL A   1      46.055  33.372  30.227  1.00  0.00     0.173 A 
ATOM     83  F   UNL A   1      44.335  34.092  27.104  1.00  0.00    -0.203 F 
ATOM     84  C   UNL A   1      45.812  35.420  28.367  1.00  0.00     0.198 A 
ATOM     85  C   UNL A   1      46.745  34.568  30.410  1.00  0.00     0.198 A 
ATOM     86  F   UNL A   1      46.198  32.396  31.137  1.00  0.00    -0.203 F 
ATOM     87  F   UNL A   1      45.720  36.394  27.452  1.00  0.00    -0.200 F 
ATOM     88  C   UNL A   1      46.628  35.587  29.478  1.00  0.00     0.200 A 
ATOM     89  F   UNL A   1      47.529  34.730  31.485  1.00  0.00    -0.200 F 
ATOM     90  F   UNL A   1      47.310  36.729  29.643  1.00  0.00    -0.200 F 
ENDBRANCH  57  80
ENDBRANCH  31  32
ENDBRANCH  24  26
ENDBRANCH  23  24
ENDBRANCH  22  23
ENDBRANCH  21  22
ENDBRANCH   1  21
TORSDOF 17
ENDMDL
