MODEL 1
REMARK VINA RESULT:     -12.5      0.000      0.000
REMARK SMILES O=C(OCCOC(=O)c1ccc(-c2c3nc(c(-c4c(F)c(F)c(F)c(F)c4F)c4ccc([nH]4)c(-c4c(F)c(F)c(F)c(F)c4F)c4nc(c(-c5c(F)c(F)c(F)c(F)c5F)c5ccc2[nH]5)C=C4)C=C3)cc1)C1=Cc2c(ccc(Cl)c2Oc2ccccc2)O[C@H]1C(F)(F)F
REMARK SMILES IDX 4 1 3 2 2 3 1 4 72 5 73 6 89 7 74 8 88 9 75 10 80 11 76 12
REMARK SMILES IDX 78 13 77 14 79 15 90 16 91 17 92 18 93 19 81 20 82 21 83 22
REMARK SMILES IDX 87 23 84 24 86 25 85 26 5 27 6 28 7 29 8 30 9 31 10 32 71 33
REMARK SMILES IDX 11 34 70 35 12 36 13 37 14 38 64 39 15 40 69 41 63 42 65 43
REMARK SMILES IDX 16 44 68 45 62 46 61 47 17 49 49 50 29 51 48 52 30 53 33 54
REMARK SMILES IDX 47 55 66 56 31 57 32 58 46 60 67 61 34 62 18 63 19 64 27 65
REMARK SMILES IDX 20 66 21 67 25 68 28 69 22 70 23 71 26 72 24 73 50 74 51 75
REMARK SMILES IDX 59 76 52 77 53 78 57 79 60 80 54 81 55 82 58 83 56 84 35 85
REMARK SMILES IDX 36 86 44 87 37 88 38 89 42 90 45 91 39 92 40 93 43 94 41 95
REMARK H PARENT 65 48 33 59
REMARK Flexibility Score: inf
ROOT
ATOM      1  C   UNL A   1      33.295  28.875  24.541  1.00  0.00     0.275 C 
ENDROOT
BRANCH   1   2
ATOM      2  O   UNL A   1      34.067  27.688  24.745  1.00  0.00    -0.459 OA
BRANCH   2   3
ATOM      3  C   UNL A   1      33.664  26.536  24.185  1.00  0.00     0.338 C 
ATOM      4  O   UNL A   1      33.795  26.313  22.990  1.00  0.00    -0.246 OA
BRANCH   3   5
ATOM      5  C   UNL A   1      32.876  25.646  25.053  1.00  0.00     0.088 C 
ATOM      6  C   UNL A   1      33.335  24.707  25.896  1.00  0.00     0.031 C 
ATOM      7  C   UNL A   1      31.439  25.517  24.715  1.00  0.00     0.316 C 
ATOM      8  C   UNL A   1      33.473  23.405  25.208  1.00  0.00     0.062 A 
ATOM      9  O   UNL A   1      31.090  24.072  24.750  1.00  0.00    -0.475 OA
ATOM     10  C   UNL A   1      32.155  23.142  24.686  1.00  0.00     0.131 A 
ATOM     11  C   UNL A   1      34.590  22.439  25.185  1.00  0.00     0.156 A 
ATOM     12  C   UNL A   1      31.861  21.867  24.265  1.00  0.00     0.049 A 
ATOM     13  C   UNL A   1      34.203  21.172  24.719  1.00  0.00     0.084 A 
ATOM     14  C   UNL A   1      32.875  20.896  24.297  1.00  0.00     0.028 A 
ATOM     15  Cl  UNL A   1      35.285  19.820  24.793  1.00  0.00    -0.080 Cl
BRANCH   7  16
ATOM     16  C   UNL A   1      30.702  26.459  25.708  1.00  0.00     0.430 C 
ATOM     17  F   UNL A   1      30.297  27.608  25.094  1.00  0.00    -0.167 F 
ATOM     18  F   UNL A   1      29.593  25.905  26.239  1.00  0.00    -0.167 F 
ATOM     19  F   UNL A   1      31.504  26.846  26.730  1.00  0.00    -0.167 F 
ENDBRANCH   7  16
BRANCH  11  20
ATOM     20  O   UNL A   1      35.766  22.388  25.999  1.00  0.00    -0.455 OA
BRANCH  20  21
ATOM     21  C   UNL A   1      37.089  22.897  25.901  1.00  0.00     0.127 A 
ATOM     22  C   UNL A   1      37.626  24.160  26.194  1.00  0.00     0.047 A 
ATOM     23  C   UNL A   1      38.047  21.843  25.744  1.00  0.00     0.047 A 
ATOM     24  C   UNL A   1      39.000  24.284  26.614  1.00  0.00     0.004 A 
ATOM     25  C   UNL A   1      39.391  21.960  26.196  1.00  0.00     0.004 A 
ATOM     26  C   UNL A   1      39.850  23.174  26.695  1.00  0.00     0.000 A 
ENDBRANCH  20  21
ENDBRANCH  11  20
ENDBRANCH   3   5
ENDBRANCH   2   3
ENDBRANCH   1   2
BRANCH   1  27
ATOM     27  C   UNL A   1      33.060  29.730  25.807  1.00  0.00     0.275 C 
BRANCH  27  28
ATOM     28  O   UNL A   1      34.088  29.653  26.704  1.00  0.00    -0.458 OA
BRANCH  28  29
ATOM     29  C   UNL A   1      34.143  30.852  27.299  1.00  0.00     0.338 C 
ATOM     30  O   UNL A   1      33.318  31.706  27.503  1.00  0.00    -0.246 OA
BRANCH  29  31
ATOM     31  C   UNL A   1      35.380  30.708  27.954  1.00  0.00     0.060 A 
ATOM     32  C   UNL A   1      35.622  29.392  28.299  1.00  0.00     0.016 A 
ATOM     33  C   UNL A   1      36.260  31.805  28.013  1.00  0.00     0.016 A 
ATOM     34  C   UNL A   1      36.806  29.173  28.885  1.00  0.00     0.010 A 
ATOM     35  C   UNL A   1      37.493  31.558  28.500  1.00  0.00     0.010 A 
ATOM     36  C   UNL A   1      37.693  30.261  28.968  1.00  0.00    -0.014 A 
BRANCH  36  37
ATOM     37  C   UNL A   1      38.871  30.000  29.718  1.00  0.00     0.031 A 
ATOM     38  C   UNL A   1      38.866  30.535  31.091  1.00  0.00     0.074 A 
ATOM     39  C   UNL A   1      39.703  29.162  29.101  1.00  0.00     0.049 A 
ATOM     40  N   UNL A   1      39.756  30.358  32.009  1.00  0.00    -0.248 NA
ATOM     41  C   UNL A   1      37.714  31.372  31.504  1.00  0.00     0.031 C 
ATOM     42  C   UNL A   1      39.531  28.635  27.734  1.00  0.00     0.029 A 
ATOM     43  N   UNL A   1      40.810  28.560  29.564  1.00  0.00    -0.354 N 
ATOM     44  C   UNL A   1      39.289  31.065  33.099  1.00  0.00     0.074 A 
ATOM     45  C   UNL A   1      38.050  31.704  32.739  1.00  0.00     0.031 C 
ATOM     46  C   UNL A   1      40.506  27.753  27.488  1.00  0.00     0.029 A 
ATOM     47  C   UNL A   1      41.385  27.736  28.642  1.00  0.00     0.049 A 
ATOM     48  H   UNL A   1      41.167  28.699  30.471  1.00  0.00     0.167 HD
ATOM     49  C   UNL A   1      39.899  31.133  34.294  1.00  0.00     0.037 A 
ATOM     50  C   UNL A   1      42.550  27.094  28.762  1.00  0.00     0.037 A 
ATOM     51  C   UNL A   1      41.136  30.444  34.521  1.00  0.00     0.049 A 
ATOM     52  C   UNL A   1      43.233  27.269  30.087  1.00  0.00     0.074 A 
ATOM     53  C   UNL A   1      41.917  30.415  35.652  1.00  0.00     0.029 A 
ATOM     54  N   UNL A   1      41.771  29.655  33.558  1.00  0.00    -0.354 N 
ATOM     55  N   UNL A   1      42.821  27.935  31.146  1.00  0.00    -0.248 NA
ATOM     56  C   UNL A   1      44.529  26.621  30.243  1.00  0.00     0.031 C 
ATOM     57  C   UNL A   1      43.056  29.660  35.351  1.00  0.00     0.029 A 
ATOM     58  C   UNL A   1      42.958  29.161  34.055  1.00  0.00     0.049 A 
ATOM     59  H   UNL A   1      41.421  29.477  32.655  1.00  0.00     0.167 HD
ATOM     60  C   UNL A   1      43.803  27.787  32.104  1.00  0.00     0.074 A 
ATOM     61  C   UNL A   1      44.812  26.927  31.501  1.00  0.00     0.031 C 
ATOM     62  C   UNL A   1      43.891  28.307  33.355  1.00  0.00     0.037 A 
BRANCH  49  63
ATOM     63  C   UNL A   1      39.285  32.010  35.331  1.00  0.00     0.064 A 
ATOM     64  C   UNL A   1      39.524  33.392  35.384  1.00  0.00     0.173 A 
ATOM     65  C   UNL A   1      38.466  31.447  36.319  1.00  0.00     0.173 A 
ATOM     66  F   UNL A   1      40.349  33.970  34.498  1.00  0.00    -0.203 F 
ATOM     67  C   UNL A   1      38.960  34.177  36.385  1.00  0.00     0.198 A 
ATOM     68  C   UNL A   1      37.883  32.239  37.302  1.00  0.00     0.198 A 
ATOM     69  F   UNL A   1      38.245  30.124  36.339  1.00  0.00    -0.203 F 
ATOM     70  F   UNL A   1      39.236  35.488  36.444  1.00  0.00    -0.200 F 
ATOM     71  C   UNL A   1      38.130  33.602  37.336  1.00  0.00     0.200 A 
ATOM     72  F   UNL A   1      37.090  31.678  38.227  1.00  0.00    -0.200 F 
ATOM     73  F   UNL A   1      37.578  34.361  38.292  1.00  0.00    -0.200 F 
ENDBRANCH  49  63
BRANCH  50  74
ATOM     74  C   UNL A   1      43.106  26.343  27.619  1.00  0.00     0.064 A 
ATOM     75  C   UNL A   1      43.882  26.976  26.646  1.00  0.00     0.173 A 
ATOM     76  C   UNL A   1      42.882  24.960  27.483  1.00  0.00     0.173 A 
ATOM     77  F   UNL A   1      44.140  28.289  26.746  1.00  0.00    -0.203 F 
ATOM     78  C   UNL A   1      44.370  26.271  25.550  1.00  0.00     0.198 A 
ATOM     79  C   UNL A   1      43.401  24.249  26.406  1.00  0.00     0.198 A 
ATOM     80  F   UNL A   1      42.171  24.295  28.406  1.00  0.00    -0.203 F 
ATOM     81  F   UNL A   1      45.057  26.915  24.598  1.00  0.00    -0.200 F 
ATOM     82  C   UNL A   1      44.129  24.910  25.430  1.00  0.00     0.200 A 
ATOM     83  F   UNL A   1      43.189  22.930  26.312  1.00  0.00    -0.200 F 
ATOM     84  F   UNL A   1      44.587  24.236  24.367  1.00  0.00    -0.200 F 
ENDBRANCH  50  74
BRANCH  62  85
ATOM     85  C   UNL A   1      45.117  27.928  34.113  1.00  0.00     0.064 A 
ATOM     86  C   UNL A   1      45.157  26.763  34.891  1.00  0.00     0.173 A 
ATOM     87  C   UNL A   1      46.273  28.713  34.014  1.00  0.00     0.173 A 
ATOM     88  F   UNL A   1      44.061  26.000  35.023  1.00  0.00    -0.203 F 
ATOM     89  C   UNL A   1      46.313  26.414  35.575  1.00  0.00     0.198 A 
ATOM     90  C   UNL A   1      47.439  28.335  34.663  1.00  0.00     0.198 A 
ATOM     91  F   UNL A   1      46.273  29.829  33.268  1.00  0.00    -0.203 F 
ATOM     92  F   UNL A   1      46.317  25.333  36.366  1.00  0.00    -0.200 F 
ATOM     93  C   UNL A   1      47.455  27.193  35.450  1.00  0.00     0.200 A 
ATOM     94  F   UNL A   1      48.548  29.072  34.522  1.00  0.00    -0.200 F 
ATOM     95  F   UNL A   1      48.574  26.844  36.097  1.00  0.00    -0.200 F 
ENDBRANCH  62  85
ENDBRANCH  36  37
ENDBRANCH  29  31
ENDBRANCH  28  29
ENDBRANCH  27  28
ENDBRANCH   1  27
TORSDOF 14
ENDMDL
MODEL 2
REMARK VINA RESULT:     -12.3      2.529      4.635
REMARK SMILES O=C(OCCOC(=O)c1ccc(-c2c3nc(c(-c4c(F)c(F)c(F)c(F)c4F)c4ccc([nH]4)c(-c4c(F)c(F)c(F)c(F)c4F)c4nc(c(-c5c(F)c(F)c(F)c(F)c5F)c5ccc2[nH]5)C=C4)C=C3)cc1)C1=Cc2c(ccc(Cl)c2Oc2ccccc2)O[C@H]1C(F)(F)F
REMARK SMILES IDX 4 1 3 2 2 3 1 4 72 5 73 6 89 7 74 8 88 9 75 10 80 11 76 12
REMARK SMILES IDX 78 13 77 14 79 15 90 16 91 17 92 18 93 19 81 20 82 21 83 22
REMARK SMILES IDX 87 23 84 24 86 25 85 26 5 27 6 28 7 29 8 30 9 31 10 32 71 33
REMARK SMILES IDX 11 34 70 35 12 36 13 37 14 38 64 39 15 40 69 41 63 42 65 43
REMARK SMILES IDX 16 44 68 45 62 46 61 47 17 49 49 50 29 51 48 52 30 53 33 54
REMARK SMILES IDX 47 55 66 56 31 57 32 58 46 60 67 61 34 62 18 63 19 64 27 65
REMARK SMILES IDX 20 66 21 67 25 68 28 69 22 70 23 71 26 72 24 73 50 74 51 75
REMARK SMILES IDX 59 76 52 77 53 78 57 79 60 80 54 81 55 82 58 83 56 84 35 85
REMARK SMILES IDX 36 86 44 87 37 88 38 89 42 90 45 91 39 92 40 93 43 94 41 95
REMARK H PARENT 65 48 33 59
REMARK Flexibility Score: inf
ROOT
ATOM      1  C   UNL A   1      32.373  29.641  25.420  1.00  0.00     0.275 C 
ENDROOT
BRANCH   1   2
ATOM      2  O   UNL A   1      33.144  28.443  25.286  1.00  0.00    -0.459 OA
BRANCH   2   3
ATOM      3  C   UNL A   1      33.559  28.061  24.067  1.00  0.00     0.338 C 
ATOM      4  O   UNL A   1      34.404  28.687  23.443  1.00  0.00    -0.246 OA
BRANCH   3   5
ATOM      5  C   UNL A   1      32.797  26.966  23.448  1.00  0.00     0.088 C 
ATOM      6  C   UNL A   1      31.822  27.063  22.529  1.00  0.00     0.031 C 
ATOM      7  C   UNL A   1      32.849  25.662  24.150  1.00  0.00     0.316 C 
ATOM      8  C   UNL A   1      30.500  27.204  23.177  1.00  0.00     0.062 A 
ATOM      9  O   UNL A   1      31.462  25.129  24.229  1.00  0.00    -0.475 OA
ATOM     10  C   UNL A   1      30.401  26.044  24.028  1.00  0.00     0.131 A 
ATOM     11  C   UNL A   1      29.397  28.153  22.924  1.00  0.00     0.156 A 
ATOM     12  C   UNL A   1      29.167  25.706  24.530  1.00  0.00     0.049 A 
ATOM     13  C   UNL A   1      28.182  27.738  23.495  1.00  0.00     0.084 A 
ATOM     14  C   UNL A   1      28.073  26.540  24.251  1.00  0.00     0.028 A 
ATOM     15  Cl  UNL A   1      26.702  28.578  23.162  1.00  0.00    -0.080 Cl
BRANCH   7  16
ATOM     16  C   UNL A   1      33.897  24.822  23.367  1.00  0.00     0.430 C 
ATOM     17  F   UNL A   1      33.373  23.629  22.962  1.00  0.00    -0.167 F 
ATOM     18  F   UNL A   1      34.341  25.436  22.252  1.00  0.00    -0.167 F 
ATOM     19  F   UNL A   1      34.974  24.515  24.131  1.00  0.00    -0.167 F 
ENDBRANCH   7  16
BRANCH  11  20
ATOM     20  O   UNL A   1      29.209  29.060  21.833  1.00  0.00    -0.455 OA
BRANCH  20  21
ATOM     21  C   UNL A   1      29.096  30.470  21.696  1.00  0.00     0.127 A 
ATOM     22  C   UNL A   1      28.527  31.265  20.689  1.00  0.00     0.047 A 
ATOM     23  C   UNL A   1      29.363  31.141  22.933  1.00  0.00     0.047 A 
ATOM     24  C   UNL A   1      27.974  32.557  21.011  1.00  0.00     0.004 A 
ATOM     25  C   UNL A   1      28.781  32.399  23.259  1.00  0.00     0.004 A 
ATOM     26  C   UNL A   1      28.028  33.079  22.310  1.00  0.00     0.000 A 
ENDBRANCH  20  21
ENDBRANCH  11  20
ENDBRANCH   3   5
ENDBRANCH   2   3
ENDBRANCH   1   2
BRANCH   1  27
ATOM     27  C   UNL A   1      32.683  30.482  26.681  1.00  0.00     0.275 C 
BRANCH  27  28
ATOM     28  O   UNL A   1      34.007  30.469  27.020  1.00  0.00    -0.458 OA
BRANCH  28  29
ATOM     29  C   UNL A   1      34.238  31.641  27.628  1.00  0.00     0.338 C 
ATOM     30  O   UNL A   1      33.543  32.599  27.856  1.00  0.00    -0.246 OA
BRANCH  29  31
ATOM     31  C   UNL A   1      35.453  31.316  28.259  1.00  0.00     0.060 A 
ATOM     32  C   UNL A   1      35.500  29.982  28.618  1.00  0.00     0.016 A 
ATOM     33  C   UNL A   1      36.490  32.267  28.286  1.00  0.00     0.016 A 
ATOM     34  C   UNL A   1      36.649  29.592  29.183  1.00  0.00     0.010 A 
ATOM     35  C   UNL A   1      37.682  31.839  28.751  1.00  0.00     0.010 A 
ATOM     36  C   UNL A   1      37.692  30.532  29.232  1.00  0.00    -0.014 A 
BRANCH  36  37
ATOM     37  C   UNL A   1      38.833  30.103  29.962  1.00  0.00     0.031 A 
ATOM     38  C   UNL A   1      38.900  30.584  31.353  1.00  0.00     0.074 A 
ATOM     39  C   UNL A   1      39.553  29.193  29.308  1.00  0.00     0.049 A 
ATOM     40  N   UNL A   1      39.766  30.267  32.256  1.00  0.00    -0.248 NA
ATOM     41  C   UNL A   1      37.861  31.540  31.806  1.00  0.00     0.031 C 
ATOM     42  C   UNL A   1      39.312  28.740  27.925  1.00  0.00     0.029 A 
ATOM     43  N   UNL A   1      40.581  28.444  29.740  1.00  0.00    -0.354 N 
ATOM     44  C   UNL A   1      39.395  30.986  33.374  1.00  0.00     0.074 A 
ATOM     45  C   UNL A   1      38.241  31.784  33.048  1.00  0.00     0.031 C 
ATOM     46  C   UNL A   1      40.170  27.755  27.639  1.00  0.00     0.029 A 
ATOM     47  C   UNL A   1      41.047  27.589  28.784  1.00  0.00     0.049 A 
ATOM     48  H   UNL A   1      40.957  28.505  30.647  1.00  0.00     0.167 HD
ATOM     49  C   UNL A   1      40.015  30.937  34.565  1.00  0.00     0.037 A 
ATOM     50  C   UNL A   1      42.125  26.806  28.871  1.00  0.00     0.037 A 
ATOM     51  C   UNL A   1      41.159  30.094  34.756  1.00  0.00     0.049 A 
ATOM     52  C   UNL A   1      42.830  26.848  30.194  1.00  0.00     0.074 A 
ATOM     53  C   UNL A   1      41.936  29.929  35.878  1.00  0.00     0.029 A 
ATOM     54  N   UNL A   1      41.688  29.269  33.761  1.00  0.00    -0.354 N 
ATOM     55  N   UNL A   1      42.509  27.522  31.280  1.00  0.00    -0.248 NA
ATOM     56  C   UNL A   1      44.038  26.042  30.315  1.00  0.00     0.031 C 
ATOM     57  C   UNL A   1      42.973  29.052  35.541  1.00  0.00     0.029 A 
ATOM     58  C   UNL A   1      42.808  28.616  34.229  1.00  0.00     0.049 A 
ATOM     59  H   UNL A   1      41.315  29.167  32.855  1.00  0.00     0.167 HD
ATOM     60  C   UNL A   1      43.469  27.220  32.223  1.00  0.00     0.074 A 
ATOM     61  C   UNL A   1      44.363  26.265  31.580  1.00  0.00     0.031 C 
ATOM     62  C   UNL A   1      43.627  27.680  33.490  1.00  0.00     0.037 A 
BRANCH  49  63
ATOM     63  C   UNL A   1      39.517  31.843  35.638  1.00  0.00     0.064 A 
ATOM     64  C   UNL A   1      38.531  31.450  36.556  1.00  0.00     0.173 A 
ATOM     65  C   UNL A   1      40.013  33.151  35.728  1.00  0.00     0.173 A 
ATOM     66  F   UNL A   1      37.980  30.229  36.476  1.00  0.00    -0.203 F 
ATOM     67  C   UNL A   1      38.065  32.332  37.527  1.00  0.00     0.198 A 
ATOM     68  C   UNL A   1      39.565  34.021  36.716  1.00  0.00     0.198 A 
ATOM     69  F   UNL A   1      40.923  33.590  34.844  1.00  0.00    -0.203 F 
ATOM     70  F   UNL A   1      37.092  31.951  38.367  1.00  0.00    -0.200 F 
ATOM     71  C   UNL A   1      38.592  33.612  37.614  1.00  0.00     0.200 A 
ATOM     72  F   UNL A   1      40.067  35.262  36.790  1.00  0.00    -0.200 F 
ATOM     73  F   UNL A   1      38.152  34.457  38.556  1.00  0.00    -0.200 F 
ENDBRANCH  49  63
BRANCH  50  74
ATOM     74  C   UNL A   1      42.579  26.034  27.697  1.00  0.00     0.064 A 
ATOM     75  C   UNL A   1      43.550  26.541  26.830  1.00  0.00     0.173 A 
ATOM     76  C   UNL A   1      42.058  24.756  27.424  1.00  0.00     0.173 A 
ATOM     77  F   UNL A   1      44.091  27.746  27.062  1.00  0.00    -0.203 F 
ATOM     78  C   UNL A   1      43.945  25.826  25.702  1.00  0.00     0.198 A 
ATOM     79  C   UNL A   1      42.480  24.027  26.317  1.00  0.00     0.198 A 
ATOM     80  F   UNL A   1      41.147  24.208  28.242  1.00  0.00    -0.203 F 
ATOM     81  F   UNL A   1      44.830  26.362  24.852  1.00  0.00    -0.200 F 
ATOM     82  C   UNL A   1      43.410  24.572  25.447  1.00  0.00     0.200 A 
ATOM     83  F   UNL A   1      41.981  22.805  26.093  1.00  0.00    -0.200 F 
ATOM     84  F   UNL A   1      43.781  23.891  24.354  1.00  0.00    -0.200 F 
ENDBRANCH  50  74
BRANCH  62  85
ATOM     85  C   UNL A   1      44.801  27.127  34.224  1.00  0.00     0.064 A 
ATOM     86  C   UNL A   1      44.708  25.927  34.940  1.00  0.00     0.173 A 
ATOM     87  C   UNL A   1      46.038  27.782  34.161  1.00  0.00     0.173 A 
ATOM     88  F   UNL A   1      43.533  25.286  35.038  1.00  0.00    -0.203 F 
ATOM     89  C   UNL A   1      45.816  25.416  35.601  1.00  0.00     0.198 A 
ATOM     90  C   UNL A   1      47.152  27.242  34.784  1.00  0.00     0.198 A 
ATOM     91  F   UNL A   1      46.165  28.927  33.473  1.00  0.00    -0.203 F 
ATOM     92  F   UNL A   1      45.696  24.301  36.336  1.00  0.00    -0.200 F 
ATOM     93  C   UNL A   1      47.038  26.066  35.512  1.00  0.00     0.200 A 
ATOM     94  F   UNL A   1      48.338  27.856  34.677  1.00  0.00    -0.200 F 
ATOM     95  F   UNL A   1      48.110  25.561  36.135  1.00  0.00    -0.200 F 
ENDBRANCH  62  85
ENDBRANCH  36  37
ENDBRANCH  29  31
ENDBRANCH  28  29
ENDBRANCH  27  28
ENDBRANCH   1  27
TORSDOF 14
ENDMDL
MODEL 3
REMARK VINA RESULT:     -12.3      1.743      2.989
REMARK SMILES O=C(OCCOC(=O)c1ccc(-c2c3nc(c(-c4c(F)c(F)c(F)c(F)c4F)c4ccc([nH]4)c(-c4c(F)c(F)c(F)c(F)c4F)c4nc(c(-c5c(F)c(F)c(F)c(F)c5F)c5ccc2[nH]5)C=C4)C=C3)cc1)C1=Cc2c(ccc(Cl)c2Oc2ccccc2)O[C@H]1C(F)(F)F
REMARK SMILES IDX 4 1 3 2 2 3 1 4 72 5 73 6 89 7 74 8 88 9 75 10 80 11 76 12
REMARK SMILES IDX 78 13 77 14 79 15 90 16 91 17 92 18 93 19 81 20 82 21 83 22
REMARK SMILES IDX 87 23 84 24 86 25 85 26 5 27 6 28 7 29 8 30 9 31 10 32 71 33
REMARK SMILES IDX 11 34 70 35 12 36 13 37 14 38 64 39 15 40 69 41 63 42 65 43
REMARK SMILES IDX 16 44 68 45 62 46 61 47 17 49 49 50 29 51 48 52 30 53 33 54
REMARK SMILES IDX 47 55 66 56 31 57 32 58 46 60 67 61 34 62 18 63 19 64 27 65
REMARK SMILES IDX 20 66 21 67 25 68 28 69 22 70 23 71 26 72 24 73 50 74 51 75
REMARK SMILES IDX 59 76 52 77 53 78 57 79 60 80 54 81 55 82 58 83 56 84 35 85
REMARK SMILES IDX 36 86 44 87 37 88 38 89 42 90 45 91 39 92 40 93 43 94 41 95
REMARK H PARENT 65 48 33 59
REMARK Flexibility Score: inf
ROOT
ATOM      1  C   UNL A   1      32.301  29.784  27.162  1.00  0.00     0.275 C 
ENDROOT
BRANCH   1   2
ATOM      2  O   UNL A   1      31.407  29.474  26.089  1.00  0.00    -0.459 OA
BRANCH   2   3
ATOM      3  C   UNL A   1      31.909  29.105  24.899  1.00  0.00     0.338 C 
ATOM      4  O   UNL A   1      33.008  29.479  24.514  1.00  0.00    -0.246 OA
BRANCH   3   5
ATOM      5  C   UNL A   1      30.979  28.394  24.008  1.00  0.00     0.088 C 
ATOM      6  C   UNL A   1      30.559  27.123  24.108  1.00  0.00     0.031 C 
ATOM      7  C   UNL A   1      30.759  29.009  22.677  1.00  0.00     0.316 C 
ATOM      8  C   UNL A   1      31.468  26.209  23.383  1.00  0.00     0.062 A 
ATOM      9  O   UNL A   1      30.852  27.932  21.655  1.00  0.00    -0.475 OA
ATOM     10  C   UNL A   1      31.484  26.725  22.037  1.00  0.00     0.131 A 
ATOM     11  C   UNL A   1      32.089  24.934  23.798  1.00  0.00     0.156 A 
ATOM     12  C   UNL A   1      31.980  25.924  21.035  1.00  0.00     0.049 A 
ATOM     13  C   UNL A   1      32.590  24.196  22.713  1.00  0.00     0.084 A 
ATOM     14  C   UNL A   1      32.513  24.670  21.376  1.00  0.00     0.028 A 
ATOM     15  Cl  UNL A   1      33.178  22.578  22.925  1.00  0.00    -0.080 Cl
BRANCH   7  16
ATOM     16  C   UNL A   1      29.409  29.769  22.800  1.00  0.00     0.430 C 
ATOM     17  F   UNL A   1      29.357  30.504  23.949  1.00  0.00    -0.167 F 
ATOM     18  F   UNL A   1      29.195  30.635  21.789  1.00  0.00    -0.167 F 
ATOM     19  F   UNL A   1      28.353  28.921  22.854  1.00  0.00    -0.167 F 
ENDBRANCH   7  16
BRANCH  11  20
ATOM     20  O   UNL A   1      31.809  24.115  24.937  1.00  0.00    -0.455 OA
BRANCH  20  21
ATOM     21  C   UNL A   1      32.513  23.744  26.115  1.00  0.00     0.127 A 
ATOM     22  C   UNL A   1      32.147  22.936  27.203  1.00  0.00     0.047 A 
ATOM     23  C   UNL A   1      33.913  24.025  26.002  1.00  0.00     0.047 A 
ATOM     24  C   UNL A   1      33.152  22.206  27.934  1.00  0.00     0.004 A 
ATOM     25  C   UNL A   1      34.901  23.274  26.697  1.00  0.00     0.004 A 
ATOM     26  C   UNL A   1      34.514  22.312  27.623  1.00  0.00     0.000 A 
ENDBRANCH  20  21
ENDBRANCH  11  20
ENDBRANCH   3   5
ENDBRANCH   2   3
ENDBRANCH   1   2
BRANCH   1  27
ATOM     27  C   UNL A   1      32.757  31.260  27.230  1.00  0.00     0.275 C 
BRANCH  27  28
ATOM     28  O   UNL A   1      34.116  31.401  27.220  1.00  0.00    -0.458 OA
BRANCH  28  29
ATOM     29  C   UNL A   1      34.372  32.507  27.932  1.00  0.00     0.338 C 
ATOM     30  O   UNL A   1      33.702  33.463  28.234  1.00  0.00    -0.246 OA
BRANCH  29  31
ATOM     31  C   UNL A   1      35.566  32.092  28.548  1.00  0.00     0.060 A 
ATOM     32  C   UNL A   1      35.507  30.765  28.931  1.00  0.00     0.016 A 
ATOM     33  C   UNL A   1      36.682  32.951  28.538  1.00  0.00     0.016 A 
ATOM     34  C   UNL A   1      36.630  30.288  29.483  1.00  0.00     0.010 A 
ATOM     35  C   UNL A   1      37.841  32.431  28.990  1.00  0.00     0.010 A 
ATOM     36  C   UNL A   1      37.750  31.137  29.496  1.00  0.00    -0.014 A 
BRANCH  36  37
ATOM     37  C   UNL A   1      38.864  30.624  30.213  1.00  0.00     0.031 A 
ATOM     38  C   UNL A   1      38.936  31.034  31.626  1.00  0.00     0.074 A 
ATOM     39  C   UNL A   1      39.553  29.718  29.521  1.00  0.00     0.049 A 
ATOM     40  N   UNL A   1      39.779  30.637  32.520  1.00  0.00    -0.248 NA
ATOM     41  C   UNL A   1      37.933  32.009  32.117  1.00  0.00     0.031 C 
ATOM     42  C   UNL A   1      39.307  29.344  28.115  1.00  0.00     0.029 A 
ATOM     43  N   UNL A   1      40.543  28.906  29.924  1.00  0.00    -0.354 N 
ATOM     44  C   UNL A   1      39.425  31.315  33.669  1.00  0.00     0.074 A 
ATOM     45  C   UNL A   1      38.309  32.176  33.374  1.00  0.00     0.031 C 
ATOM     46  C   UNL A   1      40.127  28.340  27.789  1.00  0.00     0.029 A 
ATOM     47  C   UNL A   1      40.984  28.081  28.931  1.00  0.00     0.049 A 
ATOM     48  H   UNL A   1      40.912  28.907  30.836  1.00  0.00     0.167 HD
ATOM     49  C   UNL A   1      40.030  31.181  34.861  1.00  0.00     0.037 A 
ATOM     50  C   UNL A   1      42.027  27.249  28.988  1.00  0.00     0.037 A 
ATOM     51  C   UNL A   1      41.136  30.282  35.021  1.00  0.00     0.049 A 
ATOM     52  C   UNL A   1      42.720  27.197  30.318  1.00  0.00     0.074 A 
ATOM     53  C   UNL A   1      41.893  30.030  36.140  1.00  0.00     0.029 A 
ATOM     54  N   UNL A   1      41.641  29.485  33.990  1.00  0.00    -0.354 N 
ATOM     55  N   UNL A   1      42.415  27.830  31.433  1.00  0.00    -0.248 NA
ATOM     56  C   UNL A   1      43.892  26.336  30.410  1.00  0.00     0.031 C 
ATOM     57  C   UNL A   1      42.896  29.128  35.769  1.00  0.00     0.029 A 
ATOM     58  C   UNL A   1      42.728  28.764  34.436  1.00  0.00     0.049 A 
ATOM     59  H   UNL A   1      41.273  29.444  33.077  1.00  0.00     0.167 HD
ATOM     60  C   UNL A   1      43.352  27.442  32.368  1.00  0.00     0.074 A 
ATOM     61  C   UNL A   1      44.212  26.483  31.687  1.00  0.00     0.031 C 
ATOM     62  C   UNL A   1      43.515  27.832  33.658  1.00  0.00     0.037 A 
BRANCH  49  63
ATOM     63  C   UNL A   1      39.559  32.054  35.974  1.00  0.00     0.064 A 
ATOM     64  C   UNL A   1      40.172  33.280  36.277  1.00  0.00     0.173 A 
ATOM     65  C   UNL A   1      38.492  31.637  36.781  1.00  0.00     0.173 A 
ATOM     66  F   UNL A   1      41.235  33.697  35.574  1.00  0.00    -0.203 F 
ATOM     67  C   UNL A   1      39.728  34.057  37.343  1.00  0.00     0.198 A 
ATOM     68  C   UNL A   1      38.034  32.427  37.828  1.00  0.00     0.198 A 
ATOM     69  F   UNL A   1      37.904  30.450  36.561  1.00  0.00    -0.203 F 
ATOM     70  F   UNL A   1      40.353  35.204  37.643  1.00  0.00    -0.200 F 
ATOM     71  C   UNL A   1      38.651  33.636  38.110  1.00  0.00     0.200 A 
ATOM     72  F   UNL A   1      37.000  32.012  38.575  1.00  0.00    -0.200 F 
ATOM     73  F   UNL A   1      38.216  34.390  39.129  1.00  0.00    -0.200 F 
ENDBRANCH  49  63
BRANCH  50  74
ATOM     74  C   UNL A   1      42.461  26.518  27.781  1.00  0.00     0.064 A 
ATOM     75  C   UNL A   1      41.948  25.255  27.477  1.00  0.00     0.173 A 
ATOM     76  C   UNL A   1      43.395  27.079  26.891  1.00  0.00     0.173 A 
ATOM     77  F   UNL A   1      41.039  24.690  28.285  1.00  0.00    -0.203 F 
ATOM     78  C   UNL A   1      42.391  24.554  26.359  1.00  0.00     0.198 A 
ATOM     79  C   UNL A   1      43.810  26.393  25.754  1.00  0.00     0.198 A 
ATOM     80  F   UNL A   1      43.896  28.303  27.117  1.00  0.00    -0.203 F 
ATOM     81  F   UNL A   1      41.931  23.318  26.125  1.00  0.00    -0.200 F 
ATOM     82  C   UNL A   1      43.321  25.122  25.500  1.00  0.00     0.200 A 
ATOM     83  F   UNL A   1      44.685  26.959  24.914  1.00  0.00    -0.200 F 
ATOM     84  F   UNL A   1      43.756  24.440  24.433  1.00  0.00    -0.200 F 
ENDBRANCH  50  74
BRANCH  62  85
ATOM     85  C   UNL A   1      44.657  27.195  34.373  1.00  0.00     0.064 A 
ATOM     86  C   UNL A   1      45.924  27.792  34.392  1.00  0.00     0.173 A 
ATOM     87  C   UNL A   1      44.461  26.005  35.086  1.00  0.00     0.173 A 
ATOM     88  F   UNL A   1      46.151  28.921  33.702  1.00  0.00    -0.203 F 
ATOM     89  C   UNL A   1      46.972  27.196  35.078  1.00  0.00     0.198 A 
ATOM     90  C   UNL A   1      45.500  25.438  35.809  1.00  0.00     0.198 A 
ATOM     91  F   UNL A   1      43.257  25.413  35.100  1.00  0.00    -0.203 F 
ATOM     92  F   UNL A   1      48.194  27.744  35.034  1.00  0.00    -0.200 F 
ATOM     93  C   UNL A   1      46.755  26.028  35.796  1.00  0.00     0.200 A 
ATOM     94  F   UNL A   1      45.285  24.325  36.522  1.00  0.00    -0.200 F 
ATOM     95  F   UNL A   1      47.764  25.464  36.473  1.00  0.00    -0.200 F 
ENDBRANCH  62  85
ENDBRANCH  36  37
ENDBRANCH  29  31
ENDBRANCH  28  29
ENDBRANCH  27  28
ENDBRANCH   1  27
TORSDOF 14
ENDMDL
