MODEL 1
REMARK VINA RESULT:      -9.4      0.000      0.000
REMARK SMILES C=CC[NH2+]CC(=O)N1CC[C@@H](CC(=O)OCCOC(=O)c2ccc(-c3c4nc(c(-c5c(F)c(F)c(F)c(F)c5F)c5ccc([nH]5)c(-c5c(F)c(F)c(F)c(F)c5F)c5nc(c(-c6c(F)c(F)c(F)c(F)c6F)c6ccc3[nH]6)C=C5)C=C4)cc2)C1
REMARK SMILES IDX 13 1 14 2 12 3 11 4 8 5 9 6 84 7 10 8 6 9 7 10 5 11 4 12
REMARK SMILES IDX 3 15 2 16 1 17 15 18 16 19 17 20 18 21 19 22 20 23 21 24
REMARK SMILES IDX 22 25 83 26 23 27 82 28 24 29 25 30 26 31 76 32 27 33 81 34
REMARK SMILES IDX 75 35 77 36 28 37 80 38 74 39 73 40 29 42 61 43 41 44 60 45
REMARK SMILES IDX 42 46 45 47 59 48 78 49 43 50 44 51 58 53 79 54 46 55 30 56
REMARK SMILES IDX 31 57 39 58 32 59 33 60 37 61 40 62 34 63 35 64 38 65 36 66
REMARK SMILES IDX 62 67 63 68 71 69 64 70 65 71 69 72 72 73 66 74 67 75 70 76
REMARK SMILES IDX 68 77 47 78 48 79 56 80 49 81 50 82 54 83 57 84 51 85 52 86
REMARK SMILES IDX 55 87 53 88
REMARK H PARENT 4 13 4 14 77 41 45 52
REMARK Flexibility Score: inf
ROOT
ATOM      1  C   UNL A   1      33.016  34.369  28.032  1.00  0.00     0.306 C 
ATOM      2  O   UNL A   1      32.405  33.504  27.421  1.00  0.00    -0.252 OA
ENDROOT
BRANCH   1   3
ATOM      3  C   UNL A   1      34.522  34.444  28.085  1.00  0.00     0.128 C 
BRANCH   3   4
ATOM      4  C   UNL A   1      35.193  33.670  29.237  1.00  0.00     0.021 C 
ATOM      5  N   UNL A   1      35.706  31.518  28.412  1.00  0.00    -0.338 N 
ATOM      6  C   UNL A   1      36.849  32.359  28.085  1.00  0.00     0.120 C 
ATOM      7  C   UNL A   1      34.831  32.190  29.352  1.00  0.00     0.124 C 
ATOM      8  C   UNL A   1      36.711  33.571  29.004  1.00  0.00     0.027 C 
BRANCH   5   9
ATOM      9  C   UNL A   1      35.376  30.277  27.907  1.00  0.00     0.277 C 
ATOM     10  O   UNL A   1      36.206  29.366  27.831  1.00  0.00    -0.268 OA
BRANCH   9  11
ATOM     11  C   UNL A   1      33.941  30.044  27.417  1.00  0.00     0.362 C 
BRANCH  11  12
ATOM     12  N   UNL A   1      33.838  29.991  25.947  1.00  0.00    -0.335 N 
ATOM     13  H   UNL A   1      33.344  30.822  25.620  1.00  0.00     0.347 HD
ATOM     14  H   UNL A   1      34.782  29.953  25.562  1.00  0.00     0.347 HD
BRANCH  12  15
ATOM     15  C   UNL A   1      33.119  28.810  25.502  1.00  0.00     0.289 C 
BRANCH  15  16
ATOM     16  C   UNL A   1      33.770  27.559  25.994  1.00  0.00     0.025 C 
ATOM     17  C   UNL A   1      33.212  26.346  25.888  1.00  0.00     0.010 C 
ENDBRANCH  15  16
ENDBRANCH  12  15
ENDBRANCH  11  12
ENDBRANCH   9  11
ENDBRANCH   5   9
ENDBRANCH   3   4
ENDBRANCH   1   3
BRANCH   1  18
ATOM     18  O   UNL A   1      32.463  35.376  28.755  1.00  0.00    -0.462 OA
BRANCH  18  19
ATOM     19  C   UNL A   1      33.257  36.563  28.943  1.00  0.00     0.274 C 
BRANCH  19  20
ATOM     20  C   UNL A   1      33.150  37.080  30.380  1.00  0.00     0.275 C 
BRANCH  20  21
ATOM     21  O   UNL A   1      32.509  36.084  31.200  1.00  0.00    -0.458 OA
BRANCH  21  22
ATOM     22  C   UNL A   1      32.835  36.081  32.509  1.00  0.00     0.338 C 
ATOM     23  O   UNL A   1      32.316  36.701  33.418  1.00  0.00    -0.246 OA
BRANCH  22  24
ATOM     24  C   UNL A   1      33.976  35.179  32.720  1.00  0.00     0.060 A 
ATOM     25  C   UNL A   1      33.772  33.890  33.219  1.00  0.00     0.016 A 
ATOM     26  C   UNL A   1      35.267  35.668  32.520  1.00  0.00     0.016 A 
ATOM     27  C   UNL A   1      34.867  33.090  33.547  1.00  0.00     0.010 A 
ATOM     28  C   UNL A   1      36.361  34.853  32.814  1.00  0.00     0.010 A 
ATOM     29  C   UNL A   1      36.170  33.568  33.350  1.00  0.00    -0.014 A 
BRANCH  29  30
ATOM     30  C   UNL A   1      37.347  32.757  33.741  1.00  0.00     0.031 A 
ATOM     31  C   UNL A   1      38.036  33.031  35.048  1.00  0.00     0.074 A 
ATOM     32  C   UNL A   1      37.812  31.800  32.917  1.00  0.00     0.049 A 
ATOM     33  N   UNL A   1      39.174  32.569  35.499  1.00  0.00    -0.248 NA
ATOM     34  C   UNL A   1      37.351  33.953  35.968  1.00  0.00     0.031 C 
ATOM     35  C   UNL A   1      37.201  31.411  31.647  1.00  0.00     0.029 A 
ATOM     36  N   UNL A   1      38.918  30.994  33.020  1.00  0.00    -0.354 N 
ATOM     37  C   UNL A   1      39.353  33.159  36.744  1.00  0.00     0.074 A 
ATOM     38  C   UNL A   1      38.213  34.021  36.973  1.00  0.00     0.031 C 
ATOM     39  C   UNL A   1      37.944  30.444  31.084  1.00  0.00     0.029 A 
ATOM     40  C   UNL A   1      39.109  30.188  31.926  1.00  0.00     0.049 A 
ATOM     41  H   UNL A   1      39.516  30.995  33.802  1.00  0.00     0.167 HD
ATOM     42  C   UNL A   1      40.377  32.992  37.613  1.00  0.00     0.037 A 
ATOM     43  C   UNL A   1      40.131  29.366  31.621  1.00  0.00     0.037 A 
ATOM     44  C   UNL A   1      41.506  32.129  37.381  1.00  0.00     0.049 A 
ATOM     45  C   UNL A   1      41.288  29.248  32.576  1.00  0.00     0.074 A 
ATOM     46  C   UNL A   1      42.610  31.910  38.186  1.00  0.00     0.029 A 
ATOM     47  N   UNL A   1      41.669  31.335  36.255  1.00  0.00    -0.354 N 
ATOM     48  N   UNL A   1      41.470  29.838  33.732  1.00  0.00    -0.248 NA
ATOM     49  C   UNL A   1      42.387  28.357  32.177  1.00  0.00     0.031 C 
ATOM     50  C   UNL A   1      43.452  31.001  37.536  1.00  0.00     0.029 A 
ATOM     51  C   UNL A   1      42.855  30.627  36.344  1.00  0.00     0.049 A 
ATOM     52  H   UNL A   1      41.032  31.282  35.505  1.00  0.00     0.167 HD
ATOM     53  C   UNL A   1      42.689  29.376  34.207  1.00  0.00     0.074 A 
ATOM     54  C   UNL A   1      43.198  28.445  33.222  1.00  0.00     0.031 C 
ATOM     55  C   UNL A   1      43.333  29.696  35.356  1.00  0.00     0.037 A 
BRANCH  42  56
ATOM     56  C   UNL A   1      40.335  33.772  38.894  1.00  0.00     0.064 A 
ATOM     57  C   UNL A   1      41.008  34.994  39.029  1.00  0.00     0.173 A 
ATOM     58  C   UNL A   1      39.575  33.315  39.981  1.00  0.00     0.173 A 
ATOM     59  F   UNL A   1      41.759  35.466  38.022  1.00  0.00    -0.203 F 
ATOM     60  C   UNL A   1      40.934  35.725  40.212  1.00  0.00     0.198 A 
ATOM     61  C   UNL A   1      39.485  34.059  41.155  1.00  0.00     0.198 A 
ATOM     62  F   UNL A   1      38.911  32.152  39.902  1.00  0.00    -0.203 F 
ATOM     63  F   UNL A   1      41.610  36.876  40.331  1.00  0.00    -0.200 F 
ATOM     64  C   UNL A   1      40.167  35.261  41.271  1.00  0.00     0.200 A 
ATOM     65  F   UNL A   1      38.736  33.613  42.173  1.00  0.00    -0.200 F 
ATOM     66  F   UNL A   1      40.088  35.970  42.405  1.00  0.00    -0.200 F 
ENDBRANCH  42  56
BRANCH  43  67
ATOM     67  C   UNL A   1      40.119  28.608  30.343  1.00  0.00     0.064 A 
ATOM     68  C   UNL A   1      40.763  29.110  29.204  1.00  0.00     0.173 A 
ATOM     69  C   UNL A   1      39.455  27.378  30.231  1.00  0.00     0.173 A 
ATOM     70  F   UNL A   1      41.387  30.296  29.256  1.00  0.00    -0.203 F 
ATOM     71  C   UNL A   1      40.731  28.416  27.996  1.00  0.00     0.198 A 
ATOM     72  C   UNL A   1      39.448  26.671  29.030  1.00  0.00     0.198 A 
ATOM     73  F   UNL A   1      38.820  26.858  31.291  1.00  0.00    -0.203 F 
ATOM     74  F   UNL A   1      41.318  28.939  26.911  1.00  0.00    -0.200 F 
ATOM     75  C   UNL A   1      40.079  27.195  27.912  1.00  0.00     0.200 A 
ATOM     76  F   UNL A   1      38.824  25.488  28.955  1.00  0.00    -0.200 F 
ATOM     77  F   UNL A   1      40.052  26.527  26.751  1.00  0.00    -0.200 F 
ENDBRANCH  43  67
BRANCH  55  78
ATOM     78  C   UNL A   1      44.635  29.003  35.623  1.00  0.00     0.064 A 
ATOM     79  C   UNL A   1      45.855  29.549  35.201  1.00  0.00     0.173 A 
ATOM     80  C   UNL A   1      44.661  27.793  36.332  1.00  0.00     0.173 A 
ATOM     81  F   UNL A   1      45.877  30.694  34.504  1.00  0.00    -0.203 F 
ATOM     82  C   UNL A   1      47.056  28.895  35.461  1.00  0.00     0.198 A 
ATOM     83  C   UNL A   1      45.865  27.154  36.610  1.00  0.00     0.198 A 
ATOM     84  F   UNL A   1      43.518  27.235  36.759  1.00  0.00    -0.203 F 
ATOM     85  F   UNL A   1      48.209  29.412  35.012  1.00  0.00    -0.200 F 
ATOM     86  C   UNL A   1      47.061  27.702  36.169  1.00  0.00     0.200 A 
ATOM     87  F   UNL A   1      45.869  26.006  37.300  1.00  0.00    -0.200 F 
ATOM     88  F   UNL A   1      48.219  27.074  36.419  1.00  0.00    -0.200 F 
ENDBRANCH  55  78
ENDBRANCH  29  30
ENDBRANCH  22  24
ENDBRANCH  21  22
ENDBRANCH  20  21
ENDBRANCH  19  20
ENDBRANCH  18  19
ENDBRANCH   1  18
TORSDOF 17
ENDMDL
MODEL 2
REMARK VINA RESULT:      -9.2      3.028      9.059
REMARK SMILES C=CC[NH2+]CC(=O)N1CC[C@@H](CC(=O)OCCOC(=O)c2ccc(-c3c4nc(c(-c5c(F)c(F)c(F)c(F)c5F)c5ccc([nH]5)c(-c5c(F)c(F)c(F)c(F)c5F)c5nc(c(-c6c(F)c(F)c(F)c(F)c6F)c6ccc3[nH]6)C=C5)C=C4)cc2)C1
REMARK SMILES IDX 13 1 14 2 12 3 11 4 8 5 9 6 84 7 10 8 6 9 7 10 5 11 4 12
REMARK SMILES IDX 3 15 2 16 1 17 15 18 16 19 17 20 18 21 19 22 20 23 21 24
REMARK SMILES IDX 22 25 83 26 23 27 82 28 24 29 25 30 26 31 76 32 27 33 81 34
REMARK SMILES IDX 75 35 77 36 28 37 80 38 74 39 73 40 29 42 61 43 41 44 60 45
REMARK SMILES IDX 42 46 45 47 59 48 78 49 43 50 44 51 58 53 79 54 46 55 30 56
REMARK SMILES IDX 31 57 39 58 32 59 33 60 37 61 40 62 34 63 35 64 38 65 36 66
REMARK SMILES IDX 62 67 63 68 71 69 64 70 65 71 69 72 72 73 66 74 67 75 70 76
REMARK SMILES IDX 68 77 47 78 48 79 56 80 49 81 50 82 54 83 57 84 51 85 52 86
REMARK SMILES IDX 55 87 53 88
REMARK H PARENT 4 13 4 14 77 41 45 52
REMARK Flexibility Score: inf
ROOT
ATOM      1  C   UNL A   1      30.228  28.663  22.934  1.00  0.00     0.306 C 
ATOM      2  O   UNL A   1      29.443  28.859  22.017  1.00  0.00    -0.252 OA
ENDROOT
BRANCH   1   3
ATOM      3  C   UNL A   1      31.016  27.386  23.095  1.00  0.00     0.128 C 
BRANCH   3   4
ATOM      4  C   UNL A   1      30.188  26.112  23.348  1.00  0.00     0.021 C 
ATOM      5  N   UNL A   1      31.240  24.948  25.112  1.00  0.00    -0.338 N 
ATOM      6  C   UNL A   1      30.313  25.878  25.739  1.00  0.00     0.120 C 
ATOM      7  C   UNL A   1      30.983  24.852  23.690  1.00  0.00     0.124 C 
ATOM      8  C   UNL A   1      29.342  26.265  24.624  1.00  0.00     0.027 C 
BRANCH   5   9
ATOM      9  C   UNL A   1      32.288  24.257  25.686  1.00  0.00     0.277 C 
ATOM     10  O   UNL A   1      33.445  24.368  25.269  1.00  0.00    -0.268 OA
BRANCH   9  11
ATOM     11  C   UNL A   1      31.989  23.319  26.863  1.00  0.00     0.362 C 
BRANCH  11  12
ATOM     12  N   UNL A   1      32.266  21.904  26.555  1.00  0.00    -0.335 N 
ATOM     13  H   UNL A   1      31.595  21.320  27.055  1.00  0.00     0.347 HD
ATOM     14  H   UNL A   1      32.181  21.775  25.547  1.00  0.00     0.347 HD
BRANCH  12  15
ATOM     15  C   UNL A   1      33.610  21.522  26.950  1.00  0.00     0.289 C 
BRANCH  15  16
ATOM     16  C   UNL A   1      34.429  21.116  25.770  1.00  0.00     0.025 C 
ATOM     17  C   UNL A   1      33.900  20.697  24.612  1.00  0.00     0.010 C 
ENDBRANCH  15  16
ENDBRANCH  12  15
ENDBRANCH  11  12
ENDBRANCH   9  11
ENDBRANCH   5   9
ENDBRANCH   3   4
ENDBRANCH   1   3
BRANCH   1  18
ATOM     18  O   UNL A   1      30.508  29.527  23.942  1.00  0.00    -0.462 OA
BRANCH  18  19
ATOM     19  C   UNL A   1      31.710  29.285  24.700  1.00  0.00     0.274 C 
BRANCH  19  20
ATOM     20  C   UNL A   1      31.854  30.289  25.846  1.00  0.00     0.275 C 
BRANCH  20  21
ATOM     21  O   UNL A   1      33.249  30.452  26.167  1.00  0.00    -0.458 OA
BRANCH  21  22
ATOM     22  C   UNL A   1      33.544  31.357  27.123  1.00  0.00     0.338 C 
ATOM     23  O   UNL A   1      32.902  32.331  27.465  1.00  0.00    -0.246 OA
BRANCH  22  24
ATOM     24  C   UNL A   1      34.828  31.000  27.743  1.00  0.00     0.060 A 
ATOM     25  C   UNL A   1      35.066  29.690  28.168  1.00  0.00     0.016 A 
ATOM     26  C   UNL A   1      35.755  32.010  28.001  1.00  0.00     0.016 A 
ATOM     27  C   UNL A   1      36.228  29.390  28.878  1.00  0.00     0.010 A 
ATOM     28  C   UNL A   1      36.934  31.701  28.680  1.00  0.00     0.010 A 
ATOM     29  C   UNL A   1      37.169  30.394  29.143  1.00  0.00    -0.014 A 
BRANCH  29  30
ATOM     30  C   UNL A   1      38.384  30.111  29.943  1.00  0.00     0.031 A 
ATOM     31  C   UNL A   1      39.435  29.188  29.396  1.00  0.00     0.074 A 
ATOM     32  C   UNL A   1      38.530  30.657  31.164  1.00  0.00     0.049 A 
ATOM     33  N   UNL A   1      40.477  28.669  29.994  1.00  0.00    -0.248 NA
ATOM     34  C   UNL A   1      39.290  28.794  27.985  1.00  0.00     0.031 C 
ATOM     35  C   UNL A   1      37.602  31.604  31.782  1.00  0.00     0.029 A 
ATOM     36  N   UNL A   1      39.508  30.477  32.111  1.00  0.00    -0.354 N 
ATOM     37  C   UNL A   1      41.099  27.871  29.041  1.00  0.00     0.074 A 
ATOM     38  C   UNL A   1      40.313  27.965  27.830  1.00  0.00     0.031 C 
ATOM     39  C   UNL A   1      38.051  31.918  33.008  1.00  0.00     0.029 A 
ATOM     40  C   UNL A   1      39.265  31.153  33.281  1.00  0.00     0.049 A 
ATOM     41  H   UNL A   1      40.305  29.919  31.964  1.00  0.00     0.167 HD
ATOM     42  C   UNL A   1      42.225  27.131  29.172  1.00  0.00     0.037 A 
ATOM     43  C   UNL A   1      39.927  31.125  34.453  1.00  0.00     0.037 A 
ATOM     44  C   UNL A   1      43.005  27.046  30.380  1.00  0.00     0.049 A 
ATOM     45  C   UNL A   1      41.139  30.244  34.590  1.00  0.00     0.074 A 
ATOM     46  C   UNL A   1      44.147  26.303  30.624  1.00  0.00     0.029 A 
ATOM     47  N   UNL A   1      42.721  27.738  31.548  1.00  0.00    -0.354 N 
ATOM     48  N   UNL A   1      41.698  29.462  33.700  1.00  0.00    -0.248 NA
ATOM     49  C   UNL A   1      41.803  30.233  35.901  1.00  0.00     0.031 C 
ATOM     50  C   UNL A   1      44.540  26.527  31.947  1.00  0.00     0.029 A 
ATOM     51  C   UNL A   1      43.665  27.438  32.515  1.00  0.00     0.049 A 
ATOM     52  H   UNL A   1      41.962  28.354  31.669  1.00  0.00     0.167 HD
ATOM     53  C   UNL A   1      42.790  28.884  34.333  1.00  0.00     0.074 A 
ATOM     54  C   UNL A   1      42.823  29.415  35.680  1.00  0.00     0.031 C 
ATOM     55  C   UNL A   1      43.684  27.990  33.845  1.00  0.00     0.037 A 
BRANCH  42  56
ATOM     56  C   UNL A   1      42.676  26.337  27.982  1.00  0.00     0.064 A 
ATOM     57  C   UNL A   1      42.194  25.043  27.740  1.00  0.00     0.173 A 
ATOM     58  C   UNL A   1      43.562  26.894  27.049  1.00  0.00     0.173 A 
ATOM     59  F   UNL A   1      41.355  24.461  28.612  1.00  0.00    -0.203 F 
ATOM     60  C   UNL A   1      42.594  24.328  26.614  1.00  0.00     0.198 A 
ATOM     61  C   UNL A   1      43.944  26.186  25.912  1.00  0.00     0.198 A 
ATOM     62  F   UNL A   1      44.050  28.130  27.232  1.00  0.00    -0.203 F 
ATOM     63  F   UNL A   1      42.145  23.081  26.418  1.00  0.00    -0.200 F 
ATOM     64  C   UNL A   1      43.462  24.903  25.697  1.00  0.00     0.200 A 
ATOM     65  F   UNL A   1      44.774  26.747  25.022  1.00  0.00    -0.200 F 
ATOM     66  F   UNL A   1      43.839  24.218  24.608  1.00  0.00    -0.200 F 
ENDBRANCH  42  56
BRANCH  43  67
ATOM     67  C   UNL A   1      39.444  31.938  35.598  1.00  0.00     0.064 A 
ATOM     68  C   UNL A   1      39.919  33.240  35.808  1.00  0.00     0.173 A 
ATOM     69  C   UNL A   1      38.510  31.428  36.512  1.00  0.00     0.173 A 
ATOM     70  F   UNL A   1      40.835  33.759  34.976  1.00  0.00    -0.203 F 
ATOM     71  C   UNL A   1      39.490  33.996  36.896  1.00  0.00     0.198 A 
ATOM     72  C   UNL A   1      38.059  32.196  37.584  1.00  0.00     0.198 A 
ATOM     73  F   UNL A   1      38.028  30.187  36.357  1.00  0.00    -0.203 F 
ATOM     74  F   UNL A   1      39.993  35.221  37.098  1.00  0.00    -0.200 F 
ATOM     75  C   UNL A   1      38.556  33.475  37.780  1.00  0.00     0.200 A 
ATOM     76  F   UNL A   1      37.151  31.692  38.430  1.00  0.00    -0.200 F 
ATOM     77  F   UNL A   1      38.141  34.204  38.825  1.00  0.00    -0.200 F 
ENDBRANCH  43  67
BRANCH  55  78
ATOM     78  C   UNL A   1      44.792  27.565  34.760  1.00  0.00     0.064 A 
ATOM     79  C   UNL A   1      45.991  28.286  34.843  1.00  0.00     0.173 A 
ATOM     80  C   UNL A   1      44.638  26.439  35.582  1.00  0.00     0.173 A 
ATOM     81  F   UNL A   1      46.189  29.359  34.063  1.00  0.00    -0.203 F 
ATOM     82  C   UNL A   1      47.008  27.880  35.702  1.00  0.00     0.198 A 
ATOM     83  C   UNL A   1      45.648  26.049  36.456  1.00  0.00     0.198 A 
ATOM     84  F   UNL A   1      43.506  25.720  35.540  1.00  0.00    -0.203 F 
ATOM     85  F   UNL A   1      48.164  28.558  35.736  1.00  0.00    -0.200 F 
ATOM     86  C   UNL A   1      46.834  26.766  36.511  1.00  0.00     0.200 A 
ATOM     87  F   UNL A   1      45.476  24.978  37.242  1.00  0.00    -0.200 F 
ATOM     88  F   UNL A   1      47.816  26.377  37.338  1.00  0.00    -0.200 F 
ENDBRANCH  55  78
ENDBRANCH  29  30
ENDBRANCH  22  24
ENDBRANCH  21  22
ENDBRANCH  20  21
ENDBRANCH  19  20
ENDBRANCH  18  19
ENDBRANCH   1  18
TORSDOF 17
ENDMDL
MODEL 3
REMARK VINA RESULT:      -9.2      3.643      9.650
REMARK SMILES C=CC[NH2+]CC(=O)N1CC[C@@H](CC(=O)OCCOC(=O)c2ccc(-c3c4nc(c(-c5c(F)c(F)c(F)c(F)c5F)c5ccc([nH]5)c(-c5c(F)c(F)c(F)c(F)c5F)c5nc(c(-c6c(F)c(F)c(F)c(F)c6F)c6ccc3[nH]6)C=C5)C=C4)cc2)C1
REMARK SMILES IDX 13 1 14 2 12 3 11 4 8 5 9 6 84 7 10 8 6 9 7 10 5 11 4 12
REMARK SMILES IDX 3 15 2 16 1 17 15 18 16 19 17 20 18 21 19 22 20 23 21 24
REMARK SMILES IDX 22 25 83 26 23 27 82 28 24 29 25 30 26 31 76 32 27 33 81 34
REMARK SMILES IDX 75 35 77 36 28 37 80 38 74 39 73 40 29 42 61 43 41 44 60 45
REMARK SMILES IDX 42 46 45 47 59 48 78 49 43 50 44 51 58 53 79 54 46 55 30 56
REMARK SMILES IDX 31 57 39 58 32 59 33 60 37 61 40 62 34 63 35 64 38 65 36 66
REMARK SMILES IDX 62 67 63 68 71 69 64 70 65 71 69 72 72 73 66 74 67 75 70 76
REMARK SMILES IDX 68 77 47 78 48 79 56 80 49 81 50 82 54 83 57 84 51 85 52 86
REMARK SMILES IDX 55 87 53 88
REMARK H PARENT 4 13 4 14 77 41 45 52
REMARK Flexibility Score: inf
ROOT
ATOM      1  C   UNL A   1      33.233  26.512  23.929  1.00  0.00     0.306 C 
ATOM      2  O   UNL A   1      33.457  27.070  22.864  1.00  0.00    -0.252 OA
ENDROOT
BRANCH   1   3
ATOM      3  C   UNL A   1      33.044  25.021  24.063  1.00  0.00     0.128 C 
BRANCH   3   4
ATOM      4  C   UNL A   1      33.999  24.144  23.231  1.00  0.00     0.021 C 
ATOM      5  N   UNL A   1      33.726  21.923  23.987  1.00  0.00    -0.338 N 
ATOM      6  C   UNL A   1      32.728  22.121  22.946  1.00  0.00     0.120 C 
ATOM      7  C   UNL A   1      34.690  23.005  23.981  1.00  0.00     0.124 C 
ATOM      8  C   UNL A   1      33.213  23.347  22.174  1.00  0.00     0.027 C 
BRANCH   5   9
ATOM      9  C   UNL A   1      33.797  20.922  24.934  1.00  0.00     0.277 C 
ATOM     10  O   UNL A   1      34.768  20.809  25.688  1.00  0.00    -0.268 OA
BRANCH   9  11
ATOM     11  C   UNL A   1      32.638  19.922  25.029  1.00  0.00     0.362 C 
BRANCH  11  12
ATOM     12  N   UNL A   1      32.929  18.787  25.925  1.00  0.00    -0.335 N 
ATOM     13  H   UNL A   1      33.933  18.761  26.109  1.00  0.00     0.347 HD
ATOM     14  H   UNL A   1      32.404  18.920  26.789  1.00  0.00     0.347 HD
BRANCH  12  15
ATOM     15  C   UNL A   1      32.525  17.522  25.337  1.00  0.00     0.289 C 
BRANCH  15  16
ATOM     16  C   UNL A   1      33.700  16.767  24.810  1.00  0.00     0.025 C 
ATOM     17  C   UNL A   1      34.029  16.725  23.512  1.00  0.00     0.010 C 
ENDBRANCH  15  16
ENDBRANCH  12  15
ENDBRANCH  11  12
ENDBRANCH   9  11
ENDBRANCH   5   9
ENDBRANCH   3   4
ENDBRANCH   1   3
BRANCH   1  18
ATOM     18  O   UNL A   1      33.108  27.119  25.136  1.00  0.00    -0.462 OA
BRANCH  18  19
ATOM     19  C   UNL A   1      31.882  27.835  25.388  1.00  0.00     0.274 C 
BRANCH  19  20
ATOM     20  C   UNL A   1      32.064  29.339  25.170  1.00  0.00     0.275 C 
BRANCH  20  21
ATOM     21  O   UNL A   1      33.336  29.749  25.706  1.00  0.00    -0.458 OA
BRANCH  21  22
ATOM     22  C   UNL A   1      33.314  30.752  26.609  1.00  0.00     0.338 C 
ATOM     23  O   UNL A   1      32.503  31.651  26.718  1.00  0.00    -0.246 OA
BRANCH  22  24
ATOM     24  C   UNL A   1      34.472  30.618  27.505  1.00  0.00     0.060 A 
ATOM     25  C   UNL A   1      35.343  31.694  27.696  1.00  0.00     0.016 A 
ATOM     26  C   UNL A   1      34.746  29.373  28.070  1.00  0.00     0.016 A 
ATOM     27  C   UNL A   1      36.512  31.519  28.435  1.00  0.00     0.010 A 
ATOM     28  C   UNL A   1      35.897  29.208  28.840  1.00  0.00     0.010 A 
ATOM     29  C   UNL A   1      36.799  30.273  29.010  1.00  0.00    -0.014 A 
BRANCH  29  30
ATOM     30  C   UNL A   1      38.062  30.048  29.754  1.00  0.00     0.031 A 
ATOM     31  C   UNL A   1      39.098  29.116  29.194  1.00  0.00     0.074 A 
ATOM     32  C   UNL A   1      38.265  30.655  30.938  1.00  0.00     0.049 A 
ATOM     33  N   UNL A   1      40.180  28.643  29.757  1.00  0.00    -0.248 NA
ATOM     34  C   UNL A   1      38.882  28.651  27.814  1.00  0.00     0.031 C 
ATOM     35  C   UNL A   1      37.355  31.617  31.560  1.00  0.00     0.029 A 
ATOM     36  N   UNL A   1      39.296  30.538  31.835  1.00  0.00    -0.354 N 
ATOM     37  C   UNL A   1      40.763  27.809  28.811  1.00  0.00     0.074 A 
ATOM     38  C   UNL A   1      39.910  27.831  27.642  1.00  0.00     0.031 C 
ATOM     39  C   UNL A   1      37.866  31.997  32.743  1.00  0.00     0.029 A 
ATOM     40  C   UNL A   1      39.106  31.266  32.983  1.00  0.00     0.049 A 
ATOM     41  H   UNL A   1      40.094  29.985  31.672  1.00  0.00     0.167 HD
ATOM     42  C   UNL A   1      41.908  27.094  28.914  1.00  0.00     0.037 A 
ATOM     43  C   UNL A   1      39.832  31.306  34.117  1.00  0.00     0.037 A 
ATOM     44  C   UNL A   1      42.754  27.080  30.078  1.00  0.00     0.049 A 
ATOM     45  C   UNL A   1      41.065  30.451  34.228  1.00  0.00     0.074 A 
ATOM     46  C   UNL A   1      43.921  26.367  30.294  1.00  0.00     0.029 A 
ATOM     47  N   UNL A   1      42.523  27.824  31.226  1.00  0.00    -0.354 N 
ATOM     48  N   UNL A   1      41.589  29.635  33.347  1.00  0.00    -0.248 NA
ATOM     49  C   UNL A   1      41.801  30.514  35.499  1.00  0.00     0.031 C 
ATOM     50  C   UNL A   1      44.382  26.662  31.581  1.00  0.00     0.029 A 
ATOM     51  C   UNL A   1      43.524  27.586  32.153  1.00  0.00     0.049 A 
ATOM     52  H   UNL A   1      41.760  28.433  31.360  1.00  0.00     0.167 HD
ATOM     53  C   UNL A   1      42.724  29.105  33.944  1.00  0.00     0.074 A 
ATOM     54  C   UNL A   1      42.822  29.702  35.260  1.00  0.00     0.031 C 
ATOM     55  C   UNL A   1      43.606  28.203  33.451  1.00  0.00     0.037 A 
BRANCH  42  56
ATOM     56  C   UNL A   1      42.307  26.250  27.740  1.00  0.00     0.064 A 
ATOM     57  C   UNL A   1      41.734  24.990  27.516  1.00  0.00     0.173 A 
ATOM     58  C   UNL A   1      43.236  26.725  26.804  1.00  0.00     0.173 A 
ATOM     59  F   UNL A   1      40.850  24.485  28.391  1.00  0.00    -0.203 F 
ATOM     60  C   UNL A   1      42.087  24.230  26.404  1.00  0.00     0.198 A 
ATOM     61  C   UNL A   1      43.572  25.973  25.681  1.00  0.00     0.198 A 
ATOM     62  F   UNL A   1      43.812  27.926  26.971  1.00  0.00    -0.203 F 
ATOM     63  F   UNL A   1      41.551  23.015  26.225  1.00  0.00    -0.200 F 
ATOM     64  C   UNL A   1      43.000  24.725  25.483  1.00  0.00     0.200 A 
ATOM     65  F   UNL A   1      44.447  26.457  24.788  1.00  0.00    -0.200 F 
ATOM     66  F   UNL A   1      43.333  23.997  24.409  1.00  0.00    -0.200 F 
ENDBRANCH  42  56
BRANCH  43  67
ATOM     67  C   UNL A   1      39.398  32.166  35.247  1.00  0.00     0.064 A 
ATOM     68  C   UNL A   1      38.585  31.657  36.268  1.00  0.00     0.173 A 
ATOM     69  C   UNL A   1      39.775  33.515  35.322  1.00  0.00     0.173 A 
ATOM     70  F   UNL A   1      38.176  30.380  36.224  1.00  0.00    -0.203 F 
ATOM     71  C   UNL A   1      38.154  32.468  37.316  1.00  0.00     0.198 A 
ATOM     72  C   UNL A   1      39.366  34.318  36.385  1.00  0.00     0.198 A 
ATOM     73  F   UNL A   1      40.548  34.051  34.367  1.00  0.00    -0.203 F 
ATOM     74  F   UNL A   1      37.341  31.966  38.256  1.00  0.00    -0.200 F 
ATOM     75  C   UNL A   1      38.549  33.795  37.377  1.00  0.00     0.200 A 
ATOM     76  F   UNL A   1      39.757  35.598  36.445  1.00  0.00    -0.200 F 
ATOM     77  F   UNL A   1      38.136  34.574  38.386  1.00  0.00    -0.200 F 
ENDBRANCH  43  67
BRANCH  55  78
ATOM     78  C   UNL A   1      44.770  27.841  34.322  1.00  0.00     0.064 A 
ATOM     79  C   UNL A   1      45.984  28.537  34.250  1.00  0.00     0.173 A 
ATOM     80  C   UNL A   1      44.658  26.801  35.258  1.00  0.00     0.173 A 
ATOM     81  F   UNL A   1      46.143  29.526  33.359  1.00  0.00    -0.203 F 
ATOM     82  C   UNL A   1      47.054  28.190  35.070  1.00  0.00     0.198 A 
ATOM     83  C   UNL A   1      45.721  26.472  36.091  1.00  0.00     0.198 A 
ATOM     84  F   UNL A   1      43.513  26.110  35.365  1.00  0.00    -0.203 F 
ATOM     85  F   UNL A   1      48.221  28.840  34.957  1.00  0.00    -0.200 F 
ATOM     86  C   UNL A   1      46.921  27.163  35.993  1.00  0.00     0.200 A 
ATOM     87  F   UNL A   1      45.589  25.485  36.987  1.00  0.00    -0.200 F 
ATOM     88  F   UNL A   1      47.953  26.831  36.782  1.00  0.00    -0.200 F 
ENDBRANCH  55  78
ENDBRANCH  29  30
ENDBRANCH  22  24
ENDBRANCH  21  22
ENDBRANCH  20  21
ENDBRANCH  19  20
ENDBRANCH  18  19
ENDBRANCH   1  18
TORSDOF 17
ENDMDL
