MODEL 1
REMARK VINA RESULT:     -13.0      0.000      0.000
REMARK SMILES CN1C(=O)C(=Cc2ccc(OCc3cccc(C(=O)OCCOC(=O)c4ccc(-c5c6nc(c(-c7c(F)c(F)c(F)c(F)c7F)c7ccc([nH]7)c(-c7c(F)c(F)c(F)c(F)c7F)c7nc(c(-c8c(F)c(F)c(F)c(F)c8F)c8ccc5[nH]8)C=C7)C=C6)cc4)c3)c(Cl)c2)C(=O)N(C)C1=S
REMARK SMILES IDX 21 1 20 2 18 3 19 4 17 5 13 6 14 7 89 8 15 9 16 10 12 11
REMARK SMILES IDX 11 12 10 13 7 14 8 15 92 16 9 17 90 18 91 19 6 20 1 21 2 22
REMARK SMILES IDX 3 23 97 24 4 25 5 26 95 27 98 28 93 29 96 30 94 31 22 32
REMARK SMILES IDX 23 33 24 34 25 35 26 36 27 37 88 38 28 39 87 40 29 41 30 42
REMARK SMILES IDX 31 43 81 44 32 45 86 46 80 47 82 48 33 49 85 50 79 51 78 52
REMARK SMILES IDX 34 54 66 55 46 56 65 57 47 58 50 59 64 60 83 61 48 62 49 63
REMARK SMILES IDX 63 65 84 66 51 67 35 68 36 69 44 70 37 71 38 72 42 73 45 74
REMARK SMILES IDX 39 75 40 76 43 77 41 78 67 79 68 80 76 81 69 82 70 83 74 84
REMARK SMILES IDX 77 85 71 86 72 87 75 88 73 89 52 90 53 91 61 92 54 93 55 94
REMARK SMILES IDX 59 95 62 96 56 97 57 98 60 99 58 100
REMARK H PARENT 82 53 50 64
REMARK Flexibility Score: inf
ROOT
ATOM      1  C   UNL A   1      42.849  21.035  26.132  1.00  0.00     0.275 C 
ENDROOT
BRANCH   1   2
ATOM      2  O   UNL A   1      41.560  21.539  26.544  1.00  0.00    -0.458 OA
BRANCH   2   3
ATOM      3  C   UNL A   1      40.475  20.768  26.273  1.00  0.00     0.338 C 
ATOM      4  O   UNL A   1      40.421  19.549  26.286  1.00  0.00    -0.246 OA
BRANCH   3   5
ATOM      5  C   UNL A   1      39.285  21.641  26.105  1.00  0.00     0.060 A 
ATOM      6  C   UNL A   1      37.151  22.102  25.024  1.00  0.00    -0.010 A 
ATOM      7  C   UNL A   1      37.224  23.420  25.506  1.00  0.00     0.007 A 
ATOM      8  C   UNL A   1      38.175  21.210  25.375  1.00  0.00     0.023 A 
ATOM      9  C   UNL A   1      38.284  23.831  26.315  1.00  0.00     0.001 A 
ATOM     10  C   UNL A   1      39.308  22.938  26.626  1.00  0.00     0.016 A 
BRANCH   6  11
ATOM     11  C   UNL A   1      35.964  21.722  24.155  1.00  0.00     0.265 C 
BRANCH  11  12
ATOM     12  O   UNL A   1      34.648  21.741  24.717  1.00  0.00    -0.487 OA
BRANCH  12  13
ATOM     13  C   UNL A   1      33.769  22.737  24.402  1.00  0.00     0.138 A 
ATOM     14  C   UNL A   1      32.307  24.944  23.450  1.00  0.00    -0.023 A 
ATOM     15  C   UNL A   1      33.368  24.423  22.703  1.00  0.00     0.012 A 
ATOM     16  C   UNL A   1      31.987  24.363  24.680  1.00  0.00     0.032 A 
ATOM     17  C   UNL A   1      34.068  23.311  23.160  1.00  0.00     0.048 A 
ATOM     18  C   UNL A   1      32.704  23.252  25.153  1.00  0.00     0.083 A 
ATOM     19  Cl  UNL A   1      32.164  22.565  26.641  1.00  0.00    -0.080 Cl
BRANCH  14  20
ATOM     20  C   UNL A   1      31.551  26.091  22.932  1.00  0.00     0.027 C 
ATOM     21  C   UNL A   1      33.453  28.829  26.245  1.00  0.00     0.156 C 
ATOM     22  N   UNL A   1      32.530  28.763  25.108  1.00  0.00    -0.288 N 
ATOM     23  C   UNL A   1      32.849  27.767  24.199  1.00  0.00     0.265 C 
ATOM     24  C   UNL A   1      31.509  29.712  24.915  1.00  0.00     0.185 C 
ATOM     25  O   UNL A   1      33.964  27.260  24.111  1.00  0.00    -0.268 OA
ATOM     26  C   UNL A   1      31.741  27.368  23.323  1.00  0.00     0.106 C 
ATOM     27  N   UNL A   1      30.647  29.463  23.822  1.00  0.00    -0.288 N 
ATOM     28  S   UNL A   1      31.359  31.072  25.916  1.00  0.00    -0.040 S 
ATOM     29  C   UNL A   1      30.722  28.361  22.963  1.00  0.00     0.265 C 
ATOM     30  C   UNL A   1      29.517  30.343  23.502  1.00  0.00     0.156 C 
ATOM     31  O   UNL A   1      29.960  28.176  22.015  1.00  0.00    -0.268 OA
ENDBRANCH  14  20
ENDBRANCH  12  13
ENDBRANCH  11  12
ENDBRANCH   6  11
ENDBRANCH   3   5
ENDBRANCH   2   3
ENDBRANCH   1   2
BRANCH   1  32
ATOM     32  C   UNL A   1      43.567  22.056  25.249  1.00  0.00     0.275 C 
BRANCH  32  33
ATOM     33  O   UNL A   1      42.835  23.292  25.280  1.00  0.00    -0.458 OA
BRANCH  33  34
ATOM     34  C   UNL A   1      43.571  24.424  25.328  1.00  0.00     0.338 C 
ATOM     35  O   UNL A   1      44.510  24.743  24.622  1.00  0.00    -0.246 OA
BRANCH  34  36
ATOM     36  C   UNL A   1      43.007  25.285  26.380  1.00  0.00     0.060 A 
ATOM     37  C   UNL A   1      43.430  26.610  26.447  1.00  0.00     0.016 A 
ATOM     38  C   UNL A   1      42.131  24.777  27.335  1.00  0.00     0.016 A 
ATOM     39  C   UNL A   1      43.018  27.430  27.492  1.00  0.00     0.010 A 
ATOM     40  C   UNL A   1      41.660  25.622  28.349  1.00  0.00     0.010 A 
ATOM     41  C   UNL A   1      42.118  26.951  28.453  1.00  0.00    -0.014 A 
BRANCH  41  42
ATOM     42  C   UNL A   1      41.710  27.822  29.590  1.00  0.00     0.031 A 
ATOM     43  C   UNL A   1      42.498  27.805  30.872  1.00  0.00     0.074 A 
ATOM     44  C   UNL A   1      40.657  28.655  29.473  1.00  0.00     0.049 A 
ATOM     45  N   UNL A   1      42.233  28.378  32.019  1.00  0.00    -0.248 NA
ATOM     46  C   UNL A   1      43.749  27.031  30.864  1.00  0.00     0.031 C 
ATOM     47  C   UNL A   1      39.832  28.814  28.275  1.00  0.00     0.029 A 
ATOM     48  N   UNL A   1      40.104  29.535  30.373  1.00  0.00    -0.354 N 
ATOM     49  C   UNL A   1      43.249  27.990  32.882  1.00  0.00     0.074 A 
ATOM     50  C   UNL A   1      44.136  27.130  32.128  1.00  0.00     0.031 C 
ATOM     51  C   UNL A   1      38.906  29.758  28.500  1.00  0.00     0.029 A 
ATOM     52  C   UNL A   1      39.017  30.215  29.882  1.00  0.00     0.049 A 
ATOM     53  H   UNL A   1      40.456  29.666  31.283  1.00  0.00     0.167 HD
ATOM     54  C   UNL A   1      43.425  28.319  34.184  1.00  0.00     0.037 A 
ATOM     55  C   UNL A   1      38.179  31.081  30.483  1.00  0.00     0.037 A 
ATOM     56  C   UNL A   1      42.575  29.220  34.918  1.00  0.00     0.049 A 
ATOM     57  C   UNL A   1      38.380  31.414  31.936  1.00  0.00     0.074 A 
ATOM     58  C   UNL A   1      42.686  29.634  36.234  1.00  0.00     0.029 A 
ATOM     59  N   UNL A   1      41.462  29.862  34.391  1.00  0.00    -0.354 N 
ATOM     60  N   UNL A   1      39.316  31.002  32.757  1.00  0.00    -0.248 NA
ATOM     61  C   UNL A   1      37.399  32.317  32.551  1.00  0.00     0.031 C 
ATOM     62  C   UNL A   1      41.620  30.496  36.515  1.00  0.00     0.029 A 
ATOM     63  C   UNL A   1      40.870  30.655  35.362  1.00  0.00     0.049 A 
ATOM     64  H   UNL A   1      41.142  29.766  33.466  1.00  0.00     0.167 HD
ATOM     65  C   UNL A   1      39.040  31.597  33.979  1.00  0.00     0.074 A 
ATOM     66  C   UNL A   1      37.864  32.421  33.788  1.00  0.00     0.031 C 
ATOM     67  C   UNL A   1      39.698  31.467  35.157  1.00  0.00     0.037 A 
BRANCH  54  68
ATOM     68  C   UNL A   1      44.565  27.670  34.915  1.00  0.00     0.064 A 
ATOM     69  C   UNL A   1      45.819  28.283  35.034  1.00  0.00     0.173 A 
ATOM     70  C   UNL A   1      44.383  26.422  35.531  1.00  0.00     0.173 A 
ATOM     71  F   UNL A   1      46.049  29.470  34.452  1.00  0.00    -0.203 F 
ATOM     72  C   UNL A   1      46.860  27.658  35.718  1.00  0.00     0.198 A 
ATOM     73  C   UNL A   1      45.416  25.812  36.238  1.00  0.00     0.198 A 
ATOM     74  F   UNL A   1      43.200  25.795  35.452  1.00  0.00    -0.203 F 
ATOM     75  F   UNL A   1      48.065  28.242  35.779  1.00  0.00    -0.200 F 
ATOM     76  C   UNL A   1      46.655  26.427  36.324  1.00  0.00     0.200 A 
ATOM     77  F   UNL A   1      45.212  24.629  36.833  1.00  0.00    -0.200 F 
ATOM     78  F   UNL A   1      47.656  25.830  36.986  1.00  0.00    -0.200 F 
ENDBRANCH  54  68
BRANCH  55  79
ATOM     79  C   UNL A   1      37.047  31.666  29.718  1.00  0.00     0.064 A 
ATOM     80  C   UNL A   1      35.925  30.895  29.384  1.00  0.00     0.173 A 
ATOM     81  C   UNL A   1      37.059  33.009  29.314  1.00  0.00     0.173 A 
ATOM     82  F   UNL A   1      35.879  29.598  29.722  1.00  0.00    -0.203 F 
ATOM     83  C   UNL A   1      34.861  31.445  28.671  1.00  0.00     0.198 A 
ATOM     84  C   UNL A   1      35.982  33.566  28.628  1.00  0.00     0.198 A 
ATOM     85  F   UNL A   1      38.112  33.788  29.603  1.00  0.00    -0.203 F 
ATOM     86  F   UNL A   1      33.816  30.677  28.332  1.00  0.00    -0.200 F 
ATOM     87  C   UNL A   1      34.887  32.781  28.302  1.00  0.00     0.200 A 
ATOM     88  F   UNL A   1      36.005  34.860  28.285  1.00  0.00    -0.200 F 
ATOM     89  F   UNL A   1      33.857  33.312  27.627  1.00  0.00    -0.200 F 
ENDBRANCH  55  79
BRANCH  67  90
ATOM     90  C   UNL A   1      39.172  32.248  36.325  1.00  0.00     0.064 A 
ATOM     91  C   UNL A   1      38.234  31.697  37.211  1.00  0.00     0.173 A 
ATOM     92  C   UNL A   1      39.632  33.548  36.577  1.00  0.00     0.173 A 
ATOM     93  F   UNL A   1      37.752  30.462  37.001  1.00  0.00    -0.203 F 
ATOM     94  C   UNL A   1      37.758  32.430  38.294  1.00  0.00     0.198 A 
ATOM     95  C   UNL A   1      39.172  34.269  37.676  1.00  0.00     0.198 A 
ATOM     96  F   UNL A   1      40.532  34.117  35.762  1.00  0.00    -0.203 F 
ATOM     97  F   UNL A   1      36.829  31.902  39.102  1.00  0.00    -0.200 F 
ATOM     98  C   UNL A   1      38.232  33.713  38.530  1.00  0.00     0.200 A 
ATOM     99  F   UNL A   1      39.638  35.504  37.908  1.00  0.00    -0.200 F 
ATOM    100  F   UNL A   1      37.774  34.415  39.574  1.00  0.00    -0.200 F 
ENDBRANCH  67  90
ENDBRANCH  41  42
ENDBRANCH  34  36
ENDBRANCH  33  34
ENDBRANCH  32  33
ENDBRANCH   1  32
TORSDOF 15
ENDMDL
MODEL 2
REMARK VINA RESULT:     -13.0      0.141      1.082
REMARK SMILES CN1C(=O)C(=Cc2ccc(OCc3cccc(C(=O)OCCOC(=O)c4ccc(-c5c6nc(c(-c7c(F)c(F)c(F)c(F)c7F)c7ccc([nH]7)c(-c7c(F)c(F)c(F)c(F)c7F)c7nc(c(-c8c(F)c(F)c(F)c(F)c8F)c8ccc5[nH]8)C=C7)C=C6)cc4)c3)c(Cl)c2)C(=O)N(C)C1=S
REMARK SMILES IDX 21 1 20 2 18 3 19 4 17 5 13 6 14 7 89 8 15 9 16 10 12 11
REMARK SMILES IDX 11 12 10 13 7 14 8 15 92 16 9 17 90 18 91 19 6 20 1 21 2 22
REMARK SMILES IDX 3 23 97 24 4 25 5 26 95 27 98 28 93 29 96 30 94 31 22 32
REMARK SMILES IDX 23 33 24 34 25 35 26 36 27 37 88 38 28 39 87 40 29 41 30 42
REMARK SMILES IDX 31 43 81 44 32 45 86 46 80 47 82 48 33 49 85 50 79 51 78 52
REMARK SMILES IDX 34 54 66 55 46 56 65 57 47 58 50 59 64 60 83 61 48 62 49 63
REMARK SMILES IDX 63 65 84 66 51 67 35 68 36 69 44 70 37 71 38 72 42 73 45 74
REMARK SMILES IDX 39 75 40 76 43 77 41 78 67 79 68 80 76 81 69 82 70 83 74 84
REMARK SMILES IDX 77 85 71 86 72 87 75 88 73 89 52 90 53 91 61 92 54 93 55 94
REMARK SMILES IDX 59 95 62 96 56 97 57 98 60 99 58 100
REMARK H PARENT 82 53 50 64
REMARK Flexibility Score: inf
ROOT
ATOM      1  C   UNL A   1      42.964  21.407  26.258  1.00  0.00     0.275 C 
ENDROOT
BRANCH   1   2
ATOM      2  O   UNL A   1      41.630  21.730  26.707  1.00  0.00    -0.458 OA
BRANCH   2   3
ATOM      3  C   UNL A   1      40.620  20.925  26.285  1.00  0.00     0.338 C 
ATOM      4  O   UNL A   1      40.653  19.712  26.160  1.00  0.00    -0.246 OA
BRANCH   3   5
ATOM      5  C   UNL A   1      39.381  21.732  26.140  1.00  0.00     0.060 A 
ATOM      6  C   UNL A   1      37.230  22.108  25.059  1.00  0.00    -0.010 A 
ATOM      7  C   UNL A   1      37.222  23.408  25.592  1.00  0.00     0.007 A 
ATOM      8  C   UNL A   1      38.304  21.265  25.384  1.00  0.00     0.023 A 
ATOM      9  C   UNL A   1      38.250  23.849  26.426  1.00  0.00     0.001 A 
ATOM     10  C   UNL A   1      39.323  23.007  26.711  1.00  0.00     0.016 A 
BRANCH   6  11
ATOM     11  C   UNL A   1      36.074  21.693  24.165  1.00  0.00     0.265 C 
BRANCH  11  12
ATOM     12  O   UNL A   1      34.746  21.677  24.697  1.00  0.00    -0.487 OA
BRANCH  12  13
ATOM     13  C   UNL A   1      33.862  22.672  24.397  1.00  0.00     0.138 A 
ATOM     14  C   UNL A   1      32.371  24.862  23.450  1.00  0.00    -0.023 A 
ATOM     15  C   UNL A   1      33.382  24.301  22.663  1.00  0.00     0.012 A 
ATOM     16  C   UNL A   1      32.117  24.330  24.716  1.00  0.00     0.032 A 
ATOM     17  C   UNL A   1      34.094  23.197  23.120  1.00  0.00     0.048 A 
ATOM     18  C   UNL A   1      32.847  23.227  25.188  1.00  0.00     0.083 A 
ATOM     19  Cl  UNL A   1      32.386  22.602  26.729  1.00  0.00    -0.080 Cl
BRANCH  14  20
ATOM     20  C   UNL A   1      31.600  26.000  22.934  1.00  0.00     0.027 C 
ATOM     21  C   UNL A   1      33.518  28.774  26.207  1.00  0.00     0.156 C 
ATOM     22  N   UNL A   1      32.582  28.693  25.082  1.00  0.00    -0.288 N 
ATOM     23  C   UNL A   1      32.898  27.695  24.175  1.00  0.00     0.265 C 
ATOM     24  C   UNL A   1      31.550  29.633  24.896  1.00  0.00     0.185 C 
ATOM     25  O   UNL A   1      34.016  27.196  24.077  1.00  0.00    -0.268 OA
ATOM     26  C   UNL A   1      31.783  27.280  23.315  1.00  0.00     0.106 C 
ATOM     27  N   UNL A   1      30.677  29.370  23.815  1.00  0.00    -0.288 N 
ATOM     28  S   UNL A   1      31.401  30.997  25.891  1.00  0.00    -0.040 S 
ATOM     29  C   UNL A   1      30.751  28.263  22.962  1.00  0.00     0.265 C 
ATOM     30  C   UNL A   1      29.535  30.237  23.503  1.00  0.00     0.156 C 
ATOM     31  O   UNL A   1      29.980  28.066  22.024  1.00  0.00    -0.268 OA
ENDBRANCH  14  20
ENDBRANCH  12  13
ENDBRANCH  11  12
ENDBRANCH   6  11
ENDBRANCH   3   5
ENDBRANCH   2   3
ENDBRANCH   1   2
BRANCH   1  32
ATOM     32  C   UNL A   1      43.326  22.226  25.019  1.00  0.00     0.275 C 
BRANCH  32  33
ATOM     33  O   UNL A   1      42.682  23.508  25.107  1.00  0.00    -0.458 OA
BRANCH  33  34
ATOM     34  C   UNL A   1      43.494  24.578  25.262  1.00  0.00     0.338 C 
ATOM     35  O   UNL A   1      44.494  24.862  24.628  1.00  0.00    -0.246 OA
BRANCH  34  36
ATOM     36  C   UNL A   1      42.934  25.419  26.329  1.00  0.00     0.060 A 
ATOM     37  C   UNL A   1      43.347  26.747  26.410  1.00  0.00     0.016 A 
ATOM     38  C   UNL A   1      42.070  24.893  27.286  1.00  0.00     0.016 A 
ATOM     39  C   UNL A   1      42.937  27.550  27.470  1.00  0.00     0.010 A 
ATOM     40  C   UNL A   1      41.602  25.721  28.315  1.00  0.00     0.010 A 
ATOM     41  C   UNL A   1      42.050  27.051  28.432  1.00  0.00    -0.014 A 
BRANCH  41  42
ATOM     42  C   UNL A   1      41.645  27.904  29.584  1.00  0.00     0.031 A 
ATOM     43  C   UNL A   1      42.434  27.861  30.866  1.00  0.00     0.074 A 
ATOM     44  C   UNL A   1      40.596  28.743  29.482  1.00  0.00     0.049 A 
ATOM     45  N   UNL A   1      42.171  28.416  32.023  1.00  0.00    -0.248 NA
ATOM     46  C   UNL A   1      43.681  27.083  30.845  1.00  0.00     0.031 C 
ATOM     47  C   UNL A   1      39.772  28.927  28.287  1.00  0.00     0.029 A 
ATOM     48  N   UNL A   1      40.047  29.610  30.397  1.00  0.00    -0.354 N 
ATOM     49  C   UNL A   1      43.186  28.008  32.879  1.00  0.00     0.074 A 
ATOM     50  C   UNL A   1      44.070  27.158  32.110  1.00  0.00     0.031 C 
ATOM     51  C   UNL A   1      38.849  29.870  28.529  1.00  0.00     0.029 A 
ATOM     52  C   UNL A   1      38.962  30.303  29.919  1.00  0.00     0.049 A 
ATOM     53  H   UNL A   1      40.399  29.723  31.310  1.00  0.00     0.167 HD
ATOM     54  C   UNL A   1      43.364  28.314  34.187  1.00  0.00     0.037 A 
ATOM     55  C   UNL A   1      38.128  31.161  30.535  1.00  0.00     0.037 A 
ATOM     56  C   UNL A   1      42.517  29.206  34.936  1.00  0.00     0.049 A 
ATOM     57  C   UNL A   1      38.331  31.468  31.993  1.00  0.00     0.074 A 
ATOM     58  C   UNL A   1      42.629  29.596  36.259  1.00  0.00     0.029 A 
ATOM     59  N   UNL A   1      41.407  29.861  34.421  1.00  0.00    -0.354 N 
ATOM     60  N   UNL A   1      39.265  31.038  32.807  1.00  0.00    -0.248 NA
ATOM     61  C   UNL A   1      37.353  32.364  32.624  1.00  0.00     0.031 C 
ATOM     62  C   UNL A   1      41.567  30.457  36.556  1.00  0.00     0.029 A 
ATOM     63  C   UNL A   1      40.818  30.639  35.405  1.00  0.00     0.049 A 
ATOM     64  H   UNL A   1      41.086  29.783  33.494  1.00  0.00     0.167 HD
ATOM     65  C   UNL A   1      38.992  31.613  34.039  1.00  0.00     0.074 A 
ATOM     66  C   UNL A   1      37.819  32.445  33.863  1.00  0.00     0.031 C 
ATOM     67  C   UNL A   1      39.649  31.460  35.215  1.00  0.00     0.037 A 
BRANCH  54  68
ATOM     68  C   UNL A   1      44.500  27.648  34.906  1.00  0.00     0.064 A 
ATOM     69  C   UNL A   1      45.771  28.232  34.995  1.00  0.00     0.173 A 
ATOM     70  C   UNL A   1      44.301  26.412  35.542  1.00  0.00     0.173 A 
ATOM     71  F   UNL A   1      46.018  29.406  34.392  1.00  0.00    -0.203 F 
ATOM     72  C   UNL A   1      46.808  27.591  35.668  1.00  0.00     0.198 A 
ATOM     73  C   UNL A   1      45.331  25.788  36.238  1.00  0.00     0.198 A 
ATOM     74  F   UNL A   1      43.101  25.812  35.493  1.00  0.00    -0.203 F 
ATOM     75  F   UNL A   1      48.028  28.147  35.700  1.00  0.00    -0.200 F 
ATOM     76  C   UNL A   1      46.586  26.374  36.294  1.00  0.00     0.200 A 
ATOM     77  F   UNL A   1      45.110  24.618  36.853  1.00  0.00    -0.200 F 
ATOM     78  F   UNL A   1      47.584  25.761  36.947  1.00  0.00    -0.200 F 
ENDBRANCH  54  68
BRANCH  55  79
ATOM     79  C   UNL A   1      36.998  31.764  29.781  1.00  0.00     0.064 A 
ATOM     80  C   UNL A   1      35.875  31.003  29.431  1.00  0.00     0.173 A 
ATOM     81  C   UNL A   1      37.015  33.115  29.402  1.00  0.00     0.173 A 
ATOM     82  F   UNL A   1      35.825  29.700  29.744  1.00  0.00    -0.203 F 
ATOM     83  C   UNL A   1      34.813  31.569  28.727  1.00  0.00     0.198 A 
ATOM     84  C   UNL A   1      35.940  33.688  28.726  1.00  0.00     0.198 A 
ATOM     85  F   UNL A   1      38.070  33.885  29.707  1.00  0.00    -0.203 F 
ATOM     86  F   UNL A   1      33.766  30.812  28.373  1.00  0.00    -0.200 F 
ATOM     87  C   UNL A   1      34.843  32.913  28.384  1.00  0.00     0.200 A 
ATOM     88  F   UNL A   1      35.967  34.989  28.408  1.00  0.00    -0.200 F 
ATOM     89  F   UNL A   1      33.816  33.460  27.719  1.00  0.00    -0.200 F 
ENDBRANCH  55  79
BRANCH  67  90
ATOM     90  C   UNL A   1      39.126  32.222  36.396  1.00  0.00     0.064 A 
ATOM     91  C   UNL A   1      39.567  33.523  36.681  1.00  0.00     0.173 A 
ATOM     92  C   UNL A   1      38.153  31.657  37.234  1.00  0.00     0.173 A 
ATOM     93  F   UNL A   1      40.508  34.099  35.918  1.00  0.00    -0.203 F 
ATOM     94  C   UNL A   1      39.069  34.221  37.779  1.00  0.00     0.198 A 
ATOM     95  C   UNL A   1      37.640  32.368  38.315  1.00  0.00     0.198 A 
ATOM     96  F   UNL A   1      37.696  30.418  37.000  1.00  0.00    -0.203 F 
ATOM     97  F   UNL A   1      39.537  35.445  38.059  1.00  0.00    -0.200 F 
ATOM     98  C   UNL A   1      38.102  33.646  38.590  1.00  0.00     0.200 A 
ATOM     99  F   UNL A   1      36.699  31.815  39.092  1.00  0.00    -0.200 F 
ATOM    100  F   UNL A   1      37.623  34.321  39.643  1.00  0.00    -0.200 F 
ENDBRANCH  67  90
ENDBRANCH  41  42
ENDBRANCH  34  36
ENDBRANCH  33  34
ENDBRANCH  32  33
ENDBRANCH   1  32
TORSDOF 15
ENDMDL
MODEL 3
REMARK VINA RESULT:     -12.9      5.463     10.809
REMARK SMILES CN1C(=O)C(=Cc2ccc(OCc3cccc(C(=O)OCCOC(=O)c4ccc(-c5c6nc(c(-c7c(F)c(F)c(F)c(F)c7F)c7ccc([nH]7)c(-c7c(F)c(F)c(F)c(F)c7F)c7nc(c(-c8c(F)c(F)c(F)c(F)c8F)c8ccc5[nH]8)C=C7)C=C6)cc4)c3)c(Cl)c2)C(=O)N(C)C1=S
REMARK SMILES IDX 21 1 20 2 18 3 19 4 17 5 13 6 14 7 89 8 15 9 16 10 12 11
REMARK SMILES IDX 11 12 10 13 7 14 8 15 92 16 9 17 90 18 91 19 6 20 1 21 2 22
REMARK SMILES IDX 3 23 97 24 4 25 5 26 95 27 98 28 93 29 96 30 94 31 22 32
REMARK SMILES IDX 23 33 24 34 25 35 26 36 27 37 88 38 28 39 87 40 29 41 30 42
REMARK SMILES IDX 31 43 81 44 32 45 86 46 80 47 82 48 33 49 85 50 79 51 78 52
REMARK SMILES IDX 34 54 66 55 46 56 65 57 47 58 50 59 64 60 83 61 48 62 49 63
REMARK SMILES IDX 63 65 84 66 51 67 35 68 36 69 44 70 37 71 38 72 42 73 45 74
REMARK SMILES IDX 39 75 40 76 43 77 41 78 67 79 68 80 76 81 69 82 70 83 74 84
REMARK SMILES IDX 77 85 71 86 72 87 75 88 73 89 52 90 53 91 61 92 54 93 55 94
REMARK SMILES IDX 59 95 62 96 56 97 57 98 60 99 58 100
REMARK H PARENT 82 53 50 64
REMARK Flexibility Score: inf
ROOT
ATOM      1  C   UNL A   1      34.596  33.730  30.275  1.00  0.00     0.275 C 
ENDROOT
BRANCH   1   2
ATOM      2  O   UNL A   1      34.175  32.628  29.443  1.00  0.00    -0.458 OA
BRANCH   2   3
ATOM      3  C   UNL A   1      34.637  32.601  28.165  1.00  0.00     0.338 C 
ATOM      4  O   UNL A   1      35.303  33.459  27.609  1.00  0.00    -0.246 OA
BRANCH   3   5
ATOM      5  C   UNL A   1      34.343  31.274  27.567  1.00  0.00     0.060 A 
ATOM      6  C   UNL A   1      32.743  29.711  26.599  1.00  0.00    -0.010 A 
ATOM      7  C   UNL A   1      33.685  28.683  26.776  1.00  0.00     0.007 A 
ATOM      8  C   UNL A   1      33.110  31.016  26.962  1.00  0.00     0.023 A 
ATOM      9  C   UNL A   1      34.953  28.951  27.293  1.00  0.00     0.001 A 
ATOM     10  C   UNL A   1      35.286  30.248  27.677  1.00  0.00     0.016 A 
BRANCH   6  11
ATOM     11  C   UNL A   1      31.386  29.347  26.023  1.00  0.00     0.265 C 
BRANCH  11  12
ATOM     12  O   UNL A   1      31.314  28.714  24.742  1.00  0.00    -0.487 OA
BRANCH  12  13
ATOM     13  C   UNL A   1      31.478  27.364  24.621  1.00  0.00     0.138 A 
ATOM     14  C   UNL A   1      31.639  24.563  24.825  1.00  0.00    -0.023 A 
ATOM     15  C   UNL A   1      30.777  25.284  25.657  1.00  0.00     0.012 A 
ATOM     16  C   UNL A   1      32.428  25.249  23.899  1.00  0.00     0.032 A 
ATOM     17  C   UNL A   1      30.675  26.666  25.531  1.00  0.00     0.048 A 
ATOM     18  C   UNL A   1      32.340  26.646  23.782  1.00  0.00     0.083 A 
ATOM     19  Cl  UNL A   1      33.297  27.375  22.544  1.00  0.00    -0.080 Cl
BRANCH  14  20
ATOM     20  C   UNL A   1      31.702  23.101  24.942  1.00  0.00     0.027 C 
ATOM     21  C   UNL A   1      36.346  23.364  25.615  1.00  0.00     0.156 C 
ATOM     22  N   UNL A   1      35.186  22.476  25.494  1.00  0.00    -0.288 N 
ATOM     23  C   UNL A   1      33.993  23.077  25.862  1.00  0.00     0.265 C 
ATOM     24  C   UNL A   1      35.315  21.114  25.163  1.00  0.00     0.185 C 
ATOM     25  O   UNL A   1      33.928  24.075  26.576  1.00  0.00    -0.268 OA
ATOM     26  C   UNL A   1      32.792  22.415  25.341  1.00  0.00     0.106 C 
ATOM     27  N   UNL A   1      34.099  20.411  24.999  1.00  0.00    -0.288 N 
ATOM     28  S   UNL A   1      36.834  20.378  25.006  1.00  0.00    -0.040 S 
ATOM     29  C   UNL A   1      32.819  20.964  25.116  1.00  0.00     0.265 C 
ATOM     30  C   UNL A   1      34.061  18.992  24.627  1.00  0.00     0.156 C 
ATOM     31  O   UNL A   1      31.778  20.323  24.975  1.00  0.00    -0.268 OA
ENDBRANCH  14  20
ENDBRANCH  12  13
ENDBRANCH  11  12
ENDBRANCH   6  11
ENDBRANCH   3   5
ENDBRANCH   2   3
ENDBRANCH   1   2
BRANCH   1  32
ATOM     32  C   UNL A   1      34.556  33.334  31.752  1.00  0.00     0.275 C 
BRANCH  32  33
ATOM     33  O   UNL A   1      35.137  32.028  31.897  1.00  0.00    -0.458 OA
BRANCH  33  34
ATOM     34  C   UNL A   1      36.207  31.936  32.717  1.00  0.00     0.338 C 
ATOM     35  O   UNL A   1      36.275  32.214  33.901  1.00  0.00    -0.246 OA
BRANCH  34  36
ATOM     36  C   UNL A   1      37.322  31.370  31.944  1.00  0.00     0.060 A 
ATOM     37  C   UNL A   1      38.366  30.762  32.636  1.00  0.00     0.016 A 
ATOM     38  C   UNL A   1      37.381  31.502  30.559  1.00  0.00     0.016 A 
ATOM     39  C   UNL A   1      39.498  30.317  31.960  1.00  0.00     0.010 A 
ATOM     40  C   UNL A   1      38.489  30.992  29.869  1.00  0.00     0.010 A 
ATOM     41  C   UNL A   1      39.570  30.416  30.564  1.00  0.00    -0.014 A 
BRANCH  41  42
ATOM     42  C   UNL A   1      40.800  29.973  29.850  1.00  0.00     0.031 A 
ATOM     43  C   UNL A   1      41.937  30.936  29.638  1.00  0.00     0.074 A 
ATOM     44  C   UNL A   1      40.922  28.702  29.418  1.00  0.00     0.049 A 
ATOM     45  N   UNL A   1      43.028  30.793  28.928  1.00  0.00    -0.248 NA
ATOM     46  C   UNL A   1      41.826  32.240  30.310  1.00  0.00     0.031 C 
ATOM     47  C   UNL A   1      39.924  27.647  29.597  1.00  0.00     0.029 A 
ATOM     48  N   UNL A   1      41.945  28.077  28.746  1.00  0.00    -0.354 N 
ATOM     49  C   UNL A   1      43.702  32.002  29.021  1.00  0.00     0.074 A 
ATOM     50  C   UNL A   1      42.899  32.871  29.854  1.00  0.00     0.031 C 
ATOM     51  C   UNL A   1      40.397  26.501  29.083  1.00  0.00     0.029 A 
ATOM     52  C   UNL A   1      41.696  26.755  28.467  1.00  0.00     0.049 A 
ATOM     53  H   UNL A   1      42.779  28.534  28.489  1.00  0.00     0.167 HD
ATOM     54  C   UNL A   1      44.884  32.357  28.461  1.00  0.00     0.037 A 
ATOM     55  C   UNL A   1      42.411  25.857  27.764  1.00  0.00     0.037 A 
ATOM     56  C   UNL A   1      45.711  31.474  27.679  1.00  0.00     0.049 A 
ATOM     57  C   UNL A   1      43.708  26.279  27.132  1.00  0.00     0.074 A 
ATOM     58  C   UNL A   1      46.937  31.734  27.089  1.00  0.00     0.029 A 
ATOM     59  N   UNL A   1      45.404  30.152  27.392  1.00  0.00    -0.354 N 
ATOM     60  N   UNL A   1      44.314  27.441  27.183  1.00  0.00    -0.248 NA
ATOM     61  C   UNL A   1      44.413  25.272  26.328  1.00  0.00     0.031 C 
ATOM     62  C   UNL A   1      47.353  30.582  26.414  1.00  0.00     0.029 A 
ATOM     63  C   UNL A   1      46.409  29.589  26.620  1.00  0.00     0.049 A 
ATOM     64  H   UNL A   1      44.592  29.683  27.692  1.00  0.00     0.167 HD
ATOM     65  C   UNL A   1      45.469  27.303  26.427  1.00  0.00     0.074 A 
ATOM     66  C   UNL A   1      45.495  25.937  25.947  1.00  0.00     0.031 C 
ATOM     67  C   UNL A   1      46.419  28.228  26.148  1.00  0.00     0.037 A 
BRANCH  54  68
ATOM     68  C   UNL A   1      45.338  33.776  28.641  1.00  0.00     0.064 A 
ATOM     69  C   UNL A   1      46.132  34.173  29.726  1.00  0.00     0.173 A 
ATOM     70  C   UNL A   1      44.994  34.750  27.689  1.00  0.00     0.173 A 
ATOM     71  F   UNL A   1      46.477  33.284  30.670  1.00  0.00    -0.203 F 
ATOM     72  C   UNL A   1      46.539  35.498  29.869  1.00  0.00     0.198 A 
ATOM     73  C   UNL A   1      45.426  36.066  27.820  1.00  0.00     0.198 A 
ATOM     74  F   UNL A   1      44.241  34.421  26.628  1.00  0.00    -0.203 F 
ATOM     75  F   UNL A   1      47.257  35.864  30.940  1.00  0.00    -0.200 F 
ATOM     76  C   UNL A   1      46.191  36.440  28.913  1.00  0.00     0.200 A 
ATOM     77  F   UNL A   1      45.100  36.972  26.888  1.00  0.00    -0.200 F 
ATOM     78  F   UNL A   1      46.589  37.714  29.050  1.00  0.00    -0.200 F 
ENDBRANCH  54  68
BRANCH  55  79
ATOM     79  C   UNL A   1      41.894  24.474  27.590  1.00  0.00     0.064 A 
ATOM     80  C   UNL A   1      42.471  23.395  28.272  1.00  0.00     0.173 A 
ATOM     81  C   UNL A   1      40.807  24.205  26.745  1.00  0.00     0.173 A 
ATOM     82  F   UNL A   1      43.531  23.596  29.069  1.00  0.00    -0.203 F 
ATOM     83  C   UNL A   1      41.983  22.100  28.113  1.00  0.00     0.198 A 
ATOM     84  C   UNL A   1      40.300  22.915  26.610  1.00  0.00     0.198 A 
ATOM     85  F   UNL A   1      40.222  25.202  26.064  1.00  0.00    -0.203 F 
ATOM     86  F   UNL A   1      42.576  21.079  28.749  1.00  0.00    -0.200 F 
ATOM     87  C   UNL A   1      40.893  21.862  27.290  1.00  0.00     0.200 A 
ATOM     88  F   UNL A   1      39.239  22.692  25.823  1.00  0.00    -0.200 F 
ATOM     89  F   UNL A   1      40.416  20.618  27.147  1.00  0.00    -0.200 F 
ENDBRANCH  55  79
BRANCH  67  90
ATOM     90  C   UNL A   1      47.576  27.788  25.300  1.00  0.00     0.064 A 
ATOM     91  C   UNL A   1      48.761  27.302  25.874  1.00  0.00     0.173 A 
ATOM     92  C   UNL A   1      47.487  27.823  23.901  1.00  0.00     0.173 A 
ATOM     93  F   UNL A   1      48.899  27.265  27.208  1.00  0.00    -0.203 F 
ATOM     94  C   UNL A   1      49.825  26.892  25.075  1.00  0.00     0.198 A 
ATOM     95  C   UNL A   1      48.544  27.388  23.106  1.00  0.00     0.198 A 
ATOM     96  F   UNL A   1      46.373  28.274  23.305  1.00  0.00    -0.203 F 
ATOM     97  F   UNL A   1      50.964  26.474  25.644  1.00  0.00    -0.200 F 
ATOM     98  C   UNL A   1      49.714  26.929  23.693  1.00  0.00     0.200 A 
ATOM     99  F   UNL A   1      48.431  27.415  21.771  1.00  0.00    -0.200 F 
ATOM    100  F   UNL A   1      50.738  26.531  22.927  1.00  0.00    -0.200 F 
ENDBRANCH  67  90
ENDBRANCH  41  42
ENDBRANCH  34  36
ENDBRANCH  33  34
ENDBRANCH  32  33
ENDBRANCH   1  32
TORSDOF 15
ENDMDL
