MODEL 1
REMARK VINA RESULT:     -11.0      0.000      0.000
REMARK SMILES CCC[NH2+][C@]1(C(=O)OCCOC(=O)c2ccc(-c3c4nc(c(-c5c(F)c(F)c(F)c(F)c5F)c5ccc([nH]5)c(-c5c(F)c(F)c(F)c(F)c5F)c5nc(c(-c6c(F)c(F)c(F)c(F)c6F)c6ccc3[nH]6)C=C5)C=C4)cc2)CCC[C@H](OC(C)(C)C)C1
REMARK SMILES IDX 9 1 8 2 6 3 7 4 5 5 77 6 86 7 78 8 80 9 79 10 4 11 3 14 2 15
REMARK SMILES IDX 1 16 81 17 82 18 83 19 84 20 85 21 10 22 11 23 12 24 13 25
REMARK SMILES IDX 14 26 15 27 76 28 16 29 75 30 17 31 18 32 19 33 69 34 20 35
REMARK SMILES IDX 74 36 68 37 70 38 21 39 73 40 67 41 66 42 22 44 54 45 34 46
REMARK SMILES IDX 53 47 35 48 38 49 52 50 71 51 36 52 37 53 51 55 72 56 39 57
REMARK SMILES IDX 23 58 24 59 32 60 25 61 26 62 30 63 33 64 27 65 28 66 31 67
REMARK SMILES IDX 29 68 55 69 56 70 64 71 57 72 58 73 62 74 65 75 59 76 60 77
REMARK SMILES IDX 63 78 61 79 40 80 41 81 49 82 42 83 43 84 47 85 50 86 44 87
REMARK SMILES IDX 45 88 48 89 46 90
REMARK H PARENT 4 12 4 13 70 43 38 54
REMARK Flexibility Score: inf
ROOT
ATOM      1  C   UNL A   1      32.751  29.328  24.320  1.00  0.00     0.274 C 
ENDROOT
BRANCH   1   2
ATOM      2  O   UNL A   1      32.969  27.906  24.246  1.00  0.00    -0.457 OA
BRANCH   2   3
ATOM      3  C   UNL A   1      31.934  27.181  23.735  1.00  0.00     0.368 C 
ATOM      4  O   UNL A   1      31.027  27.672  23.066  1.00  0.00    -0.245 OA
BRANCH   3   5
ATOM      5  C   UNL A   1      32.041  25.647  24.063  1.00  0.00     0.196 C 
ATOM      6  C   UNL A   1      31.229  24.840  23.016  1.00  0.00     0.081 C 
ATOM      7  C   UNL A   1      33.532  25.223  23.928  1.00  0.00     0.113 C 
ATOM      8  C   UNL A   1      31.417  23.327  23.115  1.00  0.00     0.010 C 
ATOM      9  C   UNL A   1      33.893  23.736  23.739  1.00  0.00     0.125 C 
ATOM     10  C   UNL A   1      32.867  22.898  22.963  1.00  0.00     0.032 C 
BRANCH   5  11
ATOM     11  N   UNL A   1      31.330  25.427  25.370  1.00  0.00    -0.332 N 
ATOM     12  H   UNL A   1      30.905  26.315  25.639  1.00  0.00     0.347 HD
ATOM     13  H   UNL A   1      30.672  24.670  25.184  1.00  0.00     0.347 HD
BRANCH  11  14
ATOM     14  C   UNL A   1      32.132  24.960  26.503  1.00  0.00     0.261 C 
BRANCH  14  15
ATOM     15  C   UNL A   1      31.887  23.493  26.891  1.00  0.00     0.058 C 
ATOM     16  C   UNL A   1      30.451  23.024  26.697  1.00  0.00     0.010 C 
ENDBRANCH  14  15
ENDBRANCH  11  14
ENDBRANCH   5  11
BRANCH   9  17
ATOM     17  O   UNL A   1      34.586  22.980  24.737  1.00  0.00    -0.372 OA
BRANCH  17  18
ATOM     18  C   UNL A   1      35.960  22.609  24.681  1.00  0.00     0.060 C 
ATOM     19  C   UNL A   1      36.156  21.192  25.235  1.00  0.00     0.042 C 
ATOM     20  C   UNL A   1      36.595  22.909  23.326  1.00  0.00     0.042 C 
ATOM     21  C   UNL A   1      36.698  23.516  25.688  1.00  0.00     0.042 C 
ENDBRANCH  17  18
ENDBRANCH   9  17
ENDBRANCH   3   5
ENDBRANCH   2   3
ENDBRANCH   1   2
BRANCH   1  22
ATOM     22  C   UNL A   1      31.851  29.670  25.503  1.00  0.00     0.275 C 
BRANCH  22  23
ATOM     23  O   UNL A   1      32.628  29.680  26.713  1.00  0.00    -0.458 OA
BRANCH  23  24
ATOM     24  C   UNL A   1      33.136  30.880  27.076  1.00  0.00     0.338 C 
ATOM     25  O   UNL A   1      32.576  31.962  27.046  1.00  0.00    -0.246 OA
BRANCH  24  26
ATOM     26  C   UNL A   1      34.512  30.713  27.581  1.00  0.00     0.060 A 
ATOM     27  C   UNL A   1      34.966  29.459  27.986  1.00  0.00     0.016 A 
ATOM     28  C   UNL A   1      35.303  31.837  27.798  1.00  0.00     0.016 A 
ATOM     29  C   UNL A   1      36.138  29.335  28.724  1.00  0.00     0.010 A 
ATOM     30  C   UNL A   1      36.550  31.690  28.410  1.00  0.00     0.010 A 
ATOM     31  C   UNL A   1      36.968  30.443  28.913  1.00  0.00    -0.014 A 
BRANCH  31  32
ATOM     32  C   UNL A   1      38.264  30.330  29.631  1.00  0.00     0.031 A 
ATOM     33  C   UNL A   1      39.356  29.476  29.052  1.00  0.00     0.074 A 
ATOM     34  C   UNL A   1      38.450  30.930  30.823  1.00  0.00     0.049 A 
ATOM     35  N   UNL A   1      40.377  28.917  29.646  1.00  0.00    -0.248 NA
ATOM     36  C   UNL A   1      39.268  29.195  27.610  1.00  0.00     0.031 C 
ATOM     37  C   UNL A   1      37.521  31.858  31.468  1.00  0.00     0.029 A 
ATOM     38  N   UNL A   1      39.481  30.816  31.723  1.00  0.00    -0.354 N 
ATOM     39  C   UNL A   1      41.003  28.149  28.674  1.00  0.00     0.074 A 
ATOM     40  C   UNL A   1      40.261  28.334  27.443  1.00  0.00     0.031 C 
ATOM     41  C   UNL A   1      38.019  32.229  32.655  1.00  0.00     0.029 A 
ATOM     42  C   UNL A   1      39.240  31.474  32.905  1.00  0.00     0.049 A 
ATOM     43  H   UNL A   1      40.308  30.316  31.540  1.00  0.00     0.167 HD
ATOM     44  C   UNL A   1      42.084  27.345  28.813  1.00  0.00     0.037 A 
ATOM     45  C   UNL A   1      39.873  31.411  34.090  1.00  0.00     0.037 A 
ATOM     46  C   UNL A   1      42.841  27.226  30.032  1.00  0.00     0.049 A 
ATOM     47  C   UNL A   1      41.046  30.489  34.241  1.00  0.00     0.074 A 
ATOM     48  C   UNL A   1      43.963  26.456  30.283  1.00  0.00     0.029 A 
ATOM     49  N   UNL A   1      42.558  27.916  31.203  1.00  0.00    -0.354 N 
ATOM     50  N   UNL A   1      41.583  29.685  33.355  1.00  0.00    -0.248 NA
ATOM     51  C   UNL A   1      41.686  30.443  35.562  1.00  0.00     0.031 C 
ATOM     52  C   UNL A   1      44.339  26.655  31.617  1.00  0.00     0.029 A 
ATOM     53  C   UNL A   1      43.478  27.582  32.183  1.00  0.00     0.049 A 
ATOM     54  H   UNL A   1      41.814  28.549  31.319  1.00  0.00     0.167 HD
ATOM     55  C   UNL A   1      42.632  29.050  34.002  1.00  0.00     0.074 A 
ATOM     56  C   UNL A   1      42.662  29.569  35.355  1.00  0.00     0.031 C 
ATOM     57  C   UNL A   1      43.493  28.121  33.519  1.00  0.00     0.037 A 
BRANCH  44  58
ATOM     58  C   UNL A   1      42.471  26.489  27.642  1.00  0.00     0.064 A 
ATOM     59  C   UNL A   1      41.862  25.253  27.381  1.00  0.00     0.173 A 
ATOM     60  C   UNL A   1      43.467  26.929  26.755  1.00  0.00     0.173 A 
ATOM     61  F   UNL A   1      40.917  24.779  28.206  1.00  0.00    -0.203 F 
ATOM     62  C   UNL A   1      42.257  24.477  26.294  1.00  0.00     0.198 A 
ATOM     63  C   UNL A   1      43.839  26.164  25.653  1.00  0.00     0.198 A 
ATOM     64  F   UNL A   1      44.080  28.106  26.955  1.00  0.00    -0.203 F 
ATOM     65  F   UNL A   1      41.697  23.275  26.092  1.00  0.00    -0.200 F 
ATOM     66  C   UNL A   1      43.240  24.934  25.428  1.00  0.00     0.200 A 
ATOM     67  F   UNL A   1      44.781  26.614  24.814  1.00  0.00    -0.200 F 
ATOM     68  F   UNL A   1      43.616  24.186  24.383  1.00  0.00    -0.200 F 
ENDBRANCH  44  58
BRANCH  45  69
ATOM     69  C   UNL A   1      39.350  32.196  35.237  1.00  0.00     0.064 A 
ATOM     70  C   UNL A   1      38.510  31.606  36.189  1.00  0.00     0.173 A 
ATOM     71  C   UNL A   1      39.722  33.536  35.433  1.00  0.00     0.173 A 
ATOM     72  F   UNL A   1      38.110  30.336  36.032  1.00  0.00    -0.203 F 
ATOM     73  C   UNL A   1      38.063  32.324  37.296  1.00  0.00     0.198 A 
ATOM     74  C   UNL A   1      39.299  34.244  36.554  1.00  0.00     0.198 A 
ATOM     75  F   UNL A   1      40.529  34.145  34.552  1.00  0.00    -0.203 F 
ATOM     76  F   UNL A   1      37.240  31.745  38.180  1.00  0.00    -0.200 F 
ATOM     77  C   UNL A   1      38.467  33.639  37.484  1.00  0.00     0.200 A 
ATOM     78  F   UNL A   1      39.708  35.507  36.742  1.00  0.00    -0.200 F 
ATOM     79  F   UNL A   1      38.054  34.322  38.560  1.00  0.00    -0.200 F 
ENDBRANCH  45  69
BRANCH  57  80
ATOM     80  C   UNL A   1      44.567  27.641  34.446  1.00  0.00     0.064 A 
ATOM     81  C   UNL A   1      44.414  26.474  35.208  1.00  0.00     0.173 A 
ATOM     82  C   UNL A   1      45.782  28.336  34.536  1.00  0.00     0.173 A 
ATOM     83  F   UNL A   1      43.261  25.789  35.169  1.00  0.00    -0.203 F 
ATOM     84  C   UNL A   1      45.436  26.028  36.040  1.00  0.00     0.198 A 
ATOM     85  C   UNL A   1      46.811  27.873  35.350  1.00  0.00     0.198 A 
ATOM     86  F   UNL A   1      45.975  29.455  33.823  1.00  0.00    -0.203 F 
ATOM     87  F   UNL A   1      45.259  24.931  36.789  1.00  0.00    -0.200 F 
ATOM     88  C   UNL A   1      46.636  26.723  36.105  1.00  0.00     0.200 A 
ATOM     89  F   UNL A   1      47.973  28.540  35.404  1.00  0.00    -0.200 F 
ATOM     90  F   UNL A   1      47.623  26.286  36.899  1.00  0.00    -0.200 F 
ENDBRANCH  57  80
ENDBRANCH  31  32
ENDBRANCH  24  26
ENDBRANCH  23  24
ENDBRANCH  22  23
ENDBRANCH   1  22
TORSDOF 16
ENDMDL
MODEL 2
REMARK VINA RESULT:     -11.0      0.581      1.804
REMARK SMILES CCC[NH2+][C@]1(C(=O)OCCOC(=O)c2ccc(-c3c4nc(c(-c5c(F)c(F)c(F)c(F)c5F)c5ccc([nH]5)c(-c5c(F)c(F)c(F)c(F)c5F)c5nc(c(-c6c(F)c(F)c(F)c(F)c6F)c6ccc3[nH]6)C=C5)C=C4)cc2)CCC[C@H](OC(C)(C)C)C1
REMARK SMILES IDX 9 1 8 2 6 3 7 4 5 5 77 6 86 7 78 8 80 9 79 10 4 11 3 14 2 15
REMARK SMILES IDX 1 16 81 17 82 18 83 19 84 20 85 21 10 22 11 23 12 24 13 25
REMARK SMILES IDX 14 26 15 27 76 28 16 29 75 30 17 31 18 32 19 33 69 34 20 35
REMARK SMILES IDX 74 36 68 37 70 38 21 39 73 40 67 41 66 42 22 44 54 45 34 46
REMARK SMILES IDX 53 47 35 48 38 49 52 50 71 51 36 52 37 53 51 55 72 56 39 57
REMARK SMILES IDX 23 58 24 59 32 60 25 61 26 62 30 63 33 64 27 65 28 66 31 67
REMARK SMILES IDX 29 68 55 69 56 70 64 71 57 72 58 73 62 74 65 75 59 76 60 77
REMARK SMILES IDX 63 78 61 79 40 80 41 81 49 82 42 83 43 84 47 85 50 86 44 87
REMARK SMILES IDX 45 88 48 89 46 90
REMARK H PARENT 4 12 4 13 70 43 38 54
REMARK Flexibility Score: inf
ROOT
ATOM      1  C   UNL A   1      31.435  29.658  24.789  1.00  0.00     0.274 C 
ENDROOT
BRANCH   1   2
ATOM      2  O   UNL A   1      31.647  28.252  25.020  1.00  0.00    -0.457 OA
BRANCH   2   3
ATOM      3  C   UNL A   1      32.628  27.678  24.267  1.00  0.00     0.368 C 
ATOM      4  O   UNL A   1      33.500  28.319  23.684  1.00  0.00    -0.245 OA
BRANCH   3   5
ATOM      5  C   UNL A   1      32.545  26.107  24.252  1.00  0.00     0.196 C 
ATOM      6  C   UNL A   1      31.804  25.644  22.970  1.00  0.00     0.081 C 
ATOM      7  C   UNL A   1      33.994  25.544  24.185  1.00  0.00     0.113 C 
ATOM      8  C   UNL A   1      31.833  24.134  22.746  1.00  0.00     0.010 C 
ATOM      9  C   UNL A   1      34.234  24.099  23.706  1.00  0.00     0.125 C 
ATOM     10  C   UNL A   1      33.243  23.574  22.656  1.00  0.00     0.032 C 
BRANCH   5  11
ATOM     11  N   UNL A   1      31.652  25.704  25.392  1.00  0.00    -0.332 N 
ATOM     12  H   UNL A   1      31.208  26.552  25.747  1.00  0.00     0.347 HD
ATOM     13  H   UNL A   1      31.015  25.014  24.993  1.00  0.00     0.347 HD
BRANCH  11  14
ATOM     14  C   UNL A   1      32.276  25.025  26.529  1.00  0.00     0.261 C 
BRANCH  14  15
ATOM     15  C   UNL A   1      31.885  23.546  26.677  1.00  0.00     0.058 C 
ATOM     16  C   UNL A   1      32.908  22.697  27.421  1.00  0.00     0.010 C 
ENDBRANCH  14  15
ENDBRANCH  11  14
ENDBRANCH   5  11
BRANCH   9  17
ATOM     17  O   UNL A   1      34.716  23.070  24.576  1.00  0.00    -0.372 OA
BRANCH  17  18
ATOM     18  C   UNL A   1      36.071  22.645  24.676  1.00  0.00     0.060 C 
ATOM     19  C   UNL A   1      36.849  23.552  25.638  1.00  0.00     0.042 C 
ATOM     20  C   UNL A   1      36.200  21.140  24.898  1.00  0.00     0.042 C 
ATOM     21  C   UNL A   1      36.715  22.911  23.299  1.00  0.00     0.042 C 
ENDBRANCH  17  18
ENDBRANCH   9  17
ENDBRANCH   3   5
ENDBRANCH   2   3
ENDBRANCH   1   2
BRANCH   1  22
ATOM     22  C   UNL A   1      31.628  30.447  26.081  1.00  0.00     0.275 C 
BRANCH  22  23
ATOM     23  O   UNL A   1      33.002  30.363  26.496  1.00  0.00    -0.458 OA
BRANCH  23  24
ATOM     24  C   UNL A   1      33.465  31.413  27.213  1.00  0.00     0.338 C 
ATOM     25  O   UNL A   1      32.884  32.454  27.462  1.00  0.00    -0.246 OA
BRANCH  24  26
ATOM     26  C   UNL A   1      34.818  31.118  27.722  1.00  0.00     0.060 A 
ATOM     27  C   UNL A   1      35.142  29.834  28.155  1.00  0.00     0.016 A 
ATOM     28  C   UNL A   1      35.720  32.161  27.914  1.00  0.00     0.016 A 
ATOM     29  C   UNL A   1      36.298  29.608  28.896  1.00  0.00     0.010 A 
ATOM     30  C   UNL A   1      36.947  31.901  28.529  1.00  0.00     0.010 A 
ATOM     31  C   UNL A   1      37.236  30.629  29.060  1.00  0.00    -0.014 A 
BRANCH  31  32
ATOM     32  C   UNL A   1      38.515  30.401  29.781  1.00  0.00     0.031 A 
ATOM     33  C   UNL A   1      39.541  29.477  29.189  1.00  0.00     0.074 A 
ATOM     34  C   UNL A   1      38.740  30.959  30.986  1.00  0.00     0.049 A 
ATOM     35  N   UNL A   1      40.512  28.829  29.775  1.00  0.00    -0.248 NA
ATOM     36  C   UNL A   1      39.440  29.234  27.741  1.00  0.00     0.031 C 
ATOM     37  C   UNL A   1      37.882  31.943  31.648  1.00  0.00     0.029 A 
ATOM     38  N   UNL A   1      39.755  30.747  31.888  1.00  0.00    -0.354 N 
ATOM     39  C   UNL A   1      41.082  28.034  28.789  1.00  0.00     0.074 A 
ATOM     40  C   UNL A   1      40.364  28.302  27.559  1.00  0.00     0.031 C 
ATOM     41  C   UNL A   1      38.401  32.250  32.844  1.00  0.00     0.029 A 
ATOM     42  C   UNL A   1      39.558  31.397  33.083  1.00  0.00     0.049 A 
ATOM     43  H   UNL A   1      40.541  30.188  31.698  1.00  0.00     0.167 HD
ATOM     44  C   UNL A   1      42.097  27.146  28.915  1.00  0.00     0.037 A 
ATOM     45  C   UNL A   1      40.178  31.260  34.269  1.00  0.00     0.037 A 
ATOM     46  C   UNL A   1      42.836  26.943  30.134  1.00  0.00     0.049 A 
ATOM     47  C   UNL A   1      41.275  30.246  34.405  1.00  0.00     0.074 A 
ATOM     48  C   UNL A   1      43.893  26.083  30.374  1.00  0.00     0.029 A 
ATOM     49  N   UNL A   1      42.600  27.628  31.319  1.00  0.00    -0.354 N 
ATOM     50  N   UNL A   1      41.752  29.422  33.504  1.00  0.00    -0.248 NA
ATOM     51  C   UNL A   1      41.902  30.123  35.727  1.00  0.00     0.031 C 
ATOM     52  C   UNL A   1      44.275  26.224  31.714  1.00  0.00     0.029 A 
ATOM     53  C   UNL A   1      43.486  27.203  32.295  1.00  0.00     0.049 A 
ATOM     54  H   UNL A   1      41.907  28.314  31.445  1.00  0.00     0.167 HD
ATOM     55  C   UNL A   1      42.745  28.695  34.141  1.00  0.00     0.074 A 
ATOM     56  C   UNL A   1      42.808  29.180  35.505  1.00  0.00     0.031 C 
ATOM     57  C   UNL A   1      43.535  27.711  33.642  1.00  0.00     0.037 A 
BRANCH  44  58
ATOM     58  C   UNL A   1      42.423  26.287  27.728  1.00  0.00     0.064 A 
ATOM     59  C   UNL A   1      41.738  25.095  27.453  1.00  0.00     0.173 A 
ATOM     60  C   UNL A   1      43.438  26.681  26.840  1.00  0.00     0.173 A 
ATOM     61  F   UNL A   1      40.772  24.666  28.277  1.00  0.00    -0.203 F 
ATOM     62  C   UNL A   1      42.078  24.314  26.350  1.00  0.00     0.198 A 
ATOM     63  C   UNL A   1      43.755  25.912  25.723  1.00  0.00     0.198 A 
ATOM     64  F   UNL A   1      44.122  27.815  27.054  1.00  0.00    -0.203 F 
ATOM     65  F   UNL A   1      41.445  23.152  26.133  1.00  0.00    -0.200 F 
ATOM     66  C   UNL A   1      43.081  24.725  25.484  1.00  0.00     0.200 A 
ATOM     67  F   UNL A   1      44.717  26.319  24.883  1.00  0.00    -0.200 F 
ATOM     68  F   UNL A   1      43.404  23.972  24.423  1.00  0.00    -0.200 F 
ENDBRANCH  44  58
BRANCH  45  69
ATOM     69  C   UNL A   1      39.711  32.059  35.430  1.00  0.00     0.064 A 
ATOM     70  C   UNL A   1      40.205  33.347  35.663  1.00  0.00     0.173 A 
ATOM     71  C   UNL A   1      38.722  31.570  36.300  1.00  0.00     0.173 A 
ATOM     72  F   UNL A   1      41.166  33.848  34.872  1.00  0.00    -0.203 F 
ATOM     73  C   UNL A   1      39.728  34.120  36.719  1.00  0.00     0.198 A 
ATOM     74  C   UNL A   1      38.225  32.354  37.338  1.00  0.00     0.198 A 
ATOM     75  F   UNL A   1      38.213  30.343  36.117  1.00  0.00    -0.203 F 
ATOM     76  F   UNL A   1      40.234  35.342  36.936  1.00  0.00    -0.200 F 
ATOM     77  C   UNL A   1      38.729  33.628  37.549  1.00  0.00     0.200 A 
ATOM     78  F   UNL A   1      37.247  31.881  38.124  1.00  0.00    -0.200 F 
ATOM     79  F   UNL A   1      38.256  34.380  38.551  1.00  0.00    -0.200 F 
ENDBRANCH  45  69
BRANCH  57  80
ATOM     80  C   UNL A   1      44.563  27.130  34.564  1.00  0.00     0.064 A 
ATOM     81  C   UNL A   1      45.831  27.708  34.709  1.00  0.00     0.173 A 
ATOM     82  C   UNL A   1      44.254  26.005  35.343  1.00  0.00     0.173 A 
ATOM     83  F   UNL A   1      46.177  28.772  33.970  1.00  0.00    -0.203 F 
ATOM     84  C   UNL A   1      46.761  27.171  35.595  1.00  0.00     0.198 A 
ATOM     85  C   UNL A   1      45.178  25.485  36.245  1.00  0.00     0.198 A 
ATOM     86  F   UNL A   1      43.052  25.420  35.239  1.00  0.00    -0.203 F 
ATOM     87  F   UNL A   1      47.982  27.715  35.694  1.00  0.00    -0.200 F 
ATOM     88  C   UNL A   1      46.431  26.065  36.367  1.00  0.00     0.200 A 
ATOM     89  F   UNL A   1      44.854  24.424  36.996  1.00  0.00    -0.200 F 
ATOM     90  F   UNL A   1      47.325  25.555  37.225  1.00  0.00    -0.200 F 
ENDBRANCH  57  80
ENDBRANCH  31  32
ENDBRANCH  24  26
ENDBRANCH  23  24
ENDBRANCH  22  23
ENDBRANCH   1  22
TORSDOF 16
ENDMDL
MODEL 3
REMARK VINA RESULT:     -10.9      0.499      1.705
REMARK SMILES CCC[NH2+][C@]1(C(=O)OCCOC(=O)c2ccc(-c3c4nc(c(-c5c(F)c(F)c(F)c(F)c5F)c5ccc([nH]5)c(-c5c(F)c(F)c(F)c(F)c5F)c5nc(c(-c6c(F)c(F)c(F)c(F)c6F)c6ccc3[nH]6)C=C5)C=C4)cc2)CCC[C@H](OC(C)(C)C)C1
REMARK SMILES IDX 9 1 8 2 6 3 7 4 5 5 77 6 86 7 78 8 80 9 79 10 4 11 3 14 2 15
REMARK SMILES IDX 1 16 81 17 82 18 83 19 84 20 85 21 10 22 11 23 12 24 13 25
REMARK SMILES IDX 14 26 15 27 76 28 16 29 75 30 17 31 18 32 19 33 69 34 20 35
REMARK SMILES IDX 74 36 68 37 70 38 21 39 73 40 67 41 66 42 22 44 54 45 34 46
REMARK SMILES IDX 53 47 35 48 38 49 52 50 71 51 36 52 37 53 51 55 72 56 39 57
REMARK SMILES IDX 23 58 24 59 32 60 25 61 26 62 30 63 33 64 27 65 28 66 31 67
REMARK SMILES IDX 29 68 55 69 56 70 64 71 57 72 58 73 62 74 65 75 59 76 60 77
REMARK SMILES IDX 63 78 61 79 40 80 41 81 49 82 42 83 43 84 47 85 50 86 44 87
REMARK SMILES IDX 45 88 48 89 46 90
REMARK H PARENT 4 12 4 13 70 43 38 54
REMARK Flexibility Score: inf
ROOT
ATOM      1  C   UNL A   1      32.896  29.297  24.753  1.00  0.00     0.274 C 
ENDROOT
BRANCH   1   2
ATOM      2  O   UNL A   1      32.149  28.154  24.294  1.00  0.00    -0.457 OA
BRANCH   2   3
ATOM      3  C   UNL A   1      32.808  27.334  23.428  1.00  0.00     0.368 C 
ATOM      4  O   UNL A   1      33.498  27.744  22.497  1.00  0.00    -0.245 OA
BRANCH   3   5
ATOM      5  C   UNL A   1      32.621  25.809  23.766  1.00  0.00     0.196 C 
ATOM      6  C   UNL A   1      31.662  25.168  22.729  1.00  0.00     0.081 C 
ATOM      7  C   UNL A   1      34.002  25.107  23.627  1.00  0.00     0.113 C 
ATOM      8  C   UNL A   1      31.556  23.648  22.837  1.00  0.00     0.010 C 
ATOM      9  C   UNL A   1      34.068  23.577  23.446  1.00  0.00     0.125 C 
ATOM     10  C   UNL A   1      32.896  22.947  22.681  1.00  0.00     0.032 C 
BRANCH   5  11
ATOM     11  N   UNL A   1      31.888  25.738  25.077  1.00  0.00    -0.332 N 
ATOM     12  H   UNL A   1      31.644  26.693  25.343  1.00  0.00     0.347 HD
ATOM     13  H   UNL A   1      31.096  25.122  24.900  1.00  0.00     0.347 HD
BRANCH  11  14
ATOM     14  C   UNL A   1      32.592  25.132  26.209  1.00  0.00     0.261 C 
BRANCH  14  15
ATOM     15  C   UNL A   1      31.805  24.022  26.923  1.00  0.00     0.058 C 
ATOM     16  C   UNL A   1      32.241  22.609  26.559  1.00  0.00     0.010 C 
ENDBRANCH  14  15
ENDBRANCH  11  14
ENDBRANCH   5  11
BRANCH   9  17
ATOM     17  O   UNL A   1      34.609  22.707  24.446  1.00  0.00    -0.372 OA
BRANCH  17  18
ATOM     18  C   UNL A   1      35.973  22.308  24.539  1.00  0.00     0.060 C 
ATOM     19  C   UNL A   1      36.075  20.843  24.984  1.00  0.00     0.042 C 
ATOM     20  C   UNL A   1      36.787  22.709  23.312  1.00  0.00     0.042 C 
ATOM     21  C   UNL A   1      36.582  23.104  25.712  1.00  0.00     0.042 C 
ENDBRANCH  17  18
ENDBRANCH   9  17
ENDBRANCH   3   5
ENDBRANCH   2   3
ENDBRANCH   1   2
BRANCH   1  22
ATOM     22  C   UNL A   1      32.058  30.134  25.715  1.00  0.00     0.275 C 
BRANCH  22  23
ATOM     23  O   UNL A   1      32.703  30.183  26.999  1.00  0.00    -0.458 OA
BRANCH  23  24
ATOM     24  C   UNL A   1      33.324  31.346  27.301  1.00  0.00     0.338 C 
ATOM     25  O   UNL A   1      32.862  32.472  27.234  1.00  0.00    -0.246 OA
BRANCH  24  26
ATOM     26  C   UNL A   1      34.690  31.077  27.789  1.00  0.00     0.060 A 
ATOM     27  C   UNL A   1      35.049  29.796  28.207  1.00  0.00     0.016 A 
ATOM     28  C   UNL A   1      35.572  32.137  27.977  1.00  0.00     0.016 A 
ATOM     29  C   UNL A   1      36.219  29.590  28.929  1.00  0.00     0.010 A 
ATOM     30  C   UNL A   1      36.812  31.900  28.573  1.00  0.00     0.010 A 
ATOM     31  C   UNL A   1      37.137  30.630  29.089  1.00  0.00    -0.014 A 
BRANCH  31  32
ATOM     32  C   UNL A   1      38.431  30.424  29.790  1.00  0.00     0.031 A 
ATOM     33  C   UNL A   1      39.454  29.501  29.193  1.00  0.00     0.074 A 
ATOM     34  C   UNL A   1      38.672  31.002  30.983  1.00  0.00     0.049 A 
ATOM     35  N   UNL A   1      40.442  28.870  29.771  1.00  0.00    -0.248 NA
ATOM     36  C   UNL A   1      39.330  29.236  27.751  1.00  0.00     0.031 C 
ATOM     37  C   UNL A   1      37.817  31.988  31.646  1.00  0.00     0.029 A 
ATOM     38  N   UNL A   1      39.704  30.813  31.869  1.00  0.00    -0.354 N 
ATOM     39  C   UNL A   1      41.002  28.067  28.787  1.00  0.00     0.074 A 
ATOM     40  C   UNL A   1      40.260  28.310  27.567  1.00  0.00     0.031 C 
ATOM     41  C   UNL A   1      38.354  32.317  32.828  1.00  0.00     0.029 A 
ATOM     42  C   UNL A   1      39.523  31.478  33.058  1.00  0.00     0.049 A 
ATOM     43  H   UNL A   1      40.493  30.258  31.673  1.00  0.00     0.167 HD
ATOM     44  C   UNL A   1      42.027  27.189  28.907  1.00  0.00     0.037 A 
ATOM     45  C   UNL A   1      40.165  31.365  34.235  1.00  0.00     0.037 A 
ATOM     46  C   UNL A   1      42.789  27.012  30.116  1.00  0.00     0.049 A 
ATOM     47  C   UNL A   1      41.274  30.362  34.365  1.00  0.00     0.074 A 
ATOM     48  C   UNL A   1      43.859  26.165  30.349  1.00  0.00     0.029 A 
ATOM     49  N   UNL A   1      42.569  27.712  31.295  1.00  0.00    -0.354 N 
ATOM     50  N   UNL A   1      41.743  29.530  33.468  1.00  0.00    -0.248 NA
ATOM     51  C   UNL A   1      41.925  30.265  35.678  1.00  0.00     0.031 C 
ATOM     52  C   UNL A   1      44.263  26.329  31.680  1.00  0.00     0.029 A 
ATOM     53  C   UNL A   1      43.475  27.309  32.261  1.00  0.00     0.049 A 
ATOM     54  H   UNL A   1      41.871  28.393  31.423  1.00  0.00     0.167 HD
ATOM     55  C   UNL A   1      42.754  28.821  34.098  1.00  0.00     0.074 A 
ATOM     56  C   UNL A   1      42.836  29.327  35.454  1.00  0.00     0.031 C 
ATOM     57  C   UNL A   1      43.543  27.837  33.600  1.00  0.00     0.037 A 
BRANCH  44  58
ATOM     58  C   UNL A   1      42.340  26.317  27.728  1.00  0.00     0.064 A 
ATOM     59  C   UNL A   1      43.347  26.633  26.805  1.00  0.00     0.173 A 
ATOM     60  C   UNL A   1      41.619  25.128  27.529  1.00  0.00     0.173 A 
ATOM     61  F   UNL A   1      44.054  27.765  26.939  1.00  0.00    -0.203 F 
ATOM     62  C   UNL A   1      43.600  25.808  25.711  1.00  0.00     0.198 A 
ATOM     63  C   UNL A   1      41.894  24.291  26.451  1.00  0.00     0.198 A 
ATOM     64  F   UNL A   1      40.647  24.774  28.384  1.00  0.00    -0.203 F 
ATOM     65  F   UNL A   1      44.532  26.156  24.812  1.00  0.00    -0.200 F 
ATOM     66  C   UNL A   1      42.878  24.635  25.538  1.00  0.00     0.200 A 
ATOM     67  F   UNL A   1      41.202  23.154  26.293  1.00  0.00    -0.200 F 
ATOM     68  F   UNL A   1      43.124  23.843  24.486  1.00  0.00    -0.200 F 
ENDBRANCH  44  58
BRANCH  45  69
ATOM     69  C   UNL A   1      39.711  32.176  35.392  1.00  0.00     0.064 A 
ATOM     70  C   UNL A   1      40.186  33.478  35.589  1.00  0.00     0.173 A 
ATOM     71  C   UNL A   1      38.754  31.684  36.295  1.00  0.00     0.173 A 
ATOM     72  F   UNL A   1      41.118  33.981  34.766  1.00  0.00    -0.203 F 
ATOM     73  C   UNL A   1      39.720  34.261  36.643  1.00  0.00     0.198 A 
ATOM     74  C   UNL A   1      38.267  32.479  37.330  1.00  0.00     0.198 A 
ATOM     75  F   UNL A   1      38.264  30.446  36.147  1.00  0.00    -0.203 F 
ATOM     76  F   UNL A   1      40.208  35.496  36.824  1.00  0.00    -0.200 F 
ATOM     77  C   UNL A   1      38.752  33.765  37.506  1.00  0.00     0.200 A 
ATOM     78  F   UNL A   1      37.318  32.002  38.149  1.00  0.00    -0.200 F 
ATOM     79  F   UNL A   1      38.289  34.527  38.506  1.00  0.00    -0.200 F 
ENDBRANCH  45  69
BRANCH  57  80
ATOM     80  C   UNL A   1      44.593  27.279  34.511  1.00  0.00     0.064 A 
ATOM     81  C   UNL A   1      44.357  26.141  35.294  1.00  0.00     0.173 A 
ATOM     82  C   UNL A   1      45.865  27.868  34.563  1.00  0.00     0.173 A 
ATOM     83  F   UNL A   1      43.150  25.557  35.291  1.00  0.00    -0.203 F 
ATOM     84  C   UNL A   1      45.357  25.619  36.110  1.00  0.00     0.198 A 
ATOM     85  C   UNL A   1      46.869  27.329  35.362  1.00  0.00     0.198 A 
ATOM     86  F   UNL A   1      46.137  28.957  33.829  1.00  0.00    -0.203 F 
ATOM     87  F   UNL A   1      45.103  24.552  36.879  1.00  0.00    -0.200 F 
ATOM     88  C   UNL A   1      46.614  26.208  36.138  1.00  0.00     0.200 A 
ATOM     89  F   UNL A   1      48.084  27.894  35.380  1.00  0.00    -0.200 F 
ATOM     90  F   UNL A   1      47.577  25.699  36.917  1.00  0.00    -0.200 F 
ENDBRANCH  57  80
ENDBRANCH  31  32
ENDBRANCH  24  26
ENDBRANCH  23  24
ENDBRANCH  22  23
ENDBRANCH   1  22
TORSDOF 16
ENDMDL
