MODEL 1
REMARK VINA RESULT:     -10.9      0.000      0.000
REMARK SMILES C[C@@H]1CCC[C@H](C)N1C(=O)Cn1cccc1C(=O)OCCOC(=O)c1ccc(-c2c3nc(c(-c4c(F)c(F)c(F)c(F)c4F)c4ccc([nH]4)c(-c4c(F)c(F)c(F)c(F)c4F)c4nc(c(-c5c(F)c(F)c(F)c(F)c5F)c5ccc2[nH]5)C=C4)C=C3)cc1
REMARK SMILES IDX 20 1 19 2 17 3 18 4 16 5 12 6 13 7 14 8 15 9 11 10 9 11
REMARK SMILES IDX 10 12 8 13 1 14 2 15 3 16 4 17 6 18 5 19 7 20 21 21 22 22
REMARK SMILES IDX 23 23 24 24 25 25 26 26 87 27 27 28 86 29 28 30 29 31 30 32
REMARK SMILES IDX 80 33 31 34 85 35 79 36 81 37 32 38 84 39 78 40 77 41 33 43
REMARK SMILES IDX 65 44 45 45 64 46 46 47 49 48 63 49 82 50 47 51 48 52 62 54
REMARK SMILES IDX 83 55 50 56 34 57 35 58 43 59 36 60 37 61 41 62 44 63 38 64
REMARK SMILES IDX 39 65 42 66 40 67 66 68 67 69 75 70 68 71 69 72 73 73 76 74
REMARK SMILES IDX 70 75 71 76 74 77 72 78 51 79 52 80 60 81 53 82 54 83 58 84
REMARK SMILES IDX 61 85 55 86 56 87 59 88 57 89
REMARK H PARENT 81 42 49 53
REMARK Flexibility Score: inf
ROOT
ATOM      1  C   UNL A   1      42.224  21.057  27.802  1.00  0.00     0.275 C 
ENDROOT
BRANCH   1   2
ATOM      2  O   UNL A   1      42.425  20.354  26.566  1.00  0.00    -0.457 OA
BRANCH   2   3
ATOM      3  C   UNL A   1      42.896  21.156  25.567  1.00  0.00     0.355 C 
ATOM      4  O   UNL A   1      42.367  22.191  25.190  1.00  0.00    -0.244 OA
BRANCH   3   5
ATOM      5  C   UNL A   1      44.188  20.685  25.124  1.00  0.00     0.128 A 
ATOM      6  N   UNL A   1      45.431  21.239  25.371  1.00  0.00    -0.333 N 
ATOM      7  C   UNL A   1      46.409  20.366  24.940  1.00  0.00     0.087 A 
ATOM      8  C   UNL A   1      45.802  19.290  24.339  1.00  0.00     0.020 A 
ATOM      9  C   UNL A   1      44.410  19.494  24.445  1.00  0.00     0.035 A 
BRANCH   6  10
ATOM     10  C   UNL A   1      45.746  22.469  26.097  1.00  0.00     0.222 C 
BRANCH  10  11
ATOM     11  C   UNL A   1      45.599  23.731  25.275  1.00  0.00     0.242 C 
ATOM     12  O   UNL A   1      45.575  23.641  24.043  1.00  0.00    -0.273 OA
BRANCH  11  13
ATOM     13  N   UNL A   1      45.550  24.969  25.916  1.00  0.00    -0.336 N 
ATOM     14  C   UNL A   1      44.975  25.423  28.313  1.00  0.00     0.031 C 
ATOM     15  C   UNL A   1      46.084  25.256  27.270  1.00  0.00     0.082 C 
ATOM     16  C   UNL A   1      47.007  26.478  27.260  1.00  0.00     0.025 C 
ATOM     17  C   UNL A   1      46.343  27.674  26.586  1.00  0.00     0.004 C 
ATOM     18  C   UNL A   1      45.004  26.083  25.120  1.00  0.00     0.082 C 
ATOM     19  C   UNL A   1      45.936  27.290  25.177  1.00  0.00     0.025 C 
ATOM     20  C   UNL A   1      43.556  26.442  25.427  1.00  0.00     0.031 C 
ENDBRANCH  11  13
ENDBRANCH  10  11
ENDBRANCH   6  10
ENDBRANCH   3   5
ENDBRANCH   2   3
ENDBRANCH   1   2
BRANCH   1  21
ATOM     21  C   UNL A   1      40.820  21.668  27.904  1.00  0.00     0.275 C 
BRANCH  21  22
ATOM     22  O   UNL A   1      40.694  23.100  27.834  1.00  0.00    -0.458 OA
BRANCH  22  23
ATOM     23  C   UNL A   1      39.641  23.688  27.227  1.00  0.00     0.338 C 
ATOM     24  O   UNL A   1      38.863  23.202  26.430  1.00  0.00    -0.246 OA
BRANCH  23  25
ATOM     25  C   UNL A   1      39.700  25.126  27.582  1.00  0.00     0.060 A 
ATOM     26  C   UNL A   1      39.296  25.514  28.866  1.00  0.00     0.016 A 
ATOM     27  C   UNL A   1      40.090  26.090  26.639  1.00  0.00     0.016 A 
ATOM     28  C   UNL A   1      39.302  26.862  29.217  1.00  0.00     0.010 A 
ATOM     29  C   UNL A   1      40.113  27.438  26.992  1.00  0.00     0.010 A 
ATOM     30  C   UNL A   1      39.751  27.819  28.295  1.00  0.00    -0.014 A 
BRANCH  30  31
ATOM     31  C   UNL A   1      40.160  29.152  28.806  1.00  0.00     0.031 A 
ATOM     32  C   UNL A   1      38.925  30.078  28.988  1.00  0.00     0.074 A 
ATOM     33  C   UNL A   1      41.488  29.363  29.052  1.00  0.00     0.049 A 
ATOM     34  N   UNL A   1      38.846  31.353  29.235  1.00  0.00    -0.248 NA
ATOM     35  C   UNL A   1      37.559  29.484  28.861  1.00  0.00     0.031 C 
ATOM     36  C   UNL A   1      42.555  28.364  28.842  1.00  0.00     0.029 A 
ATOM     37  N   UNL A   1      42.216  30.441  29.519  1.00  0.00    -0.354 N 
ATOM     38  C   UNL A   1      37.485  31.651  29.492  1.00  0.00     0.074 A 
ATOM     39  C   UNL A   1      36.733  30.486  29.152  1.00  0.00     0.031 C 
ATOM     40  C   UNL A   1      43.772  28.891  29.098  1.00  0.00     0.029 A 
ATOM     41  C   UNL A   1      43.629  30.267  29.532  1.00  0.00     0.049 A 
ATOM     42  H   UNL A   1      41.787  31.274  29.823  1.00  0.00     0.167 HD
ATOM     43  C   UNL A   1      37.052  32.800  30.082  1.00  0.00     0.037 A 
ATOM     44  C   UNL A   1      44.608  31.177  29.845  1.00  0.00     0.037 A 
ATOM     45  C   UNL A   1      38.132  33.699  30.281  1.00  0.00     0.049 A 
ATOM     46  C   UNL A   1      43.883  32.324  30.410  1.00  0.00     0.074 A 
ATOM     47  C   UNL A   1      38.788  34.545  29.431  1.00  0.00     0.029 A 
ATOM     48  N   UNL A   1      38.855  33.577  31.439  1.00  0.00    -0.354 N 
ATOM     49  N   UNL A   1      43.331  32.327  31.587  1.00  0.00    -0.248 NA
ATOM     50  C   UNL A   1      43.703  33.528  29.594  1.00  0.00     0.031 C 
ATOM     51  C   UNL A   1      40.102  34.586  29.937  1.00  0.00     0.029 A 
ATOM     52  C   UNL A   1      40.162  33.875  31.140  1.00  0.00     0.049 A 
ATOM     53  H   UNL A   1      38.502  33.321  32.323  1.00  0.00     0.167 HD
ATOM     54  C   UNL A   1      42.473  33.397  31.506  1.00  0.00     0.074 A 
ATOM     55  C   UNL A   1      42.966  34.241  30.441  1.00  0.00     0.031 C 
ATOM     56  C   UNL A   1      41.195  33.263  31.941  1.00  0.00     0.037 A 
BRANCH  43  57
ATOM     57  C   UNL A   1      35.725  33.176  30.679  1.00  0.00     0.064 A 
ATOM     58  C   UNL A   1      34.968  34.198  30.058  1.00  0.00     0.173 A 
ATOM     59  C   UNL A   1      35.346  32.830  31.984  1.00  0.00     0.173 A 
ATOM     60  F   UNL A   1      35.222  34.566  28.792  1.00  0.00    -0.203 F 
ATOM     61  C   UNL A   1      33.986  34.913  30.741  1.00  0.00     0.198 A 
ATOM     62  C   UNL A   1      34.328  33.521  32.651  1.00  0.00     0.198 A 
ATOM     63  F   UNL A   1      36.013  31.893  32.670  1.00  0.00    -0.203 F 
ATOM     64  F   UNL A   1      33.387  35.958  30.151  1.00  0.00    -0.200 F 
ATOM     65  C   UNL A   1      33.679  34.585  32.045  1.00  0.00     0.200 A 
ATOM     66  F   UNL A   1      34.026  33.196  33.916  1.00  0.00    -0.200 F 
ATOM     67  F   UNL A   1      32.783  35.311  32.729  1.00  0.00    -0.200 F 
ENDBRANCH  43  57
BRANCH  44  68
ATOM     68  C   UNL A   1      46.116  31.330  29.749  1.00  0.00     0.064 A 
ATOM     69  C   UNL A   1      47.035  31.127  30.785  1.00  0.00     0.173 A 
ATOM     70  C   UNL A   1      46.726  31.598  28.486  1.00  0.00     0.173 A 
ATOM     71  F   UNL A   1      46.632  30.975  32.050  1.00  0.00    -0.203 F 
ATOM     72  C   UNL A   1      48.427  31.076  30.556  1.00  0.00     0.198 A 
ATOM     73  C   UNL A   1      48.099  31.497  28.247  1.00  0.00     0.198 A 
ATOM     74  F   UNL A   1      46.006  31.963  27.417  1.00  0.00    -0.203 F 
ATOM     75  F   UNL A   1      49.261  30.864  31.584  1.00  0.00    -0.200 F 
ATOM     76  C   UNL A   1      48.952  31.215  29.283  1.00  0.00     0.200 A 
ATOM     77  F   UNL A   1      48.569  31.646  26.999  1.00  0.00    -0.200 F 
ATOM     78  F   UNL A   1      50.267  31.087  29.059  1.00  0.00    -0.200 F 
ENDBRANCH  44  68
BRANCH  56  79
ATOM     79  C   UNL A   1      41.016  32.140  32.947  1.00  0.00     0.064 A 
ATOM     80  C   UNL A   1      41.540  32.271  34.241  1.00  0.00     0.173 A 
ATOM     81  C   UNL A   1      40.468  30.885  32.632  1.00  0.00     0.173 A 
ATOM     82  F   UNL A   1      42.072  33.439  34.631  1.00  0.00    -0.203 F 
ATOM     83  C   UNL A   1      41.532  31.206  35.149  1.00  0.00     0.198 A 
ATOM     84  C   UNL A   1      40.452  29.822  33.535  1.00  0.00     0.198 A 
ATOM     85  F   UNL A   1      39.925  30.661  31.439  1.00  0.00    -0.203 F 
ATOM     86  F   UNL A   1      42.050  31.371  36.375  1.00  0.00    -0.200 F 
ATOM     87  C   UNL A   1      40.992  29.981  34.795  1.00  0.00     0.200 A 
ATOM     88  F   UNL A   1      39.909  28.647  33.180  1.00  0.00    -0.200 F 
ATOM     89  F   UNL A   1      40.977  28.964  35.667  1.00  0.00    -0.200 F 
ENDBRANCH  56  79
ENDBRANCH  30  31
ENDBRANCH  23  25
ENDBRANCH  22  23
ENDBRANCH  21  22
ENDBRANCH   1  21
TORSDOF 14
ENDMDL
MODEL 2
REMARK VINA RESULT:     -10.9      3.582      5.885
REMARK SMILES C[C@@H]1CCC[C@H](C)N1C(=O)Cn1cccc1C(=O)OCCOC(=O)c1ccc(-c2c3nc(c(-c4c(F)c(F)c(F)c(F)c4F)c4ccc([nH]4)c(-c4c(F)c(F)c(F)c(F)c4F)c4nc(c(-c5c(F)c(F)c(F)c(F)c5F)c5ccc2[nH]5)C=C4)C=C3)cc1
REMARK SMILES IDX 20 1 19 2 17 3 18 4 16 5 12 6 13 7 14 8 15 9 11 10 9 11
REMARK SMILES IDX 10 12 8 13 1 14 2 15 3 16 4 17 6 18 5 19 7 20 21 21 22 22
REMARK SMILES IDX 23 23 24 24 25 25 26 26 87 27 27 28 86 29 28 30 29 31 30 32
REMARK SMILES IDX 80 33 31 34 85 35 79 36 81 37 32 38 84 39 78 40 77 41 33 43
REMARK SMILES IDX 65 44 45 45 64 46 46 47 49 48 63 49 82 50 47 51 48 52 62 54
REMARK SMILES IDX 83 55 50 56 34 57 35 58 43 59 36 60 37 61 41 62 44 63 38 64
REMARK SMILES IDX 39 65 42 66 40 67 66 68 67 69 75 70 68 71 69 72 73 73 76 74
REMARK SMILES IDX 70 75 71 76 74 77 72 78 51 79 52 80 60 81 53 82 54 83 58 84
REMARK SMILES IDX 61 85 55 86 56 87 59 88 57 89
REMARK H PARENT 81 42 49 53
REMARK Flexibility Score: inf
ROOT
ATOM      1  C   UNL A   1      37.386  21.914  24.632  1.00  0.00     0.275 C 
ENDROOT
BRANCH   1   2
ATOM      2  O   UNL A   1      36.209  22.732  24.719  1.00  0.00    -0.457 OA
BRANCH   2   3
ATOM      3  C   UNL A   1      35.595  22.911  23.514  1.00  0.00     0.355 C 
ATOM      4  O   UNL A   1      36.173  23.074  22.449  1.00  0.00    -0.244 OA
BRANCH   3   5
ATOM      5  C   UNL A   1      34.169  22.731  23.654  1.00  0.00     0.128 A 
ATOM      6  N   UNL A   1      33.152  23.480  23.091  1.00  0.00    -0.333 N 
ATOM      7  C   UNL A   1      31.946  22.847  23.314  1.00  0.00     0.087 A 
ATOM      8  C   UNL A   1      32.171  21.736  24.090  1.00  0.00     0.020 A 
ATOM      9  C   UNL A   1      33.562  21.667  24.312  1.00  0.00     0.035 A 
BRANCH   6  10
ATOM     10  C   UNL A   1      33.264  24.677  22.258  1.00  0.00     0.222 C 
BRANCH  10  11
ATOM     11  C   UNL A   1      32.325  25.797  22.648  1.00  0.00     0.242 C 
ATOM     12  O   UNL A   1      31.512  26.211  21.815  1.00  0.00    -0.273 OA
BRANCH  11  13
ATOM     13  N   UNL A   1      32.430  26.378  23.912  1.00  0.00    -0.336 N 
ATOM     14  C   UNL A   1      34.011  25.745  25.752  1.00  0.00     0.031 C 
ATOM     15  C   UNL A   1      33.702  26.708  24.600  1.00  0.00     0.082 C 
ATOM     16  C   UNL A   1      33.713  28.159  25.091  1.00  0.00     0.025 C 
ATOM     17  C   UNL A   1      32.464  28.484  25.901  1.00  0.00     0.004 C 
ATOM     18  C   UNL A   1      31.159  26.769  24.548  1.00  0.00     0.082 C 
ATOM     19  C   UNL A   1      31.234  28.205  25.058  1.00  0.00     0.025 C 
ATOM     20  C   UNL A   1      30.642  25.796  25.600  1.00  0.00     0.031 C 
ENDBRANCH  11  13
ENDBRANCH  10  11
ENDBRANCH   6  10
ENDBRANCH   3   5
ENDBRANCH   2   3
ENDBRANCH   1   2
BRANCH   1  21
ATOM     21  C   UNL A   1      38.254  22.005  25.895  1.00  0.00     0.275 C 
BRANCH  21  22
ATOM     22  O   UNL A   1      38.685  23.308  26.331  1.00  0.00    -0.458 OA
BRANCH  22  23
ATOM     23  C   UNL A   1      39.756  23.464  27.137  1.00  0.00     0.338 C 
ATOM     24  O   UNL A   1      40.466  22.605  27.622  1.00  0.00    -0.246 OA
BRANCH  23  25
ATOM     25  C   UNL A   1      39.819  24.905  27.480  1.00  0.00     0.060 A 
ATOM     26  C   UNL A   1      39.387  25.308  28.750  1.00  0.00     0.016 A 
ATOM     27  C   UNL A   1      40.240  25.856  26.538  1.00  0.00     0.016 A 
ATOM     28  C   UNL A   1      39.397  26.659  29.090  1.00  0.00     0.010 A 
ATOM     29  C   UNL A   1      40.266  27.208  26.880  1.00  0.00     0.010 A 
ATOM     30  C   UNL A   1      39.877  27.604  28.170  1.00  0.00    -0.014 A 
BRANCH  30  31
ATOM     31  C   UNL A   1      40.285  28.938  28.678  1.00  0.00     0.031 A 
ATOM     32  C   UNL A   1      39.049  29.863  28.861  1.00  0.00     0.074 A 
ATOM     33  C   UNL A   1      41.613  29.151  28.921  1.00  0.00     0.049 A 
ATOM     34  N   UNL A   1      38.969  31.138  29.107  1.00  0.00    -0.248 NA
ATOM     35  C   UNL A   1      37.684  29.267  28.738  1.00  0.00     0.031 C 
ATOM     36  C   UNL A   1      42.681  28.153  28.711  1.00  0.00     0.029 A 
ATOM     37  N   UNL A   1      42.341  30.230  29.385  1.00  0.00    -0.354 N 
ATOM     38  C   UNL A   1      37.609  31.434  29.366  1.00  0.00     0.074 A 
ATOM     39  C   UNL A   1      36.858  30.269  29.030  1.00  0.00     0.031 C 
ATOM     40  C   UNL A   1      43.898  28.682  28.963  1.00  0.00     0.029 A 
ATOM     41  C   UNL A   1      43.754  30.058  29.395  1.00  0.00     0.049 A 
ATOM     42  H   UNL A   1      41.911  31.063  29.689  1.00  0.00     0.167 HD
ATOM     43  C   UNL A   1      37.175  32.584  29.956  1.00  0.00     0.037 A 
ATOM     44  C   UNL A   1      44.733  30.969  29.705  1.00  0.00     0.037 A 
ATOM     45  C   UNL A   1      38.254  33.485  30.151  1.00  0.00     0.049 A 
ATOM     46  C   UNL A   1      44.007  32.116  30.271  1.00  0.00     0.074 A 
ATOM     47  C   UNL A   1      38.908  34.330  29.298  1.00  0.00     0.029 A 
ATOM     48  N   UNL A   1      38.980  33.365  31.308  1.00  0.00    -0.354 N 
ATOM     49  N   UNL A   1      43.458  32.121  31.448  1.00  0.00    -0.248 NA
ATOM     50  C   UNL A   1      43.824  33.319  29.454  1.00  0.00     0.031 C 
ATOM     51  C   UNL A   1      40.223  34.374  29.802  1.00  0.00     0.029 A 
ATOM     52  C   UNL A   1      40.286  33.664  31.006  1.00  0.00     0.049 A 
ATOM     53  H   UNL A   1      38.629  33.110  32.192  1.00  0.00     0.167 HD
ATOM     54  C   UNL A   1      42.599  33.189  31.368  1.00  0.00     0.074 A 
ATOM     55  C   UNL A   1      43.088  34.032  30.301  1.00  0.00     0.031 C 
ATOM     56  C   UNL A   1      41.322  33.054  31.805  1.00  0.00     0.037 A 
BRANCH  43  57
ATOM     57  C   UNL A   1      35.849  32.959  30.555  1.00  0.00     0.064 A 
ATOM     58  C   UNL A   1      35.089  33.978  29.932  1.00  0.00     0.173 A 
ATOM     59  C   UNL A   1      35.474  32.616  31.861  1.00  0.00     0.173 A 
ATOM     60  F   UNL A   1      35.339  34.343  28.665  1.00  0.00    -0.203 F 
ATOM     61  C   UNL A   1      34.107  34.693  30.616  1.00  0.00     0.198 A 
ATOM     62  C   UNL A   1      34.456  33.307  32.529  1.00  0.00     0.198 A 
ATOM     63  F   UNL A   1      36.144  31.682  32.549  1.00  0.00    -0.203 F 
ATOM     64  F   UNL A   1      33.505  35.735  30.024  1.00  0.00    -0.200 F 
ATOM     65  C   UNL A   1      33.804  34.368  31.922  1.00  0.00     0.200 A 
ATOM     66  F   UNL A   1      34.158  32.985  33.796  1.00  0.00    -0.200 F 
ATOM     67  F   UNL A   1      32.908  35.095  32.605  1.00  0.00    -0.200 F 
ENDBRANCH  43  57
BRANCH  44  68
ATOM     68  C   UNL A   1      46.241  31.124  29.606  1.00  0.00     0.064 A 
ATOM     69  C   UNL A   1      47.125  31.303  30.676  1.00  0.00     0.173 A 
ATOM     70  C   UNL A   1      46.891  30.974  28.343  1.00  0.00     0.173 A 
ATOM     71  F   UNL A   1      46.680  31.569  31.907  1.00  0.00    -0.203 F 
ATOM     72  C   UNL A   1      48.525  31.218  30.516  1.00  0.00     0.198 A 
ATOM     73  C   UNL A   1      48.272  30.838  28.191  1.00  0.00     0.198 A 
ATOM     74  F   UNL A   1      46.203  30.943  27.194  1.00  0.00    -0.203 F 
ATOM     75  F   UNL A   1      49.325  31.383  31.579  1.00  0.00    -0.200 F 
ATOM     76  C   UNL A   1      49.093  30.940  29.285  1.00  0.00     0.200 A 
ATOM     77  F   UNL A   1      48.785  30.577  26.978  1.00  0.00    -0.200 F 
ATOM     78  F   UNL A   1      50.417  30.782  29.153  1.00  0.00    -0.200 F 
ENDBRANCH  44  68
BRANCH  56  79
ATOM     79  C   UNL A   1      41.146  31.932  32.813  1.00  0.00     0.064 A 
ATOM     80  C   UNL A   1      41.669  32.067  34.108  1.00  0.00     0.173 A 
ATOM     81  C   UNL A   1      40.602  30.676  32.501  1.00  0.00     0.173 A 
ATOM     82  F   UNL A   1      42.197  33.237  34.496  1.00  0.00    -0.203 F 
ATOM     83  C   UNL A   1      41.665  31.004  35.017  1.00  0.00     0.198 A 
ATOM     84  C   UNL A   1      40.589  29.613  33.406  1.00  0.00     0.198 A 
ATOM     85  F   UNL A   1      40.059  30.447  31.307  1.00  0.00    -0.203 F 
ATOM     86  F   UNL A   1      42.181  31.172  36.242  1.00  0.00    -0.200 F 
ATOM     87  C   UNL A   1      41.128  29.777  34.665  1.00  0.00     0.200 A 
ATOM     88  F   UNL A   1      40.049  28.436  33.052  1.00  0.00    -0.200 F 
ATOM     89  F   UNL A   1      41.117  28.761  35.539  1.00  0.00    -0.200 F 
ENDBRANCH  56  79
ENDBRANCH  30  31
ENDBRANCH  23  25
ENDBRANCH  22  23
ENDBRANCH  21  22
ENDBRANCH   1  21
TORSDOF 14
ENDMDL
MODEL 3
REMARK VINA RESULT:     -10.9      5.248     10.777
REMARK SMILES C[C@@H]1CCC[C@H](C)N1C(=O)Cn1cccc1C(=O)OCCOC(=O)c1ccc(-c2c3nc(c(-c4c(F)c(F)c(F)c(F)c4F)c4ccc([nH]4)c(-c4c(F)c(F)c(F)c(F)c4F)c4nc(c(-c5c(F)c(F)c(F)c(F)c5F)c5ccc2[nH]5)C=C4)C=C3)cc1
REMARK SMILES IDX 20 1 19 2 17 3 18 4 16 5 12 6 13 7 14 8 15 9 11 10 9 11
REMARK SMILES IDX 10 12 8 13 1 14 2 15 3 16 4 17 6 18 5 19 7 20 21 21 22 22
REMARK SMILES IDX 23 23 24 24 25 25 26 26 87 27 27 28 86 29 28 30 29 31 30 32
REMARK SMILES IDX 80 33 31 34 85 35 79 36 81 37 32 38 84 39 78 40 77 41 33 43
REMARK SMILES IDX 65 44 45 45 64 46 46 47 49 48 63 49 82 50 47 51 48 52 62 54
REMARK SMILES IDX 83 55 50 56 34 57 35 58 43 59 36 60 37 61 41 62 44 63 38 64
REMARK SMILES IDX 39 65 42 66 40 67 66 68 67 69 75 70 68 71 69 72 73 73 76 74
REMARK SMILES IDX 70 75 71 76 74 77 72 78 51 79 52 80 60 81 53 82 54 83 58 84
REMARK SMILES IDX 61 85 55 86 56 87 59 88 57 89
REMARK H PARENT 81 42 49 53
REMARK Flexibility Score: inf
ROOT
ATOM      1  C   UNL A   1      32.521  30.195  26.058  1.00  0.00     0.275 C 
ENDROOT
BRANCH   1   2
ATOM      2  O   UNL A   1      31.858  28.938  26.265  1.00  0.00    -0.457 OA
BRANCH   2   3
ATOM      3  C   UNL A   1      32.596  27.870  25.845  1.00  0.00     0.355 C 
ATOM      4  O   UNL A   1      33.503  27.351  26.479  1.00  0.00    -0.244 OA
BRANCH   3   5
ATOM      5  C   UNL A   1      32.052  27.349  24.612  1.00  0.00     0.128 A 
ATOM      6  N   UNL A   1      31.128  26.333  24.448  1.00  0.00    -0.333 N 
ATOM      7  C   UNL A   1      30.732  26.291  23.126  1.00  0.00     0.087 A 
ATOM      8  C   UNL A   1      31.460  27.220  22.421  1.00  0.00     0.020 A 
ATOM      9  C   UNL A   1      32.295  27.875  23.350  1.00  0.00     0.035 A 
BRANCH   6  10
ATOM     10  C   UNL A   1      30.509  25.496  25.475  1.00  0.00     0.222 C 
BRANCH  10  11
ATOM     11  C   UNL A   1      31.419  24.425  26.035  1.00  0.00     0.242 C 
ATOM     12  O   UNL A   1      31.399  24.201  27.250  1.00  0.00    -0.273 OA
BRANCH  11  13
ATOM     13  N   UNL A   1      32.298  23.752  25.186  1.00  0.00    -0.336 N 
ATOM     14  C   UNL A   1      32.232  21.334  24.529  1.00  0.00     0.031 C 
ATOM     15  C   UNL A   1      31.903  22.779  24.139  1.00  0.00     0.082 C 
ATOM     16  C   UNL A   1      32.527  23.129  22.785  1.00  0.00     0.025 C 
ATOM     17  C   UNL A   1      34.032  23.341  22.902  1.00  0.00     0.004 C 
ATOM     18  C   UNL A   1      33.718  24.132  25.300  1.00  0.00     0.082 C 
ATOM     19  C   UNL A   1      34.306  24.429  23.923  1.00  0.00     0.025 C 
ATOM     20  C   UNL A   1      34.577  23.171  26.112  1.00  0.00     0.031 C 
ENDBRANCH  11  13
ENDBRANCH  10  11
ENDBRANCH   6  10
ENDBRANCH   3   5
ENDBRANCH   2   3
ENDBRANCH   1   2
BRANCH   1  21
ATOM     21  C   UNL A   1      33.382  30.605  27.259  1.00  0.00     0.275 C 
BRANCH  21  22
ATOM     22  O   UNL A   1      34.778  30.249  27.250  1.00  0.00    -0.458 OA
BRANCH  22  23
ATOM     23  C   UNL A   1      35.710  31.031  27.833  1.00  0.00     0.338 C 
ATOM     24  O   UNL A   1      35.725  32.243  27.927  1.00  0.00    -0.246 OA
BRANCH  23  25
ATOM     25  C   UNL A   1      36.837  30.141  28.201  1.00  0.00     0.060 A 
ATOM     26  C   UNL A   1      37.944  30.078  27.347  1.00  0.00     0.016 A 
ATOM     27  C   UNL A   1      36.775  29.329  29.345  1.00  0.00     0.016 A 
ATOM     28  C   UNL A   1      39.002  29.222  27.645  1.00  0.00     0.010 A 
ATOM     29  C   UNL A   1      37.838  28.482  29.654  1.00  0.00     0.010 A 
ATOM     30  C   UNL A   1      38.968  28.456  28.820  1.00  0.00    -0.014 A 
BRANCH  30  31
ATOM     31  C   UNL A   1      40.244  27.902  29.338  1.00  0.00     0.031 A 
ATOM     32  C   UNL A   1      40.580  26.549  28.651  1.00  0.00     0.074 A 
ATOM     33  C   UNL A   1      40.921  28.627  30.279  1.00  0.00     0.049 A 
ATOM     34  N   UNL A   1      41.486  25.656  28.925  1.00  0.00    -0.248 NA
ATOM     35  C   UNL A   1      39.762  26.121  27.475  1.00  0.00     0.031 C 
ATOM     36  C   UNL A   1      40.476  29.923  30.828  1.00  0.00     0.029 A 
ATOM     37  N   UNL A   1      42.105  28.435  30.967  1.00  0.00    -0.354 N 
ATOM     38  C   UNL A   1      41.481  24.711  27.871  1.00  0.00     0.074 A 
ATOM     39  C   UNL A   1      40.339  24.994  27.064  1.00  0.00     0.031 C 
ATOM     40  C   UNL A   1      41.313  30.355  31.797  1.00  0.00     0.029 A 
ATOM     41  C   UNL A   1      42.403  29.412  31.958  1.00  0.00     0.049 A 
ATOM     42  H   UNL A   1      42.702  27.674  30.784  1.00  0.00     0.167 HD
ATOM     43  C   UNL A   1      42.480  23.812  27.645  1.00  0.00     0.037 A 
ATOM     44  C   UNL A   1      43.440  29.442  32.857  1.00  0.00     0.037 A 
ATOM     45  C   UNL A   1      43.451  23.871  28.678  1.00  0.00     0.049 A 
ATOM     46  C   UNL A   1      44.338  28.362  32.423  1.00  0.00     0.074 A 
ATOM     47  C   UNL A   1      43.469  23.366  29.948  1.00  0.00     0.029 A 
ATOM     48  N   UNL A   1      44.468  24.781  28.542  1.00  0.00    -0.354 N 
ATOM     49  N   UNL A   1      45.091  28.422  31.366  1.00  0.00    -0.248 NA
ATOM     50  C   UNL A   1      44.361  27.106  33.178  1.00  0.00     0.031 C 
ATOM     51  C   UNL A   1      44.244  24.292  30.673  1.00  0.00     0.029 A 
ATOM     52  C   UNL A   1      44.771  25.247  29.798  1.00  0.00     0.049 A 
ATOM     53  H   UNL A   1      44.900  25.050  27.699  1.00  0.00     0.167 HD
ATOM     54  C   UNL A   1      45.412  27.102  31.159  1.00  0.00     0.074 A 
ATOM     55  C   UNL A   1      45.220  26.428  32.423  1.00  0.00     0.031 C 
ATOM     56  C   UNL A   1      45.316  26.579  29.911  1.00  0.00     0.037 A 
BRANCH  43  57
ATOM     57  C   UNL A   1      42.790  22.943  26.459  1.00  0.00     0.064 A 
ATOM     58  C   UNL A   1      42.652  21.540  26.593  1.00  0.00     0.173 A 
ATOM     59  C   UNL A   1      43.524  23.390  25.351  1.00  0.00     0.173 A 
ATOM     60  F   UNL A   1      41.927  21.015  27.593  1.00  0.00    -0.203 F 
ATOM     61  C   UNL A   1      43.312  20.647  25.751  1.00  0.00     0.198 A 
ATOM     62  C   UNL A   1      44.148  22.489  24.481  1.00  0.00     0.198 A 
ATOM     63  F   UNL A   1      43.734  24.697  25.146  1.00  0.00    -0.203 F 
ATOM     64  F   UNL A   1      43.256  19.330  25.997  1.00  0.00    -0.200 F 
ATOM     65  C   UNL A   1      44.075  21.123  24.705  1.00  0.00     0.200 A 
ATOM     66  F   UNL A   1      44.883  22.953  23.461  1.00  0.00    -0.200 F 
ATOM     67  F   UNL A   1      44.765  20.271  23.933  1.00  0.00    -0.200 F 
ENDBRANCH  43  57
BRANCH  44  68
ATOM     68  C   UNL A   1      43.871  30.203  34.099  1.00  0.00     0.064 A 
ATOM     69  C   UNL A   1      43.243  30.167  35.349  1.00  0.00     0.173 A 
ATOM     70  C   UNL A   1      45.084  30.957  34.087  1.00  0.00     0.173 A 
ATOM     71  F   UNL A   1      42.045  29.599  35.508  1.00  0.00    -0.203 F 
ATOM     72  C   UNL A   1      43.833  30.728  36.502  1.00  0.00     0.198 A 
ATOM     73  C   UNL A   1      45.694  31.466  35.236  1.00  0.00     0.198 A 
ATOM     74  F   UNL A   1      45.739  31.223  32.950  1.00  0.00    -0.203 F 
ATOM     75  F   UNL A   1      43.194  30.652  37.678  1.00  0.00    -0.200 F 
ATOM     76  C   UNL A   1      45.076  31.335  36.452  1.00  0.00     0.200 A 
ATOM     77  F   UNL A   1      46.896  32.056  35.144  1.00  0.00    -0.200 F 
ATOM     78  F   UNL A   1      45.667  31.795  37.563  1.00  0.00    -0.200 F 
ENDBRANCH  44  68
BRANCH  56  79
ATOM     79  C   UNL A   1      45.388  27.625  28.812  1.00  0.00     0.064 A 
ATOM     80  C   UNL A   1      46.602  28.274  28.544  1.00  0.00     0.173 A 
ATOM     81  C   UNL A   1      44.268  28.105  28.113  1.00  0.00     0.173 A 
ATOM     82  F   UNL A   1      47.724  27.872  29.158  1.00  0.00    -0.203 F 
ATOM     83  C   UNL A   1      46.680  29.347  27.649  1.00  0.00     0.198 A 
ATOM     84  C   UNL A   1      44.341  29.171  27.215  1.00  0.00     0.198 A 
ATOM     85  F   UNL A   1      43.072  27.546  28.277  1.00  0.00    -0.203 F 
ATOM     86  F   UNL A   1      47.858  29.945  27.426  1.00  0.00    -0.200 F 
ATOM     87  C   UNL A   1      45.549  29.798  26.988  1.00  0.00     0.200 A 
ATOM     88  F   UNL A   1      43.238  29.583  26.571  1.00  0.00    -0.200 F 
ATOM     89  F   UNL A   1      45.625  30.821  26.125  1.00  0.00    -0.200 F 
ENDBRANCH  56  79
ENDBRANCH  30  31
ENDBRANCH  23  25
ENDBRANCH  22  23
ENDBRANCH  21  22
ENDBRANCH   1  21
TORSDOF 14
ENDMDL
