MODEL 1
REMARK VINA RESULT:     -11.2      0.000      0.000
REMARK SMILES CCC(CC)(NC(=O)c1c(C)noc1C)C(=O)OCCOC(=O)c1ccc(-c2c3nc(c(-c4c(F)c(F)c(F)c(F)c4F)c4ccc([nH]4)c(-c4c(F)c(F)c(F)c(F)c4F)c4nc(c(-c5c(F)c(F)c(F)c(F)c5F)c5ccc2[nH]5)C=C4)C=C3)cc1
REMARK SMILES IDX 19 1 18 2 16 3 17 4 3 5 2 6 1 7 4 8 5 9 6 10 7 11 8 13 9 14
REMARK SMILES IDX 10 15 14 16 11 17 12 18 13 19 15 20 20 21 21 22 22 23 23 24
REMARK SMILES IDX 24 25 25 26 86 27 26 28 85 29 27 30 28 31 29 32 79 33 30 34
REMARK SMILES IDX 84 35 78 36 80 37 31 38 83 39 77 40 76 41 32 43 64 44 44 45
REMARK SMILES IDX 63 46 45 47 48 48 62 49 81 50 46 51 47 52 61 54 82 55 49 56
REMARK SMILES IDX 33 57 34 58 42 59 35 60 36 61 40 62 43 63 37 64 38 65 41 66
REMARK SMILES IDX 39 67 65 68 66 69 74 70 67 71 68 72 72 73 75 74 69 75 70 76
REMARK SMILES IDX 73 77 71 78 50 79 51 80 59 81 52 82 53 83 57 84 60 85 54 86
REMARK SMILES IDX 55 87 58 88 56 89
REMARK H PARENT 6 12 80 42 48 53
REMARK Flexibility Score: inf
ROOT
ATOM      1  C   UNL A   1      36.705  22.944  23.771  1.00  0.00     0.274 C 
ENDROOT
BRANCH   1   2
ATOM      2  O   UNL A   1      35.636  23.734  24.344  1.00  0.00    -0.460 OA
BRANCH   2   3
ATOM      3  C   UNL A   1      34.585  23.960  23.520  1.00  0.00     0.331 C 
ATOM      4  O   UNL A   1      34.528  23.517  22.374  1.00  0.00    -0.249 OA
BRANCH   3   5
ATOM      5  C   UNL A   1      33.444  24.821  24.147  1.00  0.00     0.137 C 
BRANCH   5   6
ATOM      6  C   UNL A   1      32.967  25.833  23.042  1.00  0.00     0.037 C 
ATOM      7  C   UNL A   1      31.568  25.665  22.463  1.00  0.00     0.007 C 
ENDBRANCH   5   6
BRANCH   5   8
ATOM      8  C   UNL A   1      34.061  25.572  25.364  1.00  0.00     0.037 C 
ATOM      9  C   UNL A   1      33.644  27.027  25.545  1.00  0.00     0.007 C 
ENDBRANCH   5   8
BRANCH   5  10
ATOM     10  N   UNL A   1      32.166  24.160  24.569  1.00  0.00    -0.336 N 
ATOM     11  C   UNL A   1      31.746  22.990  25.133  1.00  0.00     0.257 C 
ATOM     12  H   UNL A   1      31.398  24.746  24.381  1.00  0.00     0.165 HD
ATOM     13  O   UNL A   1      30.668  23.044  25.728  1.00  0.00    -0.269 OA
BRANCH  11  14
ATOM     14  C   UNL A   1      32.371  21.717  24.890  1.00  0.00     0.105 A 
ATOM     15  C   UNL A   1      33.257  21.051  25.793  1.00  0.00     0.093 A 
ATOM     16  C   UNL A   1      32.441  20.946  23.751  1.00  0.00     0.146 A 
ATOM     17  C   UNL A   1      33.673  21.465  27.158  1.00  0.00     0.071 C 
ATOM     18  N   UNL A   1      33.751  19.929  25.260  1.00  0.00    -0.084 NA
ATOM     19  O   UNL A   1      33.235  19.865  23.986  1.00  0.00    -0.361 OA
ATOM     20  C   UNL A   1      31.916  21.030  22.380  1.00  0.00     0.092 C 
ENDBRANCH  11  14
ENDBRANCH   5  10
ENDBRANCH   3   5
ENDBRANCH   2   3
ENDBRANCH   1   2
BRANCH   1  21
ATOM     21  C   UNL A   1      36.885  21.650  24.554  1.00  0.00     0.275 C 
BRANCH  21  22
ATOM     22  O   UNL A   1      37.380  22.002  25.855  1.00  0.00    -0.458 OA
BRANCH  22  23
ATOM     23  C   UNL A   1      38.657  21.654  26.095  1.00  0.00     0.338 C 
ATOM     24  O   UNL A   1      39.241  20.615  25.811  1.00  0.00    -0.246 OA
BRANCH  23  25
ATOM     25  C   UNL A   1      39.346  22.821  26.634  1.00  0.00     0.060 A 
ATOM     26  C   UNL A   1      38.968  24.076  26.156  1.00  0.00     0.016 A 
ATOM     27  C   UNL A   1      40.413  22.675  27.512  1.00  0.00     0.016 A 
ATOM     28  C   UNL A   1      39.703  25.200  26.502  1.00  0.00     0.010 A 
ATOM     29  C   UNL A   1      41.101  23.816  27.923  1.00  0.00     0.010 A 
ATOM     30  C   UNL A   1      40.770  25.081  27.402  1.00  0.00    -0.014 A 
BRANCH  30  31
ATOM     31  C   UNL A   1      41.567  26.269  27.789  1.00  0.00     0.031 A 
ATOM     32  C   UNL A   1      40.939  27.337  28.634  1.00  0.00     0.074 A 
ATOM     33  C   UNL A   1      42.838  26.395  27.367  1.00  0.00     0.049 A 
ATOM     34  N   UNL A   1      41.348  28.556  28.869  1.00  0.00    -0.248 NA
ATOM     35  C   UNL A   1      39.669  26.988  29.290  1.00  0.00     0.031 C 
ATOM     36  C   UNL A   1      43.581  25.394  26.601  1.00  0.00     0.029 A 
ATOM     37  N   UNL A   1      43.728  27.427  27.519  1.00  0.00    -0.354 N 
ATOM     38  C   UNL A   1      40.355  29.143  29.642  1.00  0.00     0.074 A 
ATOM     39  C   UNL A   1      39.333  28.139  29.853  1.00  0.00     0.031 C 
ATOM     40  C   UNL A   1      44.820  25.851  26.366  1.00  0.00     0.029 A 
ATOM     41  C   UNL A   1      44.927  27.209  26.886  1.00  0.00     0.049 A 
ATOM     42  H   UNL A   1      43.527  28.244  28.029  1.00  0.00     0.167 HD
ATOM     43  C   UNL A   1      40.302  30.411  30.112  1.00  0.00     0.037 A 
ATOM     44  C   UNL A   1      45.975  28.034  26.701  1.00  0.00     0.037 A 
ATOM     45  C   UNL A   1      41.350  31.381  29.925  1.00  0.00     0.049 A 
ATOM     46  C   UNL A   1      45.888  29.442  27.216  1.00  0.00     0.074 A 
ATOM     47  C   UNL A   1      41.400  32.699  30.342  1.00  0.00     0.029 A 
ATOM     48  N   UNL A   1      42.549  31.123  29.274  1.00  0.00    -0.354 N 
ATOM     49  N   UNL A   1      44.910  30.024  27.866  1.00  0.00    -0.248 NA
ATOM     50  C   UNL A   1      47.038  30.315  26.948  1.00  0.00     0.031 C 
ATOM     51  C   UNL A   1      42.619  33.244  29.924  1.00  0.00     0.029 A 
ATOM     52  C   UNL A   1      43.344  32.256  29.277  1.00  0.00     0.049 A 
ATOM     53  H   UNL A   1      42.798  30.260  28.870  1.00  0.00     0.167 HD
ATOM     54  C   UNL A   1      45.325  31.327  28.092  1.00  0.00     0.074 A 
ATOM     55  C   UNL A   1      46.654  31.445  27.524  1.00  0.00     0.031 C 
ATOM     56  C   UNL A   1      44.665  32.340  28.705  1.00  0.00     0.037 A 
BRANCH  43  57
ATOM     57  C   UNL A   1      39.049  30.830  30.821  1.00  0.00     0.064 A 
ATOM     58  C   UNL A   1      38.908  30.724  32.211  1.00  0.00     0.173 A 
ATOM     59  C   UNL A   1      37.968  31.344  30.088  1.00  0.00     0.173 A 
ATOM     60  F   UNL A   1      39.905  30.219  32.953  1.00  0.00    -0.203 F 
ATOM     61  C   UNL A   1      37.720  31.090  32.840  1.00  0.00     0.198 A 
ATOM     62  C   UNL A   1      36.790  31.733  30.722  1.00  0.00     0.198 A 
ATOM     63  F   UNL A   1      38.050  31.467  28.755  1.00  0.00    -0.203 F 
ATOM     64  F   UNL A   1      37.588  30.931  34.164  1.00  0.00    -0.200 F 
ATOM     65  C   UNL A   1      36.664  31.597  32.097  1.00  0.00     0.200 A 
ATOM     66  F   UNL A   1      35.775  32.229  30.002  1.00  0.00    -0.200 F 
ATOM     67  F   UNL A   1      35.521  31.945  32.703  1.00  0.00    -0.200 F 
ENDBRANCH  43  57
BRANCH  44  68
ATOM     68  C   UNL A   1      47.169  27.548  25.965  1.00  0.00     0.064 A 
ATOM     69  C   UNL A   1      47.251  27.675  24.573  1.00  0.00     0.173 A 
ATOM     70  C   UNL A   1      48.266  26.990  26.638  1.00  0.00     0.173 A 
ATOM     71  F   UNL A   1      46.219  28.182  23.884  1.00  0.00    -0.203 F 
ATOM     72  C   UNL A   1      48.387  27.262  23.880  1.00  0.00     0.198 A 
ATOM     73  C   UNL A   1      49.411  26.601  25.947  1.00  0.00     0.198 A 
ATOM     74  F   UNL A   1      48.236  26.850  27.971  1.00  0.00    -0.203 F 
ATOM     75  F   UNL A   1      48.433  27.372  22.546  1.00  0.00    -0.200 F 
ATOM     76  C   UNL A   1      49.471  26.735  24.569  1.00  0.00     0.200 A 
ATOM     77  F   UNL A   1      50.461  26.109  26.619  1.00  0.00    -0.200 F 
ATOM     78  F   UNL A   1      50.570  26.356  23.904  1.00  0.00    -0.200 F 
ENDBRANCH  44  68
BRANCH  56  79
ATOM     79  C   UNL A   1      45.386  33.648  28.814  1.00  0.00     0.064 A 
ATOM     80  C   UNL A   1      46.240  33.923  29.891  1.00  0.00     0.173 A 
ATOM     81  C   UNL A   1      45.239  34.622  27.816  1.00  0.00     0.173 A 
ATOM     82  F   UNL A   1      46.394  33.027  30.876  1.00  0.00    -0.203 F 
ATOM     83  C   UNL A   1      46.908  35.142  29.975  1.00  0.00     0.198 A 
ATOM     84  C   UNL A   1      45.926  35.829  27.893  1.00  0.00     0.198 A 
ATOM     85  F   UNL A   1      44.434  34.399  26.767  1.00  0.00    -0.203 F 
ATOM     86  F   UNL A   1      47.688  35.403  31.032  1.00  0.00    -0.200 F 
ATOM     87  C   UNL A   1      46.754  36.091  28.975  1.00  0.00     0.200 A 
ATOM     88  F   UNL A   1      45.781  36.744  26.924  1.00  0.00    -0.200 F 
ATOM     89  F   UNL A   1      47.398  37.263  29.058  1.00  0.00    -0.200 F 
ENDBRANCH  56  79
ENDBRANCH  30  31
ENDBRANCH  23  25
ENDBRANCH  22  23
ENDBRANCH  21  22
ENDBRANCH   1  21
TORSDOF 15
ENDMDL
MODEL 2
REMARK VINA RESULT:     -11.2      4.536      9.760
REMARK SMILES CCC(CC)(NC(=O)c1c(C)noc1C)C(=O)OCCOC(=O)c1ccc(-c2c3nc(c(-c4c(F)c(F)c(F)c(F)c4F)c4ccc([nH]4)c(-c4c(F)c(F)c(F)c(F)c4F)c4nc(c(-c5c(F)c(F)c(F)c(F)c5F)c5ccc2[nH]5)C=C4)C=C3)cc1
REMARK SMILES IDX 19 1 18 2 16 3 17 4 3 5 2 6 1 7 4 8 5 9 6 10 7 11 8 13 9 14
REMARK SMILES IDX 10 15 14 16 11 17 12 18 13 19 15 20 20 21 21 22 22 23 23 24
REMARK SMILES IDX 24 25 25 26 86 27 26 28 85 29 27 30 28 31 29 32 79 33 30 34
REMARK SMILES IDX 84 35 78 36 80 37 31 38 83 39 77 40 76 41 32 43 64 44 44 45
REMARK SMILES IDX 63 46 45 47 48 48 62 49 81 50 46 51 47 52 61 54 82 55 49 56
REMARK SMILES IDX 33 57 34 58 42 59 35 60 36 61 40 62 43 63 37 64 38 65 41 66
REMARK SMILES IDX 39 67 65 68 66 69 74 70 67 71 68 72 72 73 75 74 69 75 70 76
REMARK SMILES IDX 73 77 71 78 50 79 51 80 59 81 52 82 53 83 57 84 60 85 54 86
REMARK SMILES IDX 55 87 58 88 56 89
REMARK H PARENT 6 12 80 42 48 53
REMARK Flexibility Score: inf
ROOT
ATOM      1  C   UNL A   1      31.794  28.379  27.404  1.00  0.00     0.274 C 
ENDROOT
BRANCH   1   2
ATOM      2  O   UNL A   1      31.440  27.254  26.566  1.00  0.00    -0.460 OA
BRANCH   2   3
ATOM      3  C   UNL A   1      32.482  26.482  26.174  1.00  0.00     0.331 C 
ATOM      4  O   UNL A   1      33.654  26.821  26.316  1.00  0.00    -0.249 OA
BRANCH   3   5
ATOM      5  C   UNL A   1      32.071  25.117  25.535  1.00  0.00     0.137 C 
BRANCH   5   6
ATOM      6  C   UNL A   1      30.686  24.712  26.159  1.00  0.00     0.037 C 
ATOM      7  C   UNL A   1      30.530  23.305  26.721  1.00  0.00     0.007 C 
ENDBRANCH   5   6
BRANCH   5   8
ATOM      8  C   UNL A   1      33.177  24.089  25.915  1.00  0.00     0.037 C 
ATOM      9  C   UNL A   1      34.271  23.856  24.878  1.00  0.00     0.007 C 
ENDBRANCH   5   8
BRANCH   5  10
ATOM     10  N   UNL A   1      31.808  25.042  24.061  1.00  0.00    -0.336 N 
ATOM     11  C   UNL A   1      31.609  25.882  23.003  1.00  0.00     0.257 C 
ATOM     12  H   UNL A   1      31.767  24.103  23.767  1.00  0.00     0.165 HD
ATOM     13  O   UNL A   1      31.892  25.418  21.897  1.00  0.00    -0.269 OA
BRANCH  11  14
ATOM     14  C   UNL A   1      30.918  27.140  23.102  1.00  0.00     0.105 A 
ATOM     15  C   UNL A   1      31.534  28.426  23.002  1.00  0.00     0.093 A 
ATOM     16  C   UNL A   1      29.626  27.436  23.478  1.00  0.00     0.146 A 
ATOM     17  C   UNL A   1      32.956  28.753  22.722  1.00  0.00     0.071 C 
ATOM     18  N   UNL A   1      30.657  29.411  23.223  1.00  0.00    -0.084 NA
ATOM     19  O   UNL A   1      29.465  28.787  23.514  1.00  0.00    -0.361 OA
ATOM     20  C   UNL A   1      28.436  26.670  23.875  1.00  0.00     0.092 C 
ENDBRANCH  11  14
ENDBRANCH   5  10
ENDBRANCH   3   5
ENDBRANCH   2   3
ENDBRANCH   1   2
BRANCH   1  21
ATOM     21  C   UNL A   1      31.777  29.669  26.592  1.00  0.00     0.275 C 
BRANCH  21  22
ATOM     22  O   UNL A   1      33.141  30.069  26.395  1.00  0.00    -0.458 OA
BRANCH  22  23
ATOM     23  C   UNL A   1      33.514  31.179  27.057  1.00  0.00     0.338 C 
ATOM     24  O   UNL A   1      32.874  32.201  27.271  1.00  0.00    -0.246 OA
BRANCH  23  25
ATOM     25  C   UNL A   1      34.816  30.924  27.663  1.00  0.00     0.060 A 
ATOM     26  C   UNL A   1      35.133  29.605  27.989  1.00  0.00     0.016 A 
ATOM     27  C   UNL A   1      35.662  31.973  27.998  1.00  0.00     0.016 A 
ATOM     28  C   UNL A   1      36.277  29.328  28.722  1.00  0.00     0.010 A 
ATOM     29  C   UNL A   1      36.853  31.685  28.665  1.00  0.00     0.010 A 
ATOM     30  C   UNL A   1      37.156  30.367  29.054  1.00  0.00    -0.014 A 
BRANCH  30  31
ATOM     31  C   UNL A   1      38.387  30.094  29.834  1.00  0.00     0.031 A 
ATOM     32  C   UNL A   1      39.455  29.221  29.245  1.00  0.00     0.074 A 
ATOM     33  C   UNL A   1      38.533  30.610  31.067  1.00  0.00     0.049 A 
ATOM     34  N   UNL A   1      40.472  28.646  29.832  1.00  0.00    -0.248 NA
ATOM     35  C   UNL A   1      39.355  28.948  27.803  1.00  0.00     0.031 C 
ATOM     36  C   UNL A   1      37.598  31.528  31.719  1.00  0.00     0.029 A 
ATOM     37  N   UNL A   1      39.524  30.428  31.997  1.00  0.00    -0.354 N 
ATOM     38  C   UNL A   1      41.092  27.887  28.848  1.00  0.00     0.074 A 
ATOM     39  C   UNL A   1      40.350  28.092  27.622  1.00  0.00     0.031 C 
ATOM     40  C   UNL A   1      38.069  31.844  32.935  1.00  0.00     0.029 A 
ATOM     41  C   UNL A   1      39.288  31.083  33.180  1.00  0.00     0.049 A 
ATOM     42  H   UNL A   1      40.325  29.879  31.833  1.00  0.00     0.167 HD
ATOM     43  C   UNL A   1      42.173  27.082  28.972  1.00  0.00     0.037 A 
ATOM     44  C   UNL A   1      39.953  31.033  34.349  1.00  0.00     0.037 A 
ATOM     45  C   UNL A   1      42.922  26.925  30.192  1.00  0.00     0.049 A 
ATOM     46  C   UNL A   1      41.139  30.120  34.470  1.00  0.00     0.074 A 
ATOM     47  C   UNL A   1      44.023  26.125  30.439  1.00  0.00     0.029 A 
ATOM     48  N   UNL A   1      42.649  27.604  31.372  1.00  0.00    -0.354 N 
ATOM     49  N   UNL A   1      41.669  29.333  33.565  1.00  0.00    -0.248 NA
ATOM     50  C   UNL A   1      41.801  30.067  35.779  1.00  0.00     0.031 C 
ATOM     51  C   UNL A   1      44.401  26.303  31.775  1.00  0.00     0.029 A 
ATOM     52  C   UNL A   1      43.558  27.241  32.350  1.00  0.00     0.049 A 
ATOM     53  H   UNL A   1      41.915  28.249  31.494  1.00  0.00     0.167 HD
ATOM     54  C   UNL A   1      42.729  28.695  34.190  1.00  0.00     0.074 A 
ATOM     55  C   UNL A   1      42.779  29.203  35.548  1.00  0.00     0.031 C 
ATOM     56  C   UNL A   1      43.582  27.767  33.691  1.00  0.00     0.037 A 
BRANCH  43  57
ATOM     57  C   UNL A   1      42.568  26.272  27.773  1.00  0.00     0.064 A 
ATOM     58  C   UNL A   1      41.980  25.033  27.484  1.00  0.00     0.173 A 
ATOM     59  C   UNL A   1      43.558  26.748  26.900  1.00  0.00     0.173 A 
ATOM     60  F   UNL A   1      41.043  24.524  28.300  1.00  0.00    -0.203 F 
ATOM     61  C   UNL A   1      42.389  24.286  26.382  1.00  0.00     0.198 A 
ATOM     62  C   UNL A   1      43.948  26.010  25.785  1.00  0.00     0.198 A 
ATOM     63  F   UNL A   1      44.153  27.928  27.130  1.00  0.00    -0.203 F 
ATOM     64  F   UNL A   1      41.850  23.080  26.155  1.00  0.00    -0.200 F 
ATOM     65  C   UNL A   1      43.369  24.776  25.532  1.00  0.00     0.200 A 
ATOM     66  F   UNL A   1      44.890  26.490  24.961  1.00  0.00    -0.200 F 
ATOM     67  F   UNL A   1      43.764  24.054  24.474  1.00  0.00    -0.200 F 
ENDBRANCH  43  57
BRANCH  44  68
ATOM     68  C   UNL A   1      39.481  31.848  35.496  1.00  0.00     0.064 A 
ATOM     69  C   UNL A   1      39.914  33.170  35.661  1.00  0.00     0.173 A 
ATOM     70  C   UNL A   1      38.557  31.343  36.423  1.00  0.00     0.173 A 
ATOM     71  F   UNL A   1      40.813  33.690  34.813  1.00  0.00    -0.203 F 
ATOM     72  C   UNL A   1      39.441  33.956  36.709  1.00  0.00     0.198 A 
ATOM     73  C   UNL A   1      38.065  32.137  37.455  1.00  0.00     0.198 A 
ATOM     74  F   UNL A   1      38.110  30.084  36.306  1.00  0.00    -0.203 F 
ATOM     75  F   UNL A   1      39.889  35.210  36.859  1.00  0.00    -0.200 F 
ATOM     76  C   UNL A   1      38.509  33.443  37.600  1.00  0.00     0.200 A 
ATOM     77  F   UNL A   1      37.152  31.642  38.302  1.00  0.00    -0.200 F 
ATOM     78  F   UNL A   1      38.040  34.205  38.596  1.00  0.00    -0.200 F 
ENDBRANCH  44  68
BRANCH  56  79
ATOM     79  C   UNL A   1      44.651  27.268  34.613  1.00  0.00     0.064 A 
ATOM     80  C   UNL A   1      44.463  26.119  35.394  1.00  0.00     0.173 A 
ATOM     81  C   UNL A   1      45.883  27.932  34.695  1.00  0.00     0.173 A 
ATOM     82  F   UNL A   1      43.294  25.464  35.361  1.00  0.00    -0.203 F 
ATOM     83  C   UNL A   1      45.469  25.663  36.243  1.00  0.00     0.198 A 
ATOM     84  C   UNL A   1      46.893  27.461  35.528  1.00  0.00     0.198 A 
ATOM     85  F   UNL A   1      46.106  29.034  33.964  1.00  0.00    -0.203 F 
ATOM     86  F   UNL A   1      45.256  24.587  37.012  1.00  0.00    -0.200 F 
ATOM     87  C   UNL A   1      46.683  26.331  36.306  1.00  0.00     0.200 A 
ATOM     88  F   UNL A   1      48.068  28.104  35.584  1.00  0.00    -0.200 F 
ATOM     89  F   UNL A   1      47.649  25.891  37.123  1.00  0.00    -0.200 F 
ENDBRANCH  56  79
ENDBRANCH  30  31
ENDBRANCH  23  25
ENDBRANCH  22  23
ENDBRANCH  21  22
ENDBRANCH   1  21
TORSDOF 15
ENDMDL
MODEL 3
REMARK VINA RESULT:     -11.2      4.214      9.454
REMARK SMILES CCC(CC)(NC(=O)c1c(C)noc1C)C(=O)OCCOC(=O)c1ccc(-c2c3nc(c(-c4c(F)c(F)c(F)c(F)c4F)c4ccc([nH]4)c(-c4c(F)c(F)c(F)c(F)c4F)c4nc(c(-c5c(F)c(F)c(F)c(F)c5F)c5ccc2[nH]5)C=C4)C=C3)cc1
REMARK SMILES IDX 19 1 18 2 16 3 17 4 3 5 2 6 1 7 4 8 5 9 6 10 7 11 8 13 9 14
REMARK SMILES IDX 10 15 14 16 11 17 12 18 13 19 15 20 20 21 21 22 22 23 23 24
REMARK SMILES IDX 24 25 25 26 86 27 26 28 85 29 27 30 28 31 29 32 79 33 30 34
REMARK SMILES IDX 84 35 78 36 80 37 31 38 83 39 77 40 76 41 32 43 64 44 44 45
REMARK SMILES IDX 63 46 45 47 48 48 62 49 81 50 46 51 47 52 61 54 82 55 49 56
REMARK SMILES IDX 33 57 34 58 42 59 35 60 36 61 40 62 43 63 37 64 38 65 41 66
REMARK SMILES IDX 39 67 65 68 66 69 74 70 67 71 68 72 72 73 75 74 69 75 70 76
REMARK SMILES IDX 73 77 71 78 50 79 51 80 59 81 52 82 53 83 57 84 60 85 54 86
REMARK SMILES IDX 55 87 58 88 56 89
REMARK H PARENT 6 12 80 42 48 53
REMARK Flexibility Score: inf
ROOT
ATOM      1  C   UNL A   1      32.605  29.316  24.234  1.00  0.00     0.274 C 
ENDROOT
BRANCH   1   2
ATOM      2  O   UNL A   1      32.058  28.036  23.838  1.00  0.00    -0.460 OA
BRANCH   2   3
ATOM      3  C   UNL A   1      32.915  27.230  23.164  1.00  0.00     0.331 C 
ATOM      4  O   UNL A   1      33.678  27.646  22.295  1.00  0.00    -0.249 OA
BRANCH   3   5
ATOM      5  C   UNL A   1      32.862  25.729  23.590  1.00  0.00     0.137 C 
BRANCH   5   6
ATOM      6  C   UNL A   1      31.696  25.058  22.775  1.00  0.00     0.037 C 
ATOM      7  C   UNL A   1      30.460  24.589  23.532  1.00  0.00     0.007 C 
ENDBRANCH   5   6
BRANCH   5   8
ATOM      8  C   UNL A   1      32.562  25.703  25.118  1.00  0.00     0.037 C 
ATOM      9  C   UNL A   1      33.637  26.285  26.029  1.00  0.00     0.007 C 
ENDBRANCH   5   8
BRANCH   5  10
ATOM     10  N   UNL A   1      34.031  24.837  23.297  1.00  0.00    -0.336 N 
ATOM     11  C   UNL A   1      34.322  23.505  23.229  1.00  0.00     0.257 C 
ATOM     12  H   UNL A   1      34.830  25.374  23.093  1.00  0.00     0.165 HD
ATOM     13  O   UNL A   1      35.274  23.206  22.507  1.00  0.00    -0.269 OA
BRANCH  11  14
ATOM     14  C   UNL A   1      33.729  22.514  24.087  1.00  0.00     0.105 A 
ATOM     15  C   UNL A   1      32.693  21.607  23.702  1.00  0.00     0.093 A 
ATOM     16  C   UNL A   1      33.844  22.307  25.444  1.00  0.00     0.146 A 
ATOM     17  C   UNL A   1      32.057  21.438  22.371  1.00  0.00     0.071 C 
ATOM     18  N   UNL A   1      32.281  20.863  24.734  1.00  0.00    -0.084 NA
ATOM     19  O   UNL A   1      33.006  21.300  25.819  1.00  0.00    -0.361 OA
ATOM     20  C   UNL A   1      34.595  22.918  26.550  1.00  0.00     0.092 C 
ENDBRANCH  11  14
ENDBRANCH   5  10
ENDBRANCH   3   5
ENDBRANCH   2   3
ENDBRANCH   1   2
BRANCH   1  21
ATOM     21  C   UNL A   1      31.845  29.866  25.434  1.00  0.00     0.275 C 
BRANCH  21  22
ATOM     22  O   UNL A   1      32.736  29.829  26.560  1.00  0.00    -0.458 OA
BRANCH  22  23
ATOM     23  C   UNL A   1      33.167  31.028  26.989  1.00  0.00     0.338 C 
ATOM     24  O   UNL A   1      32.565  32.094  27.034  1.00  0.00    -0.246 OA
BRANCH  23  25
ATOM     25  C   UNL A   1      34.487  30.844  27.582  1.00  0.00     0.060 A 
ATOM     26  C   UNL A   1      34.868  29.547  27.929  1.00  0.00     0.016 A 
ATOM     27  C   UNL A   1      35.288  31.937  27.887  1.00  0.00     0.016 A 
ATOM     28  C   UNL A   1      36.033  29.337  28.651  1.00  0.00     0.010 A 
ATOM     29  C   UNL A   1      36.499  31.717  28.543  1.00  0.00     0.010 A 
ATOM     30  C   UNL A   1      36.868  30.421  28.952  1.00  0.00    -0.014 A 
BRANCH  30  31
ATOM     31  C   UNL A   1      38.119  30.219  29.720  1.00  0.00     0.031 A 
ATOM     32  C   UNL A   1      39.215  29.378  29.138  1.00  0.00     0.074 A 
ATOM     33  C   UNL A   1      38.259  30.771  30.939  1.00  0.00     0.049 A 
ATOM     34  N   UNL A   1      40.264  28.860  29.723  1.00  0.00    -0.248 NA
ATOM     35  C   UNL A   1      39.107  29.066  27.704  1.00  0.00     0.031 C 
ATOM     36  C   UNL A   1      37.295  31.664  31.582  1.00  0.00     0.029 A 
ATOM     37  N   UNL A   1      39.270  30.653  31.859  1.00  0.00    -0.354 N 
ATOM     38  C   UNL A   1      40.902  28.105  28.749  1.00  0.00     0.074 A 
ATOM     39  C   UNL A   1      40.135  28.249  27.529  1.00  0.00     0.031 C 
ATOM     40  C   UNL A   1      37.768  32.029  32.783  1.00  0.00     0.029 A 
ATOM     41  C   UNL A   1      39.022  31.327  33.028  1.00  0.00     0.049 A 
ATOM     42  H   UNL A   1      40.091  30.135  31.696  1.00  0.00     0.167 HD
ATOM     43  C   UNL A   1      42.018  27.349  28.876  1.00  0.00     0.037 A 
ATOM     44  C   UNL A   1      39.705  31.333  34.189  1.00  0.00     0.037 A 
ATOM     45  C   UNL A   1      42.789  27.253  30.088  1.00  0.00     0.049 A 
ATOM     46  C   UNL A   1      40.929  30.475  34.314  1.00  0.00     0.074 A 
ATOM     47  C   UNL A   1      43.926  26.507  30.339  1.00  0.00     0.029 A 
ATOM     48  N   UNL A   1      42.503  27.949  31.255  1.00  0.00    -0.354 N 
ATOM     49  N   UNL A   1      41.481  29.688  33.421  1.00  0.00    -0.248 NA
ATOM     50  C   UNL A   1      41.611  30.481  35.614  1.00  0.00     0.031 C 
ATOM     51  C   UNL A   1      44.315  26.734  31.664  1.00  0.00     0.029 A 
ATOM     52  C   UNL A   1      43.440  27.648  32.229  1.00  0.00     0.049 A 
ATOM     53  H   UNL A   1      41.744  28.566  31.373  1.00  0.00     0.167 HD
ATOM     54  C   UNL A   1      42.575  29.112  34.046  1.00  0.00     0.074 A 
ATOM     55  C   UNL A   1      42.621  29.653  35.390  1.00  0.00     0.031 C 
ATOM     56  C   UNL A   1      43.460  28.208  33.557  1.00  0.00     0.037 A 
BRANCH  43  57
ATOM     57  C   UNL A   1      42.430  26.527  27.691  1.00  0.00     0.064 A 
ATOM     58  C   UNL A   1      41.884  25.262  27.435  1.00  0.00     0.173 A 
ATOM     59  C   UNL A   1      43.395  27.019  26.798  1.00  0.00     0.173 A 
ATOM     60  F   UNL A   1      40.973  24.739  28.270  1.00  0.00    -0.203 F 
ATOM     61  C   UNL A   1      42.310  24.506  26.345  1.00  0.00     0.198 A 
ATOM     62  C   UNL A   1      43.801  26.271  25.696  1.00  0.00     0.198 A 
ATOM     63  F   UNL A   1      43.950  28.224  26.997  1.00  0.00    -0.203 F 
ATOM     64  F   UNL A   1      41.812  23.277  26.149  1.00  0.00    -0.200 F 
ATOM     65  C   UNL A   1      43.264  25.012  25.475  1.00  0.00     0.200 A 
ATOM     66  F   UNL A   1      44.718  26.765  24.853  1.00  0.00    -0.200 F 
ATOM     67  F   UNL A   1      43.675  24.281  24.429  1.00  0.00    -0.200 F 
ENDBRANCH  43  57
BRANCH  44  68
ATOM     68  C   UNL A   1      39.213  32.156  35.323  1.00  0.00     0.064 A 
ATOM     69  C   UNL A   1      38.432  31.585  36.335  1.00  0.00     0.173 A 
ATOM     70  C   UNL A   1      39.548  33.513  35.442  1.00  0.00     0.173 A 
ATOM     71  F   UNL A   1      38.068  30.297  36.254  1.00  0.00    -0.203 F 
ATOM     72  C   UNL A   1      38.005  32.340  37.426  1.00  0.00     0.198 A 
ATOM     73  C   UNL A   1      39.143  34.260  36.545  1.00  0.00     0.198 A 
ATOM     74  F   UNL A   1      40.296  34.105  34.500  1.00  0.00    -0.203 F 
ATOM     75  F   UNL A   1      37.239  31.776  38.369  1.00  0.00    -0.200 F 
ATOM     76  C   UNL A   1      38.370  33.674  37.535  1.00  0.00     0.200 A 
ATOM     77  F   UNL A   1      39.512  35.544  36.655  1.00  0.00    -0.200 F 
ATOM     78  F   UNL A   1      37.975  34.394  38.594  1.00  0.00    -0.200 F 
ENDBRANCH  44  68
BRANCH  56  79
ATOM     79  C   UNL A   1      44.561  27.777  34.475  1.00  0.00     0.064 A 
ATOM     80  C   UNL A   1      45.768  28.486  34.550  1.00  0.00     0.173 A 
ATOM     81  C   UNL A   1      44.395  26.659  35.305  1.00  0.00     0.173 A 
ATOM     82  F   UNL A   1      45.977  29.550  33.761  1.00  0.00    -0.203 F 
ATOM     83  C   UNL A   1      46.782  28.077  35.413  1.00  0.00     0.198 A 
ATOM     84  C   UNL A   1      45.401  26.266  36.181  1.00  0.00     0.198 A 
ATOM     85  F   UNL A   1      43.255  25.953  35.266  1.00  0.00    -0.203 F 
ATOM     86  F   UNL A   1      47.944  28.743  35.442  1.00  0.00    -0.200 F 
ATOM     87  C   UNL A   1      46.596  26.971  36.230  1.00  0.00     0.200 A 
ATOM     88  F   UNL A   1      45.219  25.201  36.974  1.00  0.00    -0.200 F 
ATOM     89  F   UNL A   1      47.572  26.578  37.060  1.00  0.00    -0.200 F 
ENDBRANCH  56  79
ENDBRANCH  30  31
ENDBRANCH  23  25
ENDBRANCH  22  23
ENDBRANCH  21  22
ENDBRANCH   1  21
TORSDOF 15
ENDMDL
