MODEL 1
REMARK VINA RESULT:     -12.9      0.000      0.000
REMARK SMILES O=C(OCCOC(=O)c1ccc(-c2c3nc(c(-c4c(F)c(F)c(F)c(F)c4F)c4ccc([nH]4)c(-c4c(F)c(F)c(F)c(F)c4F)c4nc(c(-c5c(F)c(F)c(F)c(F)c5F)c5ccc2[nH]5)C=C4)C=C3)cc1)c1ccc(C[N@@H+]2CCC[C@H]2c2nc(-c3ccc(-c4cncnc4)nc3)no2)cc1
REMARK SMILES IDX 3 1 2 2 1 3 72 4 73 5 100 6 74 7 99 8 75 9 76 10 77 11 78 12
REMARK SMILES IDX 81 13 79 15 80 16 82 17 83 18 98 19 84 20 97 21 85 22 86 23
REMARK SMILES IDX 96 24 87 25 95 26 88 27 89 28 90 29 94 30 91 31 93 32 92 33
REMARK SMILES IDX 4 34 5 35 6 36 7 37 8 38 9 39 10 40 71 41 11 42 70 43 12 44
REMARK SMILES IDX 13 45 14 46 64 47 15 48 69 49 63 50 65 51 16 52 68 53 62 54
REMARK SMILES IDX 61 55 17 57 49 58 29 59 48 60 30 61 33 62 47 63 66 64 31 65
REMARK SMILES IDX 32 66 46 68 67 69 34 70 18 71 19 72 27 73 20 74 21 75 25 76
REMARK SMILES IDX 28 77 22 78 23 79 26 80 24 81 50 82 51 83 59 84 52 85 53 86
REMARK SMILES IDX 57 87 60 88 54 89 55 90 58 91 56 92 35 93 36 94 44 95 37 96
REMARK SMILES IDX 38 97 42 98 45 99 39 100 40 101 43 102 41 103
REMARK H PARENT 77 14 65 56 33 67
REMARK Flexibility Score: inf
ROOT
ATOM      1  O   UNL A   1      41.408  20.102  26.135  1.00  0.00    -0.458 OA
ENDROOT
BRANCH   1   2
ATOM      2  C   UNL A   1      40.702  21.134  26.653  1.00  0.00     0.338 C 
ATOM      3  O   UNL A   1      41.105  21.659  27.689  1.00  0.00    -0.246 OA
BRANCH   2   4
ATOM      4  C   UNL A   1      39.386  21.605  26.103  1.00  0.00     0.060 A 
ATOM      5  C   UNL A   1      38.467  20.828  25.403  1.00  0.00     0.016 A 
ATOM      6  C   UNL A   1      39.013  22.930  26.389  1.00  0.00     0.016 A 
ATOM      7  C   UNL A   1      37.206  21.309  25.058  1.00  0.00     0.010 A 
ATOM      8  C   UNL A   1      37.776  23.442  25.979  1.00  0.00     0.010 A 
ATOM      9  C   UNL A   1      36.857  22.630  25.307  1.00  0.00     0.006 A 
BRANCH   9  10
ATOM     10  C   UNL A   1      35.557  23.174  24.767  1.00  0.00     0.299 C 
BRANCH  10  11
ATOM     11  N   UNL A   1      34.652  23.741  25.774  1.00  0.00    -0.321 N 
ATOM     12  C   UNL A   1      34.409  22.923  26.962  1.00  0.00     0.263 C 
ATOM     13  C   UNL A   1      33.338  24.143  25.246  1.00  0.00     0.275 C 
ATOM     14  H   UNL A   1      35.193  24.558  26.057  1.00  0.00     0.349 HD
ATOM     15  C   UNL A   1      33.020  22.314  26.827  1.00  0.00     0.068 C 
ATOM     16  C   UNL A   1      32.343  23.070  25.695  1.00  0.00     0.081 C 
BRANCH  13  17
ATOM     17  C   UNL A   1      32.933  25.488  25.745  1.00  0.00     0.285 A 
ATOM     18  N   UNL A   1      33.573  26.637  25.741  1.00  0.00    -0.186 NA
ATOM     19  O   UNL A   1      31.732  25.536  26.391  1.00  0.00    -0.332 OA
ATOM     20  C   UNL A   1      32.721  27.436  26.459  1.00  0.00     0.204 A 
ATOM     21  N   UNL A   1      31.601  26.828  26.879  1.00  0.00    -0.057 NA
BRANCH  20  22
ATOM     22  C   UNL A   1      33.053  28.791  26.813  1.00  0.00     0.041 A 
ATOM     23  C   UNL A   1      34.319  29.104  27.305  1.00  0.00     0.016 A 
ATOM     24  C   UNL A   1      32.131  29.818  26.685  1.00  0.00     0.123 A 
ATOM     25  C   UNL A   1      34.610  30.417  27.656  1.00  0.00     0.030 A 
ATOM     26  N   UNL A   1      32.379  31.101  27.050  1.00  0.00    -0.255 NA
ATOM     27  C   UNL A   1      33.616  31.385  27.528  1.00  0.00     0.073 A 
BRANCH  27  28
ATOM     28  C   UNL A   1      33.838  32.757  27.956  1.00  0.00     0.037 A 
ATOM     29  C   UNL A   1      35.062  33.227  28.396  1.00  0.00     0.124 A 
ATOM     30  C   UNL A   1      32.821  33.694  28.004  1.00  0.00     0.124 A 
ATOM     31  N   UNL A   1      35.276  34.474  28.869  1.00  0.00    -0.244 NA
ATOM     32  N   UNL A   1      32.969  34.954  28.470  1.00  0.00    -0.244 NA
ATOM     33  C   UNL A   1      34.203  35.278  28.883  1.00  0.00     0.221 A 
ENDBRANCH  27  28
ENDBRANCH  20  22
ENDBRANCH  13  17
ENDBRANCH  10  11
ENDBRANCH   9  10
ENDBRANCH   2   4
ENDBRANCH   1   2
BRANCH   1  34
ATOM     34  C   UNL A   1      42.278  19.172  26.808  1.00  0.00     0.275 C 
BRANCH  34  35
ATOM     35  C   UNL A   1      43.086  18.336  25.800  1.00  0.00     0.275 C 
BRANCH  35  36
ATOM     36  O   UNL A   1      43.346  19.062  24.578  1.00  0.00    -0.458 OA
BRANCH  36  37
ATOM     37  C   UNL A   1      44.628  19.467  24.390  1.00  0.00     0.338 C 
ATOM     38  O   UNL A   1      45.513  18.821  23.854  1.00  0.00    -0.246 OA
BRANCH  37  39
ATOM     39  C   UNL A   1      44.785  20.898  24.776  1.00  0.00     0.060 A 
ATOM     40  C   UNL A   1      45.225  21.174  26.077  1.00  0.00     0.016 A 
ATOM     41  C   UNL A   1      44.555  21.959  23.894  1.00  0.00     0.016 A 
ATOM     42  C   UNL A   1      45.416  22.495  26.502  1.00  0.00     0.010 A 
ATOM     43  C   UNL A   1      44.771  23.284  24.313  1.00  0.00     0.010 A 
ATOM     44  C   UNL A   1      45.183  23.568  25.629  1.00  0.00    -0.014 A 
BRANCH  44  45
ATOM     45  C   UNL A   1      45.284  24.974  26.119  1.00  0.00     0.031 A 
ATOM     46  C   UNL A   1      46.618  25.673  26.117  1.00  0.00     0.074 A 
ATOM     47  C   UNL A   1      44.202  25.654  26.548  1.00  0.00     0.049 A 
ATOM     48  N   UNL A   1      46.910  26.903  26.463  1.00  0.00    -0.248 NA
ATOM     49  C   UNL A   1      47.775  24.889  25.660  1.00  0.00     0.031 C 
ATOM     50  C   UNL A   1      42.840  25.134  26.585  1.00  0.00     0.029 A 
ATOM     51  N   UNL A   1      44.081  26.931  27.045  1.00  0.00    -0.354 N 
ATOM     52  C   UNL A   1      48.272  27.046  26.243  1.00  0.00     0.074 A 
ATOM     53  C   UNL A   1      48.764  25.760  25.794  1.00  0.00     0.031 C 
ATOM     54  C   UNL A   1      42.024  26.065  27.110  1.00  0.00     0.029 A 
ATOM     55  C   UNL A   1      42.805  27.255  27.440  1.00  0.00     0.049 A 
ATOM     56  H   UNL A   1      44.839  27.556  27.112  1.00  0.00     0.167 HD
ATOM     57  C   UNL A   1      49.042  28.153  26.368  1.00  0.00     0.037 A 
ATOM     58  C   UNL A   1      42.317  28.379  28.002  1.00  0.00     0.037 A 
ATOM     59  C   UNL A   1      48.575  29.444  26.796  1.00  0.00     0.049 A 
ATOM     60  C   UNL A   1      43.218  29.568  28.221  1.00  0.00     0.074 A 
ATOM     61  C   UNL A   1      49.283  30.632  26.877  1.00  0.00     0.029 A 
ATOM     62  N   UNL A   1      47.288  29.717  27.227  1.00  0.00    -0.354 N 
ATOM     63  N   UNL A   1      44.483  29.716  27.915  1.00  0.00    -0.248 NA
ATOM     64  C   UNL A   1      42.614  30.757  28.846  1.00  0.00     0.031 C 
ATOM     65  C   UNL A   1      48.439  31.612  27.406  1.00  0.00     0.029 A 
ATOM     66  C   UNL A   1      47.193  31.046  27.614  1.00  0.00     0.049 A 
ATOM     67  H   UNL A   1      46.551  29.066  27.255  1.00  0.00     0.167 HD
ATOM     68  C   UNL A   1      44.811  31.021  28.266  1.00  0.00     0.074 A 
ATOM     69  C   UNL A   1      43.615  31.625  28.808  1.00  0.00     0.031 C 
ATOM     70  C   UNL A   1      46.000  31.658  28.139  1.00  0.00     0.037 A 
BRANCH  57  71
ATOM     71  C   UNL A   1      50.492  28.024  26.015  1.00  0.00     0.064 A 
ATOM     72  C   UNL A   1      51.468  27.834  27.005  1.00  0.00     0.173 A 
ATOM     73  C   UNL A   1      50.902  28.029  24.675  1.00  0.00     0.173 A 
ATOM     74  F   UNL A   1      51.122  27.833  28.302  1.00  0.00    -0.203 F 
ATOM     75  C   UNL A   1      52.806  27.669  26.664  1.00  0.00     0.198 A 
ATOM     76  C   UNL A   1      52.238  27.841  24.337  1.00  0.00     0.198 A 
ATOM     77  F   UNL A   1      50.003  28.203  23.694  1.00  0.00    -0.203 F 
ATOM     78  F   UNL A   1      53.727  27.519  27.627  1.00  0.00    -0.200 F 
ATOM     79  C   UNL A   1      53.189  27.665  25.332  1.00  0.00     0.200 A 
ATOM     80  F   UNL A   1      52.608  27.827  23.049  1.00  0.00    -0.200 F 
ATOM     81  F   UNL A   1      54.477  27.495  25.005  1.00  0.00    -0.200 F 
ENDBRANCH  57  71
BRANCH  58  82
ATOM     82  C   UNL A   1      40.889  28.457  28.406  1.00  0.00     0.064 A 
ATOM     83  C   UNL A   1      39.914  28.956  27.531  1.00  0.00     0.173 A 
ATOM     84  C   UNL A   1      40.486  28.102  29.702  1.00  0.00     0.173 A 
ATOM     85  F   UNL A   1      40.259  29.337  26.293  1.00  0.00    -0.203 F 
ATOM     86  C   UNL A   1      38.595  29.128  27.947  1.00  0.00     0.198 A 
ATOM     87  C   UNL A   1      39.162  28.253  30.109  1.00  0.00     0.198 A 
ATOM     88  F   UNL A   1      41.383  27.623  30.575  1.00  0.00    -0.203 F 
ATOM     89  F   UNL A   1      37.695  29.663  27.111  1.00  0.00    -0.200 F 
ATOM     90  C   UNL A   1      38.220  28.775  29.236  1.00  0.00     0.200 A 
ATOM     91  F   UNL A   1      38.803  27.908  31.353  1.00  0.00    -0.200 F 
ATOM     92  F   UNL A   1      36.955  28.955  29.640  1.00  0.00    -0.200 F 
ENDBRANCH  58  82
BRANCH  70  93
ATOM     93  C   UNL A   1      46.069  33.098  28.555  1.00  0.00     0.064 A 
ATOM     94  C   UNL A   1      46.455  33.473  29.849  1.00  0.00     0.173 A 
ATOM     95  C   UNL A   1      45.790  34.119  27.632  1.00  0.00     0.173 A 
ATOM     96  F   UNL A   1      46.717  32.537  30.773  1.00  0.00    -0.203 F 
ATOM     97  C   UNL A   1      46.541  34.816  30.212  1.00  0.00     0.198 A 
ATOM     98  C   UNL A   1      45.903  35.461  27.989  1.00  0.00     0.198 A 
ATOM     99  F   UNL A   1      45.422  33.815  26.379  1.00  0.00    -0.203 F 
ATOM    100  F   UNL A   1      46.872  35.149  31.467  1.00  0.00    -0.200 F 
ATOM    101  C   UNL A   1      46.272  35.807  29.280  1.00  0.00     0.200 A 
ATOM    102  F   UNL A   1      45.654  36.417  27.084  1.00  0.00    -0.200 F 
ATOM    103  F   UNL A   1      46.363  37.099  29.628  1.00  0.00    -0.200 F 
ENDBRANCH  70  93
ENDBRANCH  44  45
ENDBRANCH  37  39
ENDBRANCH  36  37
ENDBRANCH  35  36
ENDBRANCH  34  35
ENDBRANCH   1  34
TORSDOF 16
ENDMDL
MODEL 2
REMARK VINA RESULT:     -12.9      3.574     10.236
REMARK SMILES O=C(OCCOC(=O)c1ccc(-c2c3nc(c(-c4c(F)c(F)c(F)c(F)c4F)c4ccc([nH]4)c(-c4c(F)c(F)c(F)c(F)c4F)c4nc(c(-c5c(F)c(F)c(F)c(F)c5F)c5ccc2[nH]5)C=C4)C=C3)cc1)c1ccc(C[N@@H+]2CCC[C@H]2c2nc(-c3ccc(-c4cncnc4)nc3)no2)cc1
REMARK SMILES IDX 3 1 2 2 1 3 72 4 73 5 100 6 74 7 99 8 75 9 76 10 77 11 78 12
REMARK SMILES IDX 81 13 79 15 80 16 82 17 83 18 98 19 84 20 97 21 85 22 86 23
REMARK SMILES IDX 96 24 87 25 95 26 88 27 89 28 90 29 94 30 91 31 93 32 92 33
REMARK SMILES IDX 4 34 5 35 6 36 7 37 8 38 9 39 10 40 71 41 11 42 70 43 12 44
REMARK SMILES IDX 13 45 14 46 64 47 15 48 69 49 63 50 65 51 16 52 68 53 62 54
REMARK SMILES IDX 61 55 17 57 49 58 29 59 48 60 30 61 33 62 47 63 66 64 31 65
REMARK SMILES IDX 32 66 46 68 67 69 34 70 18 71 19 72 27 73 20 74 21 75 25 76
REMARK SMILES IDX 28 77 22 78 23 79 26 80 24 81 50 82 51 83 59 84 52 85 53 86
REMARK SMILES IDX 57 87 60 88 54 89 55 90 58 91 56 92 35 93 36 94 44 95 37 96
REMARK SMILES IDX 38 97 42 98 45 99 39 100 40 101 43 102 41 103
REMARK H PARENT 77 14 65 56 33 67
REMARK Flexibility Score: inf
ROOT
ATOM      1  O   UNL A   1      33.678  33.630  29.183  1.00  0.00    -0.458 OA
ENDROOT
BRANCH   1   2
ATOM      2  C   UNL A   1      34.297  32.960  28.184  1.00  0.00     0.338 C 
ATOM      3  O   UNL A   1      35.299  33.460  27.675  1.00  0.00    -0.246 OA
BRANCH   2   4
ATOM      4  C   UNL A   1      33.768  31.694  27.574  1.00  0.00     0.060 A 
ATOM      5  C   UNL A   1      34.366  30.438  27.650  1.00  0.00     0.016 A 
ATOM      6  C   UNL A   1      32.517  31.767  26.936  1.00  0.00     0.016 A 
ATOM      7  C   UNL A   1      33.731  29.290  27.181  1.00  0.00     0.010 A 
ATOM      8  C   UNL A   1      31.909  30.627  26.396  1.00  0.00     0.010 A 
ATOM      9  C   UNL A   1      32.515  29.372  26.516  1.00  0.00     0.006 A 
BRANCH   9  10
ATOM     10  C   UNL A   1      31.934  28.141  25.864  1.00  0.00     0.299 C 
BRANCH  10  11
ATOM     11  N   UNL A   1      32.836  27.440  24.943  1.00  0.00    -0.321 N 
ATOM     12  C   UNL A   1      34.007  28.187  24.485  1.00  0.00     0.263 C 
ATOM     13  C   UNL A   1      32.172  26.895  23.747  1.00  0.00     0.275 C 
ATOM     14  H   UNL A   1      33.159  26.686  25.551  1.00  0.00     0.349 HD
ATOM     15  C   UNL A   1      33.743  28.625  23.051  1.00  0.00     0.068 C 
ATOM     16  C   UNL A   1      32.537  27.825  22.587  1.00  0.00     0.081 C 
BRANCH  13  17
ATOM     17  C   UNL A   1      32.606  25.497  23.465  1.00  0.00     0.285 A 
ATOM     18  N   UNL A   1      32.332  24.369  24.084  1.00  0.00    -0.186 NA
ATOM     19  O   UNL A   1      33.503  25.355  22.447  1.00  0.00    -0.332 OA
ATOM     20  C   UNL A   1      33.138  23.481  23.421  1.00  0.00     0.204 A 
ATOM     21  N   UNL A   1      33.869  24.017  22.431  1.00  0.00    -0.057 NA
BRANCH  20  22
ATOM     22  C   UNL A   1      33.260  22.104  23.822  1.00  0.00     0.041 A 
ATOM     23  C   UNL A   1      34.349  21.683  24.583  1.00  0.00     0.016 A 
ATOM     24  C   UNL A   1      32.311  21.160  23.462  1.00  0.00     0.123 A 
ATOM     25  C   UNL A   1      34.454  20.345  24.944  1.00  0.00     0.030 A 
ATOM     26  N   UNL A   1      32.406  19.843  23.774  1.00  0.00    -0.255 NA
ATOM     27  C   UNL A   1      33.474  19.452  24.513  1.00  0.00     0.073 A 
BRANCH  27  28
ATOM     28  C   UNL A   1      33.573  18.028  24.792  1.00  0.00     0.037 A 
ATOM     29  C   UNL A   1      34.551  17.214  24.250  1.00  0.00     0.124 A 
ATOM     30  C   UNL A   1      32.659  17.362  25.587  1.00  0.00     0.124 A 
ATOM     31  N   UNL A   1      34.621  15.878  24.433  1.00  0.00    -0.244 NA
ATOM     32  N   UNL A   1      32.670  16.028  25.806  1.00  0.00    -0.244 NA
ATOM     33  C   UNL A   1      33.662  15.351  25.208  1.00  0.00     0.221 A 
ENDBRANCH  27  28
ENDBRANCH  20  22
ENDBRANCH  13  17
ENDBRANCH  10  11
ENDBRANCH   9  10
ENDBRANCH   2   4
ENDBRANCH   1   2
BRANCH   1  34
ATOM     34  C   UNL A   1      34.222  34.606  30.093  1.00  0.00     0.275 C 
BRANCH  34  35
ATOM     35  C   UNL A   1      34.138  34.116  31.549  1.00  0.00     0.275 C 
BRANCH  35  36
ATOM     36  O   UNL A   1      34.465  32.713  31.670  1.00  0.00    -0.458 OA
BRANCH  36  37
ATOM     37  C   UNL A   1      35.452  32.408  32.551  1.00  0.00     0.338 C 
ATOM     38  O   UNL A   1      35.374  32.476  33.767  1.00  0.00    -0.246 OA
BRANCH  37  39
ATOM     39  C   UNL A   1      36.615  31.804  31.844  1.00  0.00     0.060 A 
ATOM     40  C   UNL A   1      37.577  31.146  32.622  1.00  0.00     0.016 A 
ATOM     41  C   UNL A   1      36.765  31.830  30.453  1.00  0.00     0.016 A 
ATOM     42  C   UNL A   1      38.686  30.536  32.022  1.00  0.00     0.010 A 
ATOM     43  C   UNL A   1      37.865  31.195  29.850  1.00  0.00     0.010 A 
ATOM     44  C   UNL A   1      38.850  30.560  30.630  1.00  0.00    -0.014 A 
BRANCH  44  45
ATOM     45  C   UNL A   1      40.087  30.003  30.007  1.00  0.00     0.031 A 
ATOM     46  C   UNL A   1      41.310  30.870  29.868  1.00  0.00     0.074 A 
ATOM     47  C   UNL A   1      40.152  28.726  29.580  1.00  0.00     0.049 A 
ATOM     48  N   UNL A   1      42.493  30.565  29.394  1.00  0.00    -0.248 NA
ATOM     49  C   UNL A   1      41.190  32.262  30.329  1.00  0.00     0.031 C 
ATOM     50  C   UNL A   1      39.071  27.752  29.669  1.00  0.00     0.029 A 
ATOM     51  N   UNL A   1      41.174  28.031  28.975  1.00  0.00    -0.354 N 
ATOM     52  C   UNL A   1      43.261  31.714  29.522  1.00  0.00     0.074 A 
ATOM     53  C   UNL A   1      42.394  32.742  30.059  1.00  0.00     0.031 C 
ATOM     54  C   UNL A   1      39.468  26.596  29.107  1.00  0.00     0.029 A 
ATOM     55  C   UNL A   1      40.839  26.745  28.624  1.00  0.00     0.049 A 
ATOM     56  H   UNL A   1      42.063  28.419  28.807  1.00  0.00     0.167 HD
ATOM     57  C   UNL A   1      44.576  31.893  29.252  1.00  0.00     0.037 A 
ATOM     58  C   UNL A   1      41.552  25.793  27.990  1.00  0.00     0.037 A 
ATOM     59  C   UNL A   1      45.460  30.884  28.734  1.00  0.00     0.049 A 
ATOM     60  C   UNL A   1      42.989  26.050  27.611  1.00  0.00     0.074 A 
ATOM     61  C   UNL A   1      46.823  30.971  28.503  1.00  0.00     0.029 A 
ATOM     62  N   UNL A   1      45.072  29.610  28.354  1.00  0.00    -0.354 N 
ATOM     63  N   UNL A   1      43.726  27.109  27.830  1.00  0.00    -0.248 NA
ATOM     64  C   UNL A   1      43.700  24.964  26.914  1.00  0.00     0.031 C 
ATOM     65  C   UNL A   1      47.251  29.767  27.935  1.00  0.00     0.029 A 
ATOM     66  C   UNL A   1      46.163  28.916  27.852  1.00  0.00     0.049 A 
ATOM     67  H   UNL A   1      44.159  29.252  28.429  1.00  0.00     0.167 HD
ATOM     68  C   UNL A   1      44.991  26.803  27.342  1.00  0.00     0.074 A 
ATOM     69  C   UNL A   1      44.925  25.458  26.815  1.00  0.00     0.031 C 
ATOM     70  C   UNL A   1      46.107  27.571  27.342  1.00  0.00     0.037 A 
BRANCH  57  71
ATOM     71  C   UNL A   1      45.157  33.245  29.532  1.00  0.00     0.064 A 
ATOM     72  C   UNL A   1      45.207  34.235  28.540  1.00  0.00     0.173 A 
ATOM     73  C   UNL A   1      45.610  33.572  30.817  1.00  0.00     0.173 A 
ATOM     74  F   UNL A   1      44.793  33.962  27.293  1.00  0.00    -0.203 F 
ATOM     75  C   UNL A   1      45.705  35.502  28.822  1.00  0.00     0.198 A 
ATOM     76  C   UNL A   1      46.088  34.847  31.101  1.00  0.00     0.198 A 
ATOM     77  F   UNL A   1      45.577  32.658  31.799  1.00  0.00    -0.203 F 
ATOM     78  F   UNL A   1      45.772  36.425  27.852  1.00  0.00    -0.200 F 
ATOM     79  C   UNL A   1      46.138  35.810  30.103  1.00  0.00     0.200 A 
ATOM     80  F   UNL A   1      46.497  35.149  32.341  1.00  0.00    -0.200 F 
ATOM     81  F   UNL A   1      46.608  37.035  30.376  1.00  0.00    -0.200 F 
ENDBRANCH  57  71
BRANCH  58  82
ATOM     82  C   UNL A   1      40.931  24.483  27.663  1.00  0.00     0.064 A 
ATOM     83  C   UNL A   1      41.379  23.297  28.262  1.00  0.00     0.173 A 
ATOM     84  C   UNL A   1      39.926  24.386  26.689  1.00  0.00     0.173 A 
ATOM     85  F   UNL A   1      42.359  23.339  29.175  1.00  0.00    -0.203 F 
ATOM     86  C   UNL A   1      40.868  22.059  27.877  1.00  0.00     0.198 A 
ATOM     87  C   UNL A   1      39.400  23.149  26.321  1.00  0.00     0.198 A 
ATOM     88  F   UNL A   1      39.467  25.491  26.086  1.00  0.00    -0.203 F 
ATOM     89  F   UNL A   1      41.356  20.936  28.421  1.00  0.00    -0.200 F 
ATOM     90  C   UNL A   1      39.878  21.986  26.906  1.00  0.00     0.200 A 
ATOM     91  F   UNL A   1      38.442  23.083  25.386  1.00  0.00    -0.200 F 
ATOM     92  F   UNL A   1      39.398  20.794  26.525  1.00  0.00    -0.200 F 
ENDBRANCH  58  82
BRANCH  70  93
ATOM     93  C   UNL A   1      47.368  26.971  26.791  1.00  0.00     0.064 A 
ATOM     94  C   UNL A   1      47.751  27.158  25.456  1.00  0.00     0.173 A 
ATOM     95  C   UNL A   1      48.229  26.238  27.624  1.00  0.00     0.173 A 
ATOM     96  F   UNL A   1      46.956  27.837  24.615  1.00  0.00    -0.203 F 
ATOM     97  C   UNL A   1      48.939  26.617  24.967  1.00  0.00     0.198 A 
ATOM     98  C   UNL A   1      49.429  25.721  27.140  1.00  0.00     0.198 A 
ATOM     99  F   UNL A   1      47.914  26.034  28.911  1.00  0.00    -0.203 F 
ATOM    100  F   UNL A   1      49.263  26.775  23.677  1.00  0.00    -0.200 F 
ATOM    101  C   UNL A   1      49.779  25.906  25.811  1.00  0.00     0.200 A 
ATOM    102  F   UNL A   1      50.246  25.045  27.960  1.00  0.00    -0.200 F 
ATOM    103  F   UNL A   1      50.926  25.395  25.342  1.00  0.00    -0.200 F 
ENDBRANCH  70  93
ENDBRANCH  44  45
ENDBRANCH  37  39
ENDBRANCH  36  37
ENDBRANCH  35  36
ENDBRANCH  34  35
ENDBRANCH   1  34
TORSDOF 16
ENDMDL
MODEL 3
REMARK VINA RESULT:     -12.8      5.879     12.428
REMARK SMILES O=C(OCCOC(=O)c1ccc(-c2c3nc(c(-c4c(F)c(F)c(F)c(F)c4F)c4ccc([nH]4)c(-c4c(F)c(F)c(F)c(F)c4F)c4nc(c(-c5c(F)c(F)c(F)c(F)c5F)c5ccc2[nH]5)C=C4)C=C3)cc1)c1ccc(C[N@@H+]2CCC[C@H]2c2nc(-c3ccc(-c4cncnc4)nc3)no2)cc1
REMARK SMILES IDX 3 1 2 2 1 3 72 4 73 5 100 6 74 7 99 8 75 9 76 10 77 11 78 12
REMARK SMILES IDX 81 13 79 15 80 16 82 17 83 18 98 19 84 20 97 21 85 22 86 23
REMARK SMILES IDX 96 24 87 25 95 26 88 27 89 28 90 29 94 30 91 31 93 32 92 33
REMARK SMILES IDX 4 34 5 35 6 36 7 37 8 38 9 39 10 40 71 41 11 42 70 43 12 44
REMARK SMILES IDX 13 45 14 46 64 47 15 48 69 49 63 50 65 51 16 52 68 53 62 54
REMARK SMILES IDX 61 55 17 57 49 58 29 59 48 60 30 61 33 62 47 63 66 64 31 65
REMARK SMILES IDX 32 66 46 68 67 69 34 70 18 71 19 72 27 73 20 74 21 75 25 76
REMARK SMILES IDX 28 77 22 78 23 79 26 80 24 81 50 82 51 83 59 84 52 85 53 86
REMARK SMILES IDX 57 87 60 88 54 89 55 90 58 91 56 92 35 93 36 94 44 95 37 96
REMARK SMILES IDX 38 97 42 98 45 99 39 100 40 101 43 102 41 103
REMARK H PARENT 77 14 65 56 33 67
REMARK Flexibility Score: inf
ROOT
ATOM      1  O   UNL A   1      33.588  34.181  28.006  1.00  0.00    -0.458 OA
ENDROOT
BRANCH   1   2
ATOM      2  C   UNL A   1      33.987  32.937  28.357  1.00  0.00     0.338 C 
ATOM      3  O   UNL A   1      34.855  32.821  29.221  1.00  0.00    -0.246 OA
BRANCH   2   4
ATOM      4  C   UNL A   1      33.518  31.684  27.673  1.00  0.00     0.060 A 
ATOM      5  C   UNL A   1      32.324  31.533  26.974  1.00  0.00     0.016 A 
ATOM      6  C   UNL A   1      34.401  30.590  27.671  1.00  0.00     0.016 A 
ATOM      7  C   UNL A   1      32.037  30.381  26.245  1.00  0.00     0.010 A 
ATOM      8  C   UNL A   1      34.084  29.402  27.002  1.00  0.00     0.010 A 
ATOM      9  C   UNL A   1      32.893  29.288  26.279  1.00  0.00     0.006 A 
BRANCH   9  10
ATOM     10  C   UNL A   1      32.476  27.992  25.627  1.00  0.00     0.299 C 
BRANCH  10  11
ATOM     11  N   UNL A   1      33.456  27.418  24.698  1.00  0.00    -0.321 N 
ATOM     12  C   UNL A   1      34.048  28.339  23.728  1.00  0.00     0.263 C 
ATOM     13  C   UNL A   1      32.964  26.252  23.946  1.00  0.00     0.275 C 
ATOM     14  H   UNL A   1      34.184  27.141  25.357  1.00  0.00     0.349 HD
ATOM     15  C   UNL A   1      33.400  28.067  22.378  1.00  0.00     0.068 C 
ATOM     16  C   UNL A   1      32.666  26.744  22.527  1.00  0.00     0.081 C 
BRANCH  13  17
ATOM     17  C   UNL A   1      33.964  25.147  23.928  1.00  0.00     0.285 A 
ATOM     18  N   UNL A   1      34.780  24.709  24.861  1.00  0.00    -0.186 NA
ATOM     19  O   UNL A   1      34.131  24.528  22.723  1.00  0.00    -0.332 OA
ATOM     20  C   UNL A   1      35.519  23.780  24.175  1.00  0.00     0.204 A 
ATOM     21  N   UNL A   1      35.177  23.631  22.886  1.00  0.00    -0.057 NA
BRANCH  20  22
ATOM     22  C   UNL A   1      36.634  23.092  24.770  1.00  0.00     0.041 A 
ATOM     23  C   UNL A   1      37.481  23.753  25.659  1.00  0.00     0.016 A 
ATOM     24  C   UNL A   1      36.905  21.765  24.477  1.00  0.00     0.123 A 
ATOM     25  C   UNL A   1      38.561  23.073  26.207  1.00  0.00     0.030 A 
ATOM     26  N   UNL A   1      37.971  21.087  24.974  1.00  0.00    -0.255 NA
ATOM     27  C   UNL A   1      38.784  21.748  25.835  1.00  0.00     0.073 A 
BRANCH  27  28
ATOM     28  C   UNL A   1      39.943  21.013  26.314  1.00  0.00     0.037 A 
ATOM     29  C   UNL A   1      40.811  21.503  27.273  1.00  0.00     0.124 A 
ATOM     30  C   UNL A   1      40.301  19.778  25.806  1.00  0.00     0.124 A 
ATOM     31  N   UNL A   1      41.934  20.874  27.680  1.00  0.00    -0.244 NA
ATOM     32  N   UNL A   1      41.413  19.099  26.166  1.00  0.00    -0.244 NA
ATOM     33  C   UNL A   1      42.178  19.693  27.094  1.00  0.00     0.221 A 
ENDBRANCH  27  28
ENDBRANCH  20  22
ENDBRANCH  13  17
ENDBRANCH  10  11
ENDBRANCH   9  10
ENDBRANCH   2   4
ENDBRANCH   1   2
BRANCH   1  34
ATOM     34  C   UNL A   1      33.990  35.450  28.557  1.00  0.00     0.275 C 
BRANCH  34  35
ATOM     35  C   UNL A   1      32.835  36.112  29.329  1.00  0.00     0.275 C 
BRANCH  35  36
ATOM     36  O   UNL A   1      32.362  35.283  30.414  1.00  0.00    -0.458 OA
BRANCH  36  37
ATOM     37  C   UNL A   1      32.786  35.634  31.656  1.00  0.00     0.338 C 
ATOM     38  O   UNL A   1      32.210  36.388  32.424  1.00  0.00    -0.246 OA
BRANCH  37  39
ATOM     39  C   UNL A   1      33.983  34.837  32.044  1.00  0.00     0.060 A 
ATOM     40  C   UNL A   1      35.238  35.448  31.919  1.00  0.00     0.016 A 
ATOM     41  C   UNL A   1      33.905  33.538  32.558  1.00  0.00     0.016 A 
ATOM     42  C   UNL A   1      36.405  34.766  32.286  1.00  0.00     0.010 A 
ATOM     43  C   UNL A   1      35.075  32.864  32.950  1.00  0.00     0.010 A 
ATOM     44  C   UNL A   1      36.340  33.462  32.798  1.00  0.00    -0.014 A 
BRANCH  44  45
ATOM     45  C   UNL A   1      37.593  32.702  33.084  1.00  0.00     0.031 A 
ATOM     46  C   UNL A   1      38.393  33.017  34.320  1.00  0.00     0.074 A 
ATOM     47  C   UNL A   1      38.023  31.715  32.274  1.00  0.00     0.049 A 
ATOM     48  N   UNL A   1      39.484  32.447  34.770  1.00  0.00    -0.248 NA
ATOM     49  C   UNL A   1      37.898  34.114  35.166  1.00  0.00     0.031 C 
ATOM     50  C   UNL A   1      37.350  31.267  31.060  1.00  0.00     0.029 A 
ATOM     51  N   UNL A   1      39.139  30.913  32.347  1.00  0.00    -0.354 N 
ATOM     52  C   UNL A   1      39.790  33.097  35.957  1.00  0.00     0.074 A 
ATOM     53  C   UNL A   1      38.808  34.147  36.128  1.00  0.00     0.031 C 
ATOM     54  C   UNL A   1      38.081  30.298  30.480  1.00  0.00     0.029 A 
ATOM     55  C   UNL A   1      39.273  30.049  31.287  1.00  0.00     0.049 A 
ATOM     56  H   UNL A   1      39.784  30.956  33.091  1.00  0.00     0.167 HD
ATOM     57  C   UNL A   1      40.776  32.826  36.845  1.00  0.00     0.037 A 
ATOM     58  C   UNL A   1      40.241  29.156  30.998  1.00  0.00     0.037 A 
ATOM     59  C   UNL A   1      41.753  31.780  36.705  1.00  0.00     0.049 A 
ATOM     60  C   UNL A   1      41.383  28.940  31.957  1.00  0.00     0.074 A 
ATOM     61  C   UNL A   1      42.739  31.398  37.600  1.00  0.00     0.029 A 
ATOM     62  N   UNL A   1      41.878  30.956  35.599  1.00  0.00    -0.354 N 
ATOM     63  N   UNL A   1      41.601  29.496  33.123  1.00  0.00    -0.248 NA
ATOM     64  C   UNL A   1      42.405  27.953  31.568  1.00  0.00     0.031 C 
ATOM     65  C   UNL A   1      43.495  30.378  37.014  1.00  0.00     0.029 A 
ATOM     66  C   UNL A   1      42.952  30.095  35.772  1.00  0.00     0.049 A 
ATOM     67  H   UNL A   1      41.294  30.979  34.808  1.00  0.00     0.167 HD
ATOM     68  C   UNL A   1      42.752  28.896  33.622  1.00  0.00     0.074 A 
ATOM     69  C   UNL A   1      43.188  27.934  32.636  1.00  0.00     0.031 C 
ATOM     70  C   UNL A   1      43.381  29.123  34.801  1.00  0.00     0.037 A 
BRANCH  57  71
ATOM     71  C   UNL A   1      40.842  33.674  38.078  1.00  0.00     0.064 A 
ATOM     72  C   UNL A   1      40.040  33.396  39.195  1.00  0.00     0.173 A 
ATOM     73  C   UNL A   1      41.756  34.732  38.166  1.00  0.00     0.173 A 
ATOM     74  F   UNL A   1      39.145  32.397  39.151  1.00  0.00    -0.203 F 
ATOM     75  C   UNL A   1      40.142  34.160  40.353  1.00  0.00     0.198 A 
ATOM     76  C   UNL A   1      41.870  35.480  39.333  1.00  0.00     0.198 A 
ATOM     77  F   UNL A   1      42.546  35.032  37.123  1.00  0.00    -0.203 F 
ATOM     78  F   UNL A   1      39.346  33.897  41.399  1.00  0.00    -0.200 F 
ATOM     79  C   UNL A   1      41.061  35.196  40.424  1.00  0.00     0.200 A 
ATOM     80  F   UNL A   1      42.765  36.476  39.406  1.00  0.00    -0.200 F 
ATOM     81  F   UNL A   1      41.165  35.924  41.544  1.00  0.00    -0.200 F 
ENDBRANCH  57  71
BRANCH  58  82
ATOM     82  C   UNL A   1      40.187  28.375  29.734  1.00  0.00     0.064 A 
ATOM     83  C   UNL A   1      39.499  27.156  29.663  1.00  0.00     0.173 A 
ATOM     84  C   UNL A   1      40.886  28.801  28.595  1.00  0.00     0.173 A 
ATOM     85  F   UNL A   1      38.843  26.695  30.737  1.00  0.00    -0.203 F 
ATOM     86  C   UNL A   1      39.538  26.375  28.509  1.00  0.00     0.198 A 
ATOM     87  C   UNL A   1      40.905  28.029  27.434  1.00  0.00     0.198 A 
ATOM     88  F   UNL A   1      41.561  29.958  28.614  1.00  0.00    -0.203 F 
ATOM     89  F   UNL A   1      38.923  25.184  28.487  1.00  0.00    -0.200 F 
ATOM     90  C   UNL A   1      40.241  26.812  27.396  1.00  0.00     0.200 A 
ATOM     91  F   UNL A   1      41.582  28.456  26.360  1.00  0.00    -0.200 F 
ATOM     92  F   UNL A   1      40.292  26.053  26.293  1.00  0.00    -0.200 F 
ENDBRANCH  58  82
BRANCH  70  93
ATOM     93  C   UNL A   1      44.591  28.293  35.118  1.00  0.00     0.064 A 
ATOM     94  C   UNL A   1      44.482  27.040  35.736  1.00  0.00     0.173 A 
ATOM     95  C   UNL A   1      45.873  28.737  34.757  1.00  0.00     0.173 A 
ATOM     96  F   UNL A   1      43.282  26.576  36.115  1.00  0.00    -0.203 F 
ATOM     97  C   UNL A   1      45.613  26.269  35.999  1.00  0.00     0.198 A 
ATOM     98  C   UNL A   1      46.999  27.953  34.996  1.00  0.00     0.198 A 
ATOM     99  F   UNL A   1      46.032  29.927  34.158  1.00  0.00    -0.203 F 
ATOM    100  F   UNL A   1      45.489  25.092  36.627  1.00  0.00    -0.200 F 
ATOM    101  C   UNL A   1      46.869  26.723  35.622  1.00  0.00     0.200 A 
ATOM    102  F   UNL A   1      48.210  28.389  34.621  1.00  0.00    -0.200 F 
ATOM    103  F   UNL A   1      47.955  25.977  35.868  1.00  0.00    -0.200 F 
ENDBRANCH  70  93
ENDBRANCH  44  45
ENDBRANCH  37  39
ENDBRANCH  36  37
ENDBRANCH  35  36
ENDBRANCH  34  35
ENDBRANCH   1  34
TORSDOF 16
ENDMDL
