MODEL 1
REMARK VINA RESULT:     -11.3      0.000      0.000
REMARK SMILES [NH3+][C@@]1(C(=O)OCCOC(=O)c2ccc(-c3c4nc(c(-c5c(F)c(F)c(F)c(F)c5F)c5ccc([nH]5)c(-c5c(F)c(F)c(F)c(F)c5F)c5nc(c(-c6c(F)c(F)c(F)c(F)c6F)c6ccc3[nH]6)C=C5)C=C4)cc2)CCC[C@H]1CCOc1ccccc1
REMARK SMILES IDX 6 1 5 2 3 3 4 4 2 5 74 6 77 7 75 8 76 9 1 10 78 14 79 15
REMARK SMILES IDX 80 16 81 17 82 18 86 19 83 20 85 21 84 22 7 23 8 24 9 25
REMARK SMILES IDX 10 26 11 27 12 28 73 29 13 30 72 31 14 32 15 33 16 34 66 35
REMARK SMILES IDX 17 36 71 37 65 38 67 39 18 40 70 41 64 42 63 43 19 45 51 46
REMARK SMILES IDX 31 47 50 48 32 49 35 50 49 51 68 52 33 53 34 54 48 56 69 57
REMARK SMILES IDX 36 58 20 59 21 60 29 61 22 62 23 63 27 64 30 65 24 66 25 67
REMARK SMILES IDX 28 68 26 69 52 70 53 71 61 72 54 73 55 74 59 75 62 76 56 77
REMARK SMILES IDX 57 78 60 79 58 80 37 81 38 82 46 83 39 84 40 85 44 86 47 87
REMARK SMILES IDX 41 88 42 89 45 90 43 91
REMARK H PARENT 1 11 1 12 1 13 67 44 35 55
REMARK Flexibility Score: inf
ROOT
ATOM      1  C   UNL A   1      31.784  29.113  27.280  1.00  0.00     0.274 C 
ENDROOT
BRANCH   1   2
ATOM      2  O   UNL A   1      31.375  28.002  26.450  1.00  0.00    -0.457 OA
BRANCH   2   3
ATOM      3  C   UNL A   1      32.362  27.365  25.757  1.00  0.00     0.368 C 
ATOM      4  O   UNL A   1      33.418  27.009  26.277  1.00  0.00    -0.245 OA
BRANCH   3   5
ATOM      5  C   UNL A   1      32.051  27.205  24.217  1.00  0.00     0.195 C 
ATOM      6  C   UNL A   1      33.407  27.354  23.495  1.00  0.00     0.081 C 
ATOM      7  C   UNL A   1      31.137  28.322  23.599  1.00  0.00     0.066 C 
ATOM      8  C   UNL A   1      33.493  28.834  23.177  1.00  0.00     0.008 C 
ATOM      9  C   UNL A   1      32.087  29.152  22.706  1.00  0.00     0.011 C 
BRANCH   5  10
ATOM     10  N   UNL A   1      31.561  25.828  23.971  1.00  0.00    -0.343 N 
ATOM     11  H   UNL A   1      30.782  25.628  24.598  1.00  0.00     0.345 HD
ATOM     12  H   UNL A   1      32.316  25.163  24.143  1.00  0.00     0.345 HD
ATOM     13  H   UNL A   1      31.249  25.746  23.004  1.00  0.00     0.345 HD
ENDBRANCH   5  10
BRANCH   7  14
ATOM     14  C   UNL A   1      29.911  27.891  22.747  1.00  0.00     0.052 C 
BRANCH  14  15
ATOM     15  C   UNL A   1      28.552  28.007  23.453  1.00  0.00     0.230 C 
BRANCH  15  16
ATOM     16  O   UNL A   1      27.573  28.636  22.605  1.00  0.00    -0.494 OA
BRANCH  16  17
ATOM     17  C   UNL A   1      27.839  29.963  22.412  1.00  0.00     0.119 A 
ATOM     18  C   UNL A   1      27.867  30.832  23.503  1.00  0.00     0.046 A 
ATOM     19  C   UNL A   1      28.029  30.447  21.119  1.00  0.00     0.046 A 
ATOM     20  C   UNL A   1      28.171  32.181  23.302  1.00  0.00     0.004 A 
ATOM     21  C   UNL A   1      28.342  31.790  20.920  1.00  0.00     0.004 A 
ATOM     22  C   UNL A   1      28.425  32.655  22.012  1.00  0.00     0.000 A 
ENDBRANCH  16  17
ENDBRANCH  15  16
ENDBRANCH  14  15
ENDBRANCH   7  14
ENDBRANCH   3   5
ENDBRANCH   2   3
ENDBRANCH   1   2
BRANCH   1  23
ATOM     23  C   UNL A   1      31.938  30.428  26.500  1.00  0.00     0.275 C 
BRANCH  23  24
ATOM     24  O   UNL A   1      33.315  30.804  26.295  1.00  0.00    -0.458 OA
BRANCH  24  25
ATOM     25  C   UNL A   1      33.779  31.635  27.252  1.00  0.00     0.338 C 
ATOM     26  O   UNL A   1      33.252  32.665  27.627  1.00  0.00    -0.246 OA
BRANCH  25  27
ATOM     27  C   UNL A   1      34.934  31.087  27.965  1.00  0.00     0.060 A 
ATOM     28  C   UNL A   1      35.960  31.980  28.264  1.00  0.00     0.016 A 
ATOM     29  C   UNL A   1      35.100  29.721  28.180  1.00  0.00     0.016 A 
ATOM     30  C   UNL A   1      37.169  31.523  28.759  1.00  0.00     0.010 A 
ATOM     31  C   UNL A   1      36.292  29.263  28.760  1.00  0.00     0.010 A 
ATOM     32  C   UNL A   1      37.326  30.166  29.065  1.00  0.00    -0.014 A 
BRANCH  32  33
ATOM     33  C   UNL A   1      38.516  29.764  29.850  1.00  0.00     0.031 A 
ATOM     34  C   UNL A   1      39.554  28.842  29.294  1.00  0.00     0.074 A 
ATOM     35  C   UNL A   1      38.664  30.305  31.075  1.00  0.00     0.049 A 
ATOM     36  N   UNL A   1      40.616  28.355  29.885  1.00  0.00    -0.248 NA
ATOM     37  C   UNL A   1      39.387  28.410  27.900  1.00  0.00     0.031 C 
ATOM     38  C   UNL A   1      37.727  31.252  31.692  1.00  0.00     0.029 A 
ATOM     39  N   UNL A   1      39.655  30.165  32.010  1.00  0.00    -0.354 N 
ATOM     40  C   UNL A   1      41.233  27.542  28.946  1.00  0.00     0.074 A 
ATOM     41  C   UNL A   1      40.428  27.600  27.743  1.00  0.00     0.031 C 
ATOM     42  C   UNL A   1      38.208  31.635  32.881  1.00  0.00     0.029 A 
ATOM     43  C   UNL A   1      39.440  30.904  33.147  1.00  0.00     0.049 A 
ATOM     44  H   UNL A   1      40.444  29.591  31.879  1.00  0.00     0.167 HD
ATOM     45  C   UNL A   1      42.366  26.813  29.090  1.00  0.00     0.037 A 
ATOM     46  C   UNL A   1      40.134  30.958  34.297  1.00  0.00     0.037 A 
ATOM     47  C   UNL A   1      43.164  26.778  30.290  1.00  0.00     0.049 A 
ATOM     48  C   UNL A   1      41.354  30.101  34.442  1.00  0.00     0.074 A 
ATOM     49  C   UNL A   1      44.327  26.069  30.536  1.00  0.00     0.029 A 
ATOM     50  N   UNL A   1      42.878  27.489  31.448  1.00  0.00    -0.354 N 
ATOM     51  N   UNL A   1      41.902  29.298  33.564  1.00  0.00    -0.248 NA
ATOM     52  C   UNL A   1      42.036  30.139  35.740  1.00  0.00     0.031 C 
ATOM     53  C   UNL A   1      44.728  26.325  31.852  1.00  0.00     0.029 A 
ATOM     54  C   UNL A   1      43.832  27.219  32.417  1.00  0.00     0.049 A 
ATOM     55  H   UNL A   1      42.111  28.094  31.564  1.00  0.00     0.167 HD
ATOM     56  C   UNL A   1      42.982  28.716  34.207  1.00  0.00     0.074 A 
ATOM     57  C   UNL A   1      43.035  29.290  35.538  1.00  0.00     0.031 C 
ATOM     58  C   UNL A   1      43.843  27.780  33.743  1.00  0.00     0.037 A 
BRANCH  45  59
ATOM     59  C   UNL A   1      42.802  25.964  27.934  1.00  0.00     0.064 A 
ATOM     60  C   UNL A   1      42.307  24.666  27.746  1.00  0.00     0.173 A 
ATOM     61  C   UNL A   1      43.677  26.482  26.968  1.00  0.00     0.173 A 
ATOM     62  F   UNL A   1      41.477  24.123  28.648  1.00  0.00    -0.203 F 
ATOM     63  C   UNL A   1      42.677  23.914  26.633  1.00  0.00     0.198 A 
ATOM     64  C   UNL A   1      44.032  25.735  25.848  1.00  0.00     0.198 A 
ATOM     65  F   UNL A   1      44.175  27.721  27.102  1.00  0.00    -0.203 F 
ATOM     66  F   UNL A   1      42.209  22.668  26.481  1.00  0.00    -0.200 F 
ATOM     67  C   UNL A   1      43.533  24.451  25.682  1.00  0.00     0.200 A 
ATOM     68  F   UNL A   1      44.851  26.259  24.926  1.00  0.00    -0.200 F 
ATOM     69  F   UNL A   1      43.879  23.731  24.605  1.00  0.00    -0.200 F 
ENDBRANCH  45  59
BRANCH  46  70
ATOM     70  C   UNL A   1      39.642  31.811  35.407  1.00  0.00     0.064 A 
ATOM     71  C   UNL A   1      40.096  33.126  35.566  1.00  0.00     0.173 A 
ATOM     72  C   UNL A   1      38.672  31.338  36.305  1.00  0.00     0.173 A 
ATOM     73  F   UNL A   1      41.039  33.612  34.745  1.00  0.00    -0.203 F 
ATOM     74  C   UNL A   1      39.598  33.937  36.583  1.00  0.00     0.198 A 
ATOM     75  C   UNL A   1      38.154  32.160  37.302  1.00  0.00     0.198 A 
ATOM     76  F   UNL A   1      38.205  30.087  36.191  1.00  0.00    -0.203 F 
ATOM     77  F   UNL A   1      40.066  35.183  36.733  1.00  0.00    -0.200 F 
ATOM     78  C   UNL A   1      38.621  33.457  37.443  1.00  0.00     0.200 A 
ATOM     79  F   UNL A   1      37.200  31.696  38.120  1.00  0.00    -0.200 F 
ATOM     80  F   UNL A   1      38.130  34.245  38.409  1.00  0.00    -0.200 F 
ENDBRANCH  46  70
BRANCH  58  81
ATOM     81  C   UNL A   1      44.893  27.308  34.700  1.00  0.00     0.064 A 
ATOM     82  C   UNL A   1      46.124  27.970  34.803  1.00  0.00     0.173 A 
ATOM     83  C   UNL A   1      44.667  26.193  35.519  1.00  0.00     0.173 A 
ATOM     84  F   UNL A   1      46.389  29.028  34.022  1.00  0.00    -0.203 F 
ATOM     85  C   UNL A   1      47.104  27.519  35.682  1.00  0.00     0.198 A 
ATOM     86  C   UNL A   1      45.643  25.757  36.410  1.00  0.00     0.198 A 
ATOM     87  F   UNL A   1      43.504  25.528  35.451  1.00  0.00    -0.203 F 
ATOM     88  F   UNL A   1      48.290  28.141  35.736  1.00  0.00    -0.200 F 
ATOM     89  C   UNL A   1      46.861  26.416  36.487  1.00  0.00     0.200 A 
ATOM     90  F   UNL A   1      45.407  24.692  37.189  1.00  0.00    -0.200 F 
ATOM     91  F   UNL A   1      47.807  25.980  37.330  1.00  0.00    -0.200 F 
ENDBRANCH  58  81
ENDBRANCH  32  33
ENDBRANCH  25  27
ENDBRANCH  24  25
ENDBRANCH  23  24
ENDBRANCH   1  23
TORSDOF 16
ENDMDL
MODEL 2
REMARK VINA RESULT:     -11.1      1.955      3.983
REMARK SMILES [NH3+][C@@]1(C(=O)OCCOC(=O)c2ccc(-c3c4nc(c(-c5c(F)c(F)c(F)c(F)c5F)c5ccc([nH]5)c(-c5c(F)c(F)c(F)c(F)c5F)c5nc(c(-c6c(F)c(F)c(F)c(F)c6F)c6ccc3[nH]6)C=C5)C=C4)cc2)CCC[C@H]1CCOc1ccccc1
REMARK SMILES IDX 6 1 5 2 3 3 4 4 2 5 74 6 77 7 75 8 76 9 1 10 78 14 79 15
REMARK SMILES IDX 80 16 81 17 82 18 86 19 83 20 85 21 84 22 7 23 8 24 9 25
REMARK SMILES IDX 10 26 11 27 12 28 73 29 13 30 72 31 14 32 15 33 16 34 66 35
REMARK SMILES IDX 17 36 71 37 65 38 67 39 18 40 70 41 64 42 63 43 19 45 51 46
REMARK SMILES IDX 31 47 50 48 32 49 35 50 49 51 68 52 33 53 34 54 48 56 69 57
REMARK SMILES IDX 36 58 20 59 21 60 29 61 22 62 23 63 27 64 30 65 24 66 25 67
REMARK SMILES IDX 28 68 26 69 52 70 53 71 61 72 54 73 55 74 59 75 62 76 56 77
REMARK SMILES IDX 57 78 60 79 58 80 37 81 38 82 46 83 39 84 40 85 44 86 47 87
REMARK SMILES IDX 41 88 42 89 45 90 43 91
REMARK H PARENT 1 11 1 12 1 13 67 44 35 55
REMARK Flexibility Score: inf
ROOT
ATOM      1  C   UNL A   1      31.381  29.296  24.936  1.00  0.00     0.274 C 
ENDROOT
BRANCH   1   2
ATOM      2  O   UNL A   1      31.071  27.980  25.449  1.00  0.00    -0.457 OA
BRANCH   2   3
ATOM      3  C   UNL A   1      30.710  27.040  24.530  1.00  0.00     0.368 C 
ATOM      4  O   UNL A   1      29.649  27.086  23.910  1.00  0.00    -0.245 OA
BRANCH   3   5
ATOM      5  C   UNL A   1      31.743  25.852  24.401  1.00  0.00     0.195 C 
ATOM      6  C   UNL A   1      30.911  24.556  24.507  1.00  0.00     0.081 C 
ATOM      7  C   UNL A   1      32.797  25.754  25.561  1.00  0.00     0.066 C 
ATOM      8  C   UNL A   1      30.933  24.225  25.987  1.00  0.00     0.008 C 
ATOM      9  C   UNL A   1      32.375  24.503  26.365  1.00  0.00     0.011 C 
BRANCH   5  10
ATOM     10  N   UNL A   1      32.344  25.889  23.047  1.00  0.00    -0.343 N 
ATOM     11  H   UNL A   1      33.304  25.548  23.092  1.00  0.00     0.345 HD
ATOM     12  H   UNL A   1      32.340  26.848  22.699  1.00  0.00     0.345 HD
ATOM     13  H   UNL A   1      31.802  25.296  22.418  1.00  0.00     0.345 HD
ENDBRANCH   5  10
BRANCH   7  14
ATOM     14  C   UNL A   1      34.300  25.617  25.188  1.00  0.00     0.052 C 
BRANCH  14  15
ATOM     15  C   UNL A   1      34.804  24.176  25.028  1.00  0.00     0.230 C 
BRANCH  15  16
ATOM     16  O   UNL A   1      34.581  23.688  23.693  1.00  0.00    -0.494 OA
BRANCH  16  17
ATOM     17  C   UNL A   1      33.874  22.517  23.687  1.00  0.00     0.119 A 
ATOM     18  C   UNL A   1      32.856  22.324  22.753  1.00  0.00     0.046 A 
ATOM     19  C   UNL A   1      34.143  21.545  24.649  1.00  0.00     0.046 A 
ATOM     20  C   UNL A   1      32.160  21.113  22.732  1.00  0.00     0.004 A 
ATOM     21  C   UNL A   1      33.455  20.332  24.621  1.00  0.00     0.004 A 
ATOM     22  C   UNL A   1      32.472  20.111  23.656  1.00  0.00     0.000 A 
ENDBRANCH  16  17
ENDBRANCH  15  16
ENDBRANCH  14  15
ENDBRANCH   7  14
ENDBRANCH   3   5
ENDBRANCH   2   3
ENDBRANCH   1   2
BRANCH   1  23
ATOM     23  C   UNL A   1      31.782  30.294  26.034  1.00  0.00     0.275 C 
BRANCH  23  24
ATOM     24  O   UNL A   1      33.210  30.452  26.158  1.00  0.00    -0.458 OA
BRANCH  24  25
ATOM     25  C   UNL A   1      33.556  31.456  26.993  1.00  0.00     0.338 C 
ATOM     26  O   UNL A   1      32.887  32.437  27.252  1.00  0.00    -0.246 OA
BRANCH  25  27
ATOM     27  C   UNL A   1      34.786  31.175  27.735  1.00  0.00     0.060 A 
ATOM     28  C   UNL A   1      34.870  29.928  28.349  1.00  0.00     0.016 A 
ATOM     29  C   UNL A   1      35.751  32.150  27.978  1.00  0.00     0.016 A 
ATOM     30  C   UNL A   1      35.901  29.643  29.227  1.00  0.00     0.010 A 
ATOM     31  C   UNL A   1      36.842  31.836  28.801  1.00  0.00     0.010 A 
ATOM     32  C   UNL A   1      36.928  30.575  29.417  1.00  0.00    -0.014 A 
BRANCH  32  33
ATOM     33  C   UNL A   1      38.146  30.130  30.133  1.00  0.00     0.031 A 
ATOM     34  C   UNL A   1      39.152  29.226  29.494  1.00  0.00     0.074 A 
ATOM     35  C   UNL A   1      38.348  30.613  31.374  1.00  0.00     0.049 A 
ATOM     36  N   UNL A   1      40.233  28.706  30.017  1.00  0.00    -0.248 NA
ATOM     37  C   UNL A   1      38.924  28.860  28.089  1.00  0.00     0.031 C 
ATOM     38  C   UNL A   1      37.446  31.537  32.072  1.00  0.00     0.029 A 
ATOM     39  N   UNL A   1      39.376  30.423  32.260  1.00  0.00    -0.354 N 
ATOM     40  C   UNL A   1      40.804  27.932  29.018  1.00  0.00     0.074 A 
ATOM     41  C   UNL A   1      39.951  28.051  27.853  1.00  0.00     0.031 C 
ATOM     42  C   UNL A   1      37.979  31.862  33.256  1.00  0.00     0.029 A 
ATOM     43  C   UNL A   1      39.214  31.111  33.437  1.00  0.00     0.049 A 
ATOM     44  H   UNL A   1      40.154  29.850  32.071  1.00  0.00     0.167 HD
ATOM     45  C   UNL A   1      41.935  27.189  29.081  1.00  0.00     0.037 A 
ATOM     46  C   UNL A   1      39.955  31.108  34.559  1.00  0.00     0.037 A 
ATOM     47  C   UNL A   1      42.781  27.094  30.245  1.00  0.00     0.049 A 
ATOM     48  C   UNL A   1      41.172  30.237  34.615  1.00  0.00     0.074 A 
ATOM     49  C   UNL A   1      43.947  26.367  30.410  1.00  0.00     0.029 A 
ATOM     50  N   UNL A   1      42.549  27.753  31.445  1.00  0.00    -0.354 N 
ATOM     51  N   UNL A   1      41.676  29.471  33.679  1.00  0.00    -0.248 NA
ATOM     52  C   UNL A   1      41.907  30.210  35.884  1.00  0.00     0.031 C 
ATOM     53  C   UNL A   1      44.404  26.560  31.718  1.00  0.00     0.029 A 
ATOM     54  C   UNL A   1      43.540  27.433  32.361  1.00  0.00     0.049 A 
ATOM     55  H   UNL A   1      41.793  28.358  31.620  1.00  0.00     0.167 HD
ATOM     56  C   UNL A   1      42.777  28.852  34.250  1.00  0.00     0.074 A 
ATOM     57  C   UNL A   1      42.889  29.364  35.602  1.00  0.00     0.031 C 
ATOM     58  C   UNL A   1      43.610  27.932  33.708  1.00  0.00     0.037 A 
BRANCH  45  59
ATOM     59  C   UNL A   1      42.316  26.391  27.871  1.00  0.00     0.064 A 
ATOM     60  C   UNL A   1      43.274  26.850  26.958  1.00  0.00     0.173 A 
ATOM     61  C   UNL A   1      41.760  25.120  27.661  1.00  0.00     0.173 A 
ATOM     62  F   UNL A   1      43.825  28.063  27.110  1.00  0.00    -0.203 F 
ATOM     63  C   UNL A   1      43.659  26.067  25.872  1.00  0.00     0.198 A 
ATOM     64  C   UNL A   1      42.159  24.332  26.584  1.00  0.00     0.198 A 
ATOM     65  F   UNL A   1      40.841  24.635  28.510  1.00  0.00    -0.203 F 
ATOM     66  F   UNL A   1      44.563  26.532  24.999  1.00  0.00    -0.200 F 
ATOM     67  C   UNL A   1      43.108  24.807  25.690  1.00  0.00     0.200 A 
ATOM     68  F   UNL A   1      41.632  23.113  26.415  1.00  0.00    -0.200 F 
ATOM     69  F   UNL A   1      43.488  24.050  24.651  1.00  0.00    -0.200 F 
ENDBRANCH  45  59
BRANCH  46  70
ATOM     70  C   UNL A   1      39.516  31.913  35.726  1.00  0.00     0.064 A 
ATOM     71  C   UNL A   1      40.004  33.208  35.936  1.00  0.00     0.173 A 
ATOM     72  C   UNL A   1      38.565  31.414  36.629  1.00  0.00     0.173 A 
ATOM     73  F   UNL A   1      40.931  33.716  35.111  1.00  0.00    -0.203 F 
ATOM     74  C   UNL A   1      39.555  33.976  37.008  1.00  0.00     0.198 A 
ATOM     75  C   UNL A   1      38.096  32.194  37.683  1.00  0.00     0.198 A 
ATOM     76  F   UNL A   1      38.068  30.179  36.468  1.00  0.00    -0.203 F 
ATOM     77  F   UNL A   1      40.054  35.204  37.206  1.00  0.00    -0.200 F 
ATOM     78  C   UNL A   1      38.595  33.473  37.874  1.00  0.00     0.200 A 
ATOM     79  F   UNL A   1      37.158  31.708  38.507  1.00  0.00    -0.200 F 
ATOM     80  F   UNL A   1      38.152  34.219  38.895  1.00  0.00    -0.200 F 
ENDBRANCH  46  70
BRANCH  58  81
ATOM     81  C   UNL A   1      44.694  27.410  34.599  1.00  0.00     0.064 A 
ATOM     82  C   UNL A   1      44.499  26.254  35.369  1.00  0.00     0.173 A 
ATOM     83  C   UNL A   1      45.932  28.061  34.680  1.00  0.00     0.173 A 
ATOM     84  F   UNL A   1      43.321  25.613  35.338  1.00  0.00    -0.203 F 
ATOM     85  C   UNL A   1      45.503  25.780  36.208  1.00  0.00     0.198 A 
ATOM     86  C   UNL A   1      46.940  27.572  35.506  1.00  0.00     0.198 A 
ATOM     87  F   UNL A   1      46.162  29.170  33.961  1.00  0.00    -0.203 F 
ATOM     88  F   UNL A   1      45.282  24.699  36.969  1.00  0.00    -0.200 F 
ATOM     89  C   UNL A   1      46.722  26.437  36.272  1.00  0.00     0.200 A 
ATOM     90  F   UNL A   1      48.119  28.205  35.566  1.00  0.00    -0.200 F 
ATOM     91  F   UNL A   1      47.687  25.981  37.084  1.00  0.00    -0.200 F 
ENDBRANCH  58  81
ENDBRANCH  32  33
ENDBRANCH  25  27
ENDBRANCH  24  25
ENDBRANCH  23  24
ENDBRANCH   1  23
TORSDOF 16
ENDMDL
MODEL 3
REMARK VINA RESULT:     -11.1      4.210     10.043
REMARK SMILES [NH3+][C@@]1(C(=O)OCCOC(=O)c2ccc(-c3c4nc(c(-c5c(F)c(F)c(F)c(F)c5F)c5ccc([nH]5)c(-c5c(F)c(F)c(F)c(F)c5F)c5nc(c(-c6c(F)c(F)c(F)c(F)c6F)c6ccc3[nH]6)C=C5)C=C4)cc2)CCC[C@H]1CCOc1ccccc1
REMARK SMILES IDX 6 1 5 2 3 3 4 4 2 5 74 6 77 7 75 8 76 9 1 10 78 14 79 15
REMARK SMILES IDX 80 16 81 17 82 18 86 19 83 20 85 21 84 22 7 23 8 24 9 25
REMARK SMILES IDX 10 26 11 27 12 28 73 29 13 30 72 31 14 32 15 33 16 34 66 35
REMARK SMILES IDX 17 36 71 37 65 38 67 39 18 40 70 41 64 42 63 43 19 45 51 46
REMARK SMILES IDX 31 47 50 48 32 49 35 50 49 51 68 52 33 53 34 54 48 56 69 57
REMARK SMILES IDX 36 58 20 59 21 60 29 61 22 62 23 63 27 64 30 65 24 66 25 67
REMARK SMILES IDX 28 68 26 69 52 70 53 71 61 72 54 73 55 74 59 75 62 76 56 77
REMARK SMILES IDX 57 78 60 79 58 80 37 81 38 82 46 83 39 84 40 85 44 86 47 87
REMARK SMILES IDX 41 88 42 89 45 90 43 91
REMARK H PARENT 1 11 1 12 1 13 67 44 35 55
REMARK Flexibility Score: inf
ROOT
ATOM      1  C   UNL A   1      33.845  34.026  28.089  1.00  0.00     0.274 C 
ENDROOT
BRANCH   1   2
ATOM      2  O   UNL A   1      34.675  34.425  29.204  1.00  0.00    -0.457 OA
BRANCH   2   3
ATOM      3  C   UNL A   1      34.060  34.514  30.419  1.00  0.00     0.368 C 
ATOM      4  O   UNL A   1      33.086  35.236  30.621  1.00  0.00    -0.245 OA
BRANCH   3   5
ATOM      5  C   UNL A   1      34.767  33.666  31.548  1.00  0.00     0.195 C 
ATOM      6  C   UNL A   1      34.152  34.143  32.881  1.00  0.00     0.081 C 
ATOM      7  C   UNL A   1      36.311  33.912  31.702  1.00  0.00     0.066 C 
ATOM      8  C   UNL A   1      35.078  35.255  33.336  1.00  0.00     0.008 C 
ATOM      9  C   UNL A   1      36.451  34.685  33.033  1.00  0.00     0.011 C 
BRANCH   5  10
ATOM     10  N   UNL A   1      34.403  32.240  31.371  1.00  0.00    -0.343 N 
ATOM     11  H   UNL A   1      33.388  32.147  31.370  1.00  0.00     0.345 HD
ATOM     12  H   UNL A   1      34.794  31.692  32.138  1.00  0.00     0.345 HD
ATOM     13  H   UNL A   1      34.778  31.902  30.485  1.00  0.00     0.345 HD
ENDBRANCH   5  10
BRANCH   7  14
ATOM     14  C   UNL A   1      37.258  32.680  31.745  1.00  0.00     0.052 C 
BRANCH  14  15
ATOM     15  C   UNL A   1      37.969  32.451  33.086  1.00  0.00     0.230 C 
BRANCH  15  16
ATOM     16  O   UNL A   1      37.545  31.220  33.701  1.00  0.00    -0.494 OA
BRANCH  16  17
ATOM     17  C   UNL A   1      38.478  30.230  33.562  1.00  0.00     0.119 A 
ATOM     18  C   UNL A   1      38.153  29.060  32.876  1.00  0.00     0.046 A 
ATOM     19  C   UNL A   1      39.731  30.377  34.153  1.00  0.00     0.046 A 
ATOM     20  C   UNL A   1      39.121  28.067  32.710  1.00  0.00     0.004 A 
ATOM     21  C   UNL A   1      40.701  29.390  33.979  1.00  0.00     0.004 A 
ATOM     22  C   UNL A   1      40.400  28.240  33.247  1.00  0.00     0.000 A 
ENDBRANCH  16  17
ENDBRANCH  15  16
ENDBRANCH  14  15
ENDBRANCH   7  14
ENDBRANCH   3   5
ENDBRANCH   2   3
ENDBRANCH   1   2
BRANCH   1  23
ATOM     23  C   UNL A   1      33.639  32.505  28.002  1.00  0.00     0.275 C 
BRANCH  23  24
ATOM     24  O   UNL A   1      34.750  31.820  27.387  1.00  0.00    -0.458 OA
BRANCH  24  25
ATOM     25  C   UNL A   1      34.806  30.512  27.715  1.00  0.00     0.338 C 
ATOM     26  O   UNL A   1      33.929  29.689  27.539  1.00  0.00    -0.246 OA
BRANCH  25  27
ATOM     27  C   UNL A   1      36.136  30.100  28.165  1.00  0.00     0.060 A 
ATOM     28  C   UNL A   1      37.174  30.241  27.247  1.00  0.00     0.016 A 
ATOM     29  C   UNL A   1      36.345  29.433  29.371  1.00  0.00     0.016 A 
ATOM     30  C   UNL A   1      38.423  29.703  27.507  1.00  0.00     0.010 A 
ATOM     31  C   UNL A   1      37.629  28.961  29.675  1.00  0.00     0.010 A 
ATOM     32  C   UNL A   1      38.677  29.108  28.749  1.00  0.00    -0.014 A 
BRANCH  32  33
ATOM     33  C   UNL A   1      40.084  28.804  29.097  1.00  0.00     0.031 A 
ATOM     34  C   UNL A   1      40.915  29.739  29.917  1.00  0.00     0.074 A 
ATOM     35  C   UNL A   1      40.581  27.619  28.693  1.00  0.00     0.049 A 
ATOM     36  N   UNL A   1      42.177  29.635  30.249  1.00  0.00    -0.248 NA
ATOM     37  C   UNL A   1      40.252  30.944  30.434  1.00  0.00     0.031 C 
ATOM     38  C   UNL A   1      39.836  26.615  27.924  1.00  0.00     0.029 A 
ATOM     39  N   UNL A   1      41.809  27.042  28.886  1.00  0.00    -0.354 N 
ATOM     40  C   UNL A   1      42.468  30.768  30.994  1.00  0.00     0.074 A 
ATOM     41  C   UNL A   1      41.250  31.548  31.068  1.00  0.00     0.031 C 
ATOM     42  C   UNL A   1      40.607  25.535  27.747  1.00  0.00     0.029 A 
ATOM     43  C   UNL A   1      41.923  25.799  28.315  1.00  0.00     0.049 A 
ATOM     44  H   UNL A   1      42.538  27.476  29.385  1.00  0.00     0.167 HD
ATOM     45  C   UNL A   1      43.651  31.116  31.555  1.00  0.00     0.037 A 
ATOM     46  C   UNL A   1      42.981  24.975  28.220  1.00  0.00     0.037 A 
ATOM     47  C   UNL A   1      44.851  30.319  31.484  1.00  0.00     0.049 A 
ATOM     48  C   UNL A   1      44.287  25.412  28.807  1.00  0.00     0.074 A 
ATOM     49  C   UNL A   1      46.100  30.586  32.018  1.00  0.00     0.029 A 
ATOM     50  N   UNL A   1      44.947  29.094  30.838  1.00  0.00    -0.354 N 
ATOM     51  N   UNL A   1      44.564  26.509  29.468  1.00  0.00    -0.248 NA
ATOM     52  C   UNL A   1      45.431  24.514  28.615  1.00  0.00     0.031 C 
ATOM     53  C   UNL A   1      46.960  29.539  31.669  1.00  0.00     0.029 A 
ATOM     54  C   UNL A   1      46.239  28.603  30.943  1.00  0.00     0.049 A 
ATOM     55  H   UNL A   1      44.207  28.641  30.373  1.00  0.00     0.167 HD
ATOM     56  C   UNL A   1      45.918  26.445  29.755  1.00  0.00     0.074 A 
ATOM     57  C   UNL A   1      46.398  25.182  29.230  1.00  0.00     0.031 C 
ATOM     58  C   UNL A   1      46.696  27.358  30.384  1.00  0.00     0.037 A 
BRANCH  45  59
ATOM     59  C   UNL A   1      43.725  32.430  32.272  1.00  0.00     0.064 A 
ATOM     60  C   UNL A   1      43.956  33.630  31.587  1.00  0.00     0.173 A 
ATOM     61  C   UNL A   1      43.495  32.494  33.655  1.00  0.00     0.173 A 
ATOM     62  F   UNL A   1      44.192  33.620  30.267  1.00  0.00    -0.203 F 
ATOM     63  C   UNL A   1      43.961  34.849  32.261  1.00  0.00     0.198 A 
ATOM     64  C   UNL A   1      43.484  33.715  34.323  1.00  0.00     0.198 A 
ATOM     65  F   UNL A   1      43.265  31.373  34.354  1.00  0.00    -0.203 F 
ATOM     66  F   UNL A   1      44.204  35.984  31.592  1.00  0.00    -0.200 F 
ATOM     67  C   UNL A   1      43.718  34.891  33.626  1.00  0.00     0.200 A 
ATOM     68  F   UNL A   1      43.240  33.754  35.640  1.00  0.00    -0.200 F 
ATOM     69  F   UNL A   1      43.711  36.066  34.273  1.00  0.00    -0.200 F 
ENDBRANCH  45  59
BRANCH  46  70
ATOM     70  C   UNL A   1      42.844  23.692  27.487  1.00  0.00     0.064 A 
ATOM     71  C   UNL A   1      42.291  22.562  28.102  1.00  0.00     0.173 A 
ATOM     72  C   UNL A   1      43.225  23.587  26.140  1.00  0.00     0.173 A 
ATOM     73  F   UNL A   1      41.935  22.611  29.394  1.00  0.00    -0.203 F 
ATOM     74  C   UNL A   1      42.124  21.373  27.396  1.00  0.00     0.198 A 
ATOM     75  C   UNL A   1      43.030  22.406  25.428  1.00  0.00     0.198 A 
ATOM     76  F   UNL A   1      43.757  24.642  25.508  1.00  0.00    -0.203 F 
ATOM     77  F   UNL A   1      41.618  20.297  28.012  1.00  0.00    -0.200 F 
ATOM     78  C   UNL A   1      42.484  21.299  26.058  1.00  0.00     0.200 A 
ATOM     79  F   UNL A   1      43.365  22.346  24.133  1.00  0.00    -0.200 F 
ATOM     80  F   UNL A   1      42.306  20.160  25.376  1.00  0.00    -0.200 F 
ENDBRANCH  46  70
BRANCH  58  81
ATOM     81  C   UNL A   1      48.150  27.022  30.506  1.00  0.00     0.064 A 
ATOM     82  C   UNL A   1      48.619  26.220  31.557  1.00  0.00     0.173 A 
ATOM     83  C   UNL A   1      49.077  27.497  29.569  1.00  0.00     0.173 A 
ATOM     84  F   UNL A   1      47.768  25.763  32.488  1.00  0.00    -0.203 F 
ATOM     85  C   UNL A   1      49.973  25.924  31.677  1.00  0.00     0.198 A 
ATOM     86  C   UNL A   1      50.428  27.182  29.682  1.00  0.00     0.198 A 
ATOM     87  F   UNL A   1      48.673  28.268  28.548  1.00  0.00    -0.203 F 
ATOM     88  F   UNL A   1      50.407  25.191  32.712  1.00  0.00    -0.200 F 
ATOM     89  C   UNL A   1      50.874  26.401  30.737  1.00  0.00     0.200 A 
ATOM     90  F   UNL A   1      51.299  27.640  28.772  1.00  0.00    -0.200 F 
ATOM     91  F   UNL A   1      52.179  26.117  30.856  1.00  0.00    -0.200 F 
ENDBRANCH  58  81
ENDBRANCH  32  33
ENDBRANCH  25  27
ENDBRANCH  24  25
ENDBRANCH  23  24
ENDBRANCH   1  23
TORSDOF 16
ENDMDL
