MODEL 1
REMARK VINA RESULT:     -12.0      0.000      0.000
REMARK SMILES CCOCCn1nc(C)cc1C(=O)N1CCc2nc[nH]c2[C@@H]1C(=O)OCCOC(=O)c1ccc(-c2c3nc(c(-c4c(F)c(F)c(F)c(F)c4F)c4ccc([nH]4)c(-c4c(F)c(F)c(F)c(F)c4F)c4nc(c(-c5c(F)c(F)c(F)c(F)c5F)c5ccc2[nH]5)C=C4)C=C3)cc1
REMARK SMILES IDX 23 1 24 2 22 3 14 4 15 5 16 6 21 7 17 8 20 9 18 10 19 11
REMARK SMILES IDX 12 13 13 14 11 15 6 16 7 17 8 18 10 19 9 20 5 21 4 22 3 23
REMARK SMILES IDX 2 24 1 25 25 26 26 27 27 28 28 29 29 30 30 31 31 32 32 33
REMARK SMILES IDX 93 34 33 35 92 36 34 37 35 38 36 39 86 40 37 41 91 42 85 43
REMARK SMILES IDX 87 44 38 45 90 46 84 47 83 48 39 50 71 51 51 52 70 53 52 54
REMARK SMILES IDX 55 55 69 56 88 57 53 58 54 59 68 61 89 62 56 63 40 64 41 65
REMARK SMILES IDX 49 66 42 67 43 68 47 69 50 70 44 71 45 72 48 73 46 74 72 75
REMARK SMILES IDX 73 76 81 77 74 78 75 79 79 80 82 81 76 82 77 83 80 84 78 85
REMARK SMILES IDX 57 86 58 87 66 88 59 89 60 90 64 91 67 92 61 93 62 94 65 95
REMARK SMILES IDX 63 96
REMARK H PARENT 20 12 87 49 55 60
REMARK Flexibility Score: inf
ROOT
ATOM      1  C   UNL A   1      31.980  28.315  26.696  1.00  0.00     0.335 C 
ATOM      2  O   UNL A   1      31.748  27.761  27.769  1.00  0.00    -0.249 OA
ENDROOT
BRANCH   1   3
ATOM      3  C   UNL A   1      31.134  27.920  25.519  1.00  0.00     0.244 C 
ATOM      4  N   UNL A   1      31.491  26.561  25.001  1.00  0.00    -0.318 N 
ATOM      5  C   UNL A   1      30.303  25.794  24.523  1.00  0.00     0.127 C 
ATOM      6  C   UNL A   1      29.169  26.676  23.912  1.00  0.00     0.080 C 
ATOM      7  C   UNL A   1      30.703  28.613  24.251  1.00  0.00     0.072 A 
ATOM      8  C   UNL A   1      29.761  27.960  23.458  1.00  0.00     0.066 A 
ATOM      9  N   UNL A   1      31.188  29.573  23.410  1.00  0.00    -0.346 N 
ATOM     10  N   UNL A   1      29.737  28.415  22.179  1.00  0.00    -0.242 NA
ATOM     11  C   UNL A   1      30.672  29.334  22.155  1.00  0.00     0.197 A 
ATOM     12  H   UNL A   1      31.799  30.306  23.657  1.00  0.00     0.167 HD
BRANCH   4  13
ATOM     13  C   UNL A   1      32.755  26.296  24.409  1.00  0.00     0.273 C 
ATOM     14  O   UNL A   1      33.795  26.587  24.996  1.00  0.00    -0.267 OA
BRANCH  13  15
ATOM     15  C   UNL A   1      32.825  25.719  23.068  1.00  0.00     0.126 A 
ATOM     16  N   UNL A   1      33.257  24.456  22.713  1.00  0.00    -0.257 N 
ATOM     17  N   UNL A   1      33.140  24.195  21.392  1.00  0.00    -0.177 NA
ATOM     18  C   UNL A   1      32.803  25.363  20.849  1.00  0.00     0.060 A 
ATOM     19  C   UNL A   1      32.688  26.359  21.840  1.00  0.00     0.059 A 
ATOM     20  C   UNL A   1      32.554  25.456  19.391  1.00  0.00     0.069 C 
BRANCH  16  21
ATOM     21  C   UNL A   1      33.810  23.400  23.544  1.00  0.00     0.173 C 
BRANCH  21  22
ATOM     22  C   UNL A   1      35.326  23.311  23.472  1.00  0.00     0.183 C 
BRANCH  22  23
ATOM     23  O   UNL A   1      36.055  24.042  24.462  1.00  0.00    -0.380 OA
BRANCH  23  24
ATOM     24  C   UNL A   1      36.490  23.346  25.626  1.00  0.00     0.157 C 
ATOM     25  C   UNL A   1      37.842  23.817  26.115  1.00  0.00     0.035 C 
ENDBRANCH  23  24
ENDBRANCH  22  23
ENDBRANCH  21  22
ENDBRANCH  16  21
ENDBRANCH  13  15
ENDBRANCH   4  13
ENDBRANCH   1   3
BRANCH   1  26
ATOM     26  O   UNL A   1      32.896  29.293  26.573  1.00  0.00    -0.460 OA
BRANCH  26  27
ATOM     27  C   UNL A   1      32.398  30.626  26.865  1.00  0.00     0.274 C 
BRANCH  27  28
ATOM     28  C   UNL A   1      33.350  31.710  27.369  1.00  0.00     0.275 C 
BRANCH  28  29
ATOM     29  O   UNL A   1      34.262  31.300  28.384  1.00  0.00    -0.458 OA
BRANCH  29  30
ATOM     30  C   UNL A   1      35.455  31.945  28.317  1.00  0.00     0.338 C 
ATOM     31  O   UNL A   1      35.730  32.907  27.627  1.00  0.00    -0.246 OA
BRANCH  30  32
ATOM     32  C   UNL A   1      36.485  31.104  28.955  1.00  0.00     0.060 A 
ATOM     33  C   UNL A   1      37.651  31.762  29.348  1.00  0.00     0.016 A 
ATOM     34  C   UNL A   1      36.437  29.705  28.834  1.00  0.00     0.016 A 
ATOM     35  C   UNL A   1      38.817  31.032  29.434  1.00  0.00     0.010 A 
ATOM     36  C   UNL A   1      37.609  28.977  28.915  1.00  0.00     0.010 A 
ATOM     37  C   UNL A   1      38.800  29.659  29.145  1.00  0.00    -0.014 A 
BRANCH  37  38
ATOM     38  C   UNL A   1      40.057  28.947  29.278  1.00  0.00     0.031 A 
ATOM     39  C   UNL A   1      40.459  28.808  30.691  1.00  0.00     0.074 A 
ATOM     40  C   UNL A   1      40.788  28.453  28.263  1.00  0.00     0.049 A 
ATOM     41  N   UNL A   1      41.398  29.460  31.286  1.00  0.00    -0.248 NA
ATOM     42  C   UNL A   1      39.613  28.005  31.584  1.00  0.00     0.031 C 
ATOM     43  C   UNL A   1      40.398  28.304  26.861  1.00  0.00     0.029 A 
ATOM     44  N   UNL A   1      42.037  27.897  28.301  1.00  0.00    -0.354 N 
ATOM     45  C   UNL A   1      41.398  28.998  32.595  1.00  0.00     0.074 A 
ATOM     46  C   UNL A   1      40.181  28.252  32.767  1.00  0.00     0.031 C 
ATOM     47  C   UNL A   1      41.295  27.507  26.234  1.00  0.00     0.029 A 
ATOM     48  C   UNL A   1      42.386  27.206  27.148  1.00  0.00     0.049 A 
ATOM     49  H   UNL A   1      42.636  27.981  29.078  1.00  0.00     0.167 HD
ATOM     50  C   UNL A   1      42.553  29.017  33.310  1.00  0.00     0.037 A 
ATOM     51  C   UNL A   1      43.471  26.409  26.987  1.00  0.00     0.037 A 
ATOM     52  C   UNL A   1      43.515  29.907  32.705  1.00  0.00     0.049 A 
ATOM     53  C   UNL A   1      44.489  26.843  27.972  1.00  0.00     0.074 A 
ATOM     54  C   UNL A   1      43.631  31.265  32.499  1.00  0.00     0.029 A 
ATOM     55  N   UNL A   1      44.390  29.294  31.850  1.00  0.00    -0.354 N 
ATOM     56  N   UNL A   1      45.130  27.976  27.901  1.00  0.00    -0.248 NA
ATOM     57  C   UNL A   1      44.588  26.150  29.250  1.00  0.00     0.031 C 
ATOM     58  C   UNL A   1      44.409  31.414  31.309  1.00  0.00     0.029 A 
ATOM     59  C   UNL A   1      44.772  30.146  30.853  1.00  0.00     0.049 A 
ATOM     60  H   UNL A   1      44.702  28.365  31.940  1.00  0.00     0.167 HD
ATOM     61  C   UNL A   1      45.308  28.347  29.219  1.00  0.00     0.074 A 
ATOM     62  C   UNL A   1      45.141  27.119  29.985  1.00  0.00     0.031 C 
ATOM     63  C   UNL A   1      45.248  29.663  29.576  1.00  0.00     0.037 A 
BRANCH  50  64
ATOM     64  C   UNL A   1      43.006  27.864  34.183  1.00  0.00     0.064 A 
ATOM     65  C   UNL A   1      43.277  26.624  33.569  1.00  0.00     0.173 A 
ATOM     66  C   UNL A   1      42.837  27.822  35.586  1.00  0.00     0.173 A 
ATOM     67  F   UNL A   1      43.428  26.541  32.238  1.00  0.00    -0.203 F 
ATOM     68  C   UNL A   1      43.284  25.428  34.292  1.00  0.00     0.198 A 
ATOM     69  C   UNL A   1      42.896  26.634  36.309  1.00  0.00     0.198 A 
ATOM     70  F   UNL A   1      42.481  28.895  36.301  1.00  0.00    -0.203 F 
ATOM     71  F   UNL A   1      43.402  24.262  33.646  1.00  0.00    -0.200 F 
ATOM     72  C   UNL A   1      43.085  25.434  35.661  1.00  0.00     0.200 A 
ATOM     73  F   UNL A   1      42.672  26.659  37.631  1.00  0.00    -0.200 F 
ATOM     74  F   UNL A   1      43.021  24.285  36.346  1.00  0.00    -0.200 F 
ENDBRANCH  50  64
BRANCH  51  75
ATOM     75  C   UNL A   1      43.618  25.150  26.215  1.00  0.00     0.064 A 
ATOM     76  C   UNL A   1      44.700  24.970  25.331  1.00  0.00     0.173 A 
ATOM     77  C   UNL A   1      42.893  23.992  26.551  1.00  0.00     0.173 A 
ATOM     78  F   UNL A   1      45.466  26.012  24.977  1.00  0.00    -0.203 F 
ATOM     79  C   UNL A   1      45.068  23.704  24.864  1.00  0.00     0.198 A 
ATOM     80  C   UNL A   1      43.255  22.730  26.076  1.00  0.00     0.198 A 
ATOM     81  F   UNL A   1      41.881  24.043  27.428  1.00  0.00    -0.203 F 
ATOM     82  F   UNL A   1      46.156  23.566  24.095  1.00  0.00    -0.200 F 
ATOM     83  C   UNL A   1      44.355  22.583  25.252  1.00  0.00     0.200 A 
ATOM     84  F   UNL A   1      42.575  21.649  26.483  1.00  0.00    -0.200 F 
ATOM     85  F   UNL A   1      44.750  21.361  24.867  1.00  0.00    -0.200 F 
ENDBRANCH  51  75
BRANCH  63  86
ATOM     86  C   UNL A   1      45.531  30.676  28.509  1.00  0.00     0.064 A 
ATOM     87  C   UNL A   1      44.579  31.195  27.619  1.00  0.00     0.173 A 
ATOM     88  C   UNL A   1      46.833  31.196  28.445  1.00  0.00     0.173 A 
ATOM     89  F   UNL A   1      43.296  30.811  27.674  1.00  0.00    -0.203 F 
ATOM     90  C   UNL A   1      44.931  32.158  26.674  1.00  0.00     0.198 A 
ATOM     91  C   UNL A   1      47.170  32.187  27.531  1.00  0.00     0.198 A 
ATOM     92  F   UNL A   1      47.773  30.763  29.299  1.00  0.00    -0.203 F 
ATOM     93  F   UNL A   1      44.014  32.622  25.813  1.00  0.00    -0.200 F 
ATOM     94  C   UNL A   1      46.223  32.658  26.637  1.00  0.00     0.200 A 
ATOM     95  F   UNL A   1      48.409  32.697  27.530  1.00  0.00    -0.200 F 
ATOM     96  F   UNL A   1      46.552  33.610  25.752  1.00  0.00    -0.200 F 
ENDBRANCH  63  86
ENDBRANCH  37  38
ENDBRANCH  30  32
ENDBRANCH  29  30
ENDBRANCH  28  29
ENDBRANCH  27  28
ENDBRANCH  26  27
ENDBRANCH   1  26
TORSDOF 17
ENDMDL
MODEL 2
REMARK VINA RESULT:     -11.8      1.018      1.943
REMARK SMILES CCOCCn1nc(C)cc1C(=O)N1CCc2nc[nH]c2[C@@H]1C(=O)OCCOC(=O)c1ccc(-c2c3nc(c(-c4c(F)c(F)c(F)c(F)c4F)c4ccc([nH]4)c(-c4c(F)c(F)c(F)c(F)c4F)c4nc(c(-c5c(F)c(F)c(F)c(F)c5F)c5ccc2[nH]5)C=C4)C=C3)cc1
REMARK SMILES IDX 23 1 24 2 22 3 14 4 15 5 16 6 21 7 17 8 20 9 18 10 19 11
REMARK SMILES IDX 12 13 13 14 11 15 6 16 7 17 8 18 10 19 9 20 5 21 4 22 3 23
REMARK SMILES IDX 2 24 1 25 25 26 26 27 27 28 28 29 29 30 30 31 31 32 32 33
REMARK SMILES IDX 93 34 33 35 92 36 34 37 35 38 36 39 86 40 37 41 91 42 85 43
REMARK SMILES IDX 87 44 38 45 90 46 84 47 83 48 39 50 71 51 51 52 70 53 52 54
REMARK SMILES IDX 55 55 69 56 88 57 53 58 54 59 68 61 89 62 56 63 40 64 41 65
REMARK SMILES IDX 49 66 42 67 43 68 47 69 50 70 44 71 45 72 48 73 46 74 72 75
REMARK SMILES IDX 73 76 81 77 74 78 75 79 79 80 82 81 76 82 77 83 80 84 78 85
REMARK SMILES IDX 57 86 58 87 66 88 59 89 60 90 64 91 67 92 61 93 62 94 65 95
REMARK SMILES IDX 63 96
REMARK H PARENT 20 12 87 49 55 60
REMARK Flexibility Score: inf
ROOT
ATOM      1  C   UNL A   1      32.028  27.848  26.356  1.00  0.00     0.335 C 
ATOM      2  O   UNL A   1      31.929  27.063  27.297  1.00  0.00    -0.249 OA
ENDROOT
BRANCH   1   3
ATOM      3  C   UNL A   1      31.117  27.634  25.180  1.00  0.00     0.244 C 
ATOM      4  N   UNL A   1      31.472  26.399  24.411  1.00  0.00    -0.318 N 
ATOM      5  C   UNL A   1      30.274  25.685  23.879  1.00  0.00     0.127 C 
ATOM      6  C   UNL A   1      29.081  26.618  23.502  1.00  0.00     0.080 C 
ATOM      7  C   UNL A   1      30.586  28.521  24.083  1.00  0.00     0.072 A 
ATOM      8  C   UNL A   1      29.610  27.982  23.246  1.00  0.00     0.066 A 
ATOM      9  N   UNL A   1      30.991  29.629  23.396  1.00  0.00    -0.346 N 
ATOM     10  N   UNL A   1      29.491  28.652  22.070  1.00  0.00    -0.242 NA
ATOM     11  C   UNL A   1      30.399  29.594  22.153  1.00  0.00     0.197 A 
ATOM     12  H   UNL A   1      31.598  30.329  23.730  1.00  0.00     0.167 HD
BRANCH   4  13
ATOM     13  C   UNL A   1      32.700  26.286  23.706  1.00  0.00     0.273 C 
ATOM     14  O   UNL A   1      32.929  26.997  22.730  1.00  0.00    -0.267 OA
BRANCH  13  15
ATOM     15  C   UNL A   1      33.683  25.284  24.111  1.00  0.00     0.126 A 
ATOM     16  N   UNL A   1      33.949  24.069  23.510  1.00  0.00    -0.257 N 
ATOM     17  N   UNL A   1      34.966  23.391  24.085  1.00  0.00    -0.177 NA
ATOM     18  C   UNL A   1      35.247  24.082  25.189  1.00  0.00     0.060 A 
ATOM     19  C   UNL A   1      34.412  25.213  25.294  1.00  0.00     0.059 A 
ATOM     20  C   UNL A   1      36.353  23.644  26.073  1.00  0.00     0.069 C 
BRANCH  16  21
ATOM     21  C   UNL A   1      33.298  23.437  22.375  1.00  0.00     0.173 C 
BRANCH  21  22
ATOM     22  C   UNL A   1      32.295  22.367  22.778  1.00  0.00     0.183 C 
BRANCH  22  23
ATOM     23  O   UNL A   1      32.124  22.150  24.181  1.00  0.00    -0.380 OA
BRANCH  23  24
ATOM     24  C   UNL A   1      32.153  20.809  24.662  1.00  0.00     0.157 C 
ATOM     25  C   UNL A   1      33.447  20.473  25.368  1.00  0.00     0.035 C 
ENDBRANCH  23  24
ENDBRANCH  22  23
ENDBRANCH  21  22
ENDBRANCH  16  21
ENDBRANCH  13  15
ENDBRANCH   4  13
ENDBRANCH   1   3
BRANCH   1  26
ATOM     26  O   UNL A   1      32.856  28.908  26.385  1.00  0.00    -0.460 OA
BRANCH  26  27
ATOM     27  C   UNL A   1      32.247  30.135  26.866  1.00  0.00     0.274 C 
BRANCH  27  28
ATOM     28  C   UNL A   1      33.124  31.294  27.341  1.00  0.00     0.275 C 
BRANCH  28  29
ATOM     29  O   UNL A   1      34.529  31.074  27.256  1.00  0.00    -0.458 OA
BRANCH  29  30
ATOM     30  C   UNL A   1      35.245  31.900  28.062  1.00  0.00     0.338 C 
ATOM     31  O   UNL A   1      35.260  33.115  28.037  1.00  0.00    -0.246 OA
BRANCH  30  32
ATOM     32  C   UNL A   1      36.272  31.107  28.761  1.00  0.00     0.060 A 
ATOM     33  C   UNL A   1      37.433  31.793  29.119  1.00  0.00     0.016 A 
ATOM     34  C   UNL A   1      36.230  29.702  28.733  1.00  0.00     0.016 A 
ATOM     35  C   UNL A   1      38.601  31.074  29.261  1.00  0.00     0.010 A 
ATOM     36  C   UNL A   1      37.403  28.985  28.871  1.00  0.00     0.010 A 
ATOM     37  C   UNL A   1      38.590  29.685  29.064  1.00  0.00    -0.014 A 
BRANCH  37  38
ATOM     38  C   UNL A   1      39.848  28.988  29.253  1.00  0.00     0.031 A 
ATOM     39  C   UNL A   1      40.213  28.897  30.679  1.00  0.00     0.074 A 
ATOM     40  C   UNL A   1      40.609  28.466  28.273  1.00  0.00     0.049 A 
ATOM     41  N   UNL A   1      41.132  29.575  31.278  1.00  0.00    -0.248 NA
ATOM     42  C   UNL A   1      39.350  28.117  31.576  1.00  0.00     0.031 C 
ATOM     43  C   UNL A   1      40.257  28.269  26.867  1.00  0.00     0.029 A 
ATOM     44  N   UNL A   1      41.860  27.922  28.362  1.00  0.00    -0.354 N 
ATOM     45  C   UNL A   1      41.101  29.156  32.600  1.00  0.00     0.074 A 
ATOM     46  C   UNL A   1      39.885  28.406  32.765  1.00  0.00     0.031 C 
ATOM     47  C   UNL A   1      41.176  27.460  26.290  1.00  0.00     0.029 A 
ATOM     48  C   UNL A   1      42.245  27.197  27.242  1.00  0.00     0.049 A 
ATOM     49  H   UNL A   1      42.438  28.035  29.152  1.00  0.00     0.167 HD
ATOM     50  C   UNL A   1      42.236  29.207  33.345  1.00  0.00     0.037 A 
ATOM     51  C   UNL A   1      43.339  26.403  27.136  1.00  0.00     0.037 A 
ATOM     52  C   UNL A   1      43.208  30.085  32.736  1.00  0.00     0.049 A 
ATOM     53  C   UNL A   1      44.328  26.877  28.132  1.00  0.00     0.074 A 
ATOM     54  C   UNL A   1      43.319  31.436  32.489  1.00  0.00     0.029 A 
ATOM     55  N   UNL A   1      44.109  29.452  31.924  1.00  0.00    -0.354 N 
ATOM     56  N   UNL A   1      44.963  28.012  28.041  1.00  0.00    -0.248 NA
ATOM     57  C   UNL A   1      44.398  26.227  29.434  1.00  0.00     0.031 C 
ATOM     58  C   UNL A   1      44.127  31.552  31.316  1.00  0.00     0.029 A 
ATOM     59  C   UNL A   1      44.511  30.274  30.911  1.00  0.00     0.049 A 
ATOM     60  H   UNL A   1      44.425  28.528  32.053  1.00  0.00     0.167 HD
ATOM     61  C   UNL A   1      45.103  28.427  29.351  1.00  0.00     0.074 A 
ATOM     62  C   UNL A   1      44.924  27.223  30.151  1.00  0.00     0.031 C 
ATOM     63  C   UNL A   1      45.024  29.753  29.663  1.00  0.00     0.037 A 
BRANCH  50  64
ATOM     64  C   UNL A   1      42.674  28.087  34.266  1.00  0.00     0.064 A 
ATOM     65  C   UNL A   1      42.978  28.401  35.606  1.00  0.00     0.173 A 
ATOM     66  C   UNL A   1      43.148  26.834  33.814  1.00  0.00     0.173 A 
ATOM     67  F   UNL A   1      42.602  29.577  36.133  1.00  0.00    -0.203 F 
ATOM     68  C   UNL A   1      43.770  27.566  36.399  1.00  0.00     0.198 A 
ATOM     69  C   UNL A   1      43.893  25.982  34.625  1.00  0.00     0.198 A 
ATOM     70  F   UNL A   1      43.026  26.432  32.544  1.00  0.00    -0.203 F 
ATOM     71  F   UNL A   1      44.152  27.972  37.617  1.00  0.00    -0.200 F 
ATOM     72  C   UNL A   1      44.234  26.360  35.905  1.00  0.00     0.200 A 
ATOM     73  F   UNL A   1      44.357  24.831  34.116  1.00  0.00    -0.200 F 
ATOM     74  F   UNL A   1      45.051  25.592  36.635  1.00  0.00    -0.200 F 
ENDBRANCH  50  64
BRANCH  51  75
ATOM     75  C   UNL A   1      43.515  25.121  26.408  1.00  0.00     0.064 A 
ATOM     76  C   UNL A   1      44.541  24.970  25.455  1.00  0.00     0.173 A 
ATOM     77  C   UNL A   1      42.896  23.937  26.847  1.00  0.00     0.173 A 
ATOM     78  F   UNL A   1      45.207  26.041  25.001  1.00  0.00    -0.203 F 
ATOM     79  C   UNL A   1      44.959  23.709  25.017  1.00  0.00     0.198 A 
ATOM     80  C   UNL A   1      43.308  22.679  26.401  1.00  0.00     0.198 A 
ATOM     81  F   UNL A   1      41.948  23.964  27.794  1.00  0.00    -0.203 F 
ATOM     82  F   UNL A   1      45.996  23.605  24.174  1.00  0.00    -0.200 F 
ATOM     83  C   UNL A   1      44.353  22.564  25.503  1.00  0.00     0.200 A 
ATOM     84  F   UNL A   1      42.733  21.577  26.903  1.00  0.00    -0.200 F 
ATOM     85  F   UNL A   1      44.802  21.354  25.142  1.00  0.00    -0.200 F 
ENDBRANCH  51  75
BRANCH  63  86
ATOM     86  C   UNL A   1      45.329  30.733  28.572  1.00  0.00     0.064 A 
ATOM     87  C   UNL A   1      44.400  31.204  27.631  1.00  0.00     0.173 A 
ATOM     88  C   UNL A   1      46.623  31.273  28.534  1.00  0.00     0.173 A 
ATOM     89  F   UNL A   1      43.122  30.800  27.655  1.00  0.00    -0.203 F 
ATOM     90  C   UNL A   1      44.770  32.140  26.666  1.00  0.00     0.198 A 
ATOM     91  C   UNL A   1      46.976  32.238  27.598  1.00  0.00     0.198 A 
ATOM     92  F   UNL A   1      47.539  30.887  29.435  1.00  0.00    -0.203 F 
ATOM     93  F   UNL A   1      43.876  32.558  25.757  1.00  0.00    -0.200 F 
ATOM     94  C   UNL A   1      46.054  32.661  26.656  1.00  0.00     0.200 A 
ATOM     95  F   UNL A   1      48.206  32.769  27.622  1.00  0.00    -0.200 F 
ATOM     96  F   UNL A   1      46.398  33.587  25.750  1.00  0.00    -0.200 F 
ENDBRANCH  63  86
ENDBRANCH  37  38
ENDBRANCH  30  32
ENDBRANCH  29  30
ENDBRANCH  28  29
ENDBRANCH  27  28
ENDBRANCH  26  27
ENDBRANCH   1  26
TORSDOF 17
ENDMDL
MODEL 3
REMARK VINA RESULT:     -11.8      3.217      8.921
REMARK SMILES CCOCCn1nc(C)cc1C(=O)N1CCc2nc[nH]c2[C@@H]1C(=O)OCCOC(=O)c1ccc(-c2c3nc(c(-c4c(F)c(F)c(F)c(F)c4F)c4ccc([nH]4)c(-c4c(F)c(F)c(F)c(F)c4F)c4nc(c(-c5c(F)c(F)c(F)c(F)c5F)c5ccc2[nH]5)C=C4)C=C3)cc1
REMARK SMILES IDX 23 1 24 2 22 3 14 4 15 5 16 6 21 7 17 8 20 9 18 10 19 11
REMARK SMILES IDX 12 13 13 14 11 15 6 16 7 17 8 18 10 19 9 20 5 21 4 22 3 23
REMARK SMILES IDX 2 24 1 25 25 26 26 27 27 28 28 29 29 30 30 31 31 32 32 33
REMARK SMILES IDX 93 34 33 35 92 36 34 37 35 38 36 39 86 40 37 41 91 42 85 43
REMARK SMILES IDX 87 44 38 45 90 46 84 47 83 48 39 50 71 51 51 52 70 53 52 54
REMARK SMILES IDX 55 55 69 56 88 57 53 58 54 59 68 61 89 62 56 63 40 64 41 65
REMARK SMILES IDX 49 66 42 67 43 68 47 69 50 70 44 71 45 72 48 73 46 74 72 75
REMARK SMILES IDX 73 76 81 77 74 78 75 79 79 80 82 81 76 82 77 83 80 84 78 85
REMARK SMILES IDX 57 86 58 87 66 88 59 89 60 90 64 91 67 92 61 93 62 94 65 95
REMARK SMILES IDX 63 96
REMARK H PARENT 20 12 87 49 55 60
REMARK Flexibility Score: inf
ROOT
ATOM      1  C   UNL A   1      35.853  22.767  24.531  1.00  0.00     0.335 C 
ATOM      2  O   UNL A   1      36.153  23.727  23.824  1.00  0.00    -0.249 OA
ENDROOT
BRANCH   1   3
ATOM      3  C   UNL A   1      34.561  22.063  24.229  1.00  0.00     0.244 C 
ATOM      4  N   UNL A   1      33.376  22.966  24.396  1.00  0.00    -0.318 N 
ATOM      5  C   UNL A   1      32.306  22.708  23.388  1.00  0.00     0.127 C 
ATOM      6  C   UNL A   1      32.194  21.219  22.932  1.00  0.00     0.080 C 
ATOM      7  C   UNL A   1      33.970  20.730  24.613  1.00  0.00     0.072 A 
ATOM      8  C   UNL A   1      32.784  20.356  23.987  1.00  0.00     0.066 A 
ATOM      9  N   UNL A   1      34.043  19.859  25.662  1.00  0.00    -0.346 N 
ATOM     10  N   UNL A   1      32.111  19.387  24.660  1.00  0.00    -0.242 NA
ATOM     11  C   UNL A   1      32.855  19.165  25.716  1.00  0.00     0.197 A 
ATOM     12  H   UNL A   1      34.809  19.748  26.271  1.00  0.00     0.167 HD
BRANCH   4  13
ATOM     13  C   UNL A   1      33.005  23.480  25.667  1.00  0.00     0.273 C 
ATOM     14  O   UNL A   1      32.684  22.723  26.580  1.00  0.00    -0.267 OA
BRANCH  13  15
ATOM     15  C   UNL A   1      32.954  24.925  25.881  1.00  0.00     0.126 A 
ATOM     16  N   UNL A   1      31.833  25.729  25.961  1.00  0.00    -0.257 N 
ATOM     17  N   UNL A   1      32.113  27.023  26.232  1.00  0.00    -0.177 NA
ATOM     18  C   UNL A   1      33.439  27.104  26.143  1.00  0.00     0.060 A 
ATOM     19  C   UNL A   1      33.996  25.846  25.834  1.00  0.00     0.059 A 
ATOM     20  C   UNL A   1      34.120  28.392  26.413  1.00  0.00     0.069 C 
BRANCH  16  21
ATOM     21  C   UNL A   1      30.432  25.381  25.795  1.00  0.00     0.173 C 
BRANCH  21  22
ATOM     22  C   UNL A   1      29.790  26.040  24.584  1.00  0.00     0.183 C 
BRANCH  22  23
ATOM     23  O   UNL A   1      30.649  26.307  23.472  1.00  0.00    -0.380 OA
BRANCH  23  24
ATOM     24  C   UNL A   1      30.437  27.506  22.732  1.00  0.00     0.157 C 
ATOM     25  C   UNL A   1      30.418  28.736  23.611  1.00  0.00     0.035 C 
ENDBRANCH  23  24
ENDBRANCH  22  23
ENDBRANCH  21  22
ENDBRANCH  16  21
ENDBRANCH  13  15
ENDBRANCH   4  13
ENDBRANCH   1   3
BRANCH   1  26
ATOM     26  O   UNL A   1      36.668  22.299  25.494  1.00  0.00    -0.460 OA
BRANCH  26  27
ATOM     27  C   UNL A   1      37.728  21.428  25.016  1.00  0.00     0.274 C 
BRANCH  27  28
ATOM     28  C   UNL A   1      39.056  21.347  25.768  1.00  0.00     0.275 C 
BRANCH  28  29
ATOM     29  O   UNL A   1      39.189  22.237  26.873  1.00  0.00    -0.458 OA
BRANCH  29  30
ATOM     30  C   UNL A   1      40.482  22.448  27.231  1.00  0.00     0.338 C 
ATOM     31  O   UNL A   1      41.245  21.643  27.729  1.00  0.00    -0.246 OA
BRANCH  30  32
ATOM     32  C   UNL A   1      40.740  23.900  27.243  1.00  0.00     0.060 A 
ATOM     33  C   UNL A   1      41.780  24.327  28.068  1.00  0.00     0.016 A 
ATOM     34  C   UNL A   1      39.778  24.799  26.751  1.00  0.00     0.016 A 
ATOM     35  C   UNL A   1      41.744  25.618  28.553  1.00  0.00     0.010 A 
ATOM     36  C   UNL A   1      39.741  26.089  27.243  1.00  0.00     0.010 A 
ATOM     37  C   UNL A   1      40.685  26.465  28.194  1.00  0.00    -0.014 A 
BRANCH  37  38
ATOM     38  C   UNL A   1      40.721  27.816  28.719  1.00  0.00     0.031 A 
ATOM     39  C   UNL A   1      41.820  28.603  28.127  1.00  0.00     0.074 A 
ATOM     40  C   UNL A   1      39.870  28.326  29.628  1.00  0.00     0.049 A 
ATOM     41  N   UNL A   1      42.921  28.936  28.709  1.00  0.00    -0.248 NA
ATOM     42  C   UNL A   1      41.780  28.889  26.687  1.00  0.00     0.031 C 
ATOM     43  C   UNL A   1      38.612  27.752  30.107  1.00  0.00     0.029 A 
ATOM     44  N   UNL A   1      39.925  29.534  30.266  1.00  0.00    -0.354 N 
ATOM     45  C   UNL A   1      43.636  29.657  27.763  1.00  0.00     0.074 A 
ATOM     46  C   UNL A   1      42.980  29.444  26.502  1.00  0.00     0.031 C 
ATOM     47  C   UNL A   1      37.923  28.699  30.785  1.00  0.00     0.029 A 
ATOM     48  C   UNL A   1      38.745  29.893  30.905  1.00  0.00     0.049 A 
ATOM     49  H   UNL A   1      40.731  30.100  30.272  1.00  0.00     0.167 HD
ATOM     50  C   UNL A   1      44.516  30.608  28.172  1.00  0.00     0.037 A 
ATOM     51  C   UNL A   1      38.460  31.104  31.446  1.00  0.00     0.037 A 
ATOM     52  C   UNL A   1      44.858  30.424  29.563  1.00  0.00     0.049 A 
ATOM     53  C   UNL A   1      39.750  31.758  31.769  1.00  0.00     0.074 A 
ATOM     54  C   UNL A   1      45.537  29.487  30.310  1.00  0.00     0.029 A 
ATOM     55  N   UNL A   1      44.098  31.159  30.433  1.00  0.00    -0.354 N 
ATOM     56  N   UNL A   1      40.547  31.359  32.719  1.00  0.00    -0.248 NA
ATOM     57  C   UNL A   1      40.334  32.695  30.818  1.00  0.00     0.031 C 
ATOM     58  C   UNL A   1      44.948  29.525  31.612  1.00  0.00     0.029 A 
ATOM     59  C   UNL A   1      43.958  30.507  31.624  1.00  0.00     0.049 A 
ATOM     60  H   UNL A   1      43.706  32.038  30.227  1.00  0.00     0.167 HD
ATOM     61  C   UNL A   1      41.813  31.615  32.229  1.00  0.00     0.074 A 
ATOM     62  C   UNL A   1      41.617  32.599  31.172  1.00  0.00     0.031 C 
ATOM     63  C   UNL A   1      42.842  30.765  32.508  1.00  0.00     0.037 A 
BRANCH  50  64
ATOM     64  C   UNL A   1      44.622  31.973  27.523  1.00  0.00     0.064 A 
ATOM     65  C   UNL A   1      45.775  32.267  26.766  1.00  0.00     0.173 A 
ATOM     66  C   UNL A   1      43.844  33.091  27.903  1.00  0.00     0.173 A 
ATOM     67  F   UNL A   1      46.603  31.286  26.375  1.00  0.00    -0.203 F 
ATOM     68  C   UNL A   1      46.163  33.582  26.493  1.00  0.00     0.198 A 
ATOM     69  C   UNL A   1      44.208  34.396  27.583  1.00  0.00     0.198 A 
ATOM     70  F   UNL A   1      42.777  32.988  28.702  1.00  0.00    -0.203 F 
ATOM     71  F   UNL A   1      47.338  33.818  25.896  1.00  0.00    -0.200 F 
ATOM     72  C   UNL A   1      45.383  34.646  26.909  1.00  0.00     0.200 A 
ATOM     73  F   UNL A   1      43.453  35.413  28.021  1.00  0.00    -0.200 F 
ATOM     74  F   UNL A   1      45.787  35.906  26.711  1.00  0.00    -0.200 F 
ENDBRANCH  50  64
BRANCH  51  75
ATOM     75  C   UNL A   1      37.175  31.844  31.492  1.00  0.00     0.064 A 
ATOM     76  C   UNL A   1      36.497  32.035  32.712  1.00  0.00     0.173 A 
ATOM     77  C   UNL A   1      36.745  32.639  30.413  1.00  0.00     0.173 A 
ATOM     78  F   UNL A   1      36.858  31.342  33.802  1.00  0.00    -0.203 F 
ATOM     79  C   UNL A   1      35.497  33.002  32.857  1.00  0.00     0.198 A 
ATOM     80  C   UNL A   1      35.739  33.597  30.557  1.00  0.00     0.198 A 
ATOM     81  F   UNL A   1      37.359  32.578  29.224  1.00  0.00    -0.203 F 
ATOM     82  F   UNL A   1      34.938  33.210  34.057  1.00  0.00    -0.200 F 
ATOM     83  C   UNL A   1      35.131  33.794  31.783  1.00  0.00     0.200 A 
ATOM     84  F   UNL A   1      35.415  34.378  29.517  1.00  0.00    -0.200 F 
ATOM     85  F   UNL A   1      34.227  34.771  31.938  1.00  0.00    -0.200 F 
ENDBRANCH  51  75
BRANCH  63  86
ATOM     86  C   UNL A   1      42.716  29.916  33.736  1.00  0.00     0.064 A 
ATOM     87  C   UNL A   1      43.057  30.323  35.035  1.00  0.00     0.173 A 
ATOM     88  C   UNL A   1      42.147  28.643  33.582  1.00  0.00     0.173 A 
ATOM     89  F   UNL A   1      43.526  31.555  35.275  1.00  0.00    -0.203 F 
ATOM     90  C   UNL A   1      42.878  29.469  36.123  1.00  0.00     0.198 A 
ATOM     91  C   UNL A   1      41.930  27.811  34.675  1.00  0.00     0.198 A 
ATOM     92  F   UNL A   1      41.767  28.218  32.367  1.00  0.00    -0.203 F 
ATOM     93  F   UNL A   1      43.236  29.866  37.354  1.00  0.00    -0.200 F 
ATOM     94  C   UNL A   1      42.309  28.219  35.942  1.00  0.00     0.200 A 
ATOM     95  F   UNL A   1      41.339  26.622  34.498  1.00  0.00    -0.200 F 
ATOM     96  F   UNL A   1      42.104  27.413  36.994  1.00  0.00    -0.200 F 
ENDBRANCH  63  86
ENDBRANCH  37  38
ENDBRANCH  30  32
ENDBRANCH  29  30
ENDBRANCH  28  29
ENDBRANCH  27  28
ENDBRANCH  26  27
ENDBRANCH   1  26
TORSDOF 17
ENDMDL
