MODEL 1
REMARK VINA RESULT:     -13.1      0.000      0.000
REMARK SMILES CC1(C)S[C@H](c2ccc(-c3cccc([N+](=O)[O-])c3)o2)[NH2+][C@@H]1C(=O)OCCOC(=O)c1ccc(-c2c3nc(c(-c4c(F)c(F)c(F)c(F)c4F)c4ccc([nH]4)c(-c4c(F)c(F)c(F)c(F)c4F)c4nc(c(-c5c(F)c(F)c(F)c(F)c5F)c5ccc2[nH]5)C=C4)C=C3)cc1
REMARK SMILES IDX 25 1 24 2 22 3 23 4 21 5 1 6 2 7 3 8 4 9 5 10 20 11 6 14
REMARK SMILES IDX 7 15 19 16 8 17 9 18 10 19 11 20 18 21 12 22 14 23 13 24
REMARK SMILES IDX 15 25 16 26 17 27 26 28 27 29 28 30 29 31 30 32 31 33 92 34
REMARK SMILES IDX 32 35 91 36 33 37 34 38 35 39 85 40 36 41 90 42 84 43 86 44
REMARK SMILES IDX 37 45 89 46 83 47 82 48 38 50 70 51 50 52 69 53 51 54 54 55
REMARK SMILES IDX 68 56 87 57 52 58 53 59 67 61 88 62 55 63 39 64 40 65 48 66
REMARK SMILES IDX 41 67 42 68 46 69 49 70 43 71 44 72 47 73 45 74 71 75 72 76
REMARK SMILES IDX 80 77 73 78 74 79 78 80 81 81 75 82 76 83 79 84 77 85 56 86
REMARK SMILES IDX 57 87 65 88 58 89 59 90 63 91 66 92 60 93 61 94 64 95 62 96
REMARK H PARENT 20 12 20 13 86 49 54 60
REMARK Flexibility Score: inf
ROOT
ATOM      1  C   UNL A   1      31.647  28.838  27.404  1.00  0.00     0.274 C 
ENDROOT
BRANCH   1   2
ATOM      2  O   UNL A   1      32.681  27.874  27.178  1.00  0.00    -0.458 OA
BRANCH   2   3
ATOM      3  C   UNL A   1      32.527  27.061  26.085  1.00  0.00     0.366 C 
ATOM      4  O   UNL A   1      32.971  27.309  24.974  1.00  0.00    -0.245 OA
BRANCH   3   5
ATOM      5  C   UNL A   1      31.767  25.787  26.500  1.00  0.00     0.310 C 
ATOM      6  C   UNL A   1      31.875  23.290  26.937  1.00  0.00     0.030 C 
ATOM      7  C   UNL A   1      32.219  24.414  25.935  1.00  0.00     0.079 C 
ATOM      8  C   UNL A   1      33.686  24.241  25.534  1.00  0.00     0.030 C 
ATOM      9  S   UNL A   1      31.171  24.168  24.460  1.00  0.00    -0.078 SA
ATOM     10  C   UNL A   1      30.085  25.589  24.806  1.00  0.00     0.311 C 
ATOM     11  N   UNL A   1      30.310  25.955  26.209  1.00  0.00    -0.316 N 
ATOM     12  H   UNL A   1      29.762  25.346  26.818  1.00  0.00     0.348 HD
ATOM     13  H   UNL A   1      30.023  26.919  26.375  1.00  0.00     0.348 HD
BRANCH  10  14
ATOM     14  C   UNL A   1      30.276  26.686  23.791  1.00  0.00     0.172 A 
ATOM     15  C   UNL A   1      30.926  26.699  22.567  1.00  0.00     0.054 A 
ATOM     16  O   UNL A   1      29.669  27.907  23.986  1.00  0.00    -0.454 OA
ATOM     17  C   UNL A   1      30.725  27.975  22.000  1.00  0.00     0.051 A 
ATOM     18  C   UNL A   1      29.957  28.682  22.895  1.00  0.00     0.134 A 
BRANCH  18  19
ATOM     19  C   UNL A   1      29.418  30.029  22.873  1.00  0.00     0.024 A 
ATOM     20  C   UNL A   1      29.652  30.903  23.944  1.00  0.00     0.012 A 
ATOM     21  C   UNL A   1      28.737  30.505  21.748  1.00  0.00     0.097 A 
ATOM     22  C   UNL A   1      29.140  32.204  23.944  1.00  0.00     0.008 A 
ATOM     23  C   UNL A   1      28.278  31.831  21.723  1.00  0.00     0.270 A 
ATOM     24  C   UNL A   1      28.448  32.674  22.830  1.00  0.00     0.085 A 
BRANCH  23  25
ATOM     25  N   UNL A   1      27.653  32.362  20.505  1.00  0.00     0.062 N 
ATOM     26  O   UNL A   1      27.472  31.579  19.562  1.00  0.00    -0.258 OA
ATOM     27  O   UNL A   1      27.324  33.556  20.501  1.00  0.00    -0.258 OA
ENDBRANCH  23  25
ENDBRANCH  18  19
ENDBRANCH  10  14
ENDBRANCH   3   5
ENDBRANCH   2   3
ENDBRANCH   1   2
BRANCH   1  28
ATOM     28  C   UNL A   1      31.874  30.150  26.659  1.00  0.00     0.275 C 
BRANCH  28  29
ATOM     29  O   UNL A   1      33.275  30.420  26.513  1.00  0.00    -0.458 OA
BRANCH  29  30
ATOM     30  C   UNL A   1      33.709  31.466  27.253  1.00  0.00     0.338 C 
ATOM     31  O   UNL A   1      33.103  32.484  27.532  1.00  0.00    -0.246 OA
BRANCH  30  32
ATOM     32  C   UNL A   1      34.995  31.118  27.871  1.00  0.00     0.060 A 
ATOM     33  C   UNL A   1      35.142  29.806  28.331  1.00  0.00     0.016 A 
ATOM     34  C   UNL A   1      36.015  32.055  28.043  1.00  0.00     0.016 A 
ATOM     35  C   UNL A   1      36.318  29.416  28.958  1.00  0.00     0.010 A 
ATOM     36  C   UNL A   1      37.187  31.669  28.697  1.00  0.00     0.010 A 
ATOM     37  C   UNL A   1      37.337  30.351  29.160  1.00  0.00    -0.014 A 
BRANCH  37  38
ATOM     38  C   UNL A   1      38.493  29.967  29.995  1.00  0.00     0.031 A 
ATOM     39  C   UNL A   1      39.496  29.010  29.430  1.00  0.00     0.074 A 
ATOM     40  C   UNL A   1      38.670  30.515  31.209  1.00  0.00     0.049 A 
ATOM     41  N   UNL A   1      40.547  28.479  29.995  1.00  0.00    -0.248 NA
ATOM     42  C   UNL A   1      39.294  28.610  28.028  1.00  0.00     0.031 C 
ATOM     43  C   UNL A   1      37.810  31.534  31.810  1.00  0.00     0.029 A 
ATOM     44  N   UNL A   1      39.637  30.287  32.154  1.00  0.00    -0.354 N 
ATOM     45  C   UNL A   1      41.126  27.674  29.025  1.00  0.00     0.074 A 
ATOM     46  C   UNL A   1      40.306  27.778  27.838  1.00  0.00     0.031 C 
ATOM     47  C   UNL A   1      38.279  31.829  33.035  1.00  0.00     0.029 A 
ATOM     48  C   UNL A   1      39.439  30.986  33.317  1.00  0.00     0.049 A 
ATOM     49  H   UNL A   1      40.399  29.680  32.010  1.00  0.00     0.167 HD
ATOM     50  C   UNL A   1      42.241  26.914  29.124  1.00  0.00     0.037 A 
ATOM     51  C   UNL A   1      40.100  30.914  34.490  1.00  0.00     0.037 A 
ATOM     52  C   UNL A   1      43.037  26.807  30.317  1.00  0.00     0.049 A 
ATOM     53  C   UNL A   1      41.265  29.964  34.612  1.00  0.00     0.074 A 
ATOM     54  C   UNL A   1      44.170  26.046  30.535  1.00  0.00     0.029 A 
ATOM     55  N   UNL A   1      42.770  27.477  31.504  1.00  0.00    -0.354 N 
ATOM     56  N   UNL A   1      41.802  29.186  33.702  1.00  0.00    -0.248 NA
ATOM     57  C   UNL A   1      41.913  29.876  35.929  1.00  0.00     0.031 C 
ATOM     58  C   UNL A   1      44.554  26.208  31.869  1.00  0.00     0.029 A 
ATOM     59  C   UNL A   1      43.701  27.123  32.465  1.00  0.00     0.049 A 
ATOM     60  H   UNL A   1      42.029  28.110  31.640  1.00  0.00     0.167 HD
ATOM     61  C   UNL A   1      42.865  28.544  34.324  1.00  0.00     0.074 A 
ATOM     62  C   UNL A   1      42.905  29.031  35.687  1.00  0.00     0.031 C 
ATOM     63  C   UNL A   1      43.731  27.632  33.814  1.00  0.00     0.037 A 
BRANCH  50  64
ATOM     64  C   UNL A   1      42.622  26.093  27.927  1.00  0.00     0.064 A 
ATOM     65  C   UNL A   1      42.070  24.826  27.689  1.00  0.00     0.173 A 
ATOM     66  C   UNL A   1      43.552  26.590  27.001  1.00  0.00     0.173 A 
ATOM     67  F   UNL A   1      41.193  24.297  28.556  1.00  0.00    -0.203 F 
ATOM     68  C   UNL A   1      42.457  24.075  26.581  1.00  0.00     0.198 A 
ATOM     69  C   UNL A   1      43.912  25.851  25.880  1.00  0.00     0.198 A 
ATOM     70  F   UNL A   1      44.111  27.796  27.185  1.00  0.00    -0.203 F 
ATOM     71  F   UNL A   1      41.959  22.844  26.402  1.00  0.00    -0.200 F 
ATOM     72  C   UNL A   1      43.372  24.590  25.675  1.00  0.00     0.200 A 
ATOM     73  F   UNL A   1      44.789  26.354  25.000  1.00  0.00    -0.200 F 
ATOM     74  F   UNL A   1      43.741  23.868  24.609  1.00  0.00    -0.200 F 
ENDBRANCH  50  64
BRANCH  51  75
ATOM     75  C   UNL A   1      39.653  31.725  35.653  1.00  0.00     0.064 A 
ATOM     76  C   UNL A   1      38.619  31.286  36.492  1.00  0.00     0.173 A 
ATOM     77  C   UNL A   1      40.223  32.978  35.927  1.00  0.00     0.173 A 
ATOM     78  F   UNL A   1      38.021  30.108  36.256  1.00  0.00    -0.203 F 
ATOM     79  C   UNL A   1      38.157  32.078  37.542  1.00  0.00     0.198 A 
ATOM     80  C   UNL A   1      39.783  33.754  36.996  1.00  0.00     0.198 A 
ATOM     81  F   UNL A   1      41.210  33.451  35.152  1.00  0.00    -0.203 F 
ATOM     82  F   UNL A   1      37.128  31.659  38.290  1.00  0.00    -0.200 F 
ATOM     83  C   UNL A   1      38.743  33.308  37.796  1.00  0.00     0.200 A 
ATOM     84  F   UNL A   1      40.360  34.938  37.244  1.00  0.00    -0.200 F 
ATOM     85  F   UNL A   1      38.297  34.070  38.805  1.00  0.00    -0.200 F 
ENDBRANCH  51  75
BRANCH  63  86
ATOM     86  C   UNL A   1      44.827  27.138  34.716  1.00  0.00     0.064 A 
ATOM     87  C   UNL A   1      46.012  27.861  34.907  1.00  0.00     0.173 A 
ATOM     88  C   UNL A   1      44.658  25.949  35.444  1.00  0.00     0.173 A 
ATOM     89  F   UNL A   1      46.228  28.997  34.225  1.00  0.00    -0.203 F 
ATOM     90  C   UNL A   1      47.000  27.400  35.773  1.00  0.00     0.198 A 
ATOM     91  C   UNL A   1      45.633  25.509  36.335  1.00  0.00     0.198 A 
ATOM     92  F   UNL A   1      43.539  25.223  35.306  1.00  0.00    -0.203 F 
ATOM     93  F   UNL A   1      48.146  28.083  35.902  1.00  0.00    -0.200 F 
ATOM     94  C   UNL A   1      46.806  26.231  36.493  1.00  0.00     0.200 A 
ATOM     95  F   UNL A   1      45.435  24.390  37.044  1.00  0.00    -0.200 F 
ATOM     96  F   UNL A   1      47.752  25.798  37.337  1.00  0.00    -0.200 F 
ENDBRANCH  63  86
ENDBRANCH  37  38
ENDBRANCH  30  32
ENDBRANCH  29  30
ENDBRANCH  28  29
ENDBRANCH   1  28
TORSDOF 14
ENDMDL
MODEL 2
REMARK VINA RESULT:     -12.6      2.215      4.950
REMARK SMILES CC1(C)S[C@H](c2ccc(-c3cccc([N+](=O)[O-])c3)o2)[NH2+][C@@H]1C(=O)OCCOC(=O)c1ccc(-c2c3nc(c(-c4c(F)c(F)c(F)c(F)c4F)c4ccc([nH]4)c(-c4c(F)c(F)c(F)c(F)c4F)c4nc(c(-c5c(F)c(F)c(F)c(F)c5F)c5ccc2[nH]5)C=C4)C=C3)cc1
REMARK SMILES IDX 25 1 24 2 22 3 23 4 21 5 1 6 2 7 3 8 4 9 5 10 20 11 6 14
REMARK SMILES IDX 7 15 19 16 8 17 9 18 10 19 11 20 18 21 12 22 14 23 13 24
REMARK SMILES IDX 15 25 16 26 17 27 26 28 27 29 28 30 29 31 30 32 31 33 92 34
REMARK SMILES IDX 32 35 91 36 33 37 34 38 35 39 85 40 36 41 90 42 84 43 86 44
REMARK SMILES IDX 37 45 89 46 83 47 82 48 38 50 70 51 50 52 69 53 51 54 54 55
REMARK SMILES IDX 68 56 87 57 52 58 53 59 67 61 88 62 55 63 39 64 40 65 48 66
REMARK SMILES IDX 41 67 42 68 46 69 49 70 43 71 44 72 47 73 45 74 71 75 72 76
REMARK SMILES IDX 80 77 73 78 74 79 78 80 81 81 75 82 76 83 79 84 77 85 56 86
REMARK SMILES IDX 57 87 65 88 58 89 59 90 63 91 66 92 60 93 61 94 64 95 62 96
REMARK H PARENT 20 12 20 13 86 49 54 60
REMARK Flexibility Score: inf
ROOT
ATOM      1  C   UNL A   1      31.779  28.275  27.358  1.00  0.00     0.274 C 
ENDROOT
BRANCH   1   2
ATOM      2  O   UNL A   1      32.409  27.377  26.437  1.00  0.00    -0.458 OA
BRANCH   2   3
ATOM      3  C   UNL A   1      31.611  26.860  25.449  1.00  0.00     0.366 C 
ATOM      4  O   UNL A   1      30.919  25.860  25.574  1.00  0.00    -0.245 OA
BRANCH   3   5
ATOM      5  C   UNL A   1      31.691  27.764  24.204  1.00  0.00     0.310 C 
ATOM      6  C   UNL A   1      30.427  28.987  22.376  1.00  0.00     0.030 C 
ATOM      7  C   UNL A   1      30.608  27.635  23.100  1.00  0.00     0.079 C 
ATOM      8  C   UNL A   1      29.217  27.136  23.501  1.00  0.00     0.030 C 
ATOM      9  S   UNL A   1      31.330  26.464  21.897  1.00  0.00    -0.078 SA
ATOM     10  C   UNL A   1      32.980  26.451  22.669  1.00  0.00     0.311 C 
ATOM     11  N   UNL A   1      33.033  27.615  23.562  1.00  0.00    -0.316 N 
ATOM     12  H   UNL A   1      33.255  28.453  23.024  1.00  0.00     0.348 HD
ATOM     13  H   UNL A   1      33.754  27.486  24.270  1.00  0.00     0.348 HD
BRANCH  10  14
ATOM     14  C   UNL A   1      33.282  25.115  23.296  1.00  0.00     0.172 A 
ATOM     15  C   UNL A   1      32.493  23.990  23.479  1.00  0.00     0.054 A 
ATOM     16  O   UNL A   1      34.562  24.837  23.723  1.00  0.00    -0.454 OA
ATOM     17  C   UNL A   1      33.313  22.994  24.052  1.00  0.00     0.051 A 
ATOM     18  C   UNL A   1      34.564  23.549  24.186  1.00  0.00     0.134 A 
BRANCH  18  19
ATOM     19  C   UNL A   1      35.819  23.025  24.693  1.00  0.00     0.024 A 
ATOM     20  C   UNL A   1      36.681  23.845  25.434  1.00  0.00     0.012 A 
ATOM     21  C   UNL A   1      36.143  21.675  24.531  1.00  0.00     0.097 A 
ATOM     22  C   UNL A   1      37.895  23.361  25.930  1.00  0.00     0.008 A 
ATOM     23  C   UNL A   1      37.333  21.175  25.083  1.00  0.00     0.270 A 
ATOM     24  C   UNL A   1      38.227  22.021  25.755  1.00  0.00     0.085 A 
BRANCH  23  25
ATOM     25  N   UNL A   1      37.626  19.739  25.000  1.00  0.00     0.062 N 
ATOM     26  O   UNL A   1      38.816  19.392  25.004  1.00  0.00    -0.258 OA
ATOM     27  O   UNL A   1      36.666  18.957  24.954  1.00  0.00    -0.258 OA
ENDBRANCH  23  25
ENDBRANCH  18  19
ENDBRANCH  10  14
ENDBRANCH   3   5
ENDBRANCH   2   3
ENDBRANCH   1   2
BRANCH   1  28
ATOM     28  C   UNL A   1      31.778  29.723  26.881  1.00  0.00     0.275 C 
BRANCH  28  29
ATOM     29  O   UNL A   1      33.093  30.131  26.479  1.00  0.00    -0.458 OA
BRANCH  29  30
ATOM     30  C   UNL A   1      33.531  31.250  27.099  1.00  0.00     0.338 C 
ATOM     31  O   UNL A   1      32.921  32.288  27.284  1.00  0.00    -0.246 OA
BRANCH  30  32
ATOM     32  C   UNL A   1      34.831  30.978  27.726  1.00  0.00     0.060 A 
ATOM     33  C   UNL A   1      35.095  29.652  28.084  1.00  0.00     0.016 A 
ATOM     34  C   UNL A   1      35.751  31.990  28.002  1.00  0.00     0.016 A 
ATOM     35  C   UNL A   1      36.290  29.325  28.712  1.00  0.00     0.010 A 
ATOM     36  C   UNL A   1      36.940  31.666  28.657  1.00  0.00     0.010 A 
ATOM     37  C   UNL A   1      37.208  30.334  29.018  1.00  0.00    -0.014 A 
BRANCH  37  38
ATOM     38  C   UNL A   1      38.377  29.995  29.854  1.00  0.00     0.031 A 
ATOM     39  C   UNL A   1      39.396  29.044  29.306  1.00  0.00     0.074 A 
ATOM     40  C   UNL A   1      38.552  30.578  31.052  1.00  0.00     0.049 A 
ATOM     41  N   UNL A   1      40.461  28.548  29.876  1.00  0.00    -0.248 NA
ATOM     42  C   UNL A   1      39.191  28.603  27.917  1.00  0.00     0.031 C 
ATOM     43  C   UNL A   1      37.677  31.594  31.632  1.00  0.00     0.029 A 
ATOM     44  N   UNL A   1      39.531  30.393  31.994  1.00  0.00    -0.354 N 
ATOM     45  C   UNL A   1      41.049  27.730  28.923  1.00  0.00     0.074 A 
ATOM     46  C   UNL A   1      40.218  27.787  27.739  1.00  0.00     0.031 C 
ATOM     47  C   UNL A   1      38.149  31.931  32.846  1.00  0.00     0.029 A 
ATOM     48  C   UNL A   1      39.327  31.119  33.141  1.00  0.00     0.049 A 
ATOM     49  H   UNL A   1      40.304  29.798  31.861  1.00  0.00     0.167 HD
ATOM     50  C   UNL A   1      42.179  26.994  29.032  1.00  0.00     0.037 A 
ATOM     51  C   UNL A   1      39.998  31.090  34.310  1.00  0.00     0.037 A 
ATOM     52  C   UNL A   1      42.985  26.934  30.222  1.00  0.00     0.049 A 
ATOM     53  C   UNL A   1      41.183  30.166  34.447  1.00  0.00     0.074 A 
ATOM     54  C   UNL A   1      44.135  26.201  30.450  1.00  0.00     0.029 A 
ATOM     55  N   UNL A   1      42.714  27.630  31.393  1.00  0.00    -0.354 N 
ATOM     56  N   UNL A   1      41.728  29.376  33.554  1.00  0.00    -0.248 NA
ATOM     57  C   UNL A   1      41.842  30.126  35.761  1.00  0.00     0.031 C 
ATOM     58  C   UNL A   1      44.526  26.406  31.777  1.00  0.00     0.029 A 
ATOM     59  C   UNL A   1      43.659  27.319  32.356  1.00  0.00     0.049 A 
ATOM     60  H   UNL A   1      41.962  28.252  31.519  1.00  0.00     0.167 HD
ATOM     61  C   UNL A   1      42.809  28.771  34.183  1.00  0.00     0.074 A 
ATOM     62  C   UNL A   1      42.849  29.295  35.533  1.00  0.00     0.031 C 
ATOM     63  C   UNL A   1      43.688  27.864  33.691  1.00  0.00     0.037 A 
BRANCH  50  64
ATOM     64  C   UNL A   1      42.567  26.151  27.855  1.00  0.00     0.064 A 
ATOM     65  C   UNL A   1      43.530  26.571  26.925  1.00  0.00     0.173 A 
ATOM     66  C   UNL A   1      41.968  24.897  27.659  1.00  0.00     0.173 A 
ATOM     67  F   UNL A   1      44.117  27.771  27.055  1.00  0.00    -0.203 F 
ATOM     68  C   UNL A   1      43.857  25.778  25.827  1.00  0.00     0.198 A 
ATOM     69  C   UNL A   1      42.320  24.095  26.579  1.00  0.00     0.198 A 
ATOM     70  F   UNL A   1      41.039  24.451  28.518  1.00  0.00    -0.203 F 
ATOM     71  F   UNL A   1      44.740  26.222  24.922  1.00  0.00    -0.200 F 
ATOM     72  C   UNL A   1      43.258  24.539  25.659  1.00  0.00     0.200 A 
ATOM     73  F   UNL A   1      41.746  22.893  26.424  1.00  0.00    -0.200 F 
ATOM     74  F   UNL A   1      43.576  23.776  24.605  1.00  0.00    -0.200 F 
ENDBRANCH  50  64
BRANCH  51  75
ATOM     75  C   UNL A   1      39.543  31.922  35.455  1.00  0.00     0.064 A 
ATOM     76  C   UNL A   1      38.618  31.433  36.388  1.00  0.00     0.173 A 
ATOM     77  C   UNL A   1      39.994  33.241  35.618  1.00  0.00     0.173 A 
ATOM     78  F   UNL A   1      38.134  30.188  36.260  1.00  0.00    -0.203 F 
ATOM     79  C   UNL A   1      38.143  32.237  37.422  1.00  0.00     0.198 A 
ATOM     80  C   UNL A   1      39.543  34.034  36.672  1.00  0.00     0.198 A 
ATOM     81  F   UNL A   1      40.873  33.763  34.750  1.00  0.00    -0.203 F 
ATOM     82  F   UNL A   1      37.215  31.763  38.264  1.00  0.00    -0.200 F 
ATOM     83  C   UNL A   1      38.611  33.535  37.567  1.00  0.00     0.200 A 
ATOM     84  F   UNL A   1      40.006  35.283  36.812  1.00  0.00    -0.200 F 
ATOM     85  F   UNL A   1      38.152  34.308  38.561  1.00  0.00    -0.200 F 
ENDBRANCH  51  75
BRANCH  63  86
ATOM     86  C   UNL A   1      44.800  27.415  34.597  1.00  0.00     0.064 A 
ATOM     87  C   UNL A   1      46.010  28.118  34.690  1.00  0.00     0.173 A 
ATOM     88  C   UNL A   1      44.626  26.295  35.426  1.00  0.00     0.173 A 
ATOM     89  F   UNL A   1      46.232  29.187  33.910  1.00  0.00    -0.203 F 
ATOM     90  C   UNL A   1      47.014  27.702  35.561  1.00  0.00     0.198 A 
ATOM     91  C   UNL A   1      45.618  25.903  36.320  1.00  0.00     0.198 A 
ATOM     92  F   UNL A   1      43.485  25.592  35.383  1.00  0.00    -0.203 F 
ATOM     93  F   UNL A   1      48.180  28.361  35.598  1.00  0.00    -0.200 F 
ATOM     94  C   UNL A   1      46.813  26.602  36.382  1.00  0.00     0.200 A 
ATOM     95  F   UNL A   1      45.415  24.852  37.125  1.00  0.00    -0.200 F 
ATOM     96  F   UNL A   1      47.775  26.213  37.229  1.00  0.00    -0.200 F 
ENDBRANCH  63  86
ENDBRANCH  37  38
ENDBRANCH  30  32
ENDBRANCH  29  30
ENDBRANCH  28  29
ENDBRANCH   1  28
TORSDOF 14
ENDMDL
MODEL 3
REMARK VINA RESULT:     -12.5      1.113      1.753
REMARK SMILES CC1(C)S[C@H](c2ccc(-c3cccc([N+](=O)[O-])c3)o2)[NH2+][C@@H]1C(=O)OCCOC(=O)c1ccc(-c2c3nc(c(-c4c(F)c(F)c(F)c(F)c4F)c4ccc([nH]4)c(-c4c(F)c(F)c(F)c(F)c4F)c4nc(c(-c5c(F)c(F)c(F)c(F)c5F)c5ccc2[nH]5)C=C4)C=C3)cc1
REMARK SMILES IDX 25 1 24 2 22 3 23 4 21 5 1 6 2 7 3 8 4 9 5 10 20 11 6 14
REMARK SMILES IDX 7 15 19 16 8 17 9 18 10 19 11 20 18 21 12 22 14 23 13 24
REMARK SMILES IDX 15 25 16 26 17 27 26 28 27 29 28 30 29 31 30 32 31 33 92 34
REMARK SMILES IDX 32 35 91 36 33 37 34 38 35 39 85 40 36 41 90 42 84 43 86 44
REMARK SMILES IDX 37 45 89 46 83 47 82 48 38 50 70 51 50 52 69 53 51 54 54 55
REMARK SMILES IDX 68 56 87 57 52 58 53 59 67 61 88 62 55 63 39 64 40 65 48 66
REMARK SMILES IDX 41 67 42 68 46 69 49 70 43 71 44 72 47 73 45 74 71 75 72 76
REMARK SMILES IDX 80 77 73 78 74 79 78 80 81 81 75 82 76 83 79 84 77 85 56 86
REMARK SMILES IDX 57 87 65 88 58 89 59 90 63 91 66 92 60 93 61 94 64 95 62 96
REMARK H PARENT 20 12 20 13 86 49 54 60
REMARK Flexibility Score: inf
ROOT
ATOM      1  C   UNL A   1      32.282  28.298  26.329  1.00  0.00     0.274 C 
ENDROOT
BRANCH   1   2
ATOM      2  O   UNL A   1      33.405  27.452  26.603  1.00  0.00    -0.458 OA
BRANCH   2   3
ATOM      3  C   UNL A   1      33.731  26.541  25.631  1.00  0.00     0.366 C 
ATOM      4  O   UNL A   1      34.214  26.832  24.548  1.00  0.00    -0.245 OA
BRANCH   3   5
ATOM      5  C   UNL A   1      33.441  25.119  26.149  1.00  0.00     0.310 C 
ATOM      6  C   UNL A   1      34.314  22.762  26.498  1.00  0.00     0.030 C 
ATOM      7  C   UNL A   1      34.144  23.908  25.477  1.00  0.00     0.079 C 
ATOM      8  C   UNL A   1      35.502  24.136  24.809  1.00  0.00     0.030 C 
ATOM      9  S   UNL A   1      32.953  23.341  24.215  1.00  0.00    -0.078 SA
ATOM     10  C   UNL A   1      31.599  24.417  24.789  1.00  0.00     0.311 C 
ATOM     11  N   UNL A   1      31.968  24.870  26.135  1.00  0.00    -0.316 N 
ATOM     12  H   UNL A   1      31.731  24.150  26.819  1.00  0.00     0.348 HD
ATOM     13  H   UNL A   1      31.461  25.721  26.375  1.00  0.00     0.348 HD
BRANCH  10  14
ATOM     14  C   UNL A   1      31.289  25.494  23.783  1.00  0.00     0.172 A 
ATOM     15  C   UNL A   1      31.678  25.654  22.463  1.00  0.00     0.054 A 
ATOM     16  O   UNL A   1      30.411  26.503  24.115  1.00  0.00    -0.454 OA
ATOM     17  C   UNL A   1      31.029  26.807  21.972  1.00  0.00     0.051 A 
ATOM     18  C   UNL A   1      30.269  27.296  23.008  1.00  0.00     0.134 A 
BRANCH  18  19
ATOM     19  C   UNL A   1      29.381  28.439  23.117  1.00  0.00     0.024 A 
ATOM     20  C   UNL A   1      27.994  28.271  23.001  1.00  0.00     0.012 A 
ATOM     21  C   UNL A   1      29.885  29.705  23.430  1.00  0.00     0.097 A 
ATOM     22  C   UNL A   1      27.121  29.358  23.100  1.00  0.00     0.008 A 
ATOM     23  C   UNL A   1      29.002  30.784  23.590  1.00  0.00     0.270 A 
ATOM     24  C   UNL A   1      27.623  30.622  23.395  1.00  0.00     0.085 A 
BRANCH  23  25
ATOM     25  N   UNL A   1      29.519  32.090  24.017  1.00  0.00     0.062 N 
ATOM     26  O   UNL A   1      29.153  33.090  23.384  1.00  0.00    -0.258 OA
ATOM     27  O   UNL A   1      30.275  32.117  24.998  1.00  0.00    -0.258 OA
ENDBRANCH  23  25
ENDBRANCH  18  19
ENDBRANCH  10  14
ENDBRANCH   3   5
ENDBRANCH   2   3
ENDBRANCH   1   2
BRANCH   1  28
ATOM     28  C   UNL A   1      32.671  29.750  26.072  1.00  0.00     0.275 C 
BRANCH  28  29
ATOM     29  O   UNL A   1      32.525  30.539  27.261  1.00  0.00    -0.458 OA
BRANCH  29  30
ATOM     30  C   UNL A   1      33.302  31.646  27.281  1.00  0.00     0.338 C 
ATOM     31  O   UNL A   1      32.979  32.788  27.010  1.00  0.00    -0.246 OA
BRANCH  30  32
ATOM     32  C   UNL A   1      34.597  31.314  27.889  1.00  0.00     0.060 A 
ATOM     33  C   UNL A   1      34.741  30.023  28.406  1.00  0.00     0.016 A 
ATOM     34  C   UNL A   1      35.629  32.247  27.996  1.00  0.00     0.016 A 
ATOM     35  C   UNL A   1      35.927  29.650  29.026  1.00  0.00     0.010 A 
ATOM     36  C   UNL A   1      36.811  31.881  28.643  1.00  0.00     0.010 A 
ATOM     37  C   UNL A   1      36.959  30.584  29.163  1.00  0.00    -0.014 A 
BRANCH  37  38
ATOM     38  C   UNL A   1      38.128  30.228  29.992  1.00  0.00     0.031 A 
ATOM     39  C   UNL A   1      39.144  29.285  29.426  1.00  0.00     0.074 A 
ATOM     40  C   UNL A   1      38.305  30.788  31.200  1.00  0.00     0.049 A 
ATOM     41  N   UNL A   1      40.209  28.778  29.986  1.00  0.00    -0.248 NA
ATOM     42  C   UNL A   1      38.938  28.870  28.029  1.00  0.00     0.031 C 
ATOM     43  C   UNL A   1      37.431  31.795  31.801  1.00  0.00     0.029 A 
ATOM     44  N   UNL A   1      39.283  30.584  32.139  1.00  0.00    -0.354 N 
ATOM     45  C   UNL A   1      40.795  27.976  29.018  1.00  0.00     0.074 A 
ATOM     46  C   UNL A   1      39.963  28.056  27.836  1.00  0.00     0.031 C 
ATOM     47  C   UNL A   1      37.905  32.108  33.020  1.00  0.00     0.029 A 
ATOM     48  C   UNL A   1      39.082  31.289  33.299  1.00  0.00     0.049 A 
ATOM     49  H   UNL A   1      40.056  29.991  31.994  1.00  0.00     0.167 HD
ATOM     50  C   UNL A   1      41.924  27.237  29.112  1.00  0.00     0.037 A 
ATOM     51  C   UNL A   1      39.754  31.237  34.466  1.00  0.00     0.037 A 
ATOM     52  C   UNL A   1      42.731  27.154  30.300  1.00  0.00     0.049 A 
ATOM     53  C   UNL A   1      40.937  30.310  34.586  1.00  0.00     0.074 A 
ATOM     54  C   UNL A   1      43.880  26.415  30.513  1.00  0.00     0.029 A 
ATOM     55  N   UNL A   1      42.462  27.828  31.483  1.00  0.00    -0.354 N 
ATOM     56  N   UNL A   1      41.481  29.535  33.678  1.00  0.00    -0.248 NA
ATOM     57  C   UNL A   1      41.597  30.244  35.898  1.00  0.00     0.031 C 
ATOM     58  C   UNL A   1      44.272  26.595  31.844  1.00  0.00     0.029 A 
ATOM     59  C   UNL A   1      43.407  27.498  32.440  1.00  0.00     0.049 A 
ATOM     60  H   UNL A   1      41.711  28.448  31.621  1.00  0.00     0.167 HD
ATOM     61  C   UNL A   1      42.561  28.917  34.295  1.00  0.00     0.074 A 
ATOM     62  C   UNL A   1      42.603  29.416  35.654  1.00  0.00     0.031 C 
ATOM     63  C   UNL A   1      43.438  28.018  33.785  1.00  0.00     0.037 A 
BRANCH  50  64
ATOM     64  C   UNL A   1      42.310  26.415  27.919  1.00  0.00     0.064 A 
ATOM     65  C   UNL A   1      41.760  25.147  27.681  1.00  0.00     0.173 A 
ATOM     66  C   UNL A   1      43.243  26.911  26.995  1.00  0.00     0.173 A 
ATOM     67  F   UNL A   1      40.880  24.619  28.544  1.00  0.00    -0.203 F 
ATOM     68  C   UNL A   1      42.152  24.394  26.575  1.00  0.00     0.198 A 
ATOM     69  C   UNL A   1      43.609  26.169  25.877  1.00  0.00     0.198 A 
ATOM     70  F   UNL A   1      43.801  28.117  27.180  1.00  0.00    -0.203 F 
ATOM     71  F   UNL A   1      41.655  23.163  26.396  1.00  0.00    -0.200 F 
ATOM     72  C   UNL A   1      43.070  24.908  25.672  1.00  0.00     0.200 A 
ATOM     73  F   UNL A   1      44.489  26.672  25.000  1.00  0.00    -0.200 F 
ATOM     74  F   UNL A   1      43.444  24.184  24.608  1.00  0.00    -0.200 F 
ENDBRANCH  50  64
BRANCH  51  75
ATOM     75  C   UNL A   1      39.301  32.049  35.627  1.00  0.00     0.064 A 
ATOM     76  C   UNL A   1      39.822  33.327  35.869  1.00  0.00     0.173 A 
ATOM     77  C   UNL A   1      38.365  31.544  36.544  1.00  0.00     0.173 A 
ATOM     78  F   UNL A   1      40.740  33.843  35.039  1.00  0.00    -0.203 F 
ATOM     79  C   UNL A   1      39.444  34.058  36.994  1.00  0.00     0.198 A 
ATOM     80  C   UNL A   1      37.964  32.289  37.651  1.00  0.00     0.198 A 
ATOM     81  F   UNL A   1      37.840  30.323  36.366  1.00  0.00    -0.203 F 
ATOM     82  F   UNL A   1      40.002  35.252  37.232  1.00  0.00    -0.200 F 
ATOM     83  C   UNL A   1      38.512  33.541  37.881  1.00  0.00     0.200 A 
ATOM     84  F   UNL A   1      37.055  31.789  38.499  1.00  0.00    -0.200 F 
ATOM     85  F   UNL A   1      38.151  34.244  38.963  1.00  0.00    -0.200 F 
ENDBRANCH  51  75
BRANCH  63  86
ATOM     86  C   UNL A   1      44.551  27.551  34.681  1.00  0.00     0.064 A 
ATOM     87  C   UNL A   1      45.761  28.250  34.786  1.00  0.00     0.173 A 
ATOM     88  C   UNL A   1      44.375  26.416  35.490  1.00  0.00     0.173 A 
ATOM     89  F   UNL A   1      45.984  29.332  34.025  1.00  0.00    -0.203 F 
ATOM     90  C   UNL A   1      46.765  27.816  35.649  1.00  0.00     0.198 A 
ATOM     91  C   UNL A   1      45.367  26.006  36.376  1.00  0.00     0.198 A 
ATOM     92  F   UNL A   1      43.233  25.716  35.435  1.00  0.00    -0.203 F 
ATOM     93  F   UNL A   1      47.933  28.473  35.696  1.00  0.00    -0.200 F 
ATOM     94  C   UNL A   1      46.564  26.702  36.449  1.00  0.00     0.200 A 
ATOM     95  F   UNL A   1      45.163  24.941  37.162  1.00  0.00    -0.200 F 
ATOM     96  F   UNL A   1      47.526  26.296  37.288  1.00  0.00    -0.200 F 
ENDBRANCH  63  86
ENDBRANCH  37  38
ENDBRANCH  30  32
ENDBRANCH  29  30
ENDBRANCH  28  29
ENDBRANCH   1  28
TORSDOF 14
ENDMDL
