MODEL 1
REMARK VINA RESULT:     -12.1      0.000      0.000
REMARK SMILES CC[C@@](C)(NC(=O)N1CCC[C@H]1C1CCCC1)C(=O)OCCOC(=O)c1ccc(-c2c3nc(c(-c4c(F)c(F)c(F)c(F)c4F)c4ccc([nH]4)c(-c4c(F)c(F)c(F)c(F)c4F)c4nc(c(-c5c(F)c(F)c(F)c(F)c5F)c5ccc2[nH]5)C=C4)C=C3)cc1
REMARK SMILES IDX 21 1 20 2 18 3 19 4 3 5 4 6 2 7 1 8 5 9 6 10 7 12 8 13 9 14
REMARK SMILES IDX 12 15 10 16 11 17 13 18 14 19 17 20 15 21 16 22 22 23 23 24
REMARK SMILES IDX 24 25 25 26 26 27 27 28 88 29 28 30 87 31 29 32 30 33 31 34
REMARK SMILES IDX 81 35 32 36 86 37 80 38 82 39 33 40 85 41 79 42 78 43 34 45
REMARK SMILES IDX 66 46 46 47 65 48 47 49 50 50 64 51 83 52 48 53 49 54 63 56
REMARK SMILES IDX 84 57 51 58 35 59 36 60 44 61 37 62 38 63 42 64 45 65 39 66
REMARK SMILES IDX 40 67 43 68 41 69 67 70 68 71 76 72 69 73 70 74 74 75 77 76
REMARK SMILES IDX 71 77 72 78 75 79 73 80 52 81 53 82 61 83 54 84 55 85 59 86
REMARK SMILES IDX 62 87 56 88 57 89 60 90 58 91
REMARK H PARENT 5 11 82 44 50 55
REMARK Flexibility Score: inf
ROOT
ATOM      1  C   UNL A   1      31.415  30.327  25.386  1.00  0.00     0.274 C 
ENDROOT
BRANCH   1   2
ATOM      2  O   UNL A   1      31.519  28.881  25.524  1.00  0.00    -0.460 OA
BRANCH   2   3
ATOM      3  C   UNL A   1      32.232  28.196  24.600  1.00  0.00     0.331 C 
ATOM      4  O   UNL A   1      33.452  28.340  24.531  1.00  0.00    -0.249 OA
BRANCH   3   5
ATOM      5  C   UNL A   1      31.404  27.320  23.525  1.00  0.00     0.136 C 
ATOM      6  C   UNL A   1      30.275  26.749  24.429  1.00  0.00     0.047 C 
BRANCH   5   7
ATOM      7  C   UNL A   1      30.764  28.291  22.472  1.00  0.00     0.037 C 
ATOM      8  C   UNL A   1      29.311  28.736  22.693  1.00  0.00     0.007 C 
ENDBRANCH   5   7
BRANCH   5   9
ATOM      9  N   UNL A   1      31.849  26.051  22.752  1.00  0.00    -0.322 N 
ATOM     10  C   UNL A   1      33.046  25.379  22.633  1.00  0.00     0.318 C 
ATOM     11  H   UNL A   1      31.121  25.638  22.234  1.00  0.00     0.166 HD
ATOM     12  O   UNL A   1      33.770  25.605  21.667  1.00  0.00    -0.249 OA
BRANCH  10  13
ATOM     13  N   UNL A   1      33.268  24.336  23.525  1.00  0.00    -0.322 N 
ATOM     14  C   UNL A   1      33.188  24.617  24.921  1.00  0.00     0.122 C 
ATOM     15  C   UNL A   1      34.349  23.348  23.322  1.00  0.00     0.090 C 
ATOM     16  C   UNL A   1      34.656  24.885  25.157  1.00  0.00     0.024 C 
ATOM     17  C   UNL A   1      35.367  23.773  24.407  1.00  0.00     0.027 C 
BRANCH  15  18
ATOM     18  C   UNL A   1      34.016  21.852  23.583  1.00  0.00     0.012 C 
ATOM     19  C   UNL A   1      34.371  21.264  24.952  1.00  0.00     0.006 C 
ATOM     20  C   UNL A   1      32.553  21.465  23.434  1.00  0.00     0.006 C 
ATOM     21  C   UNL A   1      33.711  19.901  24.942  1.00  0.00     0.000 C 
ATOM     22  C   UNL A   1      32.434  20.102  24.130  1.00  0.00     0.000 C 
ENDBRANCH  15  18
ENDBRANCH  10  13
ENDBRANCH   5   9
ENDBRANCH   3   5
ENDBRANCH   2   3
ENDBRANCH   1   2
BRANCH   1  23
ATOM     23  C   UNL A   1      31.628  31.119  26.696  1.00  0.00     0.275 C 
BRANCH  23  24
ATOM     24  O   UNL A   1      32.950  30.901  27.212  1.00  0.00    -0.458 OA
BRANCH  24  25
ATOM     25  C   UNL A   1      33.644  31.973  27.681  1.00  0.00     0.338 C 
ATOM     26  O   UNL A   1      33.230  33.104  27.832  1.00  0.00    -0.246 OA
BRANCH  25  27
ATOM     27  C   UNL A   1      35.036  31.541  27.992  1.00  0.00     0.060 A 
ATOM     28  C   UNL A   1      36.056  32.482  28.132  1.00  0.00     0.016 A 
ATOM     29  C   UNL A   1      35.331  30.190  28.176  1.00  0.00     0.016 A 
ATOM     30  C   UNL A   1      37.344  32.103  28.506  1.00  0.00     0.010 A 
ATOM     31  C   UNL A   1      36.600  29.815  28.640  1.00  0.00     0.010 A 
ATOM     32  C   UNL A   1      37.601  30.777  28.861  1.00  0.00    -0.014 A 
BRANCH  32  33
ATOM     33  C   UNL A   1      38.836  30.423  29.615  1.00  0.00     0.031 A 
ATOM     34  C   UNL A   1      39.816  29.429  29.071  1.00  0.00     0.074 A 
ATOM     35  C   UNL A   1      39.010  30.933  30.853  1.00  0.00     0.049 A 
ATOM     36  N   UNL A   1      40.778  28.792  29.689  1.00  0.00    -0.248 NA
ATOM     37  C   UNL A   1      39.690  29.098  27.645  1.00  0.00     0.031 C 
ATOM     38  C   UNL A   1      38.149  31.937  31.488  1.00  0.00     0.029 A 
ATOM     39  N   UNL A   1      39.947  30.652  31.819  1.00  0.00    -0.354 N 
ATOM     40  C   UNL A   1      41.346  27.951  28.740  1.00  0.00     0.074 A 
ATOM     41  C   UNL A   1      40.619  28.160  27.505  1.00  0.00     0.031 C 
ATOM     42  C   UNL A   1      38.590  32.181  32.728  1.00  0.00     0.029 A 
ATOM     43  C   UNL A   1      39.703  31.288  33.016  1.00  0.00     0.049 A 
ATOM     44  H   UNL A   1      40.717  30.058  31.670  1.00  0.00     0.167 HD
ATOM     45  C   UNL A   1      42.373  27.079  28.900  1.00  0.00     0.037 A 
ATOM     46  C   UNL A   1      40.261  31.126  34.229  1.00  0.00     0.037 A 
ATOM     47  C   UNL A   1      43.093  26.895  30.138  1.00  0.00     0.049 A 
ATOM     48  C   UNL A   1      41.352  30.108  34.395  1.00  0.00     0.074 A 
ATOM     49  C   UNL A   1      44.160  26.054  30.399  1.00  0.00     0.029 A 
ATOM     50  N   UNL A   1      42.812  27.560  31.324  1.00  0.00    -0.354 N 
ATOM     51  N   UNL A   1      41.873  29.302  33.502  1.00  0.00    -0.248 NA
ATOM     52  C   UNL A   1      41.928  29.968  35.739  1.00  0.00     0.031 C 
ATOM     53  C   UNL A   1      44.486  26.165  31.755  1.00  0.00     0.029 A 
ATOM     54  C   UNL A   1      43.670  27.127  32.326  1.00  0.00     0.049 A 
ATOM     55  H   UNL A   1      42.108  28.240  31.438  1.00  0.00     0.167 HD
ATOM     56  C   UNL A   1      42.854  28.581  34.165  1.00  0.00     0.074 A 
ATOM     57  C   UNL A   1      42.867  29.056  35.534  1.00  0.00     0.031 C 
ATOM     58  C   UNL A   1      43.672  27.614  33.682  1.00  0.00     0.037 A 
BRANCH  45  59
ATOM     59  C   UNL A   1      42.752  26.220  27.726  1.00  0.00     0.064 A 
ATOM     60  C   UNL A   1      42.137  24.983  27.476  1.00  0.00     0.173 A 
ATOM     61  C   UNL A   1      43.721  26.662  26.810  1.00  0.00     0.173 A 
ATOM     62  F   UNL A   1      41.208  24.508  28.319  1.00  0.00    -0.203 F 
ATOM     63  C   UNL A   1      42.499  24.211  26.373  1.00  0.00     0.198 A 
ATOM     64  C   UNL A   1      44.056  25.903  25.691  1.00  0.00     0.198 A 
ATOM     65  F   UNL A   1      44.335  27.841  26.992  1.00  0.00    -0.203 F 
ATOM     66  F   UNL A   1      41.932  23.011  26.182  1.00  0.00    -0.200 F 
ATOM     67  C   UNL A   1      43.452  24.674  25.479  1.00  0.00     0.200 A 
ATOM     68  F   UNL A   1      44.966  26.362  24.820  1.00  0.00    -0.200 F 
ATOM     69  F   UNL A   1      43.793  23.933  24.416  1.00  0.00    -0.200 F 
ENDBRANCH  45  59
BRANCH  46  70
ATOM     70  C   UNL A   1      39.766  31.920  35.386  1.00  0.00     0.064 A 
ATOM     71  C   UNL A   1      38.731  31.439  36.199  1.00  0.00     0.173 A 
ATOM     72  C   UNL A   1      40.324  33.166  35.712  1.00  0.00     0.173 A 
ATOM     73  F   UNL A   1      38.150  30.264  35.917  1.00  0.00    -0.203 F 
ATOM     74  C   UNL A   1      38.264  32.180  37.283  1.00  0.00     0.198 A 
ATOM     75  C   UNL A   1      39.879  33.890  36.817  1.00  0.00     0.198 A 
ATOM     76  F   UNL A   1      41.319  33.673  34.970  1.00  0.00    -0.203 F 
ATOM     77  F   UNL A   1      37.242  31.716  38.016  1.00  0.00    -0.200 F 
ATOM     78  C   UNL A   1      38.843  33.400  37.597  1.00  0.00     0.200 A 
ATOM     79  F   UNL A   1      40.456  35.058  37.127  1.00  0.00    -0.200 F 
ATOM     80  F   UNL A   1      38.400  34.105  38.647  1.00  0.00    -0.200 F 
ENDBRANCH  46  70
BRANCH  58  81
ATOM     81  C   UNL A   1      44.686  27.041  34.632  1.00  0.00     0.064 A 
ATOM     82  C   UNL A   1      44.427  25.889  35.389  1.00  0.00     0.173 A 
ATOM     83  C   UNL A   1      45.947  27.644  34.764  1.00  0.00     0.173 A 
ATOM     84  F   UNL A   1      43.230  25.287  35.313  1.00  0.00    -0.203 F 
ATOM     85  C   UNL A   1      45.382  25.379  36.264  1.00  0.00     0.198 A 
ATOM     86  C   UNL A   1      46.911  27.110  35.615  1.00  0.00     0.198 A 
ATOM     87  F   UNL A   1      46.248  28.746  34.062  1.00  0.00    -0.203 F 
ATOM     88  F   UNL A   1      45.091  24.311  37.020  1.00  0.00    -0.200 F 
ATOM     89  C   UNL A   1      46.625  25.984  36.371  1.00  0.00     0.200 A 
ATOM     90  F   UNL A   1      48.117  27.689  35.703  1.00  0.00    -0.200 F 
ATOM     91  F   UNL A   1      47.545  25.487  37.209  1.00  0.00    -0.200 F 
ENDBRANCH  58  81
ENDBRANCH  32  33
ENDBRANCH  25  27
ENDBRANCH  24  25
ENDBRANCH  23  24
ENDBRANCH   1  23
TORSDOF 15
ENDMDL
MODEL 2
REMARK VINA RESULT:     -12.0      1.139      2.363
REMARK SMILES CC[C@@](C)(NC(=O)N1CCC[C@H]1C1CCCC1)C(=O)OCCOC(=O)c1ccc(-c2c3nc(c(-c4c(F)c(F)c(F)c(F)c4F)c4ccc([nH]4)c(-c4c(F)c(F)c(F)c(F)c4F)c4nc(c(-c5c(F)c(F)c(F)c(F)c5F)c5ccc2[nH]5)C=C4)C=C3)cc1
REMARK SMILES IDX 21 1 20 2 18 3 19 4 3 5 4 6 2 7 1 8 5 9 6 10 7 12 8 13 9 14
REMARK SMILES IDX 12 15 10 16 11 17 13 18 14 19 17 20 15 21 16 22 22 23 23 24
REMARK SMILES IDX 24 25 25 26 26 27 27 28 88 29 28 30 87 31 29 32 30 33 31 34
REMARK SMILES IDX 81 35 32 36 86 37 80 38 82 39 33 40 85 41 79 42 78 43 34 45
REMARK SMILES IDX 66 46 46 47 65 48 47 49 50 50 64 51 83 52 48 53 49 54 63 56
REMARK SMILES IDX 84 57 51 58 35 59 36 60 44 61 37 62 38 63 42 64 45 65 39 66
REMARK SMILES IDX 40 67 43 68 41 69 67 70 68 71 76 72 69 73 70 74 74 75 77 76
REMARK SMILES IDX 71 77 72 78 75 79 73 80 52 81 53 82 61 83 54 84 55 85 59 86
REMARK SMILES IDX 62 87 56 88 57 89 60 90 58 91
REMARK H PARENT 5 11 82 44 50 55
REMARK Flexibility Score: inf
ROOT
ATOM      1  C   UNL A   1      31.621  29.625  25.387  1.00  0.00     0.274 C 
ENDROOT
BRANCH   1   2
ATOM      2  O   UNL A   1      32.286  28.434  25.897  1.00  0.00    -0.460 OA
BRANCH   2   3
ATOM      3  C   UNL A   1      31.536  27.497  26.524  1.00  0.00     0.331 C 
ATOM      4  O   UNL A   1      31.031  27.743  27.618  1.00  0.00    -0.249 OA
BRANCH   3   5
ATOM      5  C   UNL A   1      31.465  26.031  25.851  1.00  0.00     0.136 C 
ATOM      6  C   UNL A   1      29.928  25.873  25.670  1.00  0.00     0.047 C 
BRANCH   5   7
ATOM      7  C   UNL A   1      32.134  26.097  24.433  1.00  0.00     0.037 C 
ATOM      8  C   UNL A   1      31.226  25.965  23.201  1.00  0.00     0.007 C 
ENDBRANCH   5   7
BRANCH   5   9
ATOM      9  N   UNL A   1      31.845  24.657  26.462  1.00  0.00    -0.322 N 
ATOM     10  C   UNL A   1      31.850  23.368  25.977  1.00  0.00     0.318 C 
ATOM     11  H   UNL A   1      32.146  24.719  27.397  1.00  0.00     0.166 HD
ATOM     12  O   UNL A   1      30.891  22.634  26.205  1.00  0.00    -0.249 OA
BRANCH  10  13
ATOM     13  N   UNL A   1      33.039  22.914  25.418  1.00  0.00    -0.322 N 
ATOM     14  C   UNL A   1      33.113  22.795  23.999  1.00  0.00     0.122 C 
ATOM     15  C   UNL A   1      33.807  21.797  26.008  1.00  0.00     0.090 C 
ATOM     16  C   UNL A   1      32.727  21.338  23.899  1.00  0.00     0.024 C 
ATOM     17  C   UNL A   1      33.530  20.661  24.995  1.00  0.00     0.027 C 
BRANCH  15  18
ATOM     18  C   UNL A   1      35.351  21.950  26.095  1.00  0.00     0.012 C 
ATOM     19  C   UNL A   1      36.205  21.273  25.018  1.00  0.00     0.006 C 
ATOM     20  C   UNL A   1      35.876  23.378  26.071  1.00  0.00     0.006 C 
ATOM     21  C   UNL A   1      37.597  21.811  25.268  1.00  0.00     0.000 C 
ATOM     22  C   UNL A   1      37.372  23.242  25.750  1.00  0.00     0.000 C 
ENDBRANCH  15  18
ENDBRANCH  10  13
ENDBRANCH   5   9
ENDBRANCH   3   5
ENDBRANCH   2   3
ENDBRANCH   1   2
BRANCH   1  23
ATOM     23  C   UNL A   1      31.716  30.863  26.307  1.00  0.00     0.275 C 
BRANCH  23  24
ATOM     24  O   UNL A   1      32.791  30.714  27.248  1.00  0.00    -0.458 OA
BRANCH  24  25
ATOM     25  C   UNL A   1      33.508  31.820  27.586  1.00  0.00     0.338 C 
ATOM     26  O   UNL A   1      33.111  32.966  27.629  1.00  0.00    -0.246 OA
BRANCH  25  27
ATOM     27  C   UNL A   1      34.903  31.404  27.907  1.00  0.00     0.060 A 
ATOM     28  C   UNL A   1      35.911  32.357  28.057  1.00  0.00     0.016 A 
ATOM     29  C   UNL A   1      35.213  30.056  28.089  1.00  0.00     0.016 A 
ATOM     30  C   UNL A   1      37.200  31.992  28.439  1.00  0.00     0.010 A 
ATOM     31  C   UNL A   1      36.483  29.694  28.562  1.00  0.00     0.010 A 
ATOM     32  C   UNL A   1      37.470  30.669  28.793  1.00  0.00    -0.014 A 
BRANCH  32  33
ATOM     33  C   UNL A   1      38.703  30.327  29.555  1.00  0.00     0.031 A 
ATOM     34  C   UNL A   1      39.695  29.340  29.020  1.00  0.00     0.074 A 
ATOM     35  C   UNL A   1      38.865  30.841  30.793  1.00  0.00     0.049 A 
ATOM     36  N   UNL A   1      40.660  28.713  29.645  1.00  0.00    -0.248 NA
ATOM     37  C   UNL A   1      39.581  29.005  27.594  1.00  0.00     0.031 C 
ATOM     38  C   UNL A   1      37.992  31.839  31.420  1.00  0.00     0.029 A 
ATOM     39  N   UNL A   1      39.799  30.571  31.766  1.00  0.00    -0.354 N 
ATOM     40  C   UNL A   1      41.240  27.875  28.702  1.00  0.00     0.074 A 
ATOM     41  C   UNL A   1      40.519  28.075  27.462  1.00  0.00     0.031 C 
ATOM     42  C   UNL A   1      38.423  32.090  32.663  1.00  0.00     0.029 A 
ATOM     43  C   UNL A   1      39.542  31.207  32.959  1.00  0.00     0.049 A 
ATOM     44  H   UNL A   1      40.575  29.983  31.623  1.00  0.00     0.167 HD
ATOM     45  C   UNL A   1      42.275  27.012  28.870  1.00  0.00     0.037 A 
ATOM     46  C   UNL A   1      40.094  31.053  34.176  1.00  0.00     0.037 A 
ATOM     47  C   UNL A   1      42.988  26.837  30.113  1.00  0.00     0.049 A 
ATOM     48  C   UNL A   1      41.193  30.045  34.352  1.00  0.00     0.074 A 
ATOM     49  C   UNL A   1      44.061  26.007  30.383  1.00  0.00     0.029 A 
ATOM     50  N   UNL A   1      42.694  27.503  31.296  1.00  0.00    -0.354 N 
ATOM     51  N   UNL A   1      41.726  29.242  33.463  1.00  0.00    -0.248 NA
ATOM     52  C   UNL A   1      41.761  29.913  35.699  1.00  0.00     0.031 C 
ATOM     53  C   UNL A   1      44.378  26.124  31.740  1.00  0.00     0.029 A 
ATOM     54  C   UNL A   1      43.549  27.080  32.304  1.00  0.00     0.049 A 
ATOM     55  H   UNL A   1      41.984  28.177  31.404  1.00  0.00     0.167 HD
ATOM     56  C   UNL A   1      42.709  28.531  34.134  1.00  0.00     0.074 A 
ATOM     57  C   UNL A   1      42.709  29.009  35.502  1.00  0.00     0.031 C 
ATOM     58  C   UNL A   1      43.539  27.570  33.659  1.00  0.00     0.037 A 
BRANCH  45  59
ATOM     59  C   UNL A   1      42.668  26.154  27.701  1.00  0.00     0.064 A 
ATOM     60  C   UNL A   1      42.026  24.938  27.416  1.00  0.00     0.173 A 
ATOM     61  C   UNL A   1      43.680  26.576  26.823  1.00  0.00     0.173 A 
ATOM     62  F   UNL A   1      41.056  24.482  28.223  1.00  0.00    -0.203 F 
ATOM     63  C   UNL A   1      42.403  24.166  26.319  1.00  0.00     0.198 A 
ATOM     64  C   UNL A   1      44.031  25.818  25.708  1.00  0.00     0.198 A 
ATOM     65  F   UNL A   1      44.322  27.735  27.038  1.00  0.00    -0.203 F 
ATOM     66  F   UNL A   1      41.809  22.985  26.096  1.00  0.00    -0.200 F 
ATOM     67  C   UNL A   1      43.400  24.610  25.463  1.00  0.00     0.200 A 
ATOM     68  F   UNL A   1      44.983  26.259  24.873  1.00  0.00    -0.200 F 
ATOM     69  F   UNL A   1      43.755  23.870  24.403  1.00  0.00    -0.200 F 
ENDBRANCH  45  59
BRANCH  46  70
ATOM     70  C   UNL A   1      39.585  31.845  35.328  1.00  0.00     0.064 A 
ATOM     71  C   UNL A   1      40.044  33.148  35.566  1.00  0.00     0.173 A 
ATOM     72  C   UNL A   1      38.621  31.325  36.207  1.00  0.00     0.173 A 
ATOM     73  F   UNL A   1      40.980  33.683  34.769  1.00  0.00    -0.203 F 
ATOM     74  C   UNL A   1      39.571  33.892  36.645  1.00  0.00     0.198 A 
ATOM     75  C   UNL A   1      38.123  32.083  37.264  1.00  0.00     0.198 A 
ATOM     76  F   UNL A   1      38.144  30.085  36.024  1.00  0.00    -0.203 F 
ATOM     77  F   UNL A   1      40.061  35.118  36.875  1.00  0.00    -0.200 F 
ATOM     78  C   UNL A   1      38.605  33.364  37.488  1.00  0.00     0.200 A 
ATOM     79  F   UNL A   1      37.176  31.575  38.064  1.00  0.00    -0.200 F 
ATOM     80  F   UNL A   1      38.142  34.086  38.518  1.00  0.00    -0.200 F 
ENDBRANCH  46  70
BRANCH  58  81
ATOM     81  C   UNL A   1      44.552  27.009  34.616  1.00  0.00     0.064 A 
ATOM     82  C   UNL A   1      45.805  27.610  34.809  1.00  0.00     0.173 A 
ATOM     83  C   UNL A   1      44.250  25.864  35.372  1.00  0.00     0.173 A 
ATOM     84  F   UNL A   1      46.150  28.693  34.097  1.00  0.00    -0.203 F 
ATOM     85  C   UNL A   1      46.728  27.069  35.700  1.00  0.00     0.198 A 
ATOM     86  C   UNL A   1      45.162  25.348  36.287  1.00  0.00     0.198 A 
ATOM     87  F   UNL A   1      43.065  25.253  35.229  1.00  0.00    -0.203 F 
ATOM     88  F   UNL A   1      47.941  27.626  35.825  1.00  0.00    -0.200 F 
ATOM     89  C   UNL A   1      46.404  25.944  36.444  1.00  0.00     0.200 A 
ATOM     90  F   UNL A   1      44.839  24.270  37.016  1.00  0.00    -0.200 F 
ATOM     91  F   UNL A   1      47.291  25.430  37.306  1.00  0.00    -0.200 F 
ENDBRANCH  58  81
ENDBRANCH  32  33
ENDBRANCH  25  27
ENDBRANCH  24  25
ENDBRANCH  23  24
ENDBRANCH   1  23
TORSDOF 15
ENDMDL
MODEL 3
REMARK VINA RESULT:     -12.0      4.350      9.971
REMARK SMILES CC[C@@](C)(NC(=O)N1CCC[C@H]1C1CCCC1)C(=O)OCCOC(=O)c1ccc(-c2c3nc(c(-c4c(F)c(F)c(F)c(F)c4F)c4ccc([nH]4)c(-c4c(F)c(F)c(F)c(F)c4F)c4nc(c(-c5c(F)c(F)c(F)c(F)c5F)c5ccc2[nH]5)C=C4)C=C3)cc1
REMARK SMILES IDX 21 1 20 2 18 3 19 4 3 5 4 6 2 7 1 8 5 9 6 10 7 12 8 13 9 14
REMARK SMILES IDX 12 15 10 16 11 17 13 18 14 19 17 20 15 21 16 22 22 23 23 24
REMARK SMILES IDX 24 25 25 26 26 27 27 28 88 29 28 30 87 31 29 32 30 33 31 34
REMARK SMILES IDX 81 35 32 36 86 37 80 38 82 39 33 40 85 41 79 42 78 43 34 45
REMARK SMILES IDX 66 46 46 47 65 48 47 49 50 50 64 51 83 52 48 53 49 54 63 56
REMARK SMILES IDX 84 57 51 58 35 59 36 60 44 61 37 62 38 63 42 64 45 65 39 66
REMARK SMILES IDX 40 67 43 68 41 69 67 70 68 71 76 72 69 73 70 74 74 75 77 76
REMARK SMILES IDX 71 77 72 78 75 79 73 80 52 81 53 82 61 83 54 84 55 85 59 86
REMARK SMILES IDX 62 87 56 88 57 89 60 90 58 91
REMARK H PARENT 5 11 82 44 50 55
REMARK Flexibility Score: inf
ROOT
ATOM      1  C   UNL A   1      36.168  20.498  24.953  1.00  0.00     0.274 C 
ENDROOT
BRANCH   1   2
ATOM      2  O   UNL A   1      35.427  21.734  24.745  1.00  0.00    -0.460 OA
BRANCH   2   3
ATOM      3  C   UNL A   1      34.450  22.055  25.625  1.00  0.00     0.331 C 
ATOM      4  O   UNL A   1      34.722  22.225  26.812  1.00  0.00    -0.249 OA
BRANCH   3   5
ATOM      5  C   UNL A   1      32.930  22.055  25.079  1.00  0.00     0.136 C 
ATOM      6  C   UNL A   1      33.175  22.186  23.549  1.00  0.00     0.047 C 
BRANCH   5   7
ATOM      7  C   UNL A   1      32.293  20.651  25.368  1.00  0.00     0.037 C 
ATOM      8  C   UNL A   1      32.694  19.478  24.463  1.00  0.00     0.007 C 
ENDBRANCH   5   7
BRANCH   5   9
ATOM      9  N   UNL A   1      31.814  23.109  25.302  1.00  0.00    -0.322 N 
ATOM     10  C   UNL A   1      31.755  24.301  25.989  1.00  0.00     0.318 C 
ATOM     11  H   UNL A   1      30.967  22.876  24.858  1.00  0.00     0.166 HD
ATOM     12  O   UNL A   1      31.295  24.317  27.129  1.00  0.00    -0.249 OA
BRANCH  10  13
ATOM     13  N   UNL A   1      32.043  25.455  25.268  1.00  0.00    -0.322 N 
ATOM     14  C   UNL A   1      33.406  25.728  24.956  1.00  0.00     0.122 C 
ATOM     15  C   UNL A   1      31.373  26.743  25.549  1.00  0.00     0.090 C 
ATOM     16  C   UNL A   1      33.710  26.616  26.139  1.00  0.00     0.024 C 
ATOM     17  C   UNL A   1      32.509  27.540  26.235  1.00  0.00     0.027 C 
BRANCH  15  18
ATOM     18  C   UNL A   1      30.904  27.591  24.334  1.00  0.00     0.012 C 
ATOM     19  C   UNL A   1      29.455  27.436  23.864  1.00  0.00     0.006 C 
ATOM     20  C   UNL A   1      31.033  29.098  24.491  1.00  0.00     0.006 C 
ATOM     21  C   UNL A   1      29.283  28.547  22.850  1.00  0.00     0.000 C 
ATOM     22  C   UNL A   1      30.148  29.687  23.383  1.00  0.00     0.000 C 
ENDBRANCH  15  18
ENDBRANCH  10  13
ENDBRANCH   5   9
ENDBRANCH   3   5
ENDBRANCH   2   3
ENDBRANCH   1   2
BRANCH   1  23
ATOM     23  C   UNL A   1      37.685  20.599  24.676  1.00  0.00     0.275 C 
BRANCH  23  24
ATOM     24  O   UNL A   1      38.270  21.667  25.436  1.00  0.00    -0.458 OA
BRANCH  24  25
ATOM     25  C   UNL A   1      39.434  21.425  26.098  1.00  0.00     0.338 C 
ATOM     26  O   UNL A   1      40.061  20.387  26.120  1.00  0.00    -0.246 OA
BRANCH  25  27
ATOM     27  C   UNL A   1      39.840  22.665  26.819  1.00  0.00     0.060 A 
ATOM     28  C   UNL A   1      40.846  22.628  27.784  1.00  0.00     0.016 A 
ATOM     29  C   UNL A   1      39.236  23.886  26.517  1.00  0.00     0.016 A 
ATOM     30  C   UNL A   1      41.296  23.791  28.405  1.00  0.00     0.010 A 
ATOM     31  C   UNL A   1      39.748  25.068  27.072  1.00  0.00     0.010 A 
ATOM     32  C   UNL A   1      40.819  25.033  27.982  1.00  0.00    -0.014 A 
BRANCH  32  33
ATOM     33  C   UNL A   1      41.541  26.283  28.346  1.00  0.00     0.031 A 
ATOM     34  C   UNL A   1      40.839  27.406  29.047  1.00  0.00     0.074 A 
ATOM     35  C   UNL A   1      42.820  26.438  27.939  1.00  0.00     0.049 A 
ATOM     36  N   UNL A   1      41.209  28.653  29.191  1.00  0.00    -0.248 NA
ATOM     37  C   UNL A   1      39.542  27.086  29.659  1.00  0.00     0.031 C 
ATOM     38  C   UNL A   1      43.632  25.411  27.279  1.00  0.00     0.029 A 
ATOM     39  N   UNL A   1      43.654  27.530  27.986  1.00  0.00    -0.354 N 
ATOM     40  C   UNL A   1      40.172  29.280  29.869  1.00  0.00     0.074 A 
ATOM     41  C   UNL A   1      39.158  28.274  30.109  1.00  0.00     0.031 C 
ATOM     42  C   UNL A   1      44.834  25.918  26.978  1.00  0.00     0.029 A 
ATOM     43  C   UNL A   1      44.850  27.330  27.336  1.00  0.00     0.049 A 
ATOM     44  H   UNL A   1      43.420  28.370  28.441  1.00  0.00     0.167 HD
ATOM     45  C   UNL A   1      40.080  30.582  30.244  1.00  0.00     0.037 A 
ATOM     46  C   UNL A   1      45.826  28.193  27.000  1.00  0.00     0.037 A 
ATOM     47  C   UNL A   1      41.109  31.566  30.006  1.00  0.00     0.049 A 
ATOM     48  C   UNL A   1      45.671  29.640  27.367  1.00  0.00     0.074 A 
ATOM     49  C   UNL A   1      41.124  32.903  30.362  1.00  0.00     0.029 A 
ATOM     50  N   UNL A   1      42.305  31.318  29.344  1.00  0.00    -0.354 N 
ATOM     51  N   UNL A   1      44.682  30.232  27.992  1.00  0.00    -0.248 NA
ATOM     52  C   UNL A   1      46.762  30.542  26.977  1.00  0.00     0.031 C 
ATOM     53  C   UNL A   1      42.299  33.478  29.865  1.00  0.00     0.029 A 
ATOM     54  C   UNL A   1      43.051  32.485  29.259  1.00  0.00     0.049 A 
ATOM     55  H   UNL A   1      42.583  30.443  28.988  1.00  0.00     0.167 HD
ATOM     56  C   UNL A   1      45.042  31.567  28.094  1.00  0.00     0.074 A 
ATOM     57  C   UNL A   1      46.348  31.695  27.481  1.00  0.00     0.031 C 
ATOM     58  C   UNL A   1      44.353  32.595  28.649  1.00  0.00     0.037 A 
BRANCH  45  59
ATOM     59  C   UNL A   1      38.808  31.033  30.905  1.00  0.00     0.064 A 
ATOM     60  C   UNL A   1      37.694  31.462  30.167  1.00  0.00     0.173 A 
ATOM     61  C   UNL A   1      38.687  30.995  32.304  1.00  0.00     0.173 A 
ATOM     62  F   UNL A   1      37.753  31.523  28.829  1.00  0.00    -0.203 F 
ATOM     63  C   UNL A   1      36.522  31.865  30.805  1.00  0.00     0.198 A 
ATOM     64  C   UNL A   1      37.503  31.367  32.936  1.00  0.00     0.198 A 
ATOM     65  F   UNL A   1      39.716  30.584  33.061  1.00  0.00    -0.203 F 
ATOM     66  F   UNL A   1      35.488  32.317  30.081  1.00  0.00    -0.200 F 
ATOM     67  C   UNL A   1      36.425  31.810  32.187  1.00  0.00     0.200 A 
ATOM     68  F   UNL A   1      37.408  31.296  34.271  1.00  0.00    -0.200 F 
ATOM     69  F   UNL A   1      35.295  32.190  32.798  1.00  0.00    -0.200 F 
ENDBRANCH  45  59
BRANCH  46  70
ATOM     70  C   UNL A   1      47.012  27.714  26.239  1.00  0.00     0.064 A 
ATOM     71  C   UNL A   1      48.150  27.239  26.904  1.00  0.00     0.173 A 
ATOM     72  C   UNL A   1      47.029  27.708  24.835  1.00  0.00     0.173 A 
ATOM     73  F   UNL A   1      48.193  27.244  28.244  1.00  0.00    -0.203 F 
ATOM     74  C   UNL A   1      49.263  26.791  26.195  1.00  0.00     0.198 A 
ATOM     75  C   UNL A   1      48.129  27.228  24.128  1.00  0.00     0.198 A 
ATOM     76  F   UNL A   1      45.965  28.149  24.147  1.00  0.00    -0.203 F 
ATOM     77  F   UNL A   1      50.356  26.385  26.857  1.00  0.00    -0.200 F 
ATOM     78  C   UNL A   1      49.249  26.777  24.809  1.00  0.00     0.200 A 
ATOM     79  F   UNL A   1      48.102  27.198  22.789  1.00  0.00    -0.200 F 
ATOM     80  F   UNL A   1      50.316  26.335  24.129  1.00  0.00    -0.200 F 
ENDBRANCH  46  70
BRANCH  58  81
ATOM     81  C   UNL A   1      45.024  33.939  28.662  1.00  0.00     0.064 A 
ATOM     82  C   UNL A   1      45.906  34.318  29.685  1.00  0.00     0.173 A 
ATOM     83  C   UNL A   1      44.799  34.850  27.618  1.00  0.00     0.173 A 
ATOM     84  F   UNL A   1      46.139  33.492  30.716  1.00  0.00    -0.203 F 
ATOM     85  C   UNL A   1      46.514  35.571  29.677  1.00  0.00     0.198 A 
ATOM     86  C   UNL A   1      45.436  36.087  27.596  1.00  0.00     0.198 A 
ATOM     87  F   UNL A   1      43.967  34.536  26.614  1.00  0.00    -0.203 F 
ATOM     88  F   UNL A   1      47.307  35.935  30.694  1.00  0.00    -0.200 F 
ATOM     89  C   UNL A   1      46.285  36.451  28.629  1.00  0.00     0.200 A 
ATOM     90  F   UNL A   1      45.225  36.928  26.574  1.00  0.00    -0.200 F 
ATOM     91  F   UNL A   1      46.877  37.653  28.620  1.00  0.00    -0.200 F 
ENDBRANCH  58  81
ENDBRANCH  32  33
ENDBRANCH  25  27
ENDBRANCH  24  25
ENDBRANCH  23  24
ENDBRANCH   1  23
TORSDOF 15
ENDMDL
