MODEL 1
REMARK VINA RESULT:     -12.1      0.000      0.000
REMARK SMILES CN1C(=O)/C(=C/c2ccc(OCC(=O)OCCOC(=O)c3ccc(-c4c5nc(c(-c6c(F)c(F)c(F)c(F)c6F)c6ccc([nH]6)c(-c6c(F)c(F)c(F)c(F)c6F)c6nc(c(-c7c(F)c(F)c(F)c(F)c7F)c7ccc4[nH]7)C=C6)C=C5)cc3)c(Br)c2)C(=O)NC1=S
REMARK SMILES IDX 16 1 15 2 13 3 14 4 12 5 11 6 10 7 7 8 8 9 86 10 9 11 84 12
REMARK SMILES IDX 85 13 6 14 1 15 2 16 3 17 90 18 4 19 5 20 89 21 91 22 87 23
REMARK SMILES IDX 88 25 17 26 18 27 19 28 20 29 21 30 22 31 83 32 23 33 82 34
REMARK SMILES IDX 24 35 25 36 26 37 76 38 27 39 81 40 75 41 77 42 28 43 80 44
REMARK SMILES IDX 74 45 73 46 29 48 61 49 41 50 60 51 42 52 45 53 59 54 78 55
REMARK SMILES IDX 43 56 44 57 58 59 79 60 46 61 30 62 31 63 39 64 32 65 33 66
REMARK SMILES IDX 37 67 40 68 34 69 35 70 38 71 36 72 62 73 63 74 71 75 64 76
REMARK SMILES IDX 65 77 69 78 72 79 66 80 67 81 70 82 68 83 47 84 48 85 56 86
REMARK SMILES IDX 49 87 50 88 54 89 57 90 51 91 52 92 55 93 53 94
REMARK H PARENT 89 24 77 47 45 58
REMARK Flexibility Score: inf
ROOT
ATOM      1  C   UNL A   1      42.141  18.904  26.129  1.00  0.00     0.274 C 
ENDROOT
BRANCH   1   2
ATOM      2  O   UNL A   1      42.141  19.676  27.347  1.00  0.00    -0.460 OA
BRANCH   2   3
ATOM      3  C   UNL A   1      41.998  21.017  27.178  1.00  0.00     0.344 C 
ATOM      4  O   UNL A   1      42.677  21.870  27.744  1.00  0.00    -0.248 OA
BRANCH   3   5
ATOM      5  C   UNL A   1      40.838  21.391  26.259  1.00  0.00     0.352 C 
BRANCH   5   6
ATOM      6  O   UNL A   1      39.481  21.232  26.627  1.00  0.00    -0.481 OA
BRANCH   6   7
ATOM      7  C   UNL A   1      38.538  21.875  25.874  1.00  0.00     0.134 A 
ATOM      8  C   UNL A   1      36.421  22.863  24.295  1.00  0.00    -0.023 A 
ATOM      9  C   UNL A   1      36.709  21.500  24.301  1.00  0.00     0.012 A 
ATOM     10  C   UNL A   1      37.186  23.725  25.091  1.00  0.00     0.027 A 
ATOM     11  C   UNL A   1      37.763  21.016  25.083  1.00  0.00     0.048 A 
ATOM     12  C   UNL A   1      38.198  23.231  25.924  1.00  0.00     0.060 A 
ATOM     13  Br  UNL A   1      38.871  24.462  27.204  1.00  0.00    -0.047 Br
BRANCH   8  14
ATOM     14  C   UNL A   1      35.340  23.408  23.466  1.00  0.00     0.027 C 
ATOM     15  C   UNL A   1      31.534  26.211  22.737  1.00  0.00     0.156 C 
ATOM     16  N   UNL A   1      32.218  25.232  23.583  1.00  0.00    -0.288 N 
ATOM     17  C   UNL A   1      33.247  24.512  22.969  1.00  0.00     0.265 C 
ATOM     18  C   UNL A   1      31.801  25.018  24.891  1.00  0.00     0.182 C 
ATOM     19  O   UNL A   1      33.484  24.561  21.763  1.00  0.00    -0.268 OA
ATOM     20  C   UNL A   1      34.091  23.702  23.884  1.00  0.00     0.106 C 
ATOM     21  N   UNL A   1      32.484  24.077  25.610  1.00  0.00    -0.298 N 
ATOM     22  S   UNL A   1      30.535  25.786  25.675  1.00  0.00    -0.040 S 
ATOM     23  C   UNL A   1      33.572  23.352  25.222  1.00  0.00     0.263 C 
ATOM     24  H   UNL A   1      32.150  23.902  26.520  1.00  0.00     0.172 HD
ATOM     25  O   UNL A   1      34.037  22.488  25.952  1.00  0.00    -0.269 OA
ENDBRANCH   8  14
ENDBRANCH   6   7
ENDBRANCH   5   6
ENDBRANCH   3   5
ENDBRANCH   2   3
ENDBRANCH   1   2
BRANCH   1  26
ATOM     26  C   UNL A   1      43.552  18.467  25.743  1.00  0.00     0.275 C 
BRANCH  26  27
ATOM     27  O   UNL A   1      43.809  18.784  24.363  1.00  0.00    -0.458 OA
BRANCH  27  28
ATOM     28  C   UNL A   1      44.993  19.382  24.112  1.00  0.00     0.338 C 
ATOM     29  O   UNL A   1      45.995  18.874  23.628  1.00  0.00    -0.246 OA
BRANCH  28  30
ATOM     30  C   UNL A   1      44.961  20.788  24.553  1.00  0.00     0.060 A 
ATOM     31  C   UNL A   1      44.420  21.790  23.747  1.00  0.00     0.016 A 
ATOM     32  C   UNL A   1      45.582  21.119  25.759  1.00  0.00     0.016 A 
ATOM     33  C   UNL A   1      44.568  23.131  24.113  1.00  0.00     0.010 A 
ATOM     34  C   UNL A   1      45.661  22.455  26.158  1.00  0.00     0.010 A 
ATOM     35  C   UNL A   1      45.186  23.481  25.324  1.00  0.00    -0.014 A 
BRANCH  35  36
ATOM     36  C   UNL A   1      45.354  24.906  25.724  1.00  0.00     0.031 A 
ATOM     37  C   UNL A   1      46.693  25.584  25.586  1.00  0.00     0.074 A 
ATOM     38  C   UNL A   1      44.317  25.593  26.242  1.00  0.00     0.049 A 
ATOM     39  N   UNL A   1      47.086  26.743  26.055  1.00  0.00    -0.248 NA
ATOM     40  C   UNL A   1      47.732  24.863  24.831  1.00  0.00     0.031 C 
ATOM     41  C   UNL A   1      42.958  25.076  26.412  1.00  0.00     0.029 A 
ATOM     42  N   UNL A   1      44.246  26.876  26.731  1.00  0.00    -0.354 N 
ATOM     43  C   UNL A   1      48.423  26.865  25.699  1.00  0.00     0.074 A 
ATOM     44  C   UNL A   1      48.778  25.668  24.966  1.00  0.00     0.031 C 
ATOM     45  C   UNL A   1      42.186  26.033  26.946  1.00  0.00     0.029 A 
ATOM     46  C   UNL A   1      43.009  27.207  27.226  1.00  0.00     0.049 A 
ATOM     47  H   UNL A   1      45.009  27.498  26.725  1.00  0.00     0.167 HD
ATOM     48  C   UNL A   1      49.275  27.882  25.966  1.00  0.00     0.037 A 
ATOM     49  C   UNL A   1      42.587  28.310  27.874  1.00  0.00     0.037 A 
ATOM     50  C   UNL A   1      48.913  29.104  26.637  1.00  0.00     0.049 A 
ATOM     51  C   UNL A   1      43.556  29.424  28.152  1.00  0.00     0.074 A 
ATOM     52  C   UNL A   1      49.710  30.202  26.914  1.00  0.00     0.029 A 
ATOM     53  N   UNL A   1      47.648  29.396  27.119  1.00  0.00    -0.354 N 
ATOM     54  N   UNL A   1      44.827  29.508  27.847  1.00  0.00    -0.248 NA
ATOM     55  C   UNL A   1      43.033  30.590  28.878  1.00  0.00     0.031 C 
ATOM     56  C   UNL A   1      48.933  31.151  27.585  1.00  0.00     0.029 A 
ATOM     57  C   UNL A   1      47.645  30.656  27.697  1.00  0.00     0.049 A 
ATOM     58  H   UNL A   1      46.868  28.799  27.060  1.00  0.00     0.167 HD
ATOM     59  C   UNL A   1      45.254  30.736  28.332  1.00  0.00     0.074 A 
ATOM     60  C   UNL A   1      44.102  31.374  28.934  1.00  0.00     0.031 C 
ATOM     61  C   UNL A   1      46.492  31.283  28.289  1.00  0.00     0.037 A 
BRANCH  48  62
ATOM     62  C   UNL A   1      50.707  27.734  25.551  1.00  0.00     0.064 A 
ATOM     63  C   UNL A   1      51.694  27.320  26.456  1.00  0.00     0.173 A 
ATOM     64  C   UNL A   1      51.067  27.888  24.204  1.00  0.00     0.173 A 
ATOM     65  F   UNL A   1      51.398  27.172  27.755  1.00  0.00    -0.203 F 
ATOM     66  C   UNL A   1      52.990  27.053  26.021  1.00  0.00     0.198 A 
ATOM     67  C   UNL A   1      52.363  27.618  23.774  1.00  0.00     0.198 A 
ATOM     68  F   UNL A   1      50.152  28.270  23.300  1.00  0.00    -0.203 F 
ATOM     69  F   UNL A   1      53.915  26.636  26.898  1.00  0.00    -0.200 F 
ATOM     70  C   UNL A   1      53.323  27.199  24.682  1.00  0.00     0.200 A 
ATOM     71  F   UNL A   1      52.677  27.744  22.477  1.00  0.00    -0.200 F 
ATOM     72  F   UNL A   1      54.567  26.929  24.264  1.00  0.00    -0.200 F 
ENDBRANCH  48  62
BRANCH  49  73
ATOM     73  C   UNL A   1      41.177  28.397  28.335  1.00  0.00     0.064 A 
ATOM     74  C   UNL A   1      40.809  27.959  29.613  1.00  0.00     0.173 A 
ATOM     75  C   UNL A   1      40.175  28.924  27.507  1.00  0.00     0.173 A 
ATOM     76  F   UNL A   1      41.728  27.422  30.428  1.00  0.00    -0.203 F 
ATOM     77  C   UNL A   1      39.486  28.039  30.045  1.00  0.00     0.198 A 
ATOM     78  C   UNL A   1      38.860  29.030  27.951  1.00  0.00     0.198 A 
ATOM     79  F   UNL A   1      40.478  29.353  26.275  1.00  0.00    -0.203 F 
ATOM     80  F   UNL A   1      39.152  27.577  31.258  1.00  0.00    -0.200 F 
ATOM     81  C   UNL A   1      38.515  28.582  29.217  1.00  0.00     0.200 A 
ATOM     82  F   UNL A   1      37.927  29.567  27.153  1.00  0.00    -0.200 F 
ATOM     83  F   UNL A   1      37.245  28.667  29.638  1.00  0.00    -0.200 F 
ENDBRANCH  49  73
BRANCH  61  84
ATOM     84  C   UNL A   1      46.661  32.647  28.886  1.00  0.00     0.064 A 
ATOM     85  C   UNL A   1      46.446  33.807  28.130  1.00  0.00     0.173 A 
ATOM     86  C   UNL A   1      47.016  32.794  30.235  1.00  0.00     0.173 A 
ATOM     87  F   UNL A   1      46.119  33.717  26.832  1.00  0.00    -0.203 F 
ATOM     88  C   UNL A   1      46.604  35.070  28.698  1.00  0.00     0.198 A 
ATOM     89  C   UNL A   1      47.150  34.055  30.806  1.00  0.00     0.198 A 
ATOM     90  F   UNL A   1      47.226  31.713  31.000  1.00  0.00    -0.203 F 
ATOM     91  F   UNL A   1      46.435  36.166  27.947  1.00  0.00    -0.200 F 
ATOM     92  C   UNL A   1      46.950  35.193  30.035  1.00  0.00     0.200 A 
ATOM     93  F   UNL A   1      47.476  34.174  32.100  1.00  0.00    -0.200 F 
ATOM     94  F   UNL A   1      47.102  36.407  30.580  1.00  0.00    -0.200 F 
ENDBRANCH  61  84
ENDBRANCH  35  36
ENDBRANCH  28  30
ENDBRANCH  27  28
ENDBRANCH  26  27
ENDBRANCH   1  26
TORSDOF 14
ENDMDL
MODEL 2
REMARK VINA RESULT:     -12.0      4.984      9.598
REMARK SMILES CN1C(=O)/C(=C/c2ccc(OCC(=O)OCCOC(=O)c3ccc(-c4c5nc(c(-c6c(F)c(F)c(F)c(F)c6F)c6ccc([nH]6)c(-c6c(F)c(F)c(F)c(F)c6F)c6nc(c(-c7c(F)c(F)c(F)c(F)c7F)c7ccc4[nH]7)C=C6)C=C5)cc3)c(Br)c2)C(=O)NC1=S
REMARK SMILES IDX 16 1 15 2 13 3 14 4 12 5 11 6 10 7 7 8 8 9 86 10 9 11 84 12
REMARK SMILES IDX 85 13 6 14 1 15 2 16 3 17 90 18 4 19 5 20 89 21 91 22 87 23
REMARK SMILES IDX 88 25 17 26 18 27 19 28 20 29 21 30 22 31 83 32 23 33 82 34
REMARK SMILES IDX 24 35 25 36 26 37 76 38 27 39 81 40 75 41 77 42 28 43 80 44
REMARK SMILES IDX 74 45 73 46 29 48 61 49 41 50 60 51 42 52 45 53 59 54 78 55
REMARK SMILES IDX 43 56 44 57 58 59 79 60 46 61 30 62 31 63 39 64 32 65 33 66
REMARK SMILES IDX 37 67 40 68 34 69 35 70 38 71 36 72 62 73 63 74 71 75 64 76
REMARK SMILES IDX 65 77 69 78 72 79 66 80 67 81 70 82 68 83 47 84 48 85 56 86
REMARK SMILES IDX 49 87 50 88 54 89 57 90 51 91 52 92 55 93 53 94
REMARK H PARENT 89 24 77 47 45 58
REMARK Flexibility Score: inf
ROOT
ATOM      1  C   UNL A   1      44.392  21.749  25.301  1.00  0.00     0.274 C 
ENDROOT
BRANCH   1   2
ATOM      2  O   UNL A   1      43.014  21.448  24.999  1.00  0.00    -0.460 OA
BRANCH   2   3
ATOM      3  C   UNL A   1      42.301  20.922  26.030  1.00  0.00     0.344 C 
ATOM      4  O   UNL A   1      42.352  19.749  26.390  1.00  0.00    -0.248 OA
BRANCH   3   5
ATOM      5  C   UNL A   1      41.343  21.920  26.676  1.00  0.00     0.352 C 
BRANCH   5   6
ATOM      6  O   UNL A   1      40.008  21.597  27.017  1.00  0.00    -0.481 OA
BRANCH   6   7
ATOM      7  C   UNL A   1      39.014  22.047  26.193  1.00  0.00     0.134 A 
ATOM      8  C   UNL A   1      36.843  22.613  24.485  1.00  0.00    -0.023 A 
ATOM      9  C   UNL A   1      37.320  21.310  24.596  1.00  0.00     0.012 A 
ATOM     10  C   UNL A   1      37.445  23.627  25.242  1.00  0.00     0.027 A 
ATOM     11  C   UNL A   1      38.401  21.035  25.442  1.00  0.00     0.048 A 
ATOM     12  C   UNL A   1      38.483  23.339  26.137  1.00  0.00     0.060 A 
ATOM     13  Br  UNL A   1      38.923  24.735  27.347  1.00  0.00    -0.047 Br
BRANCH   8  14
ATOM     14  C   UNL A   1      35.729  22.941  23.589  1.00  0.00     0.027 C 
ATOM     15  C   UNL A   1      31.744  25.327  22.445  1.00  0.00     0.156 C 
ATOM     16  N   UNL A   1      32.492  24.548  23.433  1.00  0.00    -0.288 N 
ATOM     17  C   UNL A   1      33.567  23.806  22.937  1.00  0.00     0.265 C 
ATOM     18  C   UNL A   1      32.087  24.525  24.762  1.00  0.00     0.182 C 
ATOM     19  O   UNL A   1      33.803  23.672  21.737  1.00  0.00    -0.268 OA
ATOM     20  C   UNL A   1      34.462  23.216  23.965  1.00  0.00     0.106 C 
ATOM     21  N   UNL A   1      32.830  23.763  25.620  1.00  0.00    -0.298 N 
ATOM     22  S   UNL A   1      30.771  25.325  25.421  1.00  0.00    -0.040 S 
ATOM     23  C   UNL A   1      33.966  23.058  25.346  1.00  0.00     0.263 C 
ATOM     24  H   UNL A   1      32.507  23.718  26.549  1.00  0.00     0.172 HD
ATOM     25  O   UNL A   1      34.486  22.358  26.204  1.00  0.00    -0.269 OA
ENDBRANCH   8  14
ENDBRANCH   6   7
ENDBRANCH   5   6
ENDBRANCH   3   5
ENDBRANCH   2   3
ENDBRANCH   1   2
BRANCH   1  26
ATOM     26  C   UNL A   1      44.899  22.933  24.481  1.00  0.00     0.275 C 
BRANCH  26  27
ATOM     27  O   UNL A   1      44.064  24.083  24.702  1.00  0.00    -0.458 OA
BRANCH  27  28
ATOM     28  C   UNL A   1      44.708  25.210  25.072  1.00  0.00     0.338 C 
ATOM     29  O   UNL A   1      45.780  25.625  24.652  1.00  0.00    -0.246 OA
BRANCH  28  30
ATOM     30  C   UNL A   1      43.959  25.904  26.134  1.00  0.00     0.060 A 
ATOM     31  C   UNL A   1      44.107  27.275  26.350  1.00  0.00     0.016 A 
ATOM     32  C   UNL A   1      43.171  25.141  26.998  1.00  0.00     0.016 A 
ATOM     33  C   UNL A   1      43.526  27.867  27.474  1.00  0.00     0.010 A 
ATOM     34  C   UNL A   1      42.531  25.751  28.079  1.00  0.00     0.010 A 
ATOM     35  C   UNL A   1      42.727  27.115  28.350  1.00  0.00    -0.014 A 
BRANCH  35  36
ATOM     36  C   UNL A   1      42.106  27.733  29.555  1.00  0.00     0.031 A 
ATOM     37  C   UNL A   1      40.805  28.487  29.441  1.00  0.00     0.074 A 
ATOM     38  C   UNL A   1      42.716  27.648  30.753  1.00  0.00     0.049 A 
ATOM     39  N   UNL A   1      40.212  29.253  30.324  1.00  0.00    -0.248 NA
ATOM     40  C   UNL A   1      40.080  28.377  28.164  1.00  0.00     0.031 C 
ATOM     41  C   UNL A   1      43.963  26.931  31.020  1.00  0.00     0.029 A 
ATOM     42  N   UNL A   1      42.373  28.180  31.974  1.00  0.00    -0.354 N 
ATOM     43  C   UNL A   1      39.079  29.753  29.695  1.00  0.00     0.074 A 
ATOM     44  C   UNL A   1      39.057  29.200  28.358  1.00  0.00     0.031 C 
ATOM     45  C   UNL A   1      44.271  27.050  32.320  1.00  0.00     0.029 A 
ATOM     46  C   UNL A   1      43.285  27.913  32.965  1.00  0.00     0.049 A 
ATOM     47  H   UNL A   1      41.551  28.701  32.123  1.00  0.00     0.167 HD
ATOM     48  C   UNL A   1      38.147  30.600  30.191  1.00  0.00     0.037 A 
ATOM     49  C   UNL A   1      43.352  28.345  34.239  1.00  0.00     0.037 A 
ATOM     50  C   UNL A   1      38.127  31.102  31.541  1.00  0.00     0.049 A 
ATOM     51  C   UNL A   1      42.300  29.282  34.761  1.00  0.00     0.074 A 
ATOM     52  C   UNL A   1      37.194  31.936  32.135  1.00  0.00     0.029 A 
ATOM     53  N   UNL A   1      39.069  30.802  32.511  1.00  0.00    -0.354 N 
ATOM     54  N   UNL A   1      41.257  29.780  34.144  1.00  0.00    -0.248 NA
ATOM     55  C   UNL A   1      42.443  29.727  36.155  1.00  0.00     0.031 C 
ATOM     56  C   UNL A   1      37.585  32.161  33.458  1.00  0.00     0.029 A 
ATOM     57  C   UNL A   1      38.743  31.441  33.697  1.00  0.00     0.049 A 
ATOM     58  H   UNL A   1      39.853  30.222  32.377  1.00  0.00     0.167 HD
ATOM     59  C   UNL A   1      40.615  30.587  35.072  1.00  0.00     0.074 A 
ATOM     60  C   UNL A   1      41.373  30.497  36.303  1.00  0.00     0.031 C 
ATOM     61  C   UNL A   1      39.501  31.341  34.916  1.00  0.00     0.037 A 
BRANCH  48  62
ATOM     62  C   UNL A   1      37.058  31.070  29.275  1.00  0.00     0.064 A 
ATOM     63  C   UNL A   1      35.960  30.258  28.966  1.00  0.00     0.173 A 
ATOM     64  C   UNL A   1      37.057  32.392  28.806  1.00  0.00     0.173 A 
ATOM     65  F   UNL A   1      35.924  28.984  29.383  1.00  0.00    -0.203 F 
ATOM     66  C   UNL A   1      34.890  30.760  28.227  1.00  0.00     0.198 A 
ATOM     67  C   UNL A   1      35.985  32.890  28.071  1.00  0.00     0.198 A 
ATOM     68  F   UNL A   1      38.083  33.209  29.089  1.00  0.00    -0.203 F 
ATOM     69  F   UNL A   1      33.837  29.974  27.961  1.00  0.00    -0.200 F 
ATOM     70  C   UNL A   1      34.902  32.074  27.784  1.00  0.00     0.200 A 
ATOM     71  F   UNL A   1      35.993  34.165  27.658  1.00  0.00    -0.200 F 
ATOM     72  F   UNL A   1      33.867  32.558  27.085  1.00  0.00    -0.200 F 
ENDBRANCH  48  62
BRANCH  49  73
ATOM     73  C   UNL A   1      44.483  27.917  35.101  1.00  0.00     0.064 A 
ATOM     74  C   UNL A   1      45.671  28.656  35.152  1.00  0.00     0.173 A 
ATOM     75  C   UNL A   1      44.394  26.763  35.894  1.00  0.00     0.173 A 
ATOM     76  F   UNL A   1      45.812  29.750  34.389  1.00  0.00    -0.203 F 
ATOM     77  C   UNL A   1      46.733  28.254  35.960  1.00  0.00     0.198 A 
ATOM     78  C   UNL A   1      45.445  26.379  36.723  1.00  0.00     0.198 A 
ATOM     79  F   UNL A   1      43.278  26.021  35.878  1.00  0.00    -0.203 F 
ATOM     80  F   UNL A   1      47.874  28.957  35.961  1.00  0.00    -0.200 F 
ATOM     81  C   UNL A   1      46.615  27.121  36.751  1.00  0.00     0.200 A 
ATOM     82  F   UNL A   1      45.322  25.290  37.495  1.00  0.00    -0.200 F 
ATOM     83  F   UNL A   1      47.634  26.740  37.534  1.00  0.00    -0.200 F 
ENDBRANCH  49  73
BRANCH  61  84
ATOM     84  C   UNL A   1      39.020  32.109  36.109  1.00  0.00     0.064 A 
ATOM     85  C   UNL A   1      38.164  31.529  37.055  1.00  0.00     0.173 A 
ATOM     86  C   UNL A   1      39.440  33.430  36.322  1.00  0.00     0.173 A 
ATOM     87  F   UNL A   1      37.723  30.272  36.887  1.00  0.00    -0.203 F 
ATOM     88  C   UNL A   1      37.725  32.253  38.162  1.00  0.00     0.198 A 
ATOM     89  C   UNL A   1      39.020  34.143  37.441  1.00  0.00     0.198 A 
ATOM     90  F   UNL A   1      40.264  34.026  35.448  1.00  0.00    -0.203 F 
ATOM     91  F   UNL A   1      36.874  31.693  39.031  1.00  0.00    -0.200 F 
ATOM     92  C   UNL A   1      38.158  33.556  38.356  1.00  0.00     0.200 A 
ATOM     93  F   UNL A   1      39.445  35.399  37.632  1.00  0.00    -0.200 F 
ATOM     94  F   UNL A   1      37.735  34.252  39.421  1.00  0.00    -0.200 F 
ENDBRANCH  61  84
ENDBRANCH  35  36
ENDBRANCH  28  30
ENDBRANCH  27  28
ENDBRANCH  26  27
ENDBRANCH   1  26
TORSDOF 14
ENDMDL
MODEL 3
REMARK VINA RESULT:     -12.0      5.221      7.579
REMARK SMILES CN1C(=O)/C(=C/c2ccc(OCC(=O)OCCOC(=O)c3ccc(-c4c5nc(c(-c6c(F)c(F)c(F)c(F)c6F)c6ccc([nH]6)c(-c6c(F)c(F)c(F)c(F)c6F)c6nc(c(-c7c(F)c(F)c(F)c(F)c7F)c7ccc4[nH]7)C=C6)C=C5)cc3)c(Br)c2)C(=O)NC1=S
REMARK SMILES IDX 16 1 15 2 13 3 14 4 12 5 11 6 10 7 7 8 8 9 86 10 9 11 84 12
REMARK SMILES IDX 85 13 6 14 1 15 2 16 3 17 90 18 4 19 5 20 89 21 91 22 87 23
REMARK SMILES IDX 88 25 17 26 18 27 19 28 20 29 21 30 22 31 83 32 23 33 82 34
REMARK SMILES IDX 24 35 25 36 26 37 76 38 27 39 81 40 75 41 77 42 28 43 80 44
REMARK SMILES IDX 74 45 73 46 29 48 61 49 41 50 60 51 42 52 45 53 59 54 78 55
REMARK SMILES IDX 43 56 44 57 58 59 79 60 46 61 30 62 31 63 39 64 32 65 33 66
REMARK SMILES IDX 37 67 40 68 34 69 35 70 38 71 36 72 62 73 63 74 71 75 64 76
REMARK SMILES IDX 65 77 69 78 72 79 66 80 67 81 70 82 68 83 47 84 48 85 56 86
REMARK SMILES IDX 49 87 50 88 54 89 57 90 51 91 52 92 55 93 53 94
REMARK H PARENT 89 24 77 47 45 58
REMARK Flexibility Score: inf
ROOT
ATOM      1  C   UNL A   1      43.783  20.286  25.360  1.00  0.00     0.274 C 
ENDROOT
BRANCH   1   2
ATOM      2  O   UNL A   1      42.830  20.393  26.437  1.00  0.00    -0.460 OA
BRANCH   2   3
ATOM      3  C   UNL A   1      41.548  20.089  26.103  1.00  0.00     0.344 C 
ATOM      4  O   UNL A   1      41.162  18.978  25.751  1.00  0.00    -0.248 OA
BRANCH   3   5
ATOM      5  C   UNL A   1      40.613  21.295  26.129  1.00  0.00     0.352 C 
BRANCH   5   6
ATOM      6  O   UNL A   1      39.257  21.212  26.528  1.00  0.00    -0.481 OA
BRANCH   6   7
ATOM      7  C   UNL A   1      38.326  21.843  25.752  1.00  0.00     0.134 A 
ATOM      8  C   UNL A   1      36.223  22.809  24.140  1.00  0.00    -0.023 A 
ATOM      9  C   UNL A   1      36.479  21.441  24.205  1.00  0.00     0.012 A 
ATOM     10  C   UNL A   1      37.011  23.687  24.894  1.00  0.00     0.027 A 
ATOM     11  C   UNL A   1      37.527  20.968  25.003  1.00  0.00     0.048 A 
ATOM     12  C   UNL A   1      38.016  23.206  25.743  1.00  0.00     0.060 A 
ATOM     13  Br  UNL A   1      38.724  24.477  26.966  1.00  0.00    -0.047 Br
BRANCH   8  14
ATOM     14  C   UNL A   1      35.150  23.341  23.293  1.00  0.00     0.027 C 
ATOM     15  C   UNL A   1      31.397  26.188  22.463  1.00  0.00     0.156 C 
ATOM     16  N   UNL A   1      32.066  25.231  23.345  1.00  0.00    -0.288 N 
ATOM     17  C   UNL A   1      33.077  24.466  22.758  1.00  0.00     0.265 C 
ATOM     18  C   UNL A   1      31.649  25.078  24.662  1.00  0.00     0.182 C 
ATOM     19  O   UNL A   1      33.311  24.462  21.550  1.00  0.00    -0.268 OA
ATOM     20  C   UNL A   1      33.908  23.677  23.703  1.00  0.00     0.106 C 
ATOM     21  N   UNL A   1      32.315  24.153  25.417  1.00  0.00    -0.298 N 
ATOM     22  S   UNL A   1      30.401  25.901  25.418  1.00  0.00    -0.040 S 
ATOM     23  C   UNL A   1      33.388  23.392  25.055  1.00  0.00     0.263 C 
ATOM     24  H   UNL A   1      31.981  24.021  26.333  1.00  0.00     0.172 HD
ATOM     25  O   UNL A   1      33.838  22.548  25.817  1.00  0.00    -0.269 OA
ENDBRANCH   8  14
ENDBRANCH   6   7
ENDBRANCH   5   6
ENDBRANCH   3   5
ENDBRANCH   2   3
ENDBRANCH   1   2
BRANCH   1  26
ATOM     26  C   UNL A   1      44.769  21.452  25.367  1.00  0.00     0.275 C 
BRANCH  26  27
ATOM     27  O   UNL A   1      44.254  22.532  26.166  1.00  0.00    -0.458 OA
BRANCH  27  28
ATOM     28  C   UNL A   1      43.699  23.553  25.480  1.00  0.00     0.338 C 
ATOM     29  O   UNL A   1      43.647  23.691  24.266  1.00  0.00    -0.246 OA
BRANCH  28  30
ATOM     30  C   UNL A   1      43.172  24.568  26.409  1.00  0.00     0.060 A 
ATOM     31  C   UNL A   1      43.479  25.921  26.256  1.00  0.00     0.016 A 
ATOM     32  C   UNL A   1      42.439  24.139  27.517  1.00  0.00     0.016 A 
ATOM     33  C   UNL A   1      43.116  26.832  27.251  1.00  0.00     0.010 A 
ATOM     34  C   UNL A   1      42.013  25.064  28.472  1.00  0.00     0.010 A 
ATOM     35  C   UNL A   1      42.375  26.418  28.369  1.00  0.00    -0.014 A 
BRANCH  35  36
ATOM     36  C   UNL A   1      41.985  27.377  29.440  1.00  0.00     0.031 A 
ATOM     37  C   UNL A   1      42.750  27.424  30.738  1.00  0.00     0.074 A 
ATOM     38  C   UNL A   1      40.926  28.192  29.268  1.00  0.00     0.049 A 
ATOM     39  N   UNL A   1      42.449  28.042  31.854  1.00  0.00    -0.248 NA
ATOM     40  C   UNL A   1      44.012  26.667  30.797  1.00  0.00     0.031 C 
ATOM     41  C   UNL A   1      40.108  28.276  28.058  1.00  0.00     0.029 A 
ATOM     42  N   UNL A   1      40.348  29.103  30.121  1.00  0.00    -0.354 N 
ATOM     43  C   UNL A   1      43.452  27.709  32.756  1.00  0.00     0.074 A 
ATOM     44  C   UNL A   1      44.378  26.841  32.061  1.00  0.00     0.031 C 
ATOM     45  C   UNL A   1      39.150  29.197  28.236  1.00  0.00     0.029 A 
ATOM     46  C   UNL A   1      39.236  29.716  29.598  1.00  0.00     0.049 A 
ATOM     47  H   UNL A   1      40.699  29.296  31.020  1.00  0.00     0.167 HD
ATOM     48  C   UNL A   1      43.581  28.092  34.048  1.00  0.00     0.037 A 
ATOM     49  C   UNL A   1      38.356  30.567  30.158  1.00  0.00     0.037 A 
ATOM     50  C   UNL A   1      42.701  29.008  34.727  1.00  0.00     0.049 A 
ATOM     51  C   UNL A   1      38.529  30.976  31.594  1.00  0.00     0.074 A 
ATOM     52  C   UNL A   1      42.785  29.478  36.027  1.00  0.00     0.029 A 
ATOM     53  N   UNL A   1      41.589  29.606  34.156  1.00  0.00    -0.354 N 
ATOM     54  N   UNL A   1      39.457  30.622  32.447  1.00  0.00    -0.248 NA
ATOM     55  C   UNL A   1      37.523  31.894  32.147  1.00  0.00     0.031 C 
ATOM     56  C   UNL A   1      41.710  30.343  36.252  1.00  0.00     0.029 A 
ATOM     57  C   UNL A   1      40.976  30.436  35.081  1.00  0.00     0.049 A 
ATOM     58  H   UNL A   1      41.282  29.464  33.232  1.00  0.00     0.167 HD
ATOM     59  C   UNL A   1      39.155  31.278  33.632  1.00  0.00     0.074 A 
ATOM     60  C   UNL A   1      37.968  32.070  33.383  1.00  0.00     0.031 C 
ATOM     61  C   UNL A   1      39.799  31.223  34.822  1.00  0.00     0.037 A 
BRANCH  48  62
ATOM     62  C   UNL A   1      44.711  27.518  34.847  1.00  0.00     0.064 A 
ATOM     63  C   UNL A   1      44.617  26.257  35.449  1.00  0.00     0.173 A 
ATOM     64  C   UNL A   1      45.944  28.186  34.901  1.00  0.00     0.173 A 
ATOM     65  F   UNL A   1      43.455  25.587  35.433  1.00  0.00    -0.203 F 
ATOM     66  C   UNL A   1      45.723  25.680  36.069  1.00  0.00     0.198 A 
ATOM     67  C   UNL A   1      47.047  27.605  35.519  1.00  0.00     0.198 A 
ATOM     68  F   UNL A   1      46.084  29.391  34.326  1.00  0.00    -0.203 F 
ATOM     69  F   UNL A   1      45.619  24.462  36.620  1.00  0.00    -0.200 F 
ATOM     70  C   UNL A   1      46.936  26.351  36.100  1.00  0.00     0.200 A 
ATOM     71  F   UNL A   1      48.222  28.249  35.533  1.00  0.00    -0.200 F 
ATOM     72  F   UNL A   1      48.002  25.789  36.685  1.00  0.00    -0.200 F 
ENDBRANCH  48  62
BRANCH  49  73
ATOM     73  C   UNL A   1      37.205  31.064  29.361  1.00  0.00     0.064 A 
ATOM     74  C   UNL A   1      36.121  30.230  29.063  1.00  0.00     0.173 A 
ATOM     75  C   UNL A   1      37.168  32.384  28.886  1.00  0.00     0.173 A 
ATOM     76  F   UNL A   1      36.126  28.953  29.471  1.00  0.00    -0.203 F 
ATOM     77  C   UNL A   1      35.042  30.696  28.313  1.00  0.00     0.198 A 
ATOM     78  C   UNL A   1      36.077  32.856  28.163  1.00  0.00     0.198 A 
ATOM     79  F   UNL A   1      38.184  33.219  29.144  1.00  0.00    -0.203 F 
ATOM     80  F   UNL A   1      34.035  29.867  28.008  1.00  0.00    -0.200 F 
ATOM     81  C   UNL A   1      35.018  32.010  27.871  1.00  0.00     0.200 A 
ATOM     82  F   UNL A   1      36.051  34.130  27.749  1.00  0.00    -0.200 F 
ATOM     83  F   UNL A   1      33.975  32.459  27.158  1.00  0.00    -0.200 F 
ENDBRANCH  49  73
BRANCH  61  84
ATOM     84  C   UNL A   1      39.251  32.058  35.939  1.00  0.00     0.064 A 
ATOM     85  C   UNL A   1      38.277  31.559  36.815  1.00  0.00     0.173 A 
ATOM     86  C   UNL A   1      39.724  33.361  36.150  1.00  0.00     0.173 A 
ATOM     87  F   UNL A   1      37.783  30.323  36.644  1.00  0.00    -0.203 F 
ATOM     88  C   UNL A   1      37.778  32.345  37.851  1.00  0.00     0.198 A 
ATOM     89  C   UNL A   1      39.241  34.136  37.201  1.00  0.00     0.198 A 
ATOM     90  F   UNL A   1      40.660  33.880  35.342  1.00  0.00    -0.203 F 
ATOM     91  F   UNL A   1      36.817  31.864  38.651  1.00  0.00    -0.200 F 
ATOM     92  C   UNL A   1      38.263  33.630  38.046  1.00  0.00     0.200 A 
ATOM     93  F   UNL A   1      39.717  35.373  37.394  1.00  0.00    -0.200 F 
ATOM     94  F   UNL A   1      37.782  34.385  39.043  1.00  0.00    -0.200 F 
ENDBRANCH  61  84
ENDBRANCH  35  36
ENDBRANCH  28  30
ENDBRANCH  27  28
ENDBRANCH  26  27
ENDBRANCH   1  26
TORSDOF 14
ENDMDL
