MODEL 1
REMARK VINA RESULT:     -12.6      0.000      0.000
REMARK SMILES CCN(C(=O)c1ccc(C)cc1F)[C@@H]1COC[C@@H]1C(=O)OCCOC(=O)c1ccc(-c2c3nc(c(-c4c(F)c(F)c(F)c(F)c4F)c4ccc([nH]4)c(-c4c(F)c(F)c(F)c(F)c4F)c4nc(c(-c5c(F)c(F)c(F)c(F)c5F)c5ccc2[nH]5)C=C4)C=C3)cc1
REMARK SMILES IDX 22 1 21 2 19 3 20 4 18 5 14 6 15 7 16 8 17 9 3 10 2 11 1 12
REMARK SMILES IDX 4 13 5 14 6 15 7 16 12 17 8 18 11 19 13 20 9 21 10 22 23 23
REMARK SMILES IDX 24 24 25 25 26 26 27 27 28 28 89 29 29 30 88 31 30 32 31 33
REMARK SMILES IDX 32 34 82 35 33 36 87 37 81 38 83 39 34 40 86 41 80 42 79 43
REMARK SMILES IDX 35 45 67 46 47 47 66 48 48 49 51 50 65 51 84 52 49 53 50 54
REMARK SMILES IDX 64 56 85 57 52 58 36 59 37 60 45 61 38 62 39 63 43 64 46 65
REMARK SMILES IDX 40 66 41 67 44 68 42 69 68 70 69 71 77 72 70 73 71 74 75 75
REMARK SMILES IDX 78 76 72 77 73 78 76 79 74 80 53 81 54 82 62 83 55 84 56 85
REMARK SMILES IDX 60 86 63 87 57 88 58 89 61 90 59 91
REMARK H PARENT 83 44 51 55
REMARK Flexibility Score: inf
ROOT
ATOM      1  C   UNL A   1      32.187  28.488  26.873  1.00  0.00     0.274 C 
ENDROOT
BRANCH   1   2
ATOM      2  O   UNL A   1      32.109  27.645  25.708  1.00  0.00    -0.462 OA
BRANCH   2   3
ATOM      3  C   UNL A   1      31.405  26.504  25.824  1.00  0.00     0.313 C 
ATOM      4  O   UNL A   1      31.428  25.772  26.810  1.00  0.00    -0.252 OA
BRANCH   3   5
ATOM      5  C   UNL A   1      30.632  26.139  24.582  1.00  0.00     0.150 C 
ATOM      6  C   UNL A   1      31.245  25.467  23.350  1.00  0.00     0.127 C 
ATOM      7  C   UNL A   1      31.364  26.574  22.311  1.00  0.00     0.186 C 
ATOM      8  O   UNL A   1      30.616  27.707  22.754  1.00  0.00    -0.378 OA
ATOM      9  C   UNL A   1      30.014  27.417  24.019  1.00  0.00     0.177 C 
BRANCH   6  10
ATOM     10  N   UNL A   1      32.331  24.449  23.477  1.00  0.00    -0.333 N 
BRANCH  10  11
ATOM     11  C   UNL A   1      31.937  23.072  23.797  1.00  0.00     0.117 C 
ATOM     12  C   UNL A   1      31.797  22.741  25.273  1.00  0.00     0.027 C 
ENDBRANCH  10  11
BRANCH  10  13
ATOM     13  C   UNL A   1      33.664  24.731  23.122  1.00  0.00     0.257 C 
ATOM     14  O   UNL A   1      33.995  25.479  22.211  1.00  0.00    -0.269 OA
BRANCH  13  15
ATOM     15  C   UNL A   1      34.792  24.069  23.817  1.00  0.00     0.075 A 
ATOM     16  C   UNL A   1      35.579  23.125  23.152  1.00  0.00     0.017 A 
ATOM     17  C   UNL A   1      35.151  24.461  25.104  1.00  0.00     0.136 A 
ATOM     18  C   UNL A   1      36.672  22.532  23.803  1.00  0.00     0.004 A 
ATOM     19  C   UNL A   1      36.254  23.897  25.745  1.00  0.00     0.043 A 
ATOM     20  F   UNL A   1      34.443  25.374  25.776  1.00  0.00    -0.206 F 
ATOM     21  C   UNL A   1      37.007  22.902  25.111  1.00  0.00    -0.048 A 
ATOM     22  C   UNL A   1      38.158  22.266  25.836  1.00  0.00     0.044 C 
ENDBRANCH  13  15
ENDBRANCH  10  13
ENDBRANCH   6  10
ENDBRANCH   3   5
ENDBRANCH   2   3
ENDBRANCH   1   2
BRANCH   1  23
ATOM     23  C   UNL A   1      33.662  28.618  27.244  1.00  0.00     0.275 C 
BRANCH  23  24
ATOM     24  O   UNL A   1      34.223  29.899  26.892  1.00  0.00    -0.458 OA
BRANCH  24  25
ATOM     25  C   UNL A   1      34.751  30.595  27.932  1.00  0.00     0.338 C 
ATOM     26  O   UNL A   1      34.164  31.469  28.530  1.00  0.00    -0.246 OA
BRANCH  25  27
ATOM     27  C   UNL A   1      36.118  30.147  28.282  1.00  0.00     0.060 A 
ATOM     28  C   UNL A   1      37.103  30.215  27.282  1.00  0.00     0.016 A 
ATOM     29  C   UNL A   1      36.395  29.561  29.518  1.00  0.00     0.016 A 
ATOM     30  C   UNL A   1      38.316  29.564  27.452  1.00  0.00     0.010 A 
ATOM     31  C   UNL A   1      37.603  28.922  29.697  1.00  0.00     0.010 A 
ATOM     32  C   UNL A   1      38.539  28.900  28.652  1.00  0.00    -0.014 A 
BRANCH  32  33
ATOM     33  C   UNL A   1      39.866  28.481  29.043  1.00  0.00     0.031 A 
ATOM     34  C   UNL A   1      40.256  27.121  28.605  1.00  0.00     0.074 A 
ATOM     35  C   UNL A   1      40.716  29.410  29.523  1.00  0.00     0.049 A 
ATOM     36  N   UNL A   1      41.244  26.448  29.079  1.00  0.00    -0.248 NA
ATOM     37  C   UNL A   1      39.458  26.343  27.646  1.00  0.00     0.031 C 
ATOM     38  C   UNL A   1      42.157  29.447  29.331  1.00  0.00     0.029 A 
ATOM     39  N   UNL A   1      40.433  30.526  30.327  1.00  0.00    -0.354 N 
ATOM     40  C   UNL A   1      41.409  25.346  28.258  1.00  0.00     0.074 A 
ATOM     41  C   UNL A   1      40.180  25.226  27.525  1.00  0.00     0.031 C 
ATOM     42  C   UNL A   1      42.679  30.401  30.121  1.00  0.00     0.029 A 
ATOM     43  C   UNL A   1      41.622  30.845  31.018  1.00  0.00     0.049 A 
ATOM     44  H   UNL A   1      39.571  30.997  30.395  1.00  0.00     0.167 HD
ATOM     45  C   UNL A   1      42.656  24.805  28.140  1.00  0.00     0.037 A 
ATOM     46  C   UNL A   1      41.711  30.722  32.378  1.00  0.00     0.037 A 
ATOM     47  C   UNL A   1      43.578  25.561  28.973  1.00  0.00     0.049 A 
ATOM     48  C   UNL A   1      42.696  29.675  32.838  1.00  0.00     0.074 A 
ATOM     49  C   UNL A   1      44.372  26.655  28.678  1.00  0.00     0.029 A 
ATOM     50  N   UNL A   1      43.486  25.476  30.349  1.00  0.00    -0.354 N 
ATOM     51  N   UNL A   1      43.035  28.645  32.120  1.00  0.00    -0.248 NA
ATOM     52  C   UNL A   1      43.313  29.670  34.161  1.00  0.00     0.031 C 
ATOM     53  C   UNL A   1      44.750  27.248  29.902  1.00  0.00     0.029 A 
ATOM     54  C   UNL A   1      44.197  26.504  30.931  1.00  0.00     0.049 A 
ATOM     55  H   UNL A   1      42.987  24.786  30.842  1.00  0.00     0.167 HD
ATOM     56  C   UNL A   1      43.842  27.825  32.861  1.00  0.00     0.074 A 
ATOM     57  C   UNL A   1      44.009  28.522  34.121  1.00  0.00     0.031 C 
ATOM     58  C   UNL A   1      44.272  26.626  32.373  1.00  0.00     0.037 A 
BRANCH  45  59
ATOM     59  C   UNL A   1      43.157  23.864  27.065  1.00  0.00     0.064 A 
ATOM     60  C   UNL A   1      42.769  22.501  27.104  1.00  0.00     0.173 A 
ATOM     61  C   UNL A   1      44.028  24.193  26.012  1.00  0.00     0.173 A 
ATOM     62  F   UNL A   1      41.866  22.050  27.984  1.00  0.00    -0.203 F 
ATOM     63  C   UNL A   1      43.287  21.540  26.236  1.00  0.00     0.198 A 
ATOM     64  C   UNL A   1      44.559  23.225  25.150  1.00  0.00     0.198 A 
ATOM     65  F   UNL A   1      44.363  25.457  25.742  1.00  0.00    -0.203 F 
ATOM     66  F   UNL A   1      42.897  20.264  26.352  1.00  0.00    -0.200 F 
ATOM     67  C   UNL A   1      44.200  21.898  25.270  1.00  0.00     0.200 A 
ATOM     68  F   UNL A   1      45.423  23.592  24.191  1.00  0.00    -0.200 F 
ATOM     69  F   UNL A   1      44.710  20.974  24.444  1.00  0.00    -0.200 F 
ENDBRANCH  45  59
BRANCH  46  70
ATOM     70  C   UNL A   1      40.432  30.938  33.095  1.00  0.00     0.064 A 
ATOM     71  C   UNL A   1      40.050  32.237  33.454  1.00  0.00     0.173 A 
ATOM     72  C   UNL A   1      39.456  29.932  33.120  1.00  0.00     0.173 A 
ATOM     73  F   UNL A   1      40.946  33.236  33.434  1.00  0.00    -0.203 F 
ATOM     74  C   UNL A   1      38.721  32.535  33.744  1.00  0.00     0.198 A 
ATOM     75  C   UNL A   1      38.126  30.239  33.387  1.00  0.00     0.198 A 
ATOM     76  F   UNL A   1      39.773  28.670  32.795  1.00  0.00    -0.203 F 
ATOM     77  F   UNL A   1      38.359  33.801  33.995  1.00  0.00    -0.200 F 
ATOM     78  C   UNL A   1      37.757  31.543  33.680  1.00  0.00     0.200 A 
ATOM     79  F   UNL A   1      37.190  29.283  33.300  1.00  0.00    -0.200 F 
ATOM     80  F   UNL A   1      36.467  31.858  33.862  1.00  0.00    -0.200 F 
ENDBRANCH  46  70
BRANCH  58  81
ATOM     81  C   UNL A   1      44.896  25.514  33.175  1.00  0.00     0.064 A 
ATOM     82  C   UNL A   1      46.274  25.260  33.209  1.00  0.00     0.173 A 
ATOM     83  C   UNL A   1      44.109  24.722  34.048  1.00  0.00     0.173 A 
ATOM     84  F   UNL A   1      47.148  26.052  32.577  1.00  0.00    -0.203 F 
ATOM     85  C   UNL A   1      46.809  24.203  33.947  1.00  0.00     0.198 A 
ATOM     86  C   UNL A   1      44.656  23.721  34.845  1.00  0.00     0.198 A 
ATOM     87  F   UNL A   1      42.787  24.908  34.179  1.00  0.00    -0.203 F 
ATOM     88  F   UNL A   1      48.122  23.947  33.876  1.00  0.00    -0.200 F 
ATOM     89  C   UNL A   1      46.001  23.434  34.764  1.00  0.00     0.200 A 
ATOM     90  F   UNL A   1      43.873  23.044  35.695  1.00  0.00    -0.200 F 
ATOM     91  F   UNL A   1      46.522  22.435  35.486  1.00  0.00    -0.200 F 
ENDBRANCH  58  81
ENDBRANCH  32  33
ENDBRANCH  25  27
ENDBRANCH  24  25
ENDBRANCH  23  24
ENDBRANCH   1  23
TORSDOF 15
ENDMDL
MODEL 2
REMARK VINA RESULT:     -12.4      1.504      3.336
REMARK SMILES CCN(C(=O)c1ccc(C)cc1F)[C@@H]1COC[C@@H]1C(=O)OCCOC(=O)c1ccc(-c2c3nc(c(-c4c(F)c(F)c(F)c(F)c4F)c4ccc([nH]4)c(-c4c(F)c(F)c(F)c(F)c4F)c4nc(c(-c5c(F)c(F)c(F)c(F)c5F)c5ccc2[nH]5)C=C4)C=C3)cc1
REMARK SMILES IDX 22 1 21 2 19 3 20 4 18 5 14 6 15 7 16 8 17 9 3 10 2 11 1 12
REMARK SMILES IDX 4 13 5 14 6 15 7 16 12 17 8 18 11 19 13 20 9 21 10 22 23 23
REMARK SMILES IDX 24 24 25 25 26 26 27 27 28 28 89 29 29 30 88 31 30 32 31 33
REMARK SMILES IDX 32 34 82 35 33 36 87 37 81 38 83 39 34 40 86 41 80 42 79 43
REMARK SMILES IDX 35 45 67 46 47 47 66 48 48 49 51 50 65 51 84 52 49 53 50 54
REMARK SMILES IDX 64 56 85 57 52 58 36 59 37 60 45 61 38 62 39 63 43 64 46 65
REMARK SMILES IDX 40 66 41 67 44 68 42 69 68 70 69 71 77 72 70 73 71 74 75 75
REMARK SMILES IDX 78 76 72 77 73 78 76 79 74 80 53 81 54 82 62 83 55 84 56 85
REMARK SMILES IDX 60 86 63 87 57 88 58 89 61 90 59 91
REMARK H PARENT 83 44 51 55
REMARK Flexibility Score: inf
ROOT
ATOM      1  C   UNL A   1      31.923  29.340  26.842  1.00  0.00     0.274 C 
ENDROOT
BRANCH   1   2
ATOM      2  O   UNL A   1      31.877  28.439  25.719  1.00  0.00    -0.462 OA
BRANCH   2   3
ATOM      3  C   UNL A   1      31.624  27.144  25.984  1.00  0.00     0.313 C 
ATOM      4  O   UNL A   1      30.664  26.745  26.638  1.00  0.00    -0.252 OA
BRANCH   3   5
ATOM      5  C   UNL A   1      32.687  26.202  25.476  1.00  0.00     0.150 C 
ATOM      6  C   UNL A   1      32.886  25.838  24.002  1.00  0.00     0.127 C 
ATOM      7  C   UNL A   1      32.319  24.432  23.860  1.00  0.00     0.186 C 
ATOM      8  O   UNL A   1      32.095  23.889  25.162  1.00  0.00    -0.378 OA
ATOM      9  C   UNL A   1      32.477  24.848  26.151  1.00  0.00     0.177 C 
BRANCH   6  10
ATOM     10  N   UNL A   1      32.667  26.840  22.916  1.00  0.00    -0.333 N 
BRANCH  10  11
ATOM     11  C   UNL A   1      33.830  27.609  22.456  1.00  0.00     0.117 C 
ATOM     12  C   UNL A   1      34.158  28.863  23.246  1.00  0.00     0.027 C 
ENDBRANCH  10  11
BRANCH  10  13
ATOM     13  C   UNL A   1      31.449  26.927  22.215  1.00  0.00     0.257 C 
ATOM     14  O   UNL A   1      31.140  26.212  21.270  1.00  0.00    -0.269 OA
BRANCH  13  15
ATOM     15  C   UNL A   1      30.452  27.970  22.551  1.00  0.00     0.075 A 
ATOM     16  C   UNL A   1      30.616  29.281  22.099  1.00  0.00     0.017 A 
ATOM     17  C   UNL A   1      29.282  27.630  23.226  1.00  0.00     0.136 A 
ATOM     18  C   UNL A   1      29.647  30.254  22.386  1.00  0.00     0.004 A 
ATOM     19  C   UNL A   1      28.301  28.586  23.488  1.00  0.00     0.043 A 
ATOM     20  F   UNL A   1      29.067  26.385  23.663  1.00  0.00    -0.206 F 
ATOM     21  C   UNL A   1      28.489  29.916  23.098  1.00  0.00    -0.048 A 
ATOM     22  C   UNL A   1      27.448  30.945  23.436  1.00  0.00     0.044 C 
ENDBRANCH  13  15
ENDBRANCH  10  13
ENDBRANCH   6  10
ENDBRANCH   3   5
ENDBRANCH   2   3
ENDBRANCH   1   2
BRANCH   1  23
ATOM     23  C   UNL A   1      33.184  30.188  26.694  1.00  0.00     0.275 C 
BRANCH  23  24
ATOM     24  O   UNL A   1      34.327  29.623  27.367  1.00  0.00    -0.458 OA
BRANCH  24  25
ATOM     25  C   UNL A   1      35.037  30.503  28.120  1.00  0.00     0.338 C 
ATOM     26  O   UNL A   1      34.602  31.562  28.516  1.00  0.00    -0.246 OA
BRANCH  25  27
ATOM     27  C   UNL A   1      36.398  30.015  28.437  1.00  0.00     0.060 A 
ATOM     28  C   UNL A   1      37.378  30.119  27.435  1.00  0.00     0.016 A 
ATOM     29  C   UNL A   1      36.672  29.361  29.639  1.00  0.00     0.016 A 
ATOM     30  C   UNL A   1      38.581  29.439  27.563  1.00  0.00     0.010 A 
ATOM     31  C   UNL A   1      37.870  28.694  29.776  1.00  0.00     0.010 A 
ATOM     32  C   UNL A   1      38.800  28.710  28.725  1.00  0.00    -0.014 A 
BRANCH  32  33
ATOM     33  C   UNL A   1      40.122  28.250  29.085  1.00  0.00     0.031 A 
ATOM     34  C   UNL A   1      40.473  26.893  28.603  1.00  0.00     0.074 A 
ATOM     35  C   UNL A   1      41.000  29.143  29.579  1.00  0.00     0.049 A 
ATOM     36  N   UNL A   1      41.451  26.185  29.043  1.00  0.00    -0.248 NA
ATOM     37  C   UNL A   1      39.644  26.163  27.634  1.00  0.00     0.031 C 
ATOM     38  C   UNL A   1      42.439  29.152  29.368  1.00  0.00     0.029 A 
ATOM     39  N   UNL A   1      40.755  30.243  30.418  1.00  0.00    -0.354 N 
ATOM     40  C   UNL A   1      41.579  25.103  28.189  1.00  0.00     0.074 A 
ATOM     41  C   UNL A   1      40.337  25.033  27.471  1.00  0.00     0.031 C 
ATOM     42  C   UNL A   1      42.995  30.071  30.177  1.00  0.00     0.029 A 
ATOM     43  C   UNL A   1      41.960  30.513  31.101  1.00  0.00     0.049 A 
ATOM     44  H   UNL A   1      39.905  30.731  30.512  1.00  0.00     0.167 HD
ATOM     45  C   UNL A   1      42.811  24.537  28.037  1.00  0.00     0.037 A 
ATOM     46  C   UNL A   1      42.065  30.349  32.456  1.00  0.00     0.037 A 
ATOM     47  C   UNL A   1      43.762  25.246  28.878  1.00  0.00     0.049 A 
ATOM     48  C   UNL A   1      43.032  29.267  32.871  1.00  0.00     0.074 A 
ATOM     49  C   UNL A   1      44.578  26.330  28.603  1.00  0.00     0.029 A 
ATOM     50  N   UNL A   1      43.687  25.124  30.253  1.00  0.00    -0.354 N 
ATOM     51  N   UNL A   1      43.336  28.250  32.119  1.00  0.00    -0.248 NA
ATOM     52  C   UNL A   1      43.666  29.209  34.185  1.00  0.00     0.031 C 
ATOM     53  C   UNL A   1      44.987  26.878  29.838  1.00  0.00     0.029 A 
ATOM     54  C   UNL A   1      44.430  26.118  30.853  1.00  0.00     0.049 A 
ATOM     55  H   UNL A   1      43.178  24.432  30.732  1.00  0.00     0.167 HD
ATOM     56  C   UNL A   1      44.133  27.391  32.824  1.00  0.00     0.074 A 
ATOM     57  C   UNL A   1      44.334  28.047  34.101  1.00  0.00     0.031 C 
ATOM     58  C   UNL A   1      44.527  26.196  32.297  1.00  0.00     0.037 A 
BRANCH  45  59
ATOM     59  C   UNL A   1      43.274  23.616  26.928  1.00  0.00     0.064 A 
ATOM     60  C   UNL A   1      42.962  22.235  27.001  1.00  0.00     0.173 A 
ATOM     61  C   UNL A   1      44.043  23.982  25.810  1.00  0.00     0.173 A 
ATOM     62  F   UNL A   1      42.154  21.744  27.949  1.00  0.00    -0.203 F 
ATOM     63  C   UNL A   1      43.459  21.297  26.097  1.00  0.00     0.198 A 
ATOM     64  C   UNL A   1      44.554  23.037  24.911  1.00  0.00     0.198 A 
ATOM     65  F   UNL A   1      44.291  25.259  25.511  1.00  0.00    -0.203 F 
ATOM     66  F   UNL A   1      43.146  20.002  26.246  1.00  0.00    -0.200 F 
ATOM     67  C   UNL A   1      44.275  21.694  25.062  1.00  0.00     0.200 A 
ATOM     68  F   UNL A   1      45.321  23.441  23.887  1.00  0.00    -0.200 F 
ATOM     69  F   UNL A   1      44.766  20.792  24.201  1.00  0.00    -0.200 F 
ENDBRANCH  45  59
BRANCH  46  70
ATOM     70  C   UNL A   1      40.802  30.574  33.197  1.00  0.00     0.064 A 
ATOM     71  C   UNL A   1      40.477  31.863  33.638  1.00  0.00     0.173 A 
ATOM     72  C   UNL A   1      39.784  29.610  33.170  1.00  0.00     0.173 A 
ATOM     73  F   UNL A   1      41.415  32.824  33.671  1.00  0.00    -0.203 F 
ATOM     74  C   UNL A   1      39.165  32.199  33.959  1.00  0.00     0.198 A 
ATOM     75  C   UNL A   1      38.470  29.955  33.469  1.00  0.00     0.198 A 
ATOM     76  F   UNL A   1      40.044  28.359  32.765  1.00  0.00    -0.203 F 
ATOM     77  F   UNL A   1      38.859  33.461  34.290  1.00  0.00    -0.200 F 
ATOM     78  C   UNL A   1      38.159  31.254  33.843  1.00  0.00     0.200 A 
ATOM     79  F   UNL A   1      37.494  29.047  33.332  1.00  0.00    -0.200 F 
ATOM     80  F   UNL A   1      36.885  31.610  34.058  1.00  0.00    -0.200 F 
ENDBRANCH  46  70
BRANCH  58  81
ATOM     81  C   UNL A   1      45.136  25.048  33.057  1.00  0.00     0.064 A 
ATOM     82  C   UNL A   1      44.433  23.886  33.406  1.00  0.00     0.173 A 
ATOM     83  C   UNL A   1      46.520  25.037  33.366  1.00  0.00     0.173 A 
ATOM     84  F   UNL A   1      43.169  23.688  33.010  1.00  0.00    -0.203 F 
ATOM     85  C   UNL A   1      45.029  22.855  34.133  1.00  0.00     0.198 A 
ATOM     86  C   UNL A   1      47.130  23.971  34.021  1.00  0.00     0.198 A 
ATOM     87  F   UNL A   1      47.332  26.046  33.021  1.00  0.00    -0.203 F 
ATOM     88  F   UNL A   1      44.289  21.806  34.518  1.00  0.00    -0.200 F 
ATOM     89  C   UNL A   1      46.376  22.897  34.441  1.00  0.00     0.200 A 
ATOM     90  F   UNL A   1      48.453  23.990  34.233  1.00  0.00    -0.200 F 
ATOM     91  F   UNL A   1      46.948  21.896  35.120  1.00  0.00    -0.200 F 
ENDBRANCH  58  81
ENDBRANCH  32  33
ENDBRANCH  25  27
ENDBRANCH  24  25
ENDBRANCH  23  24
ENDBRANCH   1  23
TORSDOF 15
ENDMDL
MODEL 3
REMARK VINA RESULT:     -12.1      3.464      9.393
REMARK SMILES CCN(C(=O)c1ccc(C)cc1F)[C@@H]1COC[C@@H]1C(=O)OCCOC(=O)c1ccc(-c2c3nc(c(-c4c(F)c(F)c(F)c(F)c4F)c4ccc([nH]4)c(-c4c(F)c(F)c(F)c(F)c4F)c4nc(c(-c5c(F)c(F)c(F)c(F)c5F)c5ccc2[nH]5)C=C4)C=C3)cc1
REMARK SMILES IDX 22 1 21 2 19 3 20 4 18 5 14 6 15 7 16 8 17 9 3 10 2 11 1 12
REMARK SMILES IDX 4 13 5 14 6 15 7 16 12 17 8 18 11 19 13 20 9 21 10 22 23 23
REMARK SMILES IDX 24 24 25 25 26 26 27 27 28 28 89 29 29 30 88 31 30 32 31 33
REMARK SMILES IDX 32 34 82 35 33 36 87 37 81 38 83 39 34 40 86 41 80 42 79 43
REMARK SMILES IDX 35 45 67 46 47 47 66 48 48 49 51 50 65 51 84 52 49 53 50 54
REMARK SMILES IDX 64 56 85 57 52 58 36 59 37 60 45 61 38 62 39 63 43 64 46 65
REMARK SMILES IDX 40 66 41 67 44 68 42 69 68 70 69 71 77 72 70 73 71 74 75 75
REMARK SMILES IDX 78 76 72 77 73 78 76 79 74 80 53 81 54 82 62 83 55 84 56 85
REMARK SMILES IDX 60 86 63 87 57 88 58 89 61 90 59 91
REMARK H PARENT 83 44 51 55
REMARK Flexibility Score: inf
ROOT
ATOM      1  C   UNL A   1      35.699  23.256  26.117  1.00  0.00     0.274 C 
ENDROOT
BRANCH   1   2
ATOM      2  O   UNL A   1      34.766  22.271  25.634  1.00  0.00    -0.462 OA
BRANCH   2   3
ATOM      3  C   UNL A   1      33.657  22.726  25.024  1.00  0.00     0.313 C 
ATOM      4  O   UNL A   1      32.556  22.185  25.094  1.00  0.00    -0.252 OA
BRANCH   3   5
ATOM      5  C   UNL A   1      33.894  23.934  24.153  1.00  0.00     0.150 C 
ATOM      6  C   UNL A   1      32.802  24.919  23.726  1.00  0.00     0.127 C 
ATOM      7  C   UNL A   1      32.511  24.584  22.270  1.00  0.00     0.186 C 
ATOM      8  O   UNL A   1      33.532  23.712  21.783  1.00  0.00    -0.378 OA
ATOM      9  C   UNL A   1      34.475  23.451  22.826  1.00  0.00     0.177 C 
BRANCH   6  10
ATOM     10  N   UNL A   1      31.680  25.283  24.643  1.00  0.00    -0.333 N 
BRANCH  10  11
ATOM     11  C   UNL A   1      30.311  25.064  24.161  1.00  0.00     0.117 C 
ATOM     12  C   UNL A   1      29.441  26.301  24.029  1.00  0.00     0.027 C 
ENDBRANCH  10  11
BRANCH  10  13
ATOM     13  C   UNL A   1      31.900  25.642  25.986  1.00  0.00     0.257 C 
ATOM     14  O   UNL A   1      31.704  24.903  26.942  1.00  0.00    -0.269 OA
BRANCH  13  15
ATOM     15  C   UNL A   1      32.341  27.010  26.345  1.00  0.00     0.075 A 
ATOM     16  C   UNL A   1      31.421  27.953  26.811  1.00  0.00     0.017 A 
ATOM     17  C   UNL A   1      33.694  27.338  26.328  1.00  0.00     0.136 A 
ATOM     18  C   UNL A   1      31.852  29.234  27.189  1.00  0.00     0.004 A 
ATOM     19  C   UNL A   1      34.132  28.600  26.730  1.00  0.00     0.043 A 
ATOM     20  F   UNL A   1      34.616  26.466  25.909  1.00  0.00    -0.206 F 
ATOM     21  C   UNL A   1      33.210  29.572  27.134  1.00  0.00    -0.048 A 
ATOM     22  C   UNL A   1      33.693  30.943  27.512  1.00  0.00     0.044 C 
ENDBRANCH  13  15
ENDBRANCH  10  13
ENDBRANCH   6  10
ENDBRANCH   3   5
ENDBRANCH   2   3
ENDBRANCH   1   2
BRANCH   1  23
ATOM     23  C   UNL A   1      37.104  22.734  25.829  1.00  0.00     0.275 C 
BRANCH  23  24
ATOM     24  O   UNL A   1      38.091  23.781  25.742  1.00  0.00    -0.458 OA
BRANCH  24  25
ATOM     25  C   UNL A   1      39.143  23.644  26.590  1.00  0.00     0.338 C 
ATOM     26  O   UNL A   1      39.733  22.602  26.775  1.00  0.00    -0.246 OA
BRANCH  25  27
ATOM     27  C   UNL A   1      39.518  24.918  27.245  1.00  0.00     0.060 A 
ATOM     28  C   UNL A   1      39.126  25.104  28.582  1.00  0.00     0.016 A 
ATOM     29  C   UNL A   1      40.128  25.949  26.530  1.00  0.00     0.016 A 
ATOM     30  C   UNL A   1      39.198  26.363  29.161  1.00  0.00     0.010 A 
ATOM     31  C   UNL A   1      40.213  27.199  27.104  1.00  0.00     0.010 A 
ATOM     32  C   UNL A   1      39.718  27.403  28.401  1.00  0.00    -0.014 A 
BRANCH  32  33
ATOM     33  C   UNL A   1      40.130  28.647  29.012  1.00  0.00     0.031 A 
ATOM     34  C   UNL A   1      39.090  29.701  29.065  1.00  0.00     0.074 A 
ATOM     35  C   UNL A   1      41.288  28.672  29.698  1.00  0.00     0.049 A 
ATOM     36  N   UNL A   1      39.314  30.947  29.288  1.00  0.00    -0.248 NA
ATOM     37  C   UNL A   1      37.680  29.433  28.744  1.00  0.00     0.031 C 
ATOM     38  C   UNL A   1      41.574  29.458  30.888  1.00  0.00     0.029 A 
ATOM     39  N   UNL A   1      42.483  27.984  29.429  1.00  0.00    -0.354 N 
ATOM     40  C   UNL A   1      38.082  31.547  29.485  1.00  0.00     0.074 A 
ATOM     41  C   UNL A   1      37.118  30.627  28.950  1.00  0.00     0.031 C 
ATOM     42  C   UNL A   1      42.887  29.372  31.165  1.00  0.00     0.029 A 
ATOM     43  C   UNL A   1      43.525  28.723  30.029  1.00  0.00     0.049 A 
ATOM     44  H   UNL A   1      42.576  27.147  28.919  1.00  0.00     0.167 HD
ATOM     45  C   UNL A   1      38.017  32.651  30.283  1.00  0.00     0.037 A 
ATOM     46  C   UNL A   1      44.488  29.338  29.276  1.00  0.00     0.037 A 
ATOM     47  C   UNL A   1      39.354  32.966  30.761  1.00  0.00     0.049 A 
ATOM     48  C   UNL A   1      44.475  30.845  29.371  1.00  0.00     0.074 A 
ATOM     49  C   UNL A   1      40.021  32.569  31.907  1.00  0.00     0.029 A 
ATOM     50  N   UNL A   1      40.302  33.449  29.878  1.00  0.00    -0.354 N 
ATOM     51  N   UNL A   1      43.412  31.535  29.665  1.00  0.00    -0.248 NA
ATOM     52  C   UNL A   1      45.630  31.685  29.073  1.00  0.00     0.031 C 
ATOM     53  C   UNL A   1      41.398  32.803  31.701  1.00  0.00     0.029 A 
ATOM     54  C   UNL A   1      41.558  33.353  30.440  1.00  0.00     0.049 A 
ATOM     55  H   UNL A   1      40.111  33.807  28.982  1.00  0.00     0.167 HD
ATOM     56  C   UNL A   1      43.694  32.868  29.548  1.00  0.00     0.074 A 
ATOM     57  C   UNL A   1      45.101  32.913  29.202  1.00  0.00     0.031 C 
ATOM     58  C   UNL A   1      42.726  33.814  29.717  1.00  0.00     0.037 A 
BRANCH  45  59
ATOM     59  C   UNL A   1      36.788  33.252  30.932  1.00  0.00     0.064 A 
ATOM     60  C   UNL A   1      36.537  33.001  32.304  1.00  0.00     0.173 A 
ATOM     61  C   UNL A   1      35.809  34.031  30.293  1.00  0.00     0.173 A 
ATOM     62  F   UNL A   1      37.423  32.360  33.077  1.00  0.00    -0.203 F 
ATOM     63  C   UNL A   1      35.367  33.402  32.947  1.00  0.00     0.198 A 
ATOM     64  C   UNL A   1      34.626  34.421  30.935  1.00  0.00     0.198 A 
ATOM     65  F   UNL A   1      35.969  34.487  29.048  1.00  0.00    -0.203 F 
ATOM     66  F   UNL A   1      35.184  33.102  34.240  1.00  0.00    -0.200 F 
ATOM     67  C   UNL A   1      34.398  34.095  32.257  1.00  0.00     0.200 A 
ATOM     68  F   UNL A   1      33.705  35.125  30.260  1.00  0.00    -0.200 F 
ATOM     69  F   UNL A   1      33.267  34.469  32.868  1.00  0.00    -0.200 F 
ENDBRANCH  45  59
BRANCH  46  70
ATOM     70  C   UNL A   1      44.792  28.654  27.997  1.00  0.00     0.064 A 
ATOM     71  C   UNL A   1      45.763  27.645  27.965  1.00  0.00     0.173 A 
ATOM     72  C   UNL A   1      43.910  28.755  26.912  1.00  0.00     0.173 A 
ATOM     73  F   UNL A   1      46.624  27.500  28.986  1.00  0.00    -0.203 F 
ATOM     74  C   UNL A   1      45.795  26.717  26.928  1.00  0.00     0.198 A 
ATOM     75  C   UNL A   1      43.930  27.813  25.890  1.00  0.00     0.198 A 
ATOM     76  F   UNL A   1      42.969  29.710  26.890  1.00  0.00    -0.203 F 
ATOM     77  F   UNL A   1      46.672  25.704  26.962  1.00  0.00    -0.200 F 
ATOM     78  C   UNL A   1      44.859  26.784  25.908  1.00  0.00     0.200 A 
ATOM     79  F   UNL A   1      43.009  27.864  24.918  1.00  0.00    -0.200 F 
ATOM     80  F   UNL A   1      44.834  25.831  24.967  1.00  0.00    -0.200 F 
ENDBRANCH  46  70
BRANCH  58  81
ATOM     81  C   UNL A   1      42.826  35.266  29.327  1.00  0.00     0.064 A 
ATOM     82  C   UNL A   1      43.460  36.240  30.111  1.00  0.00     0.173 A 
ATOM     83  C   UNL A   1      42.371  35.707  28.059  1.00  0.00     0.173 A 
ATOM     84  F   UNL A   1      44.096  35.920  31.245  1.00  0.00    -0.203 F 
ATOM     85  C   UNL A   1      43.509  37.579  29.723  1.00  0.00     0.198 A 
ATOM     86  C   UNL A   1      42.493  37.028  27.640  1.00  0.00     0.198 A 
ATOM     87  F   UNL A   1      41.816  34.867  27.172  1.00  0.00    -0.203 F 
ATOM     88  F   UNL A   1      44.047  38.486  30.549  1.00  0.00    -0.200 F 
ATOM     89  C   UNL A   1      43.025  37.974  28.490  1.00  0.00     0.200 A 
ATOM     90  F   UNL A   1      42.099  37.375  26.408  1.00  0.00    -0.200 F 
ATOM     91  F   UNL A   1      43.093  39.256  28.113  1.00  0.00    -0.200 F 
ENDBRANCH  58  81
ENDBRANCH  32  33
ENDBRANCH  25  27
ENDBRANCH  24  25
ENDBRANCH  23  24
ENDBRANCH   1  23
TORSDOF 15
ENDMDL
