MODEL 1
REMARK VINA RESULT:     -13.7      0.000      0.000
REMARK SMILES COc1ccc(-c2[nH]nc3nc(-c4ccc(C(F)(F)F)cc4)cc(C(=O)OCCOC(=O)c4ccc(-c5c6nc(c(-c7c(F)c(F)c(F)c(F)c7F)c7ccc([nH]7)c(-c7c(F)c(F)c(F)c(F)c7F)c7nc(c(-c8c(F)c(F)c(F)c(F)c8F)c8ccc5[nH]8)C=C7)C=C6)cc4)c23)cc1
REMARK SMILES IDX 28 1 27 2 25 3 26 4 24 5 7 6 8 7 96 8 9 9 10 11 11 12 23 13
REMARK SMILES IDX 12 14 6 15 3 16 4 17 98 18 5 19 97 20 2 21 1 22 13 23 14 24
REMARK SMILES IDX 22 25 15 26 21 27 16 28 17 29 18 30 19 31 20 32 29 33 30 34
REMARK SMILES IDX 31 35 32 36 33 37 34 38 95 39 35 40 94 41 36 42 37 43 38 44
REMARK SMILES IDX 88 45 39 46 93 47 87 48 89 49 40 50 92 51 86 52 85 53 41 55
REMARK SMILES IDX 73 56 53 57 72 58 54 59 57 60 71 61 90 62 55 63 56 64 70 66
REMARK SMILES IDX 91 67 58 68 42 69 43 70 51 71 44 72 45 73 49 74 52 75 46 76
REMARK SMILES IDX 47 77 50 78 48 79 74 80 75 81 83 82 76 83 77 84 81 85 84 86
REMARK SMILES IDX 78 87 79 88 82 89 80 90 59 91 60 92 68 93 61 94 62 95 66 96
REMARK SMILES IDX 69 97 63 98 64 99 67 100 65 101
REMARK H PARENT 8 10 89 54 57 65
REMARK Flexibility Score: inf
ROOT
ATOM      1  C   UNL A   1      36.718  22.436  24.096  1.00  0.00     0.275 C 
ENDROOT
BRANCH   1   2
ATOM      2  O   UNL A   1      35.417  22.537  24.689  1.00  0.00    -0.458 OA
BRANCH   2   3
ATOM      3  C   UNL A   1      34.476  23.242  24.012  1.00  0.00     0.339 C 
ATOM      4  O   UNL A   1      34.404  23.378  22.806  1.00  0.00    -0.246 OA
BRANCH   3   5
ATOM      5  C   UNL A   1      33.538  23.796  24.994  1.00  0.00     0.075 A 
ATOM      6  C   UNL A   1      31.780  21.978  25.312  1.00  0.00     0.075 A 
ATOM      7  N   UNL A   1      30.625  22.033  26.066  1.00  0.00    -0.275 N 
ATOM      8  C   UNL A   1      32.350  23.236  25.492  1.00  0.00     0.061 A 
ATOM      9  N   UNL A   1      30.417  23.178  26.727  1.00  0.00    -0.154 NA
ATOM     10  H   UNL A   1      29.993  21.279  26.113  1.00  0.00     0.190 HD
ATOM     11  C   UNL A   1      31.464  23.928  26.398  1.00  0.00     0.182 A 
ATOM     12  N   UNL A   1      31.690  25.193  26.841  1.00  0.00    -0.226 NA
ATOM     13  C   UNL A   1      33.748  25.093  25.495  1.00  0.00     0.045 A 
ATOM     14  C   UNL A   1      32.829  25.746  26.347  1.00  0.00     0.074 A 
BRANCH   6  15
ATOM     15  C   UNL A   1      32.166  20.707  24.683  1.00  0.00     0.001 A 
ATOM     16  C   UNL A   1      33.106  18.391  23.345  1.00  0.00     0.118 A 
ATOM     17  C   UNL A   1      33.199  18.498  24.733  1.00  0.00     0.047 A 
ATOM     18  C   UNL A   1      32.492  19.411  22.636  1.00  0.00     0.047 A 
ATOM     19  C   UNL A   1      32.739  19.649  25.399  1.00  0.00     0.014 A 
ATOM     20  C   UNL A   1      32.053  20.555  23.304  1.00  0.00     0.014 A 
BRANCH  16  21
ATOM     21  O   UNL A   1      33.568  17.239  22.772  1.00  0.00    -0.497 OA
ATOM     22  C   UNL A   1      34.011  16.251  23.701  1.00  0.00     0.278 C 
ENDBRANCH  16  21
ENDBRANCH   6  15
BRANCH  14  23
ATOM     23  C   UNL A   1      33.035  27.178  26.644  1.00  0.00     0.000 A 
ATOM     24  C   UNL A   1      31.990  28.028  27.036  1.00  0.00     0.011 A 
ATOM     25  C   UNL A   1      34.326  27.732  26.543  1.00  0.00     0.011 A 
ATOM     26  C   UNL A   1      32.236  29.376  27.338  1.00  0.00     0.014 A 
ATOM     27  C   UNL A   1      34.576  29.072  26.842  1.00  0.00     0.014 A 
ATOM     28  C   UNL A   1      33.533  29.910  27.247  1.00  0.00     0.056 A 
BRANCH  28  29
ATOM     29  C   UNL A   1      33.796  31.360  27.571  1.00  0.00     0.416 C 
ATOM     30  F   UNL A   1      32.896  32.200  26.990  1.00  0.00    -0.166 F 
ATOM     31  F   UNL A   1      33.742  31.616  28.907  1.00  0.00    -0.166 F 
ATOM     32  F   UNL A   1      35.023  31.791  27.162  1.00  0.00    -0.166 F 
ENDBRANCH  28  29
ENDBRANCH  14  23
ENDBRANCH   3   5
ENDBRANCH   2   3
ENDBRANCH   1   2
BRANCH   1  33
ATOM     33  C   UNL A   1      37.599  21.612  25.019  1.00  0.00     0.275 C 
BRANCH  33  34
ATOM     34  O   UNL A   1      38.049  22.416  26.106  1.00  0.00    -0.458 OA
BRANCH  34  35
ATOM     35  C   UNL A   1      39.380  22.439  26.361  1.00  0.00     0.338 C 
ATOM     36  O   UNL A   1      40.222  21.634  26.039  1.00  0.00    -0.246 OA
BRANCH  35  37
ATOM     37  C   UNL A   1      39.614  23.629  27.204  1.00  0.00     0.060 A 
ATOM     38  C   UNL A   1      38.684  24.673  27.209  1.00  0.00     0.016 A 
ATOM     39  C   UNL A   1      40.825  23.720  27.911  1.00  0.00     0.016 A 
ATOM     40  C   UNL A   1      39.046  25.870  27.801  1.00  0.00     0.010 A 
ATOM     41  C   UNL A   1      41.179  24.899  28.503  1.00  0.00     0.010 A 
ATOM     42  C   UNL A   1      40.323  25.981  28.362  1.00  0.00    -0.014 A 
BRANCH  42  43
ATOM     43  C   UNL A   1      40.792  27.253  28.863  1.00  0.00     0.031 A 
ATOM     44  C   UNL A   1      42.037  27.698  28.201  1.00  0.00     0.074 A 
ATOM     45  C   UNL A   1      40.022  27.973  29.708  1.00  0.00     0.049 A 
ATOM     46  N   UNL A   1      43.214  27.778  28.721  1.00  0.00    -0.248 NA
ATOM     47  C   UNL A   1      42.026  27.902  26.740  1.00  0.00     0.031 C 
ATOM     48  C   UNL A   1      38.637  27.681  30.108  1.00  0.00     0.029 A 
ATOM     49  N   UNL A   1      40.264  29.174  30.309  1.00  0.00    -0.354 N 
ATOM     50  C   UNL A   1      44.024  28.318  27.725  1.00  0.00     0.074 A 
ATOM     51  C   UNL A   1      43.316  28.142  26.490  1.00  0.00     0.031 C 
ATOM     52  C   UNL A   1      38.089  28.773  30.688  1.00  0.00     0.029 A 
ATOM     53  C   UNL A   1      39.122  29.777  30.846  1.00  0.00     0.049 A 
ATOM     54  H   UNL A   1      41.159  29.580  30.361  1.00  0.00     0.167 HD
ATOM     55  C   UNL A   1      45.009  29.193  28.071  1.00  0.00     0.037 A 
ATOM     56  C   UNL A   1      39.047  31.035  31.349  1.00  0.00     0.037 A 
ATOM     57  C   UNL A   1      45.264  29.104  29.488  1.00  0.00     0.049 A 
ATOM     58  C   UNL A   1      40.428  31.452  31.681  1.00  0.00     0.074 A 
ATOM     59  C   UNL A   1      45.906  28.229  30.336  1.00  0.00     0.029 A 
ATOM     60  N   UNL A   1      44.388  29.840  30.240  1.00  0.00    -0.354 N 
ATOM     61  N   UNL A   1      41.136  30.886  32.620  1.00  0.00    -0.248 NA
ATOM     62  C   UNL A   1      41.187  32.223  30.703  1.00  0.00     0.031 C 
ATOM     63  C   UNL A   1      45.285  28.389  31.612  1.00  0.00     0.029 A 
ATOM     64  C   UNL A   1      44.332  29.401  31.531  1.00  0.00     0.049 A 
ATOM     65  H   UNL A   1      43.861  30.595  29.891  1.00  0.00     0.167 HD
ATOM     66  C   UNL A   1      42.422  30.870  32.117  1.00  0.00     0.074 A 
ATOM     67  C   UNL A   1      42.425  31.840  31.027  1.00  0.00     0.031 C 
ATOM     68  C   UNL A   1      43.264  29.836  32.400  1.00  0.00     0.037 A 
BRANCH  55  69
ATOM     69  C   UNL A   1      45.333  30.475  27.322  1.00  0.00     0.064 A 
ATOM     70  C   UNL A   1      46.684  30.760  27.029  1.00  0.00     0.173 A 
ATOM     71  C   UNL A   1      44.447  31.567  27.180  1.00  0.00     0.173 A 
ATOM     72  F   UNL A   1      47.622  29.808  27.142  1.00  0.00    -0.203 F 
ATOM     73  C   UNL A   1      47.119  32.049  26.703  1.00  0.00     0.198 A 
ATOM     74  C   UNL A   1      44.878  32.841  26.811  1.00  0.00     0.198 A 
ATOM     75  F   UNL A   1      43.150  31.488  27.496  1.00  0.00    -0.203 F 
ATOM     76  F   UNL A   1      48.427  32.294  26.552  1.00  0.00    -0.200 F 
ATOM     77  C   UNL A   1      46.215  33.090  26.602  1.00  0.00     0.200 A 
ATOM     78  F   UNL A   1      43.988  33.841  26.744  1.00  0.00    -0.200 F 
ATOM     79  F   UNL A   1      46.635  34.338  26.351  1.00  0.00    -0.200 F 
ENDBRANCH  55  69
BRANCH  56  80
ATOM     80  C   UNL A   1      37.925  32.000  31.270  1.00  0.00     0.064 A 
ATOM     81  C   UNL A   1      37.640  32.710  30.092  1.00  0.00     0.173 A 
ATOM     82  C   UNL A   1      36.932  32.018  32.268  1.00  0.00     0.173 A 
ATOM     83  F   UNL A   1      38.513  32.702  29.074  1.00  0.00    -0.203 F 
ATOM     84  C   UNL A   1      36.422  33.381  29.915  1.00  0.00     0.198 A 
ATOM     85  C   UNL A   1      35.718  32.684  32.090  1.00  0.00     0.198 A 
ATOM     86  F   UNL A   1      37.084  31.302  33.392  1.00  0.00    -0.203 F 
ATOM     87  F   UNL A   1      36.161  34.001  28.756  1.00  0.00    -0.200 F 
ATOM     88  C   UNL A   1      35.459  33.356  30.910  1.00  0.00     0.200 A 
ATOM     89  F   UNL A   1      34.776  32.614  33.042  1.00  0.00    -0.200 F 
ATOM     90  F   UNL A   1      34.268  33.941  30.716  1.00  0.00    -0.200 F 
ENDBRANCH  56  80
BRANCH  68  91
ATOM     91  C   UNL A   1      42.984  29.027  33.624  1.00  0.00     0.064 A 
ATOM     92  C   UNL A   1      42.195  27.866  33.657  1.00  0.00     0.173 A 
ATOM     93  C   UNL A   1      43.637  29.405  34.803  1.00  0.00     0.173 A 
ATOM     94  F   UNL A   1      41.599  27.407  32.548  1.00  0.00    -0.203 F 
ATOM     95  C   UNL A   1      42.049  27.135  34.835  1.00  0.00     0.198 A 
ATOM     96  C   UNL A   1      43.518  28.657  35.967  1.00  0.00     0.198 A 
ATOM     97  F   UNL A   1      44.434  30.486  34.810  1.00  0.00    -0.203 F 
ATOM     98  F   UNL A   1      41.284  26.033  34.854  1.00  0.00    -0.200 F 
ATOM     99  C   UNL A   1      42.717  27.527  35.986  1.00  0.00     0.200 A 
ATOM    100  F   UNL A   1      44.201  29.018  37.061  1.00  0.00    -0.200 F 
ATOM    101  F   UNL A   1      42.607  26.804  37.110  1.00  0.00    -0.200 F 
ENDBRANCH  68  91
ENDBRANCH  42  43
ENDBRANCH  35  37
ENDBRANCH  34  35
ENDBRANCH  33  34
ENDBRANCH   1  33
TORSDOF 15
ENDMDL
MODEL 2
REMARK VINA RESULT:     -13.7      3.790      8.807
REMARK SMILES COc1ccc(-c2[nH]nc3nc(-c4ccc(C(F)(F)F)cc4)cc(C(=O)OCCOC(=O)c4ccc(-c5c6nc(c(-c7c(F)c(F)c(F)c(F)c7F)c7ccc([nH]7)c(-c7c(F)c(F)c(F)c(F)c7F)c7nc(c(-c8c(F)c(F)c(F)c(F)c8F)c8ccc5[nH]8)C=C7)C=C6)cc4)c23)cc1
REMARK SMILES IDX 28 1 27 2 25 3 26 4 24 5 7 6 8 7 96 8 9 9 10 11 11 12 23 13
REMARK SMILES IDX 12 14 6 15 3 16 4 17 98 18 5 19 97 20 2 21 1 22 13 23 14 24
REMARK SMILES IDX 22 25 15 26 21 27 16 28 17 29 18 30 19 31 20 32 29 33 30 34
REMARK SMILES IDX 31 35 32 36 33 37 34 38 95 39 35 40 94 41 36 42 37 43 38 44
REMARK SMILES IDX 88 45 39 46 93 47 87 48 89 49 40 50 92 51 86 52 85 53 41 55
REMARK SMILES IDX 73 56 53 57 72 58 54 59 57 60 71 61 90 62 55 63 56 64 70 66
REMARK SMILES IDX 91 67 58 68 42 69 43 70 51 71 44 72 45 73 49 74 52 75 46 76
REMARK SMILES IDX 47 77 50 78 48 79 74 80 75 81 83 82 76 83 77 84 81 85 84 86
REMARK SMILES IDX 78 87 79 88 82 89 80 90 59 91 60 92 68 93 61 94 62 95 66 96
REMARK SMILES IDX 69 97 63 98 64 99 67 100 65 101
REMARK H PARENT 8 10 89 54 57 65
REMARK Flexibility Score: inf
ROOT
ATOM      1  C   UNL A   1      32.631  28.849  26.839  1.00  0.00     0.275 C 
ENDROOT
BRANCH   1   2
ATOM      2  O   UNL A   1      33.079  27.918  25.845  1.00  0.00    -0.458 OA
BRANCH   2   3
ATOM      3  C   UNL A   1      32.548  26.670  25.875  1.00  0.00     0.339 C 
ATOM      4  O   UNL A   1      31.659  26.282  26.607  1.00  0.00    -0.246 OA
BRANCH   3   5
ATOM      5  C   UNL A   1      33.219  25.872  24.844  1.00  0.00     0.075 A 
ATOM      6  C   UNL A   1      31.658  25.958  22.832  1.00  0.00     0.075 A 
ATOM      7  N   UNL A   1      31.782  25.294  21.628  1.00  0.00    -0.275 N 
ATOM      8  C   UNL A   1      32.774  25.543  23.554  1.00  0.00     0.061 A 
ATOM      9  N   UNL A   1      32.871  24.527  21.498  1.00  0.00    -0.154 NA
ATOM     10  H   UNL A   1      31.112  25.378  20.912  1.00  0.00     0.190 HD
ATOM     11  C   UNL A   1      33.499  24.669  22.662  1.00  0.00     0.182 A 
ATOM     12  N   UNL A   1      34.672  24.070  22.995  1.00  0.00    -0.226 NA
ATOM     13  C   UNL A   1      34.447  25.253  25.141  1.00  0.00     0.045 A 
ATOM     14  C   UNL A   1      35.098  24.370  24.250  1.00  0.00     0.074 A 
BRANCH   6  15
ATOM     15  C   UNL A   1      30.579  26.942  23.000  1.00  0.00     0.001 A 
ATOM     16  C   UNL A   1      28.472  28.838  23.058  1.00  0.00     0.118 A 
ATOM     17  C   UNL A   1      28.299  27.565  23.604  1.00  0.00     0.047 A 
ATOM     18  C   UNL A   1      29.710  29.180  22.540  1.00  0.00     0.047 A 
ATOM     19  C   UNL A   1      29.341  26.621  23.570  1.00  0.00     0.014 A 
ATOM     20  C   UNL A   1      30.733  28.231  22.498  1.00  0.00     0.014 A 
BRANCH  16  21
ATOM     21  O   UNL A   1      27.415  29.702  23.135  1.00  0.00    -0.497 OA
ATOM     22  C   UNL A   1      27.768  31.037  23.495  1.00  0.00     0.278 C 
ENDBRANCH  16  21
ENDBRANCH   6  15
BRANCH  14  23
ATOM     23  C   UNL A   1      36.267  23.610  24.736  1.00  0.00     0.000 A 
ATOM     24  C   UNL A   1      37.105  24.081  25.758  1.00  0.00     0.011 A 
ATOM     25  C   UNL A   1      36.569  22.357  24.169  1.00  0.00     0.011 A 
ATOM     26  C   UNL A   1      38.188  23.312  26.211  1.00  0.00     0.014 A 
ATOM     27  C   UNL A   1      37.645  21.589  24.615  1.00  0.00     0.014 A 
ATOM     28  C   UNL A   1      38.466  22.056  25.645  1.00  0.00     0.056 A 
BRANCH  28  29
ATOM     29  C   UNL A   1      39.632  21.231  26.131  1.00  0.00     0.416 C 
ATOM     30  F   UNL A   1      40.761  21.434  25.399  1.00  0.00    -0.166 F 
ATOM     31  F   UNL A   1      39.966  21.506  27.423  1.00  0.00    -0.166 F 
ATOM     32  F   UNL A   1      39.400  19.888  26.088  1.00  0.00    -0.166 F 
ENDBRANCH  28  29
ENDBRANCH  14  23
ENDBRANCH   3   5
ENDBRANCH   2   3
ENDBRANCH   1   2
BRANCH   1  33
ATOM     33  C   UNL A   1      33.494  30.096  26.745  1.00  0.00     0.275 C 
BRANCH  33  34
ATOM     34  O   UNL A   1      34.352  30.180  27.879  1.00  0.00    -0.458 OA
BRANCH  34  35
ATOM     35  C   UNL A   1      35.236  31.207  27.923  1.00  0.00     0.338 C 
ATOM     36  O   UNL A   1      35.116  32.323  27.474  1.00  0.00    -0.246 OA
BRANCH  35  37
ATOM     37  C   UNL A   1      36.451  30.673  28.571  1.00  0.00     0.060 A 
ATOM     38  C   UNL A   1      37.421  31.551  29.062  1.00  0.00     0.016 A 
ATOM     39  C   UNL A   1      36.642  29.281  28.588  1.00  0.00     0.016 A 
ATOM     40  C   UNL A   1      38.649  31.031  29.430  1.00  0.00     0.010 A 
ATOM     41  C   UNL A   1      37.851  28.766  28.959  1.00  0.00     0.010 A 
ATOM     42  C   UNL A   1      38.864  29.654  29.290  1.00  0.00    -0.014 A 
BRANCH  42  43
ATOM     43  C   UNL A   1      40.174  29.091  29.527  1.00  0.00     0.031 A 
ATOM     44  C   UNL A   1      40.528  29.068  30.963  1.00  0.00     0.074 A 
ATOM     45  C   UNL A   1      40.852  28.507  28.516  1.00  0.00     0.049 A 
ATOM     46  N   UNL A   1      41.423  29.778  31.558  1.00  0.00    -0.248 NA
ATOM     47  C   UNL A   1      39.669  28.309  31.890  1.00  0.00     0.031 C 
ATOM     48  C   UNL A   1      40.356  28.238  27.157  1.00  0.00     0.029 A 
ATOM     49  N   UNL A   1      42.090  27.932  28.505  1.00  0.00    -0.354 N 
ATOM     50  C   UNL A   1      41.428  29.338  32.880  1.00  0.00     0.074 A 
ATOM     51  C   UNL A   1      40.193  28.634  33.074  1.00  0.00     0.031 C 
ATOM     52  C   UNL A   1      41.179  27.363  26.535  1.00  0.00     0.029 A 
ATOM     53  C   UNL A   1      42.334  27.137  27.381  1.00  0.00     0.049 A 
ATOM     54  H   UNL A   1      42.751  28.064  29.223  1.00  0.00     0.167 HD
ATOM     55  C   UNL A   1      42.611  29.267  33.552  1.00  0.00     0.037 A 
ATOM     56  C   UNL A   1      43.406  26.326  27.195  1.00  0.00     0.037 A 
ATOM     57  C   UNL A   1      43.613  30.035  32.857  1.00  0.00     0.049 A 
ATOM     58  C   UNL A   1      44.467  26.795  28.115  1.00  0.00     0.074 A 
ATOM     59  C   UNL A   1      43.921  31.368  32.697  1.00  0.00     0.029 A 
ATOM     60  N   UNL A   1      44.196  29.350  31.824  1.00  0.00    -0.354 N 
ATOM     61  N   UNL A   1      45.051  27.956  27.995  1.00  0.00    -0.248 NA
ATOM     62  C   UNL A   1      44.603  26.158  29.420  1.00  0.00     0.031 C 
ATOM     63  C   UNL A   1      44.610  31.468  31.450  1.00  0.00     0.029 A 
ATOM     64  C   UNL A   1      44.770  30.192  30.915  1.00  0.00     0.049 A 
ATOM     65  H   UNL A   1      44.199  28.369  31.745  1.00  0.00     0.167 HD
ATOM     66  C   UNL A   1      45.249  28.376  29.295  1.00  0.00     0.074 A 
ATOM     67  C   UNL A   1      45.111  27.178  30.117  1.00  0.00     0.031 C 
ATOM     68  C   UNL A   1      45.165  29.698  29.617  1.00  0.00     0.037 A 
BRANCH  55  69
ATOM     69  C   UNL A   1      43.027  28.117  34.455  1.00  0.00     0.064 A 
ATOM     70  C   UNL A   1      43.410  28.408  35.782  1.00  0.00     0.173 A 
ATOM     71  C   UNL A   1      43.383  26.827  33.999  1.00  0.00     0.173 A 
ATOM     72  F   UNL A   1      43.141  29.606  36.323  1.00  0.00    -0.203 F 
ATOM     73  C   UNL A   1      44.158  27.513  36.554  1.00  0.00     0.198 A 
ATOM     74  C   UNL A   1      44.090  25.921  34.788  1.00  0.00     0.198 A 
ATOM     75  F   UNL A   1      43.167  26.422  32.743  1.00  0.00    -0.203 F 
ATOM     76  F   UNL A   1      44.601  27.883  37.763  1.00  0.00    -0.200 F 
ATOM     77  C   UNL A   1      44.504  26.273  36.052  1.00  0.00     0.200 A 
ATOM     78  F   UNL A   1      44.436  24.732  34.271  1.00  0.00    -0.200 F 
ATOM     79  F   UNL A   1      45.271  25.436  36.764  1.00  0.00    -0.200 F 
ENDBRANCH  55  69
BRANCH  56  80
ATOM     80  C   UNL A   1      43.466  25.008  26.522  1.00  0.00     0.064 A 
ATOM     81  C   UNL A   1      44.266  24.790  25.388  1.00  0.00     0.173 A 
ATOM     82  C   UNL A   1      42.960  23.860  27.162  1.00  0.00     0.173 A 
ATOM     83  F   UNL A   1      44.825  25.828  24.750  1.00  0.00    -0.203 F 
ATOM     84  C   UNL A   1      44.561  23.497  24.936  1.00  0.00     0.198 A 
ATOM     85  C   UNL A   1      43.257  22.572  26.713  1.00  0.00     0.198 A 
ATOM     86  F   UNL A   1      42.253  23.969  28.297  1.00  0.00    -0.203 F 
ATOM     87  F   UNL A   1      45.374  23.324  23.884  1.00  0.00    -0.200 F 
ATOM     88  C   UNL A   1      44.066  22.390  25.606  1.00  0.00     0.200 A 
ATOM     89  F   UNL A   1      42.810  21.510  27.397  1.00  0.00    -0.200 F 
ATOM     90  F   UNL A   1      44.402  21.153  25.215  1.00  0.00    -0.200 F 
ENDBRANCH  56  80
BRANCH  68  91
ATOM     91  C   UNL A   1      45.373  30.694  28.523  1.00  0.00     0.064 A 
ATOM     92  C   UNL A   1      44.355  31.226  27.716  1.00  0.00     0.173 A 
ATOM     93  C   UNL A   1      46.668  31.201  28.359  1.00  0.00     0.173 A 
ATOM     94  F   UNL A   1      43.082  30.838  27.869  1.00  0.00    -0.203 F 
ATOM     95  C   UNL A   1      44.637  32.207  26.766  1.00  0.00     0.198 A 
ATOM     96  C   UNL A   1      46.940  32.202  27.436  1.00  0.00     0.198 A 
ATOM     97  F   UNL A   1      47.667  30.751  29.135  1.00  0.00    -0.203 F 
ATOM     98  F   UNL A   1      43.655  32.699  25.995  1.00  0.00    -0.200 F 
ATOM     99  C   UNL A   1      45.927  32.699  26.633  1.00  0.00     0.200 A 
ATOM    100  F   UNL A   1      48.179  32.702  27.345  1.00  0.00    -0.200 F 
ATOM    101  F   UNL A   1      46.192  33.668  25.746  1.00  0.00    -0.200 F 
ENDBRANCH  68  91
ENDBRANCH  42  43
ENDBRANCH  35  37
ENDBRANCH  34  35
ENDBRANCH  33  34
ENDBRANCH   1  33
TORSDOF 15
ENDMDL
MODEL 3
REMARK VINA RESULT:     -13.7      0.692      1.837
REMARK SMILES COc1ccc(-c2[nH]nc3nc(-c4ccc(C(F)(F)F)cc4)cc(C(=O)OCCOC(=O)c4ccc(-c5c6nc(c(-c7c(F)c(F)c(F)c(F)c7F)c7ccc([nH]7)c(-c7c(F)c(F)c(F)c(F)c7F)c7nc(c(-c8c(F)c(F)c(F)c(F)c8F)c8ccc5[nH]8)C=C7)C=C6)cc4)c23)cc1
REMARK SMILES IDX 28 1 27 2 25 3 26 4 24 5 7 6 8 7 96 8 9 9 10 11 11 12 23 13
REMARK SMILES IDX 12 14 6 15 3 16 4 17 98 18 5 19 97 20 2 21 1 22 13 23 14 24
REMARK SMILES IDX 22 25 15 26 21 27 16 28 17 29 18 30 19 31 20 32 29 33 30 34
REMARK SMILES IDX 31 35 32 36 33 37 34 38 95 39 35 40 94 41 36 42 37 43 38 44
REMARK SMILES IDX 88 45 39 46 93 47 87 48 89 49 40 50 92 51 86 52 85 53 41 55
REMARK SMILES IDX 73 56 53 57 72 58 54 59 57 60 71 61 90 62 55 63 56 64 70 66
REMARK SMILES IDX 91 67 58 68 42 69 43 70 51 71 44 72 45 73 49 74 52 75 46 76
REMARK SMILES IDX 47 77 50 78 48 79 74 80 75 81 83 82 76 83 77 84 81 85 84 86
REMARK SMILES IDX 78 87 79 88 82 89 80 90 59 91 60 92 68 93 61 94 62 95 66 96
REMARK SMILES IDX 69 97 63 98 64 99 67 100 65 101
REMARK H PARENT 8 10 89 54 57 65
REMARK Flexibility Score: inf
ROOT
ATOM      1  C   UNL A   1      36.809  22.620  24.514  1.00  0.00     0.275 C 
ENDROOT
BRANCH   1   2
ATOM      2  O   UNL A   1      35.437  22.751  24.907  1.00  0.00    -0.458 OA
BRANCH   2   3
ATOM      3  C   UNL A   1      34.672  23.634  24.216  1.00  0.00     0.339 C 
ATOM      4  O   UNL A   1      34.768  23.904  23.035  1.00  0.00    -0.246 OA
BRANCH   3   5
ATOM      5  C   UNL A   1      33.681  24.191  25.144  1.00  0.00     0.075 A 
ATOM      6  C   UNL A   1      31.903  22.379  25.366  1.00  0.00     0.075 A 
ATOM      7  N   UNL A   1      30.708  22.438  26.054  1.00  0.00    -0.275 N 
ATOM      8  C   UNL A   1      32.466  23.635  25.576  1.00  0.00     0.061 A 
ATOM      9  N   UNL A   1      30.466  23.584  26.701  1.00  0.00    -0.154 NA
ATOM     10  H   UNL A   1      30.072  21.686  26.066  1.00  0.00     0.190 HD
ATOM     11  C   UNL A   1      31.533  24.331  26.430  1.00  0.00     0.182 A 
ATOM     12  N   UNL A   1      31.737  25.596  26.883  1.00  0.00    -0.226 NA
ATOM     13  C   UNL A   1      33.866  25.489  25.654  1.00  0.00     0.045 A 
ATOM     14  C   UNL A   1      32.903  26.145  26.453  1.00  0.00     0.074 A 
BRANCH   6  15
ATOM     15  C   UNL A   1      32.320  21.106  24.760  1.00  0.00     0.001 A 
ATOM     16  C   UNL A   1      32.930  18.535  23.734  1.00  0.00     0.118 A 
ATOM     17  C   UNL A   1      32.423  19.531  22.900  1.00  0.00     0.047 A 
ATOM     18  C   UNL A   1      33.187  18.840  25.061  1.00  0.00     0.047 A 
ATOM     19  C   UNL A   1      32.113  20.806  23.408  1.00  0.00     0.014 A 
ATOM     20  C   UNL A   1      32.862  20.104  25.558  1.00  0.00     0.014 A 
BRANCH  16  21
ATOM     21  O   UNL A   1      33.213  17.324  23.166  1.00  0.00    -0.497 OA
ATOM     22  C   UNL A   1      33.407  16.262  24.099  1.00  0.00     0.278 C 
ENDBRANCH  16  21
ENDBRANCH   6  15
BRANCH  14  23
ATOM     23  C   UNL A   1      33.096  27.577  26.759  1.00  0.00     0.000 A 
ATOM     24  C   UNL A   1      32.025  28.458  26.964  1.00  0.00     0.011 A 
ATOM     25  C   UNL A   1      34.401  28.098  26.861  1.00  0.00     0.011 A 
ATOM     26  C   UNL A   1      32.254  29.806  27.283  1.00  0.00     0.014 A 
ATOM     27  C   UNL A   1      34.634  29.437  27.177  1.00  0.00     0.014 A 
ATOM     28  C   UNL A   1      33.562  30.307  27.396  1.00  0.00     0.056 A 
BRANCH  28  29
ATOM     29  C   UNL A   1      33.808  31.756  27.738  1.00  0.00     0.416 C 
ATOM     30  F   UNL A   1      34.997  32.215  27.260  1.00  0.00    -0.166 F 
ATOM     31  F   UNL A   1      32.852  32.583  27.230  1.00  0.00    -0.166 F 
ATOM     32  F   UNL A   1      33.830  31.999  29.080  1.00  0.00    -0.166 F 
ENDBRANCH  28  29
ENDBRANCH  14  23
ENDBRANCH   3   5
ENDBRANCH   2   3
ENDBRANCH   1   2
BRANCH   1  33
ATOM     33  C   UNL A   1      37.619  22.235  25.739  1.00  0.00     0.275 C 
BRANCH  33  34
ATOM     34  O   UNL A   1      38.839  22.970  25.766  1.00  0.00    -0.458 OA
BRANCH  34  35
ATOM     35  C   UNL A   1      39.719  22.691  26.759  1.00  0.00     0.338 C 
ATOM     36  O   UNL A   1      39.950  21.626  27.282  1.00  0.00    -0.246 OA
BRANCH  35  37
ATOM     37  C   UNL A   1      40.309  23.985  27.158  1.00  0.00     0.060 A 
ATOM     38  C   UNL A   1      41.359  24.017  28.080  1.00  0.00     0.016 A 
ATOM     39  C   UNL A   1      39.727  25.165  26.665  1.00  0.00     0.016 A 
ATOM     40  C   UNL A   1      41.717  25.238  28.622  1.00  0.00     0.010 A 
ATOM     41  C   UNL A   1      40.087  26.372  27.193  1.00  0.00     0.010 A 
ATOM     42  C   UNL A   1      41.013  26.381  28.225  1.00  0.00    -0.014 A 
BRANCH  42  43
ATOM     43  C   UNL A   1      41.259  27.652  28.870  1.00  0.00     0.031 A 
ATOM     44  C   UNL A   1      42.498  28.300  28.387  1.00  0.00     0.074 A 
ATOM     45  C   UNL A   1      40.319  28.197  29.672  1.00  0.00     0.049 A 
ATOM     46  N   UNL A   1      43.594  28.475  29.042  1.00  0.00    -0.248 NA
ATOM     47  C   UNL A   1      42.611  28.628  26.954  1.00  0.00     0.031 C 
ATOM     48  C   UNL A   1      38.950  27.706  29.890  1.00  0.00     0.029 A 
ATOM     49  N   UNL A   1      40.340  29.361  30.384  1.00  0.00    -0.354 N 
ATOM     50  C   UNL A   1      44.426  29.194  28.187  1.00  0.00     0.074 A 
ATOM     51  C   UNL A   1      43.878  29.042  26.870  1.00  0.00     0.031 C 
ATOM     52  C   UNL A   1      38.208  28.668  30.484  1.00  0.00     0.029 A 
ATOM     53  C   UNL A   1      39.080  29.772  30.831  1.00  0.00     0.049 A 
ATOM     54  H   UNL A   1      41.166  29.865  30.567  1.00  0.00     0.167 HD
ATOM     55  C   UNL A   1      45.249  30.147  28.707  1.00  0.00     0.037 A 
ATOM     56  C   UNL A   1      38.792  30.962  31.415  1.00  0.00     0.037 A 
ATOM     57  C   UNL A   1      45.365  29.966  30.132  1.00  0.00     0.049 A 
ATOM     58  C   UNL A   1      40.066  31.512  31.931  1.00  0.00     0.074 A 
ATOM     59  C   UNL A   1      46.024  29.104  30.981  1.00  0.00     0.029 A 
ATOM     60  N   UNL A   1      44.329  30.522  30.833  1.00  0.00    -0.354 N 
ATOM     61  N   UNL A   1      40.740  30.955  32.900  1.00  0.00    -0.248 NA
ATOM     62  C   UNL A   1      40.816  32.452  31.105  1.00  0.00     0.031 C 
ATOM     63  C   UNL A   1      45.259  29.074  32.187  1.00  0.00     0.029 A 
ATOM     64  C   UNL A   1      44.197  29.968  32.074  1.00  0.00     0.049 A 
ATOM     65  H   UNL A   1      43.747  31.236  30.484  1.00  0.00     0.167 HD
ATOM     66  C   UNL A   1      42.062  31.139  32.546  1.00  0.00     0.074 A 
ATOM     67  C   UNL A   1      42.053  32.194  31.538  1.00  0.00     0.031 C 
ATOM     68  C   UNL A   1      42.998  30.194  32.845  1.00  0.00     0.037 A 
BRANCH  55  69
ATOM     69  C   UNL A   1      45.479  31.520  28.096  1.00  0.00     0.064 A 
ATOM     70  C   UNL A   1      44.358  32.337  27.837  1.00  0.00     0.173 A 
ATOM     71  C   UNL A   1      46.675  31.925  27.461  1.00  0.00     0.173 A 
ATOM     72  F   UNL A   1      43.163  32.046  28.372  1.00  0.00    -0.203 F 
ATOM     73  C   UNL A   1      44.414  33.419  26.951  1.00  0.00     0.198 A 
ATOM     74  C   UNL A   1      46.737  33.031  26.613  1.00  0.00     0.198 A 
ATOM     75  F   UNL A   1      47.806  31.218  27.536  1.00  0.00    -0.203 F 
ATOM     76  F   UNL A   1      43.296  34.089  26.645  1.00  0.00    -0.200 F 
ATOM     77  C   UNL A   1      45.603  33.759  26.334  1.00  0.00     0.200 A 
ATOM     78  F   UNL A   1      47.895  33.327  26.006  1.00  0.00    -0.200 F 
ATOM     79  F   UNL A   1      45.648  34.754  25.438  1.00  0.00    -0.200 F 
ENDBRANCH  55  69
BRANCH  56  80
ATOM     80  C   UNL A   1      37.569  31.788  31.280  1.00  0.00     0.064 A 
ATOM     81  C   UNL A   1      36.732  32.057  32.375  1.00  0.00     0.173 A 
ATOM     82  C   UNL A   1      37.364  32.570  30.127  1.00  0.00     0.173 A 
ATOM     83  F   UNL A   1      36.894  31.390  33.526  1.00  0.00    -0.203 F 
ATOM     84  C   UNL A   1      35.761  33.067  32.326  1.00  0.00     0.198 A 
ATOM     85  C   UNL A   1      36.398  33.578  30.080  1.00  0.00     0.198 A 
ATOM     86  F   UNL A   1      38.168  32.437  29.062  1.00  0.00    -0.203 F 
ATOM     87  F   UNL A   1      35.018  33.335  33.409  1.00  0.00    -0.200 F 
ATOM     88  C   UNL A   1      35.605  33.834  31.183  1.00  0.00     0.200 A 
ATOM     89  F   UNL A   1      36.289  34.343  28.984  1.00  0.00    -0.200 F 
ATOM     90  F   UNL A   1      34.723  34.843  31.158  1.00  0.00    -0.200 F 
ENDBRANCH  56  80
BRANCH  68  91
ATOM     91  C   UNL A   1      42.700  29.252  33.966  1.00  0.00     0.064 A 
ATOM     92  C   UNL A   1      41.973  28.058  33.841  1.00  0.00     0.173 A 
ATOM     93  C   UNL A   1      43.271  29.540  35.211  1.00  0.00     0.173 A 
ATOM     94  F   UNL A   1      41.458  27.685  32.661  1.00  0.00    -0.203 F 
ATOM     95  C   UNL A   1      41.807  27.205  34.932  1.00  0.00     0.198 A 
ATOM     96  C   UNL A   1      43.134  28.673  36.287  1.00  0.00     0.198 A 
ATOM     97  F   UNL A   1      44.008  30.651  35.369  1.00  0.00    -0.203 F 
ATOM     98  F   UNL A   1      41.101  26.071  34.799  1.00  0.00    -0.200 F 
ATOM     99  C   UNL A   1      42.394  27.510  36.151  1.00  0.00     0.200 A 
ATOM    100  F   UNL A   1      43.741  28.954  37.448  1.00  0.00    -0.200 F 
ATOM    101  F   UNL A   1      42.267  26.673  37.190  1.00  0.00    -0.200 F 
ENDBRANCH  68  91
ENDBRANCH  42  43
ENDBRANCH  35  37
ENDBRANCH  34  35
ENDBRANCH  33  34
ENDBRANCH   1  33
TORSDOF 15
ENDMDL
