MODEL 1
REMARK VINA RESULT:     -13.7      0.000      0.000
REMARK SMILES O=C(OCCOC(=O)c1cc(N2C(=O)[C@H]3[C@@H]4C=C[C@@H]([C@@H]5C[C@H]45)[C@@H]3C2=O)ccc1Cl)c1ccc(-c2c3nc(c(-c4c(F)c(F)c(F)c(F)c4F)c4ccc([nH]4)c(-c4c(F)c(F)c(F)c(F)c4F)c4nc(c(-c5c(F)c(F)c(F)c(F)c5F)c5ccc2[nH]5)C=C4)C=C3)cc1
REMARK SMILES IDX 4 1 3 2 2 3 1 4 30 5 31 6 92 7 32 8 91 9 33 10 34 11 35 12
REMARK SMILES IDX 85 13 36 14 90 15 84 16 86 17 37 18 89 19 83 20 82 21 38 23
REMARK SMILES IDX 70 24 50 25 69 26 51 27 54 28 68 29 87 30 52 31 53 32 67 34
REMARK SMILES IDX 88 35 55 36 39 37 40 38 48 39 41 40 42 41 46 42 49 43 43 44
REMARK SMILES IDX 44 45 47 46 45 47 71 48 72 49 80 50 73 51 74 52 78 53 81 54
REMARK SMILES IDX 75 55 76 56 79 57 77 58 56 59 57 60 65 61 58 62 59 63 63 64
REMARK SMILES IDX 66 65 60 66 61 67 64 68 62 69 5 70 6 71 7 72 8 73 9 74 10 75
REMARK SMILES IDX 28 76 11 77 27 78 29 79 26 80 12 81 13 82 24 83 14 84 15 85
REMARK SMILES IDX 23 86 25 87 16 88 19 89 17 90 22 91 18 92 20 93 21 94
REMARK H PARENT 86 22 54 33
REMARK Flexibility Score: inf
ROOT
ATOM      1  C   UNL A   1      31.856  32.532  26.779  1.00  0.00     0.275 C 
ENDROOT
BRANCH   1   2
ATOM      2  O   UNL A   1      32.452  33.305  27.833  1.00  0.00    -0.458 OA
BRANCH   2   3
ATOM      3  C   UNL A   1      33.714  33.765  27.971  1.00  0.00     0.338 C 
ATOM      4  O   UNL A   1      33.976  34.879  27.514  1.00  0.00    -0.246 OA
BRANCH   3   5
ATOM      5  C   UNL A   1      34.852  32.973  28.546  1.00  0.00     0.060 A 
ATOM      6  C   UNL A   1      34.787  31.731  29.181  1.00  0.00     0.016 A 
ATOM      7  C   UNL A   1      36.120  33.564  28.427  1.00  0.00     0.016 A 
ATOM      8  C   UNL A   1      35.943  31.089  29.639  1.00  0.00     0.010 A 
ATOM      9  C   UNL A   1      37.283  32.919  28.857  1.00  0.00     0.010 A 
ATOM     10  C   UNL A   1      37.197  31.683  29.490  1.00  0.00    -0.014 A 
BRANCH  10  11
ATOM     11  C   UNL A   1      38.376  31.080  30.147  1.00  0.00     0.031 A 
ATOM     12  C   UNL A   1      38.653  31.431  31.578  1.00  0.00     0.074 A 
ATOM     13  C   UNL A   1      39.136  30.180  29.495  1.00  0.00     0.049 A 
ATOM     14  N   UNL A   1      39.522  30.912  32.404  1.00  0.00    -0.248 NA
ATOM     15  C   UNL A   1      37.825  32.498  32.165  1.00  0.00     0.031 C 
ATOM     16  C   UNL A   1      38.928  29.755  28.115  1.00  0.00     0.029 A 
ATOM     17  N   UNL A   1      40.220  29.451  29.909  1.00  0.00    -0.354 N 
ATOM     18  C   UNL A   1      39.324  31.564  33.612  1.00  0.00     0.074 A 
ATOM     19  C   UNL A   1      38.300  32.562  33.398  1.00  0.00     0.031 C 
ATOM     20  C   UNL A   1      39.851  28.836  27.790  1.00  0.00     0.029 A 
ATOM     21  C   UNL A   1      40.714  28.605  28.945  1.00  0.00     0.049 A 
ATOM     22  H   UNL A   1      40.607  29.525  30.812  1.00  0.00     0.167 HD
ATOM     23  C   UNL A   1      39.922  31.329  34.802  1.00  0.00     0.037 A 
ATOM     24  C   UNL A   1      41.735  27.730  29.005  1.00  0.00     0.037 A 
ATOM     25  C   UNL A   1      40.960  30.354  34.990  1.00  0.00     0.049 A 
ATOM     26  C   UNL A   1      42.446  27.549  30.320  1.00  0.00     0.074 A 
ATOM     27  C   UNL A   1      41.647  30.031  36.145  1.00  0.00     0.029 A 
ATOM     28  N   UNL A   1      41.474  29.554  33.977  1.00  0.00    -0.354 N 
ATOM     29  N   UNL A   1      42.203  28.119  31.477  1.00  0.00    -0.248 NA
ATOM     30  C   UNL A   1      43.553  26.586  30.348  1.00  0.00     0.031 C 
ATOM     31  C   UNL A   1      42.614  29.073  35.819  1.00  0.00     0.029 A 
ATOM     32  C   UNL A   1      42.491  28.758  34.474  1.00  0.00     0.049 A 
ATOM     33  H   UNL A   1      41.160  29.553  33.044  1.00  0.00     0.167 HD
ATOM     34  C   UNL A   1      43.094  27.554  32.379  1.00  0.00     0.074 A 
ATOM     35  C   UNL A   1      43.881  26.590  31.633  1.00  0.00     0.031 C 
ATOM     36  C   UNL A   1      43.247  27.800  33.704  1.00  0.00     0.037 A 
BRANCH  23  37
ATOM     37  C   UNL A   1      39.477  32.171  35.961  1.00  0.00     0.064 A 
ATOM     38  C   UNL A   1      40.084  33.404  36.249  1.00  0.00     0.173 A 
ATOM     39  C   UNL A   1      38.464  31.721  36.819  1.00  0.00     0.173 A 
ATOM     40  F   UNL A   1      41.076  33.868  35.472  1.00  0.00    -0.203 F 
ATOM     41  C   UNL A   1      39.720  34.136  37.377  1.00  0.00     0.198 A 
ATOM     42  C   UNL A   1      38.083  32.470  37.930  1.00  0.00     0.198 A 
ATOM     43  F   UNL A   1      37.855  30.549  36.591  1.00  0.00    -0.203 F 
ATOM     44  F   UNL A   1      40.359  35.277  37.669  1.00  0.00    -0.200 F 
ATOM     45  C   UNL A   1      38.719  33.670  38.214  1.00  0.00     0.200 A 
ATOM     46  F   UNL A   1      37.113  32.020  38.737  1.00  0.00    -0.200 F 
ATOM     47  F   UNL A   1      38.377  34.368  39.306  1.00  0.00    -0.200 F 
ENDBRANCH  23  37
BRANCH  24  48
ATOM     48  C   UNL A   1      42.114  26.933  27.808  1.00  0.00     0.064 A 
ATOM     49  C   UNL A   1      41.528  25.686  27.547  1.00  0.00     0.173 A 
ATOM     50  C   UNL A   1      43.083  27.395  26.904  1.00  0.00     0.173 A 
ATOM     51  F   UNL A   1      40.607  25.191  28.387  1.00  0.00    -0.203 F 
ATOM     52  C   UNL A   1      41.912  24.922  26.446  1.00  0.00     0.198 A 
ATOM     53  C   UNL A   1      43.450  26.642  25.790  1.00  0.00     0.198 A 
ATOM     54  F   UNL A   1      43.673  28.584  27.102  1.00  0.00    -0.203 F 
ATOM     55  F   UNL A   1      41.369  23.714  26.249  1.00  0.00    -0.200 F 
ATOM     56  C   UNL A   1      42.871  25.402  25.567  1.00  0.00     0.200 A 
ATOM     57  F   UNL A   1      44.368  27.116  24.937  1.00  0.00    -0.200 F 
ATOM     58  F   UNL A   1      43.243  24.667  24.510  1.00  0.00    -0.200 F 
ENDBRANCH  24  48
BRANCH  36  59
ATOM     59  C   UNL A   1      44.272  26.986  34.435  1.00  0.00     0.064 A 
ATOM     60  C   UNL A   1      45.587  27.441  34.613  1.00  0.00     0.173 A 
ATOM     61  C   UNL A   1      43.919  25.749  34.998  1.00  0.00     0.173 A 
ATOM     62  F   UNL A   1      45.975  28.609  34.080  1.00  0.00    -0.203 F 
ATOM     63  C   UNL A   1      46.519  26.673  35.306  1.00  0.00     0.198 A 
ATOM     64  C   UNL A   1      44.845  25.001  35.718  1.00  0.00     0.198 A 
ATOM     65  F   UNL A   1      42.672  25.275  34.861  1.00  0.00    -0.203 F 
ATOM     66  F   UNL A   1      47.783  27.103  35.420  1.00  0.00    -0.200 F 
ATOM     67  C   UNL A   1      46.146  25.460  35.864  1.00  0.00     0.200 A 
ATOM     68  F   UNL A   1      44.478  23.837  36.270  1.00  0.00    -0.200 F 
ATOM     69  F   UNL A   1      47.043  24.727  36.537  1.00  0.00    -0.200 F 
ENDBRANCH  36  59
ENDBRANCH  10  11
ENDBRANCH   3   5
ENDBRANCH   2   3
ENDBRANCH   1   2
BRANCH   1  70
ATOM     70  C   UNL A   1      32.127  31.030  26.869  1.00  0.00     0.275 C 
BRANCH  70  71
ATOM     71  O   UNL A   1      31.396  30.270  25.894  1.00  0.00    -0.458 OA
BRANCH  71  72
ATOM     72  C   UNL A   1      32.148  29.511  25.057  1.00  0.00     0.339 C 
ATOM     73  O   UNL A   1      33.318  29.683  24.766  1.00  0.00    -0.246 OA
BRANCH  72  74
ATOM     74  C   UNL A   1      31.386  28.322  24.633  1.00  0.00     0.080 A 
ATOM     75  C   UNL A   1      31.942  27.061  24.925  1.00  0.00     0.044 A 
ATOM     76  C   UNL A   1      30.177  28.414  23.936  1.00  0.00     0.055 A 
ATOM     77  C   UNL A   1      31.283  25.898  24.520  1.00  0.00     0.053 A 
ATOM     78  C   UNL A   1      29.514  27.245  23.551  1.00  0.00     0.023 A 
ATOM     79  Cl  UNL A   1      29.468  29.919  23.470  1.00  0.00    -0.083 Cl
ATOM     80  C   UNL A   1      30.066  25.995  23.836  1.00  0.00     0.028 A 
BRANCH  77  81
ATOM     81  N   UNL A   1      31.819  24.626  24.795  1.00  0.00    -0.250 N 
ATOM     82  C   UNL A   1      32.692  23.965  23.916  1.00  0.00     0.238 C 
ATOM     83  C   UNL A   1      31.988  24.162  26.116  1.00  0.00     0.238 C 
ATOM     84  O   UNL A   1      33.167  24.312  22.852  1.00  0.00    -0.274 OA
ATOM     85  C   UNL A   1      33.044  22.724  24.652  1.00  0.00     0.100 C 
ATOM     86  C   UNL A   1      33.253  23.373  26.023  1.00  0.00     0.100 C 
ATOM     87  O   UNL A   1      31.406  24.490  27.133  1.00  0.00    -0.274 OA
ATOM     88  C   UNL A   1      34.144  21.688  24.386  1.00  0.00     0.028 C 
ATOM     89  C   UNL A   1      34.020  22.402  26.910  1.00  0.00     0.028 C 
ATOM     90  C   UNL A   1      33.678  20.566  25.344  1.00  0.00    -0.026 C 
ATOM     91  C   UNL A   1      35.545  22.064  24.889  1.00  0.00     0.001 C 
ATOM     92  C   UNL A   1      33.560  20.961  26.635  1.00  0.00    -0.026 C 
ATOM     93  C   UNL A   1      35.498  22.474  26.369  1.00  0.00     0.001 C 
ATOM     94  C   UNL A   1      36.049  23.415  25.296  1.00  0.00     0.009 C 
ENDBRANCH  77  81
ENDBRANCH  72  74
ENDBRANCH  71  72
ENDBRANCH  70  71
ENDBRANCH   1  70
TORSDOF 12
ENDMDL
MODEL 2
REMARK VINA RESULT:     -13.6      0.992      1.638
REMARK SMILES O=C(OCCOC(=O)c1cc(N2C(=O)[C@H]3[C@@H]4C=C[C@@H]([C@@H]5C[C@H]45)[C@@H]3C2=O)ccc1Cl)c1ccc(-c2c3nc(c(-c4c(F)c(F)c(F)c(F)c4F)c4ccc([nH]4)c(-c4c(F)c(F)c(F)c(F)c4F)c4nc(c(-c5c(F)c(F)c(F)c(F)c5F)c5ccc2[nH]5)C=C4)C=C3)cc1
REMARK SMILES IDX 4 1 3 2 2 3 1 4 30 5 31 6 92 7 32 8 91 9 33 10 34 11 35 12
REMARK SMILES IDX 85 13 36 14 90 15 84 16 86 17 37 18 89 19 83 20 82 21 38 23
REMARK SMILES IDX 70 24 50 25 69 26 51 27 54 28 68 29 87 30 52 31 53 32 67 34
REMARK SMILES IDX 88 35 55 36 39 37 40 38 48 39 41 40 42 41 46 42 49 43 43 44
REMARK SMILES IDX 44 45 47 46 45 47 71 48 72 49 80 50 73 51 74 52 78 53 81 54
REMARK SMILES IDX 75 55 76 56 79 57 77 58 56 59 57 60 65 61 58 62 59 63 63 64
REMARK SMILES IDX 66 65 60 66 61 67 64 68 62 69 5 70 6 71 7 72 8 73 9 74 10 75
REMARK SMILES IDX 28 76 11 77 27 78 29 79 26 80 12 81 13 82 24 83 14 84 15 85
REMARK SMILES IDX 23 86 25 87 16 88 19 89 17 90 22 91 18 92 20 93 21 94
REMARK H PARENT 86 22 54 33
REMARK Flexibility Score: inf
ROOT
ATOM      1  C   UNL A   1      31.574  32.235  27.146  1.00  0.00     0.275 C 
ENDROOT
BRANCH   1   2
ATOM      2  O   UNL A   1      32.330  33.456  27.144  1.00  0.00    -0.458 OA
BRANCH   2   3
ATOM      3  C   UNL A   1      32.950  34.102  28.156  1.00  0.00     0.338 C 
ATOM      4  O   UNL A   1      32.460  35.160  28.551  1.00  0.00    -0.246 OA
BRANCH   3   5
ATOM      5  C   UNL A   1      34.256  33.680  28.762  1.00  0.00     0.060 A 
ATOM      6  C   UNL A   1      35.530  34.169  28.462  1.00  0.00     0.016 A 
ATOM      7  C   UNL A   1      34.172  32.673  29.737  1.00  0.00     0.016 A 
ATOM      8  C   UNL A   1      36.663  33.703  29.138  1.00  0.00     0.010 A 
ATOM      9  C   UNL A   1      35.295  32.220  30.436  1.00  0.00     0.010 A 
ATOM     10  C   UNL A   1      36.555  32.719  30.121  1.00  0.00    -0.014 A 
BRANCH  10  11
ATOM     11  C   UNL A   1      37.778  32.108  30.684  1.00  0.00     0.031 A 
ATOM     12  C   UNL A   1      38.219  32.526  32.055  1.00  0.00     0.074 A 
ATOM     13  C   UNL A   1      38.434  31.145  30.010  1.00  0.00     0.049 A 
ATOM     14  N   UNL A   1      39.155  32.019  32.813  1.00  0.00    -0.248 NA
ATOM     15  C   UNL A   1      37.495  33.655  32.663  1.00  0.00     0.031 C 
ATOM     16  C   UNL A   1      38.064  30.653  28.686  1.00  0.00     0.029 A 
ATOM     17  N   UNL A   1      39.531  30.397  30.349  1.00  0.00    -0.354 N 
ATOM     18  C   UNL A   1      39.109  32.744  33.995  1.00  0.00     0.074 A 
ATOM     19  C   UNL A   1      38.102  33.768  33.833  1.00  0.00     0.031 C 
ATOM     20  C   UNL A   1      38.916  29.682  28.321  1.00  0.00     0.029 A 
ATOM     21  C   UNL A   1      39.890  29.481  29.389  1.00  0.00     0.049 A 
ATOM     22  H   UNL A   1      40.016  30.506  31.199  1.00  0.00     0.167 HD
ATOM     23  C   UNL A   1      39.825  32.551  35.127  1.00  0.00     0.037 A 
ATOM     24  C   UNL A   1      40.882  28.572  29.392  1.00  0.00     0.037 A 
ATOM     25  C   UNL A   1      40.844  31.548  35.261  1.00  0.00     0.049 A 
ATOM     26  C   UNL A   1      41.725  28.436  30.633  1.00  0.00     0.074 A 
ATOM     27  C   UNL A   1      41.641  31.263  36.354  1.00  0.00     0.029 A 
ATOM     28  N   UNL A   1      41.219  30.674  34.248  1.00  0.00    -0.354 N 
ATOM     29  N   UNL A   1      41.627  29.077  31.774  1.00  0.00    -0.248 NA
ATOM     30  C   UNL A   1      42.796  27.433  30.600  1.00  0.00     0.031 C 
ATOM     31  C   UNL A   1      42.535  30.252  35.984  1.00  0.00     0.029 A 
ATOM     32  C   UNL A   1      42.258  29.868  34.680  1.00  0.00     0.049 A 
ATOM     33  H   UNL A   1      40.807  30.635  33.355  1.00  0.00     0.167 HD
ATOM     34  C   UNL A   1      42.591  28.529  32.608  1.00  0.00     0.074 A 
ATOM     35  C   UNL A   1      43.261  27.496  31.840  1.00  0.00     0.031 C 
ATOM     36  C   UNL A   1      42.894  28.841  33.892  1.00  0.00     0.037 A 
BRANCH  23  37
ATOM     37  C   UNL A   1      39.535  33.472  36.275  1.00  0.00     0.064 A 
ATOM     38  C   UNL A   1      40.152  34.729  36.383  1.00  0.00     0.173 A 
ATOM     39  C   UNL A   1      38.667  33.077  37.302  1.00  0.00     0.173 A 
ATOM     40  F   UNL A   1      41.011  35.144  35.438  1.00  0.00    -0.203 F 
ATOM     41  C   UNL A   1      39.940  35.539  37.496  1.00  0.00     0.198 A 
ATOM     42  C   UNL A   1      38.435  33.902  38.400  1.00  0.00     0.198 A 
ATOM     43  F   UNL A   1      38.055  31.886  37.250  1.00  0.00    -0.203 F 
ATOM     44  F   UNL A   1      40.592  36.705  37.609  1.00  0.00    -0.200 F 
ATOM     45  C   UNL A   1      39.081  35.126  38.502  1.00  0.00     0.200 A 
ATOM     46  F   UNL A   1      37.601  33.504  39.370  1.00  0.00    -0.200 F 
ATOM     47  F   UNL A   1      38.886  35.900  39.579  1.00  0.00    -0.200 F 
ENDBRANCH  23  37
BRANCH  24  48
ATOM     48  C   UNL A   1      41.104  27.696  28.211  1.00  0.00     0.064 A 
ATOM     49  C   UNL A   1      41.940  28.092  27.157  1.00  0.00     0.173 A 
ATOM     50  C   UNL A   1      40.471  26.448  28.102  1.00  0.00     0.173 A 
ATOM     51  F   UNL A   1      42.557  29.282  27.204  1.00  0.00    -0.203 F 
ATOM     52  C   UNL A   1      42.115  27.288  26.031  1.00  0.00     0.198 A 
ATOM     53  C   UNL A   1      40.666  25.634  26.988  1.00  0.00     0.198 A 
ATOM     54  F   UNL A   1      39.664  26.017  29.083  1.00  0.00    -0.203 F 
ATOM     55  F   UNL A   1      42.883  27.714  25.020  1.00  0.00    -0.200 F 
ATOM     56  C   UNL A   1      41.480  26.058  25.949  1.00  0.00     0.200 A 
ATOM     57  F   UNL A   1      40.060  24.441  26.918  1.00  0.00    -0.200 F 
ATOM     58  F   UNL A   1      41.647  25.286  24.867  1.00  0.00    -0.200 F 
ENDBRANCH  24  48
BRANCH  36  59
ATOM     59  C   UNL A   1      43.965  28.029  34.557  1.00  0.00     0.064 A 
ATOM     60  C   UNL A   1      45.302  28.452  34.587  1.00  0.00     0.173 A 
ATOM     61  C   UNL A   1      43.637  26.829  35.208  1.00  0.00     0.173 A 
ATOM     62  F   UNL A   1      45.666  29.584  33.966  1.00  0.00    -0.203 F 
ATOM     63  C   UNL A   1      46.278  27.688  35.220  1.00  0.00     0.198 A 
ATOM     64  C   UNL A   1      44.610  26.085  35.868  1.00  0.00     0.198 A 
ATOM     65  F   UNL A   1      42.372  26.386  35.213  1.00  0.00    -0.203 F 
ATOM     66  F   UNL A   1      47.557  28.084  35.192  1.00  0.00    -0.200 F 
ATOM     67  C   UNL A   1      45.930  26.511  35.866  1.00  0.00     0.200 A 
ATOM     68  F   UNL A   1      44.270  24.957  36.505  1.00  0.00    -0.200 F 
ATOM     69  F   UNL A   1      46.870  25.781  36.483  1.00  0.00    -0.200 F 
ENDBRANCH  36  59
ENDBRANCH  10  11
ENDBRANCH   3   5
ENDBRANCH   2   3
ENDBRANCH   1   2
BRANCH   1  70
ATOM     70  C   UNL A   1      32.399  30.983  26.850  1.00  0.00     0.275 C 
BRANCH  70  71
ATOM     71  O   UNL A   1      31.639  29.952  26.200  1.00  0.00    -0.458 OA
BRANCH  71  72
ATOM     72  C   UNL A   1      32.221  29.391  25.110  1.00  0.00     0.339 C 
ATOM     73  O   UNL A   1      33.289  29.700  24.611  1.00  0.00    -0.246 OA
BRANCH  72  74
ATOM     74  C   UNL A   1      31.440  28.222  24.666  1.00  0.00     0.080 A 
ATOM     75  C   UNL A   1      31.965  26.947  24.957  1.00  0.00     0.044 A 
ATOM     76  C   UNL A   1      30.244  28.346  23.952  1.00  0.00     0.055 A 
ATOM     77  C   UNL A   1      31.287  25.802  24.534  1.00  0.00     0.053 A 
ATOM     78  C   UNL A   1      29.561  27.194  23.549  1.00  0.00     0.023 A 
ATOM     79  Cl  UNL A   1      29.575  29.869  23.487  1.00  0.00    -0.083 Cl
ATOM     80  C   UNL A   1      30.082  25.931  23.832  1.00  0.00     0.028 A 
BRANCH  77  81
ATOM     81  N   UNL A   1      31.791  24.517  24.807  1.00  0.00    -0.250 N 
ATOM     82  C   UNL A   1      32.625  23.824  23.915  1.00  0.00     0.238 C 
ATOM     83  C   UNL A   1      31.974  24.057  26.128  1.00  0.00     0.238 C 
ATOM     84  O   UNL A   1      33.087  24.149  22.840  1.00  0.00    -0.274 OA
ATOM     85  C   UNL A   1      32.956  22.579  24.654  1.00  0.00     0.100 C 
ATOM     86  C   UNL A   1      33.212  23.230  26.015  1.00  0.00     0.100 C 
ATOM     87  O   UNL A   1      31.423  24.410  27.154  1.00  0.00    -0.274 OA
ATOM     88  C   UNL A   1      34.019  21.509  24.372  1.00  0.00     0.028 C 
ATOM     89  C   UNL A   1      33.969  22.243  26.893  1.00  0.00     0.028 C 
ATOM     90  C   UNL A   1      33.540  20.407  25.349  1.00  0.00    -0.026 C 
ATOM     91  C   UNL A   1      35.441  21.846  24.844  1.00  0.00     0.001 C 
ATOM     92  C   UNL A   1      33.461  20.815  26.639  1.00  0.00    -0.026 C 
ATOM     93  C   UNL A   1      35.437  22.268  26.321  1.00  0.00     0.001 C 
ATOM     94  C   UNL A   1      35.993  23.185  25.230  1.00  0.00     0.009 C 
ENDBRANCH  77  81
ENDBRANCH  72  74
ENDBRANCH  71  72
ENDBRANCH  70  71
ENDBRANCH   1  70
TORSDOF 12
ENDMDL
MODEL 3
REMARK VINA RESULT:     -13.6      1.227      1.879
REMARK SMILES O=C(OCCOC(=O)c1cc(N2C(=O)[C@H]3[C@@H]4C=C[C@@H]([C@@H]5C[C@H]45)[C@@H]3C2=O)ccc1Cl)c1ccc(-c2c3nc(c(-c4c(F)c(F)c(F)c(F)c4F)c4ccc([nH]4)c(-c4c(F)c(F)c(F)c(F)c4F)c4nc(c(-c5c(F)c(F)c(F)c(F)c5F)c5ccc2[nH]5)C=C4)C=C3)cc1
REMARK SMILES IDX 4 1 3 2 2 3 1 4 30 5 31 6 92 7 32 8 91 9 33 10 34 11 35 12
REMARK SMILES IDX 85 13 36 14 90 15 84 16 86 17 37 18 89 19 83 20 82 21 38 23
REMARK SMILES IDX 70 24 50 25 69 26 51 27 54 28 68 29 87 30 52 31 53 32 67 34
REMARK SMILES IDX 88 35 55 36 39 37 40 38 48 39 41 40 42 41 46 42 49 43 43 44
REMARK SMILES IDX 44 45 47 46 45 47 71 48 72 49 80 50 73 51 74 52 78 53 81 54
REMARK SMILES IDX 75 55 76 56 79 57 77 58 56 59 57 60 65 61 58 62 59 63 63 64
REMARK SMILES IDX 66 65 60 66 61 67 64 68 62 69 5 70 6 71 7 72 8 73 9 74 10 75
REMARK SMILES IDX 28 76 11 77 27 78 29 79 26 80 12 81 13 82 24 83 14 84 15 85
REMARK SMILES IDX 23 86 25 87 16 88 19 89 17 90 22 91 18 92 20 93 21 94
REMARK H PARENT 86 22 54 33
REMARK Flexibility Score: inf
ROOT
ATOM      1  C   UNL A   1      32.303  32.012  26.900  1.00  0.00     0.275 C 
ENDROOT
BRANCH   1   2
ATOM      2  O   UNL A   1      32.148  33.379  27.311  1.00  0.00    -0.458 OA
BRANCH   2   3
ATOM      3  C   UNL A   1      32.880  34.121  28.170  1.00  0.00     0.338 C 
ATOM      4  O   UNL A   1      32.495  35.264  28.418  1.00  0.00    -0.246 OA
BRANCH   3   5
ATOM      5  C   UNL A   1      34.192  33.694  28.760  1.00  0.00     0.060 A 
ATOM      6  C   UNL A   1      35.465  34.168  28.436  1.00  0.00     0.016 A 
ATOM      7  C   UNL A   1      34.114  32.699  29.748  1.00  0.00     0.016 A 
ATOM      8  C   UNL A   1      36.605  33.700  29.099  1.00  0.00     0.010 A 
ATOM      9  C   UNL A   1      35.243  32.244  30.435  1.00  0.00     0.010 A 
ATOM     10  C   UNL A   1      36.503  32.728  30.095  1.00  0.00    -0.014 A 
BRANCH  10  11
ATOM     11  C   UNL A   1      37.729  32.112  30.646  1.00  0.00     0.031 A 
ATOM     12  C   UNL A   1      38.181  32.523  32.015  1.00  0.00     0.074 A 
ATOM     13  C   UNL A   1      38.378  31.151  29.962  1.00  0.00     0.049 A 
ATOM     14  N   UNL A   1      39.121  32.010  32.764  1.00  0.00    -0.248 NA
ATOM     15  C   UNL A   1      37.463  33.650  32.634  1.00  0.00     0.031 C 
ATOM     16  C   UNL A   1      37.998  30.667  28.639  1.00  0.00     0.029 A 
ATOM     17  N   UNL A   1      39.477  30.400  30.289  1.00  0.00    -0.354 N 
ATOM     18  C   UNL A   1      39.086  32.730  33.950  1.00  0.00     0.074 A 
ATOM     19  C   UNL A   1      38.079  33.756  33.800  1.00  0.00     0.031 C 
ATOM     20  C   UNL A   1      38.846  29.696  28.262  1.00  0.00     0.029 A 
ATOM     21  C   UNL A   1      39.827  29.489  29.323  1.00  0.00     0.049 A 
ATOM     22  H   UNL A   1      39.968  30.504  31.137  1.00  0.00     0.167 HD
ATOM     23  C   UNL A   1      39.809  32.530  35.075  1.00  0.00     0.037 A 
ATOM     24  C   UNL A   1      40.818  28.577  29.314  1.00  0.00     0.037 A 
ATOM     25  C   UNL A   1      40.828  31.525  35.197  1.00  0.00     0.049 A 
ATOM     26  C   UNL A   1      41.669  28.434  30.548  1.00  0.00     0.074 A 
ATOM     27  C   UNL A   1      41.632  31.233  36.282  1.00  0.00     0.029 A 
ATOM     28  N   UNL A   1      41.194  30.655  34.177  1.00  0.00    -0.354 N 
ATOM     29  N   UNL A   1      41.581  29.070  31.692  1.00  0.00    -0.248 NA
ATOM     30  C   UNL A   1      42.739  27.430  30.501  1.00  0.00     0.031 C 
ATOM     31  C   UNL A   1      42.521  30.222  35.901  1.00  0.00     0.029 A 
ATOM     32  C   UNL A   1      42.234  29.845  34.598  1.00  0.00     0.049 A 
ATOM     33  H   UNL A   1      40.775  30.621  33.287  1.00  0.00     0.167 HD
ATOM     34  C   UNL A   1      42.550  28.516  32.516  1.00  0.00     0.074 A 
ATOM     35  C   UNL A   1      43.212  27.485  31.739  1.00  0.00     0.031 C 
ATOM     36  C   UNL A   1      42.863  28.821  33.800  1.00  0.00     0.037 A 
BRANCH  23  37
ATOM     37  C   UNL A   1      39.530  33.446  36.231  1.00  0.00     0.064 A 
ATOM     38  C   UNL A   1      40.161  34.695  36.347  1.00  0.00     0.173 A 
ATOM     39  C   UNL A   1      38.656  33.054  37.253  1.00  0.00     0.173 A 
ATOM     40  F   UNL A   1      41.024  35.107  35.406  1.00  0.00    -0.203 F 
ATOM     41  C   UNL A   1      39.957  35.499  37.466  1.00  0.00     0.198 A 
ATOM     42  C   UNL A   1      38.433  33.873  38.358  1.00  0.00     0.198 A 
ATOM     43  F   UNL A   1      38.031  31.869  37.192  1.00  0.00    -0.203 F 
ATOM     44  F   UNL A   1      40.622  36.656  37.588  1.00  0.00    -0.200 F 
ATOM     45  C   UNL A   1      39.093  35.088  38.469  1.00  0.00     0.200 A 
ATOM     46  F   UNL A   1      37.594  33.477  39.325  1.00  0.00    -0.200 F 
ATOM     47  F   UNL A   1      38.906  35.856  39.552  1.00  0.00    -0.200 F 
ENDBRANCH  23  37
BRANCH  24  48
ATOM     48  C   UNL A   1      41.029  27.707  28.126  1.00  0.00     0.064 A 
ATOM     49  C   UNL A   1      40.431  26.443  28.034  1.00  0.00     0.173 A 
ATOM     50  C   UNL A   1      41.847  28.116  27.062  1.00  0.00     0.173 A 
ATOM     51  F   UNL A   1      39.652  25.997  29.030  1.00  0.00    -0.203 F 
ATOM     52  C   UNL A   1      40.661  25.611  26.938  1.00  0.00     0.198 A 
ATOM     53  C   UNL A   1      42.058  27.295  25.955  1.00  0.00     0.198 A 
ATOM     54  F   UNL A   1      42.441  29.319  27.095  1.00  0.00    -0.203 F 
ATOM     55  F   UNL A   1      40.114  24.390  26.900  1.00  0.00    -0.200 F 
ATOM     56  C   UNL A   1      41.472  26.040  25.898  1.00  0.00     0.200 A 
ATOM     57  F   UNL A   1      42.833  27.719  24.947  1.00  0.00    -0.200 F 
ATOM     58  F   UNL A   1      41.696  25.241  24.846  1.00  0.00    -0.200 F 
ENDBRANCH  24  48
BRANCH  36  59
ATOM     59  C   UNL A   1      43.937  28.004  34.453  1.00  0.00     0.064 A 
ATOM     60  C   UNL A   1      45.275  28.426  34.478  1.00  0.00     0.173 A 
ATOM     61  C   UNL A   1      43.613  26.799  35.097  1.00  0.00     0.173 A 
ATOM     62  F   UNL A   1      45.635  29.563  33.863  1.00  0.00    -0.203 F 
ATOM     63  C   UNL A   1      46.254  27.657  35.101  1.00  0.00     0.198 A 
ATOM     64  C   UNL A   1      44.589  26.051  35.747  1.00  0.00     0.198 A 
ATOM     65  F   UNL A   1      42.347  26.357  35.107  1.00  0.00    -0.203 F 
ATOM     66  F   UNL A   1      47.533  28.054  35.068  1.00  0.00    -0.200 F 
ATOM     67  C   UNL A   1      45.909  26.476  35.740  1.00  0.00     0.200 A 
ATOM     68  F   UNL A   1      44.252  24.918  36.378  1.00  0.00    -0.200 F 
ATOM     69  F   UNL A   1      46.852  25.742  36.346  1.00  0.00    -0.200 F 
ENDBRANCH  36  59
ENDBRANCH  10  11
ENDBRANCH   3   5
ENDBRANCH   2   3
ENDBRANCH   1   2
BRANCH   1  70
ATOM     70  C   UNL A   1      31.113  31.448  26.124  1.00  0.00     0.275 C 
BRANCH  70  71
ATOM     71  O   UNL A   1      31.433  30.252  25.397  1.00  0.00    -0.458 OA
BRANCH  71  72
ATOM     72  C   UNL A   1      30.583  29.932  24.389  1.00  0.00     0.339 C 
ATOM     73  O   UNL A   1      29.939  30.705  23.702  1.00  0.00    -0.246 OA
BRANCH  72  74
ATOM     74  C   UNL A   1      30.643  28.483  24.119  1.00  0.00     0.080 A 
ATOM     75  C   UNL A   1      31.870  27.833  24.352  1.00  0.00     0.044 A 
ATOM     76  C   UNL A   1      29.550  27.767  23.619  1.00  0.00     0.055 A 
ATOM     77  C   UNL A   1      31.997  26.468  24.085  1.00  0.00     0.053 A 
ATOM     78  C   UNL A   1      29.679  26.397  23.372  1.00  0.00     0.023 A 
ATOM     79  Cl  UNL A   1      28.036  28.505  23.232  1.00  0.00    -0.083 Cl
ATOM     80  C   UNL A   1      30.896  25.753  23.598  1.00  0.00     0.028 A 
BRANCH  77  81
ATOM     81  N   UNL A   1      33.213  25.795  24.304  1.00  0.00    -0.250 N 
ATOM     82  C   UNL A   1      33.518  25.154  25.516  1.00  0.00     0.238 C 
ATOM     83  C   UNL A   1      33.958  25.243  23.241  1.00  0.00     0.238 C 
ATOM     84  O   UNL A   1      32.862  25.010  26.529  1.00  0.00    -0.274 OA
ATOM     85  C   UNL A   1      34.841  24.534  25.251  1.00  0.00     0.100 C 
ATOM     86  C   UNL A   1      34.524  24.002  23.851  1.00  0.00     0.100 C 
ATOM     87  O   UNL A   1      33.967  25.546  22.063  1.00  0.00    -0.274 OA
ATOM     88  C   UNL A   1      35.624  23.482  26.049  1.00  0.00     0.028 C 
ATOM     89  C   UNL A   1      35.569  22.961  23.476  1.00  0.00     0.028 C 
ATOM     90  C   UNL A   1      36.998  23.595  25.345  1.00  0.00    -0.026 C 
ATOM     91  C   UNL A   1      35.197  22.025  25.823  1.00  0.00     0.001 C 
ATOM     92  C   UNL A   1      36.947  23.383  24.008  1.00  0.00    -0.026 C 
ATOM     93  C   UNL A   1      35.169  21.694  24.323  1.00  0.00     0.001 C 
ATOM     94  C   UNL A   1      33.930  21.519  25.204  1.00  0.00     0.009 C 
ENDBRANCH  77  81
ENDBRANCH  72  74
ENDBRANCH  71  72
ENDBRANCH  70  71
ENDBRANCH   1  70
TORSDOF 12
ENDMDL
