MODEL 1
REMARK VINA RESULT:     -12.1      0.000      0.000
REMARK SMILES COc1cc(OC)cc(-n2nnc(C(=O)OCCOC(=O)c3ccc(-c4c5nc(c(-c6c(F)c(F)c(F)c(F)c6F)c6ccc([nH]6)c(-c6c(F)c(F)c(F)c(F)c6F)c6nc(c(-c7c(F)c(F)c(F)c(F)c7F)c7ccc4[nH]7)C=C6)C=C5)cc3)c2C)c1
REMARK SMILES IDX 17 1 16 2 14 3 15 4 13 5 10 6 11 7 85 8 12 9 86 10 9 11 3 12
REMARK SMILES IDX 4 13 87 14 5 15 8 16 2 17 1 18 6 19 7 20 18 21 19 22 20 23
REMARK SMILES IDX 21 24 22 25 23 26 84 27 24 28 83 29 25 30 26 31 27 32 77 33
REMARK SMILES IDX 28 34 82 35 76 36 78 37 29 38 81 39 75 40 74 41 30 43 62 44
REMARK SMILES IDX 42 45 61 46 43 47 46 48 60 49 79 50 44 51 45 52 59 54 80 55
REMARK SMILES IDX 47 56 31 57 32 58 40 59 33 60 34 61 38 62 41 63 35 64 36 65
REMARK SMILES IDX 39 66 37 67 63 68 64 69 72 70 65 71 66 72 70 73 73 74 67 75
REMARK SMILES IDX 68 76 71 77 69 78 48 79 49 80 57 81 50 82 51 83 55 84 58 85
REMARK SMILES IDX 52 86 53 87 56 88 54 89
REMARK H PARENT 78 42 46 53
REMARK Flexibility Score: inf
ROOT
ATOM      1  C   UNL A   1      41.684  19.303  26.392  1.00  0.00     0.275 C 
ENDROOT
BRANCH   1   2
ATOM      2  O   UNL A   1      41.029  20.496  25.941  1.00  0.00    -0.457 OA
BRANCH   2   3
ATOM      3  C   UNL A   1      40.306  21.218  26.856  1.00  0.00     0.360 C 
ATOM      4  O   UNL A   1      40.625  21.348  28.031  1.00  0.00    -0.244 OA
BRANCH   3   5
ATOM      5  C   UNL A   1      39.149  21.858  26.238  1.00  0.00     0.193 A 
ATOM      6  N   UNL A   1      37.331  22.296  25.129  1.00  0.00    -0.217 N 
ATOM      7  N   UNL A   1      37.814  23.471  25.575  1.00  0.00    -0.061 NA
ATOM      8  C   UNL A   1      38.213  21.275  25.401  1.00  0.00     0.076 A 
ATOM      9  N   UNL A   1      38.879  23.206  26.328  1.00  0.00    -0.122 NA
ATOM     10  C   UNL A   1      38.143  19.919  24.797  1.00  0.00     0.069 C 
BRANCH   6  11
ATOM     11  C   UNL A   1      36.046  22.165  24.576  1.00  0.00     0.074 A 
ATOM     12  C   UNL A   1      34.394  23.049  23.056  1.00  0.00     0.124 A 
ATOM     13  C   UNL A   1      33.439  22.250  23.684  1.00  0.00     0.093 A 
ATOM     14  C   UNL A   1      35.699  23.022  23.520  1.00  0.00     0.075 A 
ATOM     15  C   UNL A   1      33.788  21.383  24.731  1.00  0.00     0.124 A 
ATOM     16  C   UNL A   1      35.116  21.298  25.151  1.00  0.00     0.075 A 
BRANCH  12  17
ATOM     17  O   UNL A   1      33.942  23.873  22.063  1.00  0.00    -0.497 OA
ATOM     18  C   UNL A   1      32.846  24.716  22.412  1.00  0.00     0.278 C 
ENDBRANCH  12  17
BRANCH  15  19
ATOM     19  O   UNL A   1      32.737  20.694  25.273  1.00  0.00    -0.497 OA
ATOM     20  C   UNL A   1      32.923  19.292  25.444  1.00  0.00     0.278 C 
ENDBRANCH  15  19
ENDBRANCH   6  11
ENDBRANCH   3   5
ENDBRANCH   2   3
ENDBRANCH   1   2
BRANCH   1  21
ATOM     21  C   UNL A   1      43.066  19.192  25.769  1.00  0.00     0.275 C 
BRANCH  21  22
ATOM     22  O   UNL A   1      43.294  20.296  24.898  1.00  0.00    -0.458 OA
BRANCH  22  23
ATOM     23  C   UNL A   1      44.580  20.683  24.744  1.00  0.00     0.338 C 
ATOM     24  O   UNL A   1      45.551  19.963  24.601  1.00  0.00    -0.246 OA
BRANCH  23  25
ATOM     25  C   UNL A   1      44.652  22.122  25.028  1.00  0.00     0.060 A 
ATOM     26  C   UNL A   1      45.623  22.549  25.937  1.00  0.00     0.016 A 
ATOM     27  C   UNL A   1      43.594  22.954  24.630  1.00  0.00     0.016 A 
ATOM     28  C   UNL A   1      45.420  23.741  26.597  1.00  0.00     0.010 A 
ATOM     29  C   UNL A   1      43.377  24.127  25.308  1.00  0.00     0.010 A 
ATOM     30  C   UNL A   1      44.253  24.467  26.333  1.00  0.00    -0.014 A 
BRANCH  30  31
ATOM     31  C   UNL A   1      44.006  25.669  27.096  1.00  0.00     0.031 A 
ATOM     32  C   UNL A   1      44.987  26.745  26.829  1.00  0.00     0.074 A 
ATOM     33  C   UNL A   1      42.907  25.823  27.855  1.00  0.00     0.049 A 
ATOM     34  N   UNL A   1      45.790  27.311  27.667  1.00  0.00    -0.248 NA
ATOM     35  C   UNL A   1      45.189  27.149  25.428  1.00  0.00     0.031 C 
ATOM     36  C   UNL A   1      41.735  24.947  27.939  1.00  0.00     0.029 A 
ATOM     37  N   UNL A   1      42.560  26.877  28.640  1.00  0.00    -0.354 N 
ATOM     38  C   UNL A   1      46.478  28.269  26.931  1.00  0.00     0.074 A 
ATOM     39  C   UNL A   1      46.193  28.015  25.545  1.00  0.00     0.031 C 
ATOM     40  C   UNL A   1      40.729  25.612  28.550  1.00  0.00     0.029 A 
ATOM     41  C   UNL A   1      41.221  26.904  28.999  1.00  0.00     0.049 A 
ATOM     42  H   UNL A   1      43.204  27.563  28.929  1.00  0.00     0.167 HD
ATOM     43  C   UNL A   1      47.021  29.355  27.539  1.00  0.00     0.037 A 
ATOM     44  C   UNL A   1      40.562  27.956  29.545  1.00  0.00     0.037 A 
ATOM     45  C   UNL A   1      47.227  29.121  28.945  1.00  0.00     0.049 A 
ATOM     46  C   UNL A   1      41.582  28.883  30.103  1.00  0.00     0.074 A 
ATOM     47  C   UNL A   1      47.956  28.200  29.675  1.00  0.00     0.029 A 
ATOM     48  N   UNL A   1      46.342  29.677  29.834  1.00  0.00    -0.354 N 
ATOM     49  N   UNL A   1      42.319  28.618  31.144  1.00  0.00    -0.248 NA
ATOM     50  C   UNL A   1      42.089  29.936  29.233  1.00  0.00     0.031 C 
ATOM     51  C   UNL A   1      47.155  27.913  30.819  1.00  0.00     0.029 A 
ATOM     52  C   UNL A   1      46.012  28.709  30.746  1.00  0.00     0.049 A 
ATOM     53  H   UNL A   1      46.006  30.603  29.820  1.00  0.00     0.167 HD
ATOM     54  C   UNL A   1      43.566  29.143  30.835  1.00  0.00     0.074 A 
ATOM     55  C   UNL A   1      43.337  30.027  29.697  1.00  0.00     0.031 C 
ATOM     56  C   UNL A   1      44.705  28.589  31.345  1.00  0.00     0.037 A 
BRANCH  43  57
ATOM     57  C   UNL A   1      46.979  30.739  26.942  1.00  0.00     0.064 A 
ATOM     58  C   UNL A   1      48.144  31.529  26.975  1.00  0.00     0.173 A 
ATOM     59  C   UNL A   1      45.784  31.429  26.634  1.00  0.00     0.173 A 
ATOM     60  F   UNL A   1      49.332  30.981  27.273  1.00  0.00    -0.203 F 
ATOM     61  C   UNL A   1      48.098  32.915  26.806  1.00  0.00     0.198 A 
ATOM     62  C   UNL A   1      45.752  32.802  26.411  1.00  0.00     0.198 A 
ATOM     63  F   UNL A   1      44.586  30.834  26.653  1.00  0.00    -0.203 F 
ATOM     64  F   UNL A   1      49.208  33.642  26.986  1.00  0.00    -0.200 F 
ATOM     65  C   UNL A   1      46.901  33.551  26.533  1.00  0.00     0.200 A 
ATOM     66  F   UNL A   1      44.577  33.401  26.166  1.00  0.00    -0.200 F 
ATOM     67  F   UNL A   1      46.843  34.885  26.443  1.00  0.00    -0.200 F 
ENDBRANCH  43  57
BRANCH  44  68
ATOM     68  C   UNL A   1      39.152  28.364  29.338  1.00  0.00     0.064 A 
ATOM     69  C   UNL A   1      38.273  28.500  30.425  1.00  0.00     0.173 A 
ATOM     70  C   UNL A   1      38.712  28.890  28.108  1.00  0.00     0.173 A 
ATOM     71  F   UNL A   1      38.633  28.067  31.642  1.00  0.00    -0.203 F 
ATOM     72  C   UNL A   1      37.039  29.147  30.293  1.00  0.00     0.198 A 
ATOM     73  C   UNL A   1      37.476  29.525  27.976  1.00  0.00     0.198 A 
ATOM     74  F   UNL A   1      39.508  28.887  27.030  1.00  0.00    -0.203 F 
ATOM     75  F   UNL A   1      36.255  29.316  31.368  1.00  0.00    -0.200 F 
ATOM     76  C   UNL A   1      36.646  29.667  29.072  1.00  0.00     0.200 A 
ATOM     77  F   UNL A   1      37.125  30.055  26.796  1.00  0.00    -0.200 F 
ATOM     78  F   UNL A   1      35.492  30.340  28.959  1.00  0.00    -0.200 F 
ENDBRANCH  44  68
BRANCH  56  79
ATOM     79  C   UNL A   1      44.555  27.593  32.460  1.00  0.00     0.064 A 
ATOM     80  C   UNL A   1      44.355  26.215  32.261  1.00  0.00     0.173 A 
ATOM     81  C   UNL A   1      44.747  28.033  33.775  1.00  0.00     0.173 A 
ATOM     82  F   UNL A   1      44.269  25.701  31.028  1.00  0.00    -0.203 F 
ATOM     83  C   UNL A   1      44.297  25.332  33.336  1.00  0.00     0.198 A 
ATOM     84  C   UNL A   1      44.727  27.143  34.845  1.00  0.00     0.198 A 
ATOM     85  F   UNL A   1      44.999  29.329  34.021  1.00  0.00    -0.203 F 
ATOM     86  F   UNL A   1      44.085  24.024  33.123  1.00  0.00    -0.200 F 
ATOM     87  C   UNL A   1      44.488  25.795  34.627  1.00  0.00     0.200 A 
ATOM     88  F   UNL A   1      44.963  27.588  36.087  1.00  0.00    -0.200 F 
ATOM     89  F   UNL A   1      44.470  24.940  35.659  1.00  0.00    -0.200 F 
ENDBRANCH  56  79
ENDBRANCH  30  31
ENDBRANCH  23  25
ENDBRANCH  22  23
ENDBRANCH  21  22
ENDBRANCH   1  21
TORSDOF 14
ENDMDL
MODEL 2
REMARK VINA RESULT:     -11.9      5.246     10.446
REMARK SMILES COc1cc(OC)cc(-n2nnc(C(=O)OCCOC(=O)c3ccc(-c4c5nc(c(-c6c(F)c(F)c(F)c(F)c6F)c6ccc([nH]6)c(-c6c(F)c(F)c(F)c(F)c6F)c6nc(c(-c7c(F)c(F)c(F)c(F)c7F)c7ccc4[nH]7)C=C6)C=C5)cc3)c2C)c1
REMARK SMILES IDX 17 1 16 2 14 3 15 4 13 5 10 6 11 7 85 8 12 9 86 10 9 11 3 12
REMARK SMILES IDX 4 13 87 14 5 15 8 16 2 17 1 18 6 19 7 20 18 21 19 22 20 23
REMARK SMILES IDX 21 24 22 25 23 26 84 27 24 28 83 29 25 30 26 31 27 32 77 33
REMARK SMILES IDX 28 34 82 35 76 36 78 37 29 38 81 39 75 40 74 41 30 43 62 44
REMARK SMILES IDX 42 45 61 46 43 47 46 48 60 49 79 50 44 51 45 52 59 54 80 55
REMARK SMILES IDX 47 56 31 57 32 58 40 59 33 60 34 61 38 62 41 63 35 64 36 65
REMARK SMILES IDX 39 66 37 67 63 68 64 69 72 70 65 71 66 72 70 73 73 74 67 75
REMARK SMILES IDX 68 76 71 77 69 78 48 79 49 80 57 81 50 82 51 83 55 84 58 85
REMARK SMILES IDX 52 86 53 87 56 88 54 89
REMARK H PARENT 78 42 46 53
REMARK Flexibility Score: inf
ROOT
ATOM      1  C   UNL A   1      33.260  34.872  28.654  1.00  0.00     0.275 C 
ENDROOT
BRANCH   1   2
ATOM      2  O   UNL A   1      33.688  33.523  28.890  1.00  0.00    -0.457 OA
BRANCH   2   3
ATOM      3  C   UNL A   1      34.498  32.933  27.954  1.00  0.00     0.360 C 
ATOM      4  O   UNL A   1      35.496  33.461  27.482  1.00  0.00    -0.244 OA
BRANCH   3   5
ATOM      5  C   UNL A   1      34.053  31.579  27.641  1.00  0.00     0.193 A 
ATOM      6  N   UNL A   1      32.929  29.827  27.009  1.00  0.00    -0.217 N 
ATOM      7  N   UNL A   1      34.064  29.383  27.583  1.00  0.00    -0.061 NA
ATOM      8  C   UNL A   1      32.816  31.192  27.152  1.00  0.00     0.076 A 
ATOM      9  N   UNL A   1      34.798  30.448  27.895  1.00  0.00    -0.122 NA
ATOM     10  C   UNL A   1      31.570  31.962  26.909  1.00  0.00     0.069 C 
BRANCH   6  11
ATOM     11  C   UNL A   1      32.073  28.990  26.275  1.00  0.00     0.074 A 
ATOM     12  C   UNL A   1      30.919  26.874  26.155  1.00  0.00     0.124 A 
ATOM     13  C   UNL A   1      30.710  27.105  24.795  1.00  0.00     0.093 A 
ATOM     14  C   UNL A   1      31.625  27.812  26.892  1.00  0.00     0.075 A 
ATOM     15  C   UNL A   1      31.147  28.288  24.180  1.00  0.00     0.124 A 
ATOM     16  C   UNL A   1      31.791  29.269  24.937  1.00  0.00     0.075 A 
BRANCH  12  17
ATOM     17  O   UNL A   1      30.473  25.679  26.646  1.00  0.00    -0.497 OA
ATOM     18  C   UNL A   1      30.678  24.549  25.801  1.00  0.00     0.278 C 
ENDBRANCH  12  17
BRANCH  15  19
ATOM     19  O   UNL A   1      30.905  28.354  22.835  1.00  0.00    -0.497 OA
ATOM     20  C   UNL A   1      29.630  28.855  22.447  1.00  0.00     0.278 C 
ENDBRANCH  15  19
ENDBRANCH   6  11
ENDBRANCH   3   5
ENDBRANCH   2   3
ENDBRANCH   1   2
BRANCH   1  21
ATOM     21  C   UNL A   1      33.282  35.667  29.950  1.00  0.00     0.275 C 
BRANCH  21  22
ATOM     22  O   UNL A   1      32.876  34.837  31.033  1.00  0.00    -0.458 OA
BRANCH  22  23
ATOM     23  C   UNL A   1      33.256  35.234  32.268  1.00  0.00     0.338 C 
ATOM     24  O   UNL A   1      32.828  36.184  32.898  1.00  0.00    -0.246 OA
BRANCH  23  25
ATOM     25  C   UNL A   1      34.458  34.473  32.634  1.00  0.00     0.060 A 
ATOM     26  C   UNL A   1      35.625  35.199  32.882  1.00  0.00     0.016 A 
ATOM     27  C   UNL A   1      34.478  33.084  32.435  1.00  0.00     0.016 A 
ATOM     28  C   UNL A   1      36.837  34.558  32.733  1.00  0.00     0.010 A 
ATOM     29  C   UNL A   1      35.684  32.453  32.259  1.00  0.00     0.010 A 
ATOM     30  C   UNL A   1      36.844  33.215  32.338  1.00  0.00    -0.014 A 
BRANCH  30  31
ATOM     31  C   UNL A   1      38.119  32.579  32.097  1.00  0.00     0.031 A 
ATOM     32  C   UNL A   1      38.946  32.441  33.317  1.00  0.00     0.074 A 
ATOM     33  C   UNL A   1      38.439  32.043  30.906  1.00  0.00     0.049 A 
ATOM     34  N   UNL A   1      40.115  32.938  33.542  1.00  0.00    -0.248 NA
ATOM     35  C   UNL A   1      38.336  31.776  34.480  1.00  0.00     0.031 C 
ATOM     36  C   UNL A   1      37.575  31.855  29.737  1.00  0.00     0.029 A 
ATOM     37  N   UNL A   1      39.599  31.442  30.531  1.00  0.00    -0.354 N 
ATOM     38  C   UNL A   1      40.467  32.500  34.814  1.00  0.00     0.074 A 
ATOM     39  C   UNL A   1      39.282  31.937  35.403  1.00  0.00     0.031 C 
ATOM     40  C   UNL A   1      38.173  30.997  28.880  1.00  0.00     0.029 A 
ATOM     41  C   UNL A   1      39.497  30.673  29.382  1.00  0.00     0.049 A 
ATOM     42  H   UNL A   1      40.440  31.545  31.033  1.00  0.00     0.167 HD
ATOM     43  C   UNL A   1      41.770  32.403  35.181  1.00  0.00     0.037 A 
ATOM     44  C   UNL A   1      40.412  29.774  28.941  1.00  0.00     0.037 A 
ATOM     45  C   UNL A   1      42.610  33.234  34.357  1.00  0.00     0.049 A 
ATOM     46  C   UNL A   1      41.701  30.077  29.616  1.00  0.00     0.074 A 
ATOM     47  C   UNL A   1      42.663  34.589  34.088  1.00  0.00     0.029 A 
ATOM     48  N   UNL A   1      43.353  32.633  33.371  1.00  0.00    -0.354 N 
ATOM     49  N   UNL A   1      42.418  31.139  29.382  1.00  0.00    -0.248 NA
ATOM     50  C   UNL A   1      41.978  29.406  30.879  1.00  0.00     0.031 C 
ATOM     51  C   UNL A   1      43.020  34.681  32.710  1.00  0.00     0.029 A 
ATOM     52  C   UNL A   1      43.209  33.385  32.234  1.00  0.00     0.049 A 
ATOM     53  H   UNL A   1      43.890  31.814  33.464  1.00  0.00     0.167 HD
ATOM     54  C   UNL A   1      42.908  31.515  30.624  1.00  0.00     0.074 A 
ATOM     55  C   UNL A   1      42.690  30.358  31.486  1.00  0.00     0.031 C 
ATOM     56  C   UNL A   1      43.178  32.823  30.905  1.00  0.00     0.037 A 
BRANCH  43  57
ATOM     57  C   UNL A   1      42.310  31.261  36.003  1.00  0.00     0.064 A 
ATOM     58  C   UNL A   1      43.204  31.543  37.055  1.00  0.00     0.173 A 
ATOM     59  C   UNL A   1      42.242  29.904  35.610  1.00  0.00     0.173 A 
ATOM     60  F   UNL A   1      43.361  32.800  37.498  1.00  0.00    -0.203 F 
ATOM     61  C   UNL A   1      44.031  30.559  37.601  1.00  0.00     0.198 A 
ATOM     62  C   UNL A   1      43.029  28.917  36.196  1.00  0.00     0.198 A 
ATOM     63  F   UNL A   1      41.508  29.495  34.569  1.00  0.00    -0.203 F 
ATOM     64  F   UNL A   1      44.964  30.901  38.499  1.00  0.00    -0.200 F 
ATOM     65  C   UNL A   1      43.949  29.249  37.165  1.00  0.00     0.200 A 
ATOM     66  F   UNL A   1      42.946  27.657  35.745  1.00  0.00    -0.200 F 
ATOM     67  F   UNL A   1      44.790  28.320  37.636  1.00  0.00    -0.200 F 
ENDBRANCH  43  57
BRANCH  44  68
ATOM     68  C   UNL A   1      40.173  28.496  28.229  1.00  0.00     0.064 A 
ATOM     69  C   UNL A   1      40.794  28.227  26.999  1.00  0.00     0.173 A 
ATOM     70  C   UNL A   1      39.551  27.405  28.867  1.00  0.00     0.173 A 
ATOM     71  F   UNL A   1      41.448  29.199  26.347  1.00  0.00    -0.203 F 
ATOM     72  C   UNL A   1      40.813  26.938  26.453  1.00  0.00     0.198 A 
ATOM     73  C   UNL A   1      39.562  26.123  28.316  1.00  0.00     0.198 A 
ATOM     74  F   UNL A   1      39.004  27.536  30.084  1.00  0.00    -0.203 F 
ATOM     75  F   UNL A   1      41.472  26.707  25.309  1.00  0.00    -0.200 F 
ATOM     76  C   UNL A   1      40.205  25.887  27.117  1.00  0.00     0.200 A 
ATOM     77  F   UNL A   1      38.999  25.108  28.987  1.00  0.00    -0.200 F 
ATOM     78  F   UNL A   1      40.276  24.642  26.625  1.00  0.00    -0.200 F 
ENDBRANCH  44  68
BRANCH  56  79
ATOM     79  C   UNL A   1      43.200  33.791  29.756  1.00  0.00     0.064 A 
ATOM     80  C   UNL A   1      44.314  33.995  28.922  1.00  0.00     0.173 A 
ATOM     81  C   UNL A   1      42.009  34.441  29.412  1.00  0.00     0.173 A 
ATOM     82  F   UNL A   1      45.457  33.328  29.121  1.00  0.00    -0.203 F 
ATOM     83  C   UNL A   1      44.248  34.853  27.827  1.00  0.00     0.198 A 
ATOM     84  C   UNL A   1      41.935  35.269  28.294  1.00  0.00     0.198 A 
ATOM     85  F   UNL A   1      40.898  34.240  30.138  1.00  0.00    -0.203 F 
ATOM     86  F   UNL A   1      45.330  35.047  27.057  1.00  0.00    -0.200 F 
ATOM     87  C   UNL A   1      43.057  35.485  27.511  1.00  0.00     0.200 A 
ATOM     88  F   UNL A   1      40.768  35.838  27.963  1.00  0.00    -0.200 F 
ATOM     89  F   UNL A   1      42.982  36.281  26.435  1.00  0.00    -0.200 F 
ENDBRANCH  56  79
ENDBRANCH  30  31
ENDBRANCH  23  25
ENDBRANCH  22  23
ENDBRANCH  21  22
ENDBRANCH   1  21
TORSDOF 14
ENDMDL
MODEL 3
REMARK VINA RESULT:     -11.8      5.069     11.075
REMARK SMILES COc1cc(OC)cc(-n2nnc(C(=O)OCCOC(=O)c3ccc(-c4c5nc(c(-c6c(F)c(F)c(F)c(F)c6F)c6ccc([nH]6)c(-c6c(F)c(F)c(F)c(F)c6F)c6nc(c(-c7c(F)c(F)c(F)c(F)c7F)c7ccc4[nH]7)C=C6)C=C5)cc3)c2C)c1
REMARK SMILES IDX 17 1 16 2 14 3 15 4 13 5 10 6 11 7 85 8 12 9 86 10 9 11 3 12
REMARK SMILES IDX 4 13 87 14 5 15 8 16 2 17 1 18 6 19 7 20 18 21 19 22 20 23
REMARK SMILES IDX 21 24 22 25 23 26 84 27 24 28 83 29 25 30 26 31 27 32 77 33
REMARK SMILES IDX 28 34 82 35 76 36 78 37 29 38 81 39 75 40 74 41 30 43 62 44
REMARK SMILES IDX 42 45 61 46 43 47 46 48 60 49 79 50 44 51 45 52 59 54 80 55
REMARK SMILES IDX 47 56 31 57 32 58 40 59 33 60 34 61 38 62 41 63 35 64 36 65
REMARK SMILES IDX 39 66 37 67 63 68 64 69 72 70 65 71 66 72 70 73 73 74 67 75
REMARK SMILES IDX 68 76 71 77 69 78 48 79 49 80 57 81 50 82 51 83 55 84 58 85
REMARK SMILES IDX 52 86 53 87 56 88 54 89
REMARK H PARENT 78 42 46 53
REMARK Flexibility Score: inf
ROOT
ATOM      1  C   UNL A   1      33.733  35.125  28.828  1.00  0.00     0.275 C 
ENDROOT
BRANCH   1   2
ATOM      2  O   UNL A   1      32.891  34.888  29.964  1.00  0.00    -0.457 OA
BRANCH   2   3
ATOM      3  C   UNL A   1      32.939  35.784  31.000  1.00  0.00     0.360 C 
ATOM      4  O   UNL A   1      32.148  36.708  31.143  1.00  0.00    -0.244 OA
BRANCH   3   5
ATOM      5  C   UNL A   1      34.010  35.461  31.937  1.00  0.00     0.193 A 
ATOM      6  N   UNL A   1      35.577  34.482  33.084  1.00  0.00    -0.217 N 
ATOM      7  N   UNL A   1      35.392  35.700  33.628  1.00  0.00    -0.061 NA
ATOM      8  C   UNL A   1      34.634  34.237  32.111  1.00  0.00     0.076 A 
ATOM      9  N   UNL A   1      34.496  36.340  32.880  1.00  0.00    -0.122 NA
ATOM     10  C   UNL A   1      34.359  32.901  31.524  1.00  0.00     0.069 C 
BRANCH   6  11
ATOM     11  C   UNL A   1      36.669  33.662  33.414  1.00  0.00     0.074 A 
ATOM     12  C   UNL A   1      37.777  32.346  35.106  1.00  0.00     0.124 A 
ATOM     13  C   UNL A   1      38.922  32.350  34.310  1.00  0.00     0.093 A 
ATOM     14  C   UNL A   1      36.653  33.026  34.665  1.00  0.00     0.075 A 
ATOM     15  C   UNL A   1      38.935  32.975  33.053  1.00  0.00     0.124 A 
ATOM     16  C   UNL A   1      37.780  33.595  32.573  1.00  0.00     0.075 A 
BRANCH  12  17
ATOM     17  O   UNL A   1      37.881  31.728  36.321  1.00  0.00    -0.497 OA
ATOM     18  C   UNL A   1      38.482  30.435  36.305  1.00  0.00     0.278 C 
ENDBRANCH  12  17
BRANCH  15  19
ATOM     19  O   UNL A   1      40.140  32.929  32.407  1.00  0.00    -0.497 OA
ATOM     20  C   UNL A   1      40.373  33.941  31.433  1.00  0.00     0.278 C 
ENDBRANCH  15  19
ENDBRANCH   6  11
ENDBRANCH   3   5
ENDBRANCH   2   3
ENDBRANCH   1   2
BRANCH   1  21
ATOM     21  C   UNL A   1      33.795  33.888  27.948  1.00  0.00     0.275 C 
BRANCH  21  22
ATOM     22  O   UNL A   1      35.022  33.199  28.167  1.00  0.00    -0.458 OA
BRANCH  22  23
ATOM     23  C   UNL A   1      35.007  31.864  27.952  1.00  0.00     0.338 C 
ATOM     24  O   UNL A   1      34.129  31.218  27.412  1.00  0.00    -0.246 OA
BRANCH  23  25
ATOM     25  C   UNL A   1      36.125  31.277  28.703  1.00  0.00     0.060 A 
ATOM     26  C   UNL A   1      37.186  32.121  29.037  1.00  0.00     0.016 A 
ATOM     27  C   UNL A   1      36.233  29.881  28.793  1.00  0.00     0.016 A 
ATOM     28  C   UNL A   1      38.421  31.556  29.273  1.00  0.00     0.010 A 
ATOM     29  C   UNL A   1      37.467  29.319  29.000  1.00  0.00     0.010 A 
ATOM     30  C   UNL A   1      38.557  30.167  29.164  1.00  0.00    -0.014 A 
BRANCH  30  31
ATOM     31  C   UNL A   1      39.874  29.593  29.325  1.00  0.00     0.031 A 
ATOM     32  C   UNL A   1      40.312  29.516  30.736  1.00  0.00     0.074 A 
ATOM     33  C   UNL A   1      40.552  29.057  28.295  1.00  0.00     0.049 A 
ATOM     34  N   UNL A   1      41.342  30.075  31.278  1.00  0.00    -0.248 NA
ATOM     35  C   UNL A   1      39.419  28.837  31.689  1.00  0.00     0.031 C 
ATOM     36  C   UNL A   1      40.078  28.807  26.930  1.00  0.00     0.029 A 
ATOM     37  N   UNL A   1      41.797  28.511  28.292  1.00  0.00    -0.354 N 
ATOM     38  C   UNL A   1      41.324  29.675  32.609  1.00  0.00     0.074 A 
ATOM     39  C   UNL A   1      40.046  29.060  32.843  1.00  0.00     0.031 C 
ATOM     40  C   UNL A   1      40.938  27.968  26.310  1.00  0.00     0.029 A 
ATOM     41  C   UNL A   1      42.070  27.720  27.187  1.00  0.00     0.049 A 
ATOM     42  H   UNL A   1      42.448  28.664  29.014  1.00  0.00     0.167 HD
ATOM     43  C   UNL A   1      42.466  29.650  33.343  1.00  0.00     0.037 A 
ATOM     44  C   UNL A   1      43.113  26.863  27.058  1.00  0.00     0.037 A 
ATOM     45  C   UNL A   1      43.473  30.511  32.776  1.00  0.00     0.049 A 
ATOM     46  C   UNL A   1      44.133  27.241  28.071  1.00  0.00     0.074 A 
ATOM     47  C   UNL A   1      43.542  31.863  32.495  1.00  0.00     0.029 A 
ATOM     48  N   UNL A   1      44.497  29.934  32.067  1.00  0.00    -0.354 N 
ATOM     49  N   UNL A   1      44.839  28.335  28.024  1.00  0.00    -0.248 NA
ATOM     50  C   UNL A   1      44.058  26.604  29.378  1.00  0.00     0.031 C 
ATOM     51  C   UNL A   1      44.281  31.953  31.279  1.00  0.00     0.029 A 
ATOM     52  C   UNL A   1      44.660  30.661  30.917  1.00  0.00     0.049 A 
ATOM     53  H   UNL A   1      45.020  29.145  32.337  1.00  0.00     0.167 HD
ATOM     54  C   UNL A   1      44.927  28.754  29.344  1.00  0.00     0.074 A 
ATOM     55  C   UNL A   1      44.518  27.600  30.139  1.00  0.00     0.031 C 
ATOM     56  C   UNL A   1      45.044  30.078  29.653  1.00  0.00     0.037 A 
BRANCH  43  57
ATOM     57  C   UNL A   1      42.792  28.550  34.320  1.00  0.00     0.064 A 
ATOM     58  C   UNL A   1      43.172  28.895  35.631  1.00  0.00     0.173 A 
ATOM     59  C   UNL A   1      43.054  27.212  33.943  1.00  0.00     0.173 A 
ATOM     60  F   UNL A   1      42.985  30.142  36.089  1.00  0.00    -0.203 F 
ATOM     61  C   UNL A   1      43.846  27.998  36.463  1.00  0.00     0.198 A 
ATOM     62  C   UNL A   1      43.676  26.305  34.795  1.00  0.00     0.198 A 
ATOM     63  F   UNL A   1      42.833  26.760  32.703  1.00  0.00    -0.203 F 
ATOM     64  F   UNL A   1      44.313  28.414  37.647  1.00  0.00    -0.200 F 
ATOM     65  C   UNL A   1      44.106  26.706  36.041  1.00  0.00     0.200 A 
ATOM     66  F   UNL A   1      43.934  25.063  34.359  1.00  0.00    -0.200 F 
ATOM     67  F   UNL A   1      44.814  25.868  36.807  1.00  0.00    -0.200 F 
ENDBRANCH  43  57
BRANCH  44  68
ATOM     68  C   UNL A   1      43.151  25.563  26.345  1.00  0.00     0.064 A 
ATOM     69  C   UNL A   1      44.160  25.281  25.410  1.00  0.00     0.173 A 
ATOM     70  C   UNL A   1      42.362  24.473  26.763  1.00  0.00     0.173 A 
ATOM     71  F   UNL A   1      44.984  26.252  24.994  1.00  0.00    -0.203 F 
ATOM     72  C   UNL A   1      44.382  23.981  24.942  1.00  0.00     0.198 A 
ATOM     73  C   UNL A   1      42.579  23.180  26.286  1.00  0.00     0.198 A 
ATOM     74  F   UNL A   1      41.429  24.619  27.714  1.00  0.00    -0.203 F 
ATOM     75  F   UNL A   1      45.397  23.739  24.100  1.00  0.00    -0.200 F 
ATOM     76  C   UNL A   1      43.598  22.931  25.388  1.00  0.00     0.200 A 
ATOM     77  F   UNL A   1      41.834  22.167  26.754  1.00  0.00    -0.200 F 
ATOM     78  F   UNL A   1      43.850  21.677  24.986  1.00  0.00    -0.200 F 
ENDBRANCH  44  68
BRANCH  56  79
ATOM     79  C   UNL A   1      45.359  31.028  28.533  1.00  0.00     0.064 A 
ATOM     80  C   UNL A   1      44.386  31.632  27.717  1.00  0.00     0.173 A 
ATOM     81  C   UNL A   1      46.687  31.439  28.364  1.00  0.00     0.173 A 
ATOM     82  F   UNL A   1      43.084  31.373  27.888  1.00  0.00    -0.203 F 
ATOM     83  C   UNL A   1      44.737  32.562  26.741  1.00  0.00     0.198 A 
ATOM     84  C   UNL A   1      47.031  32.397  27.414  1.00  0.00     0.198 A 
ATOM     85  F   UNL A   1      47.651  30.939  29.153  1.00  0.00    -0.203 F 
ATOM     86  F   UNL A   1      43.792  33.109  25.961  1.00  0.00    -0.200 F 
ATOM     87  C   UNL A   1      46.059  32.947  26.594  1.00  0.00     0.200 A 
ATOM     88  F   UNL A   1      48.304  32.804  27.309  1.00  0.00    -0.200 F 
ATOM     89  F   UNL A   1      46.394  33.870  25.681  1.00  0.00    -0.200 F 
ENDBRANCH  56  79
ENDBRANCH  30  31
ENDBRANCH  23  25
ENDBRANCH  22  23
ENDBRANCH  21  22
ENDBRANCH   1  21
TORSDOF 14
ENDMDL
