MODEL 1
REMARK VINA RESULT:     -11.7      0.000      0.000
REMARK SMILES CC(C)(C)C(=O)Nc1ccc(C(=O)OCCOC(=O)c2ccc(-c3c4nc(c(-c5c(F)c(F)c(F)c(F)c5F)c5ccc([nH]5)c(-c5c(F)c(F)c(F)c(F)c5F)c5nc(c(-c6c(F)c(F)c(F)c(F)c6F)c6ccc3[nH]6)C=C5)C=C4)cc2)cc1Br
REMARK SMILES IDX 15 1 14 2 12 3 13 4 11 5 8 6 9 7 84 8 10 9 83 10 85 11 7 12
REMARK SMILES IDX 5 13 6 14 2 16 1 17 3 18 4 19 16 20 17 21 18 22 19 23 20 24
REMARK SMILES IDX 21 25 82 26 22 27 81 28 23 29 24 30 25 31 75 32 26 33 80 34
REMARK SMILES IDX 74 35 76 36 27 37 79 38 73 39 72 40 28 42 60 43 40 44 59 45
REMARK SMILES IDX 41 46 44 47 58 48 77 49 42 50 43 51 57 53 78 54 45 55 29 56
REMARK SMILES IDX 30 57 38 58 31 59 32 60 36 61 39 62 33 63 34 64 37 65 35 66
REMARK SMILES IDX 61 67 62 68 70 69 63 70 64 71 68 72 71 73 65 74 66 75 69 76
REMARK SMILES IDX 67 77 46 78 47 79 55 80 48 81 49 82 53 83 56 84 50 85 51 86
REMARK SMILES IDX 54 87 52 88
REMARK H PARENT 7 15 76 41 44 52
REMARK Flexibility Score: inf
ROOT
ATOM      1  C   UNL A   1      31.027  29.622  24.609  1.00  0.00     0.275 C 
ENDROOT
BRANCH   1   2
ATOM      2  O   UNL A   1      31.037  28.306  24.026  1.00  0.00    -0.458 OA
BRANCH   2   3
ATOM      3  C   UNL A   1      32.157  27.981  23.342  1.00  0.00     0.338 C 
ATOM      4  O   UNL A   1      32.784  28.713  22.590  1.00  0.00    -0.246 OA
BRANCH   3   5
ATOM      5  C   UNL A   1      32.608  26.603  23.662  1.00  0.00     0.061 A 
ATOM      6  C   UNL A   1      33.314  23.932  24.005  1.00  0.00     0.055 A 
ATOM      7  C   UNL A   1      33.782  24.625  22.892  1.00  0.00     0.028 A 
ATOM      8  C   UNL A   1      32.650  24.615  25.033  1.00  0.00     0.042 A 
ATOM      9  C   UNL A   1      33.397  25.946  22.703  1.00  0.00     0.018 A 
ATOM     10  C   UNL A   1      32.281  25.951  24.856  1.00  0.00     0.033 A 
ATOM     11  Br  UNL A   1      32.156  23.752  26.650  1.00  0.00    -0.049 Br
BRANCH   6  12
ATOM     12  N   UNL A   1      33.469  22.547  24.011  1.00  0.00    -0.325 N 
ATOM     13  C   UNL A   1      34.551  21.833  24.457  1.00  0.00     0.229 C 
ATOM     14  O   UNL A   1      34.372  20.620  24.619  1.00  0.00    -0.274 OA
ATOM     15  H   UNL A   1      32.716  22.022  23.656  1.00  0.00     0.169 HD
BRANCH  13  16
ATOM     16  C   UNL A   1      35.942  22.485  24.740  1.00  0.00     0.041 C 
ATOM     17  C   UNL A   1      36.843  21.401  25.376  1.00  0.00     0.021 C 
ATOM     18  C   UNL A   1      35.870  23.641  25.748  1.00  0.00     0.021 C 
ATOM     19  C   UNL A   1      36.646  22.949  23.456  1.00  0.00     0.021 C 
ENDBRANCH  13  16
ENDBRANCH   6  12
ENDBRANCH   3   5
ENDBRANCH   2   3
ENDBRANCH   1   2
BRANCH   1  20
ATOM     20  C   UNL A   1      31.733  29.611  25.965  1.00  0.00     0.275 C 
BRANCH  20  21
ATOM     21  O   UNL A   1      33.024  30.249  25.887  1.00  0.00    -0.458 OA
BRANCH  21  22
ATOM     22  C   UNL A   1      33.281  31.158  26.856  1.00  0.00     0.338 C 
ATOM     23  O   UNL A   1      32.534  32.017  27.290  1.00  0.00    -0.246 OA
BRANCH  22  24
ATOM     24  C   UNL A   1      34.610  30.906  27.435  1.00  0.00     0.060 A 
ATOM     25  C   UNL A   1      34.920  29.602  27.812  1.00  0.00     0.016 A 
ATOM     26  C   UNL A   1      35.480  31.948  27.745  1.00  0.00     0.016 A 
ATOM     27  C   UNL A   1      36.069  29.328  28.546  1.00  0.00     0.010 A 
ATOM     28  C   UNL A   1      36.672  31.665  28.430  1.00  0.00     0.010 A 
ATOM     29  C   UNL A   1      36.966  30.355  28.858  1.00  0.00    -0.014 A 
BRANCH  29  30
ATOM     30  C   UNL A   1      38.178  30.056  29.671  1.00  0.00     0.031 A 
ATOM     31  C   UNL A   1      39.255  29.162  29.118  1.00  0.00     0.074 A 
ATOM     32  C   UNL A   1      38.331  30.605  30.893  1.00  0.00     0.049 A 
ATOM     33  N   UNL A   1      40.304  28.658  29.719  1.00  0.00    -0.248 NA
ATOM     34  C   UNL A   1      39.133  28.776  27.704  1.00  0.00     0.031 C 
ATOM     35  C   UNL A   1      37.391  31.528  31.531  1.00  0.00     0.029 A 
ATOM     36  N   UNL A   1      39.336  30.465  31.821  1.00  0.00    -0.354 N 
ATOM     37  C   UNL A   1      40.932  27.853  28.777  1.00  0.00     0.074 A 
ATOM     38  C   UNL A   1      40.152  27.939  27.562  1.00  0.00     0.031 C 
ATOM     39  C   UNL A   1      37.869  31.883  32.734  1.00  0.00     0.029 A 
ATOM     40  C   UNL A   1      39.107  31.153  32.988  1.00  0.00     0.049 A 
ATOM     41  H   UNL A   1      40.142  29.922  31.663  1.00  0.00     0.167 HD
ATOM     42  C   UNL A   1      42.054  27.110  28.920  1.00  0.00     0.037 A 
ATOM     43  C   UNL A   1      39.788  31.161  34.149  1.00  0.00     0.037 A 
ATOM     44  C   UNL A   1      42.865  27.078  30.109  1.00  0.00     0.049 A 
ATOM     45  C   UNL A   1      41.022  30.311  34.284  1.00  0.00     0.074 A 
ATOM     46  C   UNL A   1      44.042  26.382  30.332  1.00  0.00     0.029 A 
ATOM     47  N   UNL A   1      42.591  27.783  31.271  1.00  0.00    -0.354 N 
ATOM     48  N   UNL A   1      41.590  29.530  33.397  1.00  0.00    -0.248 NA
ATOM     49  C   UNL A   1      41.704  30.331  35.587  1.00  0.00     0.031 C 
ATOM     50  C   UNL A   1      44.458  26.634  31.644  1.00  0.00     0.029 A 
ATOM     51  C   UNL A   1      43.568  27.524  32.221  1.00  0.00     0.049 A 
ATOM     52  H   UNL A   1      41.818  28.379  31.403  1.00  0.00     0.167 HD
ATOM     53  C   UNL A   1      42.700  28.982  34.026  1.00  0.00     0.074 A 
ATOM     54  C   UNL A   1      42.740  29.536  35.362  1.00  0.00     0.031 C 
ATOM     55  C   UNL A   1      43.600  28.094  33.542  1.00  0.00     0.037 A 
BRANCH  42  56
ATOM     56  C   UNL A   1      42.471  26.236  27.773  1.00  0.00     0.064 A 
ATOM     57  C   UNL A   1      43.464  26.623  26.864  1.00  0.00     0.173 A 
ATOM     58  C   UNL A   1      41.913  24.955  27.632  1.00  0.00     0.173 A 
ATOM     59  F   UNL A   1      44.019  27.841  26.948  1.00  0.00    -0.203 F 
ATOM     60  C   UNL A   1      43.878  25.763  25.849  1.00  0.00     0.198 A 
ATOM     61  C   UNL A   1      42.347  24.088  26.633  1.00  0.00     0.198 A 
ATOM     62  F   UNL A   1      40.962  24.534  28.481  1.00  0.00    -0.203 F 
ATOM     63  F   UNL A   1      44.809  26.162  24.972  1.00  0.00    -0.200 F 
ATOM     64  C   UNL A   1      43.327  24.494  25.740  1.00  0.00     0.200 A 
ATOM     65  F   UNL A   1      41.822  22.858  26.540  1.00  0.00    -0.200 F 
ATOM     66  F   UNL A   1      43.740  23.663  24.774  1.00  0.00    -0.200 F 
ENDBRANCH  42  56
BRANCH  43  67
ATOM     67  C   UNL A   1      39.289  31.957  35.303  1.00  0.00     0.064 A 
ATOM     68  C   UNL A   1      39.621  33.310  35.449  1.00  0.00     0.173 A 
ATOM     69  C   UNL A   1      38.490  31.371  36.297  1.00  0.00     0.173 A 
ATOM     70  F   UNL A   1      40.403  33.911  34.540  1.00  0.00    -0.203 F 
ATOM     71  C   UNL A   1      39.192  34.041  36.556  1.00  0.00     0.198 A 
ATOM     72  C   UNL A   1      38.035  32.111  37.385  1.00  0.00     0.198 A 
ATOM     73  F   UNL A   1      38.146  30.078  36.207  1.00  0.00    -0.203 F 
ATOM     74  F   UNL A   1      39.571  35.318  36.701  1.00  0.00    -0.200 F 
ATOM     75  C   UNL A   1      38.394  33.442  37.520  1.00  0.00     0.200 A 
ATOM     76  F   UNL A   1      37.252  31.530  38.306  1.00  0.00    -0.200 F 
ATOM     77  F   UNL A   1      37.983  34.145  38.584  1.00  0.00    -0.200 F 
ENDBRANCH  43  67
BRANCH  55  78
ATOM     78  C   UNL A   1      44.726  27.694  34.449  1.00  0.00     0.064 A 
ATOM     79  C   UNL A   1      45.909  28.443  34.528  1.00  0.00     0.173 A 
ATOM     80  C   UNL A   1      44.606  26.565  35.274  1.00  0.00     0.173 A 
ATOM     81  F   UNL A   1      46.078  29.521  33.747  1.00  0.00    -0.203 F 
ATOM     82  C   UNL A   1      46.940  28.062  35.381  1.00  0.00     0.198 A 
ATOM     83  C   UNL A   1      45.628  26.203  36.146  1.00  0.00     0.198 A 
ATOM     84  F   UNL A   1      43.492  25.818  35.240  1.00  0.00    -0.203 F 
ATOM     85  F   UNL A   1      48.080  28.766  35.405  1.00  0.00    -0.200 F 
ATOM     86  C   UNL A   1      46.797  26.948  36.194  1.00  0.00     0.200 A 
ATOM     87  F   UNL A   1      45.482  25.133  36.940  1.00  0.00    -0.200 F 
ATOM     88  F   UNL A   1      47.789  26.586  37.019  1.00  0.00    -0.200 F 
ENDBRANCH  55  78
ENDBRANCH  29  30
ENDBRANCH  22  24
ENDBRANCH  21  22
ENDBRANCH  20  21
ENDBRANCH   1  20
TORSDOF 13
ENDMDL
MODEL 2
REMARK VINA RESULT:     -11.6      0.296      1.655
REMARK SMILES CC(C)(C)C(=O)Nc1ccc(C(=O)OCCOC(=O)c2ccc(-c3c4nc(c(-c5c(F)c(F)c(F)c(F)c5F)c5ccc([nH]5)c(-c5c(F)c(F)c(F)c(F)c5F)c5nc(c(-c6c(F)c(F)c(F)c(F)c6F)c6ccc3[nH]6)C=C5)C=C4)cc2)cc1Br
REMARK SMILES IDX 15 1 14 2 12 3 13 4 11 5 8 6 9 7 84 8 10 9 83 10 85 11 7 12
REMARK SMILES IDX 5 13 6 14 2 16 1 17 3 18 4 19 16 20 17 21 18 22 19 23 20 24
REMARK SMILES IDX 21 25 82 26 22 27 81 28 23 29 24 30 25 31 75 32 26 33 80 34
REMARK SMILES IDX 74 35 76 36 27 37 79 38 73 39 72 40 28 42 60 43 40 44 59 45
REMARK SMILES IDX 41 46 44 47 58 48 77 49 42 50 43 51 57 53 78 54 45 55 29 56
REMARK SMILES IDX 30 57 38 58 31 59 32 60 36 61 39 62 33 63 34 64 37 65 35 66
REMARK SMILES IDX 61 67 62 68 70 69 63 70 64 71 68 72 71 73 65 74 66 75 69 76
REMARK SMILES IDX 67 77 46 78 47 79 55 80 48 81 49 82 53 83 56 84 50 85 51 86
REMARK SMILES IDX 54 87 52 88
REMARK H PARENT 7 15 76 41 44 52
REMARK Flexibility Score: inf
ROOT
ATOM      1  C   UNL A   1      31.303  29.581  24.563  1.00  0.00     0.275 C 
ENDROOT
BRANCH   1   2
ATOM      2  O   UNL A   1      31.458  28.173  24.314  1.00  0.00    -0.458 OA
BRANCH   2   3
ATOM      3  C   UNL A   1      32.545  27.825  23.591  1.00  0.00     0.338 C 
ATOM      4  O   UNL A   1      33.175  28.552  22.835  1.00  0.00    -0.246 OA
BRANCH   3   5
ATOM      5  C   UNL A   1      32.957  26.425  23.867  1.00  0.00     0.061 A 
ATOM      6  C   UNL A   1      33.564  23.723  24.141  1.00  0.00     0.055 A 
ATOM      7  C   UNL A   1      33.967  24.400  22.993  1.00  0.00     0.028 A 
ATOM      8  C   UNL A   1      33.023  24.429  25.224  1.00  0.00     0.042 A 
ATOM      9  C   UNL A   1      33.629  25.739  22.842  1.00  0.00     0.018 A 
ATOM     10  C   UNL A   1      32.703  25.782  25.083  1.00  0.00     0.033 A 
ATOM     11  Br  UNL A   1      32.630  23.579  26.875  1.00  0.00    -0.049 Br
BRANCH   6  12
ATOM     12  N   UNL A   1      33.654  22.332  24.130  1.00  0.00    -0.325 N 
ATOM     13  C   UNL A   1      34.738  21.565  24.469  1.00  0.00     0.229 C 
ATOM     14  O   UNL A   1      34.519  20.361  24.646  1.00  0.00    -0.274 OA
ATOM     15  H   UNL A   1      32.846  21.844  23.848  1.00  0.00     0.169 HD
BRANCH  13  16
ATOM     16  C   UNL A   1      36.180  22.150  24.620  1.00  0.00     0.041 C 
ATOM     17  C   UNL A   1      37.120  20.980  24.988  1.00  0.00     0.021 C 
ATOM     18  C   UNL A   1      36.296  23.179  25.754  1.00  0.00     0.021 C 
ATOM     19  C   UNL A   1      36.709  22.750  23.308  1.00  0.00     0.021 C 
ENDBRANCH  13  16
ENDBRANCH   6  12
ENDBRANCH   3   5
ENDBRANCH   2   3
ENDBRANCH   1   2
BRANCH   1  20
ATOM     20  C   UNL A   1      31.722  29.922  25.993  1.00  0.00     0.275 C 
BRANCH  20  21
ATOM     21  O   UNL A   1      33.108  30.316  26.052  1.00  0.00    -0.458 OA
BRANCH  21  22
ATOM     22  C   UNL A   1      33.400  31.275  26.961  1.00  0.00     0.338 C 
ATOM     23  O   UNL A   1      32.682  32.180  27.347  1.00  0.00    -0.246 OA
BRANCH  22  24
ATOM     24  C   UNL A   1      34.725  31.020  27.546  1.00  0.00     0.060 A 
ATOM     25  C   UNL A   1      35.022  29.720  27.947  1.00  0.00     0.016 A 
ATOM     26  C   UNL A   1      35.606  32.059  27.836  1.00  0.00     0.016 A 
ATOM     27  C   UNL A   1      36.168  29.447  28.686  1.00  0.00     0.010 A 
ATOM     28  C   UNL A   1      36.795  31.775  28.528  1.00  0.00     0.010 A 
ATOM     29  C   UNL A   1      37.075  30.471  28.980  1.00  0.00    -0.014 A 
BRANCH  29  30
ATOM     30  C   UNL A   1      38.284  30.174  29.798  1.00  0.00     0.031 A 
ATOM     31  C   UNL A   1      39.368  29.288  29.248  1.00  0.00     0.074 A 
ATOM     32  C   UNL A   1      38.427  30.719  31.024  1.00  0.00     0.049 A 
ATOM     33  N   UNL A   1      40.416  28.787  29.853  1.00  0.00    -0.248 NA
ATOM     34  C   UNL A   1      39.257  28.907  27.832  1.00  0.00     0.031 C 
ATOM     35  C   UNL A   1      37.479  31.635  31.660  1.00  0.00     0.029 A 
ATOM     36  N   UNL A   1      39.427  30.579  31.957  1.00  0.00    -0.354 N 
ATOM     37  C   UNL A   1      41.054  27.989  28.912  1.00  0.00     0.074 A 
ATOM     38  C   UNL A   1      40.281  28.076  27.692  1.00  0.00     0.031 C 
ATOM     39  C   UNL A   1      37.947  31.986  32.867  1.00  0.00     0.029 A 
ATOM     40  C   UNL A   1      39.187  31.261  33.125  1.00  0.00     0.049 A 
ATOM     41  H   UNL A   1      40.237  30.042  31.801  1.00  0.00     0.167 HD
ATOM     42  C   UNL A   1      42.179  27.251  29.057  1.00  0.00     0.037 A 
ATOM     43  C   UNL A   1      39.862  31.267  34.291  1.00  0.00     0.037 A 
ATOM     44  C   UNL A   1      42.982  27.218  30.252  1.00  0.00     0.049 A 
ATOM     45  C   UNL A   1      41.099  30.423  34.429  1.00  0.00     0.074 A 
ATOM     46  C   UNL A   1      44.161  26.527  30.479  1.00  0.00     0.029 A 
ATOM     47  N   UNL A   1      42.699  27.916  31.415  1.00  0.00    -0.354 N 
ATOM     48  N   UNL A   1      41.676  29.649  33.542  1.00  0.00    -0.248 NA
ATOM     49  C   UNL A   1      41.773  30.441  35.736  1.00  0.00     0.031 C 
ATOM     50  C   UNL A   1      44.569  26.775  31.794  1.00  0.00     0.029 A 
ATOM     51  C   UNL A   1      43.671  27.657  32.369  1.00  0.00     0.049 A 
ATOM     52  H   UNL A   1      41.922  28.507  31.545  1.00  0.00     0.167 HD
ATOM     53  C   UNL A   1      42.785  29.104  34.176  1.00  0.00     0.074 A 
ATOM     54  C   UNL A   1      42.814  29.651  35.515  1.00  0.00     0.031 C 
ATOM     55  C   UNL A   1      43.693  28.222  33.694  1.00  0.00     0.037 A 
BRANCH  42  56
ATOM     56  C   UNL A   1      42.607  26.383  27.909  1.00  0.00     0.064 A 
ATOM     57  C   UNL A   1      42.092  25.095  27.718  1.00  0.00     0.173 A 
ATOM     58  C   UNL A   1      43.492  26.889  26.944  1.00  0.00     0.173 A 
ATOM     59  F   UNL A   1      41.253  24.562  28.619  1.00  0.00    -0.203 F 
ATOM     60  C   UNL A   1      42.456  24.338  26.607  1.00  0.00     0.198 A 
ATOM     61  C   UNL A   1      43.834  26.140  25.821  1.00  0.00     0.198 A 
ATOM     62  F   UNL A   1      44.008  28.121  27.078  1.00  0.00    -0.203 F 
ATOM     63  F   UNL A   1      41.976  23.096  26.456  1.00  0.00    -0.200 F 
ATOM     64  C   UNL A   1      43.319  24.864  25.655  1.00  0.00     0.200 A 
ATOM     65  F   UNL A   1      44.656  26.657  24.898  1.00  0.00    -0.200 F 
ATOM     66  F   UNL A   1      43.653  24.141  24.578  1.00  0.00    -0.200 F 
ENDBRANCH  42  56
BRANCH  43  67
ATOM     67  C   UNL A   1      39.351  32.056  35.445  1.00  0.00     0.064 A 
ATOM     68  C   UNL A   1      39.742  33.387  35.645  1.00  0.00     0.173 A 
ATOM     69  C   UNL A   1      38.482  31.484  36.387  1.00  0.00     0.173 A 
ATOM     70  F   UNL A   1      40.593  33.971  34.788  1.00  0.00    -0.203 F 
ATOM     71  C   UNL A   1      39.302  34.107  36.754  1.00  0.00     0.198 A 
ATOM     72  C   UNL A   1      38.016  32.216  37.476  1.00  0.00     0.198 A 
ATOM     73  F   UNL A   1      38.080  30.212  36.245  1.00  0.00    -0.203 F 
ATOM     74  F   UNL A   1      39.736  35.359  36.952  1.00  0.00    -0.200 F 
ATOM     75  C   UNL A   1      38.434  33.523  37.665  1.00  0.00     0.200 A 
ATOM     76  F   UNL A   1      37.166  31.651  38.344  1.00  0.00    -0.200 F 
ATOM     77  F   UNL A   1      38.011  34.217  38.730  1.00  0.00    -0.200 F 
ENDBRANCH  43  67
BRANCH  55  78
ATOM     78  C   UNL A   1      44.815  27.823  34.605  1.00  0.00     0.064 A 
ATOM     79  C   UNL A   1      44.724  26.698  35.436  1.00  0.00     0.173 A 
ATOM     80  C   UNL A   1      46.010  28.559  34.622  1.00  0.00     0.173 A 
ATOM     81  F   UNL A   1      43.596  25.972  35.467  1.00  0.00    -0.203 F 
ATOM     82  C   UNL A   1      45.778  26.337  36.269  1.00  0.00     0.198 A 
ATOM     83  C   UNL A   1      47.073  28.180  35.437  1.00  0.00     0.198 A 
ATOM     84  F   UNL A   1      46.149  29.641  33.842  1.00  0.00    -0.203 F 
ATOM     85  F   UNL A   1      45.652  25.284  37.089  1.00  0.00    -0.200 F 
ATOM     86  C   UNL A   1      46.954  27.073  36.264  1.00  0.00     0.200 A 
ATOM     87  F   UNL A   1      48.212  28.885  35.421  1.00  0.00    -0.200 F 
ATOM     88  F   UNL A   1      47.970  26.721  37.063  1.00  0.00    -0.200 F 
ENDBRANCH  55  78
ENDBRANCH  29  30
ENDBRANCH  22  24
ENDBRANCH  21  22
ENDBRANCH  20  21
ENDBRANCH   1  20
TORSDOF 13
ENDMDL
MODEL 3
REMARK VINA RESULT:     -11.5      4.155      9.674
REMARK SMILES CC(C)(C)C(=O)Nc1ccc(C(=O)OCCOC(=O)c2ccc(-c3c4nc(c(-c5c(F)c(F)c(F)c(F)c5F)c5ccc([nH]5)c(-c5c(F)c(F)c(F)c(F)c5F)c5nc(c(-c6c(F)c(F)c(F)c(F)c6F)c6ccc3[nH]6)C=C5)C=C4)cc2)cc1Br
REMARK SMILES IDX 15 1 14 2 12 3 13 4 11 5 8 6 9 7 84 8 10 9 83 10 85 11 7 12
REMARK SMILES IDX 5 13 6 14 2 16 1 17 3 18 4 19 16 20 17 21 18 22 19 23 20 24
REMARK SMILES IDX 21 25 82 26 22 27 81 28 23 29 24 30 25 31 75 32 26 33 80 34
REMARK SMILES IDX 74 35 76 36 27 37 79 38 73 39 72 40 28 42 60 43 40 44 59 45
REMARK SMILES IDX 41 46 44 47 58 48 77 49 42 50 43 51 57 53 78 54 45 55 29 56
REMARK SMILES IDX 30 57 38 58 31 59 32 60 36 61 39 62 33 63 34 64 37 65 35 66
REMARK SMILES IDX 61 67 62 68 70 69 63 70 64 71 68 72 71 73 65 74 66 75 69 76
REMARK SMILES IDX 67 77 46 78 47 79 55 80 48 81 49 82 53 83 56 84 50 85 51 86
REMARK SMILES IDX 54 87 52 88
REMARK H PARENT 7 15 76 41 44 52
REMARK Flexibility Score: inf
ROOT
ATOM      1  C   UNL A   1      35.027  20.909  25.422  1.00  0.00     0.275 C 
ENDROOT
BRANCH   1   2
ATOM      2  O   UNL A   1      34.138  20.843  24.292  1.00  0.00    -0.458 OA
BRANCH   2   3
ATOM      3  C   UNL A   1      32.823  20.967  24.579  1.00  0.00     0.338 C 
ATOM      4  O   UNL A   1      32.087  20.085  24.998  1.00  0.00    -0.246 OA
BRANCH   3   5
ATOM      5  C   UNL A   1      32.354  22.363  24.387  1.00  0.00     0.061 A 
ATOM      6  C   UNL A   1      31.192  24.867  24.030  1.00  0.00     0.055 A 
ATOM      7  C   UNL A   1      30.929  24.152  25.195  1.00  0.00     0.028 A 
ATOM      8  C   UNL A   1      32.170  24.418  23.132  1.00  0.00     0.042 A 
ATOM      9  C   UNL A   1      31.479  22.886  25.353  1.00  0.00     0.018 A 
ATOM     10  C   UNL A   1      32.742  23.155  23.301  1.00  0.00     0.033 A 
ATOM     11  Br  UNL A   1      32.693  25.449  21.627  1.00  0.00    -0.049 Br
BRANCH   6  12
ATOM     12  N   UNL A   1      30.400  25.984  23.771  1.00  0.00    -0.325 N 
ATOM     13  C   UNL A   1      30.650  27.283  24.132  1.00  0.00     0.229 C 
ATOM     14  O   UNL A   1      29.961  28.144  23.573  1.00  0.00    -0.274 OA
ATOM     15  H   UNL A   1      29.568  25.823  23.271  1.00  0.00     0.169 HD
BRANCH  13  16
ATOM     16  C   UNL A   1      31.729  27.679  25.192  1.00  0.00     0.041 C 
ATOM     17  C   UNL A   1      31.712  29.220  25.318  1.00  0.00     0.021 C 
ATOM     18  C   UNL A   1      33.154  27.289  24.774  1.00  0.00     0.021 C 
ATOM     19  C   UNL A   1      31.415  27.116  26.586  1.00  0.00     0.021 C 
ENDBRANCH  13  16
ENDBRANCH   6  12
ENDBRANCH   3   5
ENDBRANCH   2   3
ENDBRANCH   1   2
BRANCH   1  20
ATOM     20  C   UNL A   1      36.449  20.534  25.005  1.00  0.00     0.275 C 
BRANCH  20  21
ATOM     21  O   UNL A   1      37.371  21.614  25.263  1.00  0.00    -0.458 OA
BRANCH  21  22
ATOM     22  C   UNL A   1      38.553  21.249  25.809  1.00  0.00     0.338 C 
ATOM     23  O   UNL A   1      39.097  20.160  25.751  1.00  0.00    -0.246 OA
BRANCH  22  24
ATOM     24  C   UNL A   1      39.199  22.417  26.427  1.00  0.00     0.060 A 
ATOM     25  C   UNL A   1      38.699  23.678  26.116  1.00  0.00     0.016 A 
ATOM     26  C   UNL A   1      40.365  22.294  27.177  1.00  0.00     0.016 A 
ATOM     27  C   UNL A   1      39.379  24.828  26.500  1.00  0.00     0.010 A 
ATOM     28  C   UNL A   1      41.020  23.454  27.620  1.00  0.00     0.010 A 
ATOM     29  C   UNL A   1      40.547  24.732  27.265  1.00  0.00    -0.014 A 
BRANCH  29  30
ATOM     30  C   UNL A   1      41.285  25.968  27.645  1.00  0.00     0.031 A 
ATOM     31  C   UNL A   1      40.603  27.034  28.461  1.00  0.00     0.074 A 
ATOM     32  C   UNL A   1      42.575  26.130  27.285  1.00  0.00     0.049 A 
ATOM     33  N   UNL A   1      41.016  28.240  28.761  1.00  0.00    -0.248 NA
ATOM     34  C   UNL A   1      39.277  26.703  29.006  1.00  0.00     0.031 C 
ATOM     35  C   UNL A   1      43.374  25.157  26.538  1.00  0.00     0.029 A 
ATOM     36  N   UNL A   1      43.443  27.174  27.499  1.00  0.00    -0.354 N 
ATOM     37  C   UNL A   1      39.982  28.829  29.477  1.00  0.00     0.074 A 
ATOM     38  C   UNL A   1      38.923  27.848  29.573  1.00  0.00     0.031 C 
ATOM     39  C   UNL A   1      44.613  25.641  26.369  1.00  0.00     0.029 A 
ATOM     40  C   UNL A   1      44.677  26.989  26.925  1.00  0.00     0.049 A 
ATOM     41  H   UNL A   1      43.202  27.977  28.014  1.00  0.00     0.167 HD
ATOM     42  C   UNL A   1      39.924  30.076  30.001  1.00  0.00     0.037 A 
ATOM     43  C   UNL A   1      45.728  27.825  26.815  1.00  0.00     0.037 A 
ATOM     44  C   UNL A   1      41.005  31.027  29.961  1.00  0.00     0.049 A 
ATOM     45  C   UNL A   1      45.628  29.211  27.392  1.00  0.00     0.074 A 
ATOM     46  C   UNL A   1      41.051  32.303  30.499  1.00  0.00     0.029 A 
ATOM     47  N   UNL A   1      42.234  30.802  29.362  1.00  0.00    -0.354 N 
ATOM     48  N   UNL A   1      44.634  29.768  28.040  1.00  0.00    -0.248 NA
ATOM     49  C   UNL A   1      46.791  30.091  27.209  1.00  0.00     0.031 C 
ATOM     50  C   UNL A   1      42.293  32.865  30.188  1.00  0.00     0.029 A 
ATOM     51  C   UNL A   1      43.039  31.923  29.501  1.00  0.00     0.049 A 
ATOM     52  H   UNL A   1      42.497  29.970  28.904  1.00  0.00     0.167 HD
ATOM     53  C   UNL A   1      45.057  31.052  28.356  1.00  0.00     0.074 A 
ATOM     54  C   UNL A   1      46.405  31.186  27.849  1.00  0.00     0.031 C 
ATOM     55  C   UNL A   1      44.385  32.035  29.002  1.00  0.00     0.037 A 
BRANCH  42  56
ATOM     56  C   UNL A   1      38.640  30.512  30.643  1.00  0.00     0.064 A 
ATOM     57  C   UNL A   1      38.459  30.496  32.032  1.00  0.00     0.173 A 
ATOM     58  C   UNL A   1      37.602  31.026  29.850  1.00  0.00     0.173 A 
ATOM     59  F   UNL A   1      39.415  30.003  32.832  1.00  0.00    -0.203 F 
ATOM     60  C   UNL A   1      37.280  30.970  32.604  1.00  0.00     0.198 A 
ATOM     61  C   UNL A   1      36.436  31.523  30.426  1.00  0.00     0.198 A 
ATOM     62  F   UNL A   1      37.729  31.069  28.514  1.00  0.00    -0.203 F 
ATOM     63  F   UNL A   1      37.114  30.920  33.933  1.00  0.00    -0.200 F 
ATOM     64  C   UNL A   1      36.274  31.491  31.802  1.00  0.00     0.200 A 
ATOM     65  F   UNL A   1      35.473  32.039  29.649  1.00  0.00    -0.200 F 
ATOM     66  F   UNL A   1      35.150  31.963  32.357  1.00  0.00    -0.200 F 
ENDBRANCH  42  56
BRANCH  43  67
ATOM     67  C   UNL A   1      46.948  27.398  26.079  1.00  0.00     0.064 A 
ATOM     68  C   UNL A   1      47.075  27.608  24.699  1.00  0.00     0.173 A 
ATOM     69  C   UNL A   1      48.002  26.745  26.738  1.00  0.00     0.173 A 
ATOM     70  F   UNL A   1      46.085  28.203  24.018  1.00  0.00    -0.203 F 
ATOM     71  C   UNL A   1      48.197  27.162  24.003  1.00  0.00     0.198 A 
ATOM     72  C   UNL A   1      49.138  26.331  26.048  1.00  0.00     0.198 A 
ATOM     73  F   UNL A   1      47.930  26.516  28.058  1.00  0.00    -0.203 F 
ATOM     74  F   UNL A   1      48.268  27.325  22.676  1.00  0.00    -0.200 F 
ATOM     75  C   UNL A   1      49.231  26.530  24.679  1.00  0.00     0.200 A 
ATOM     76  F   UNL A   1      50.139  25.734  26.709  1.00  0.00    -0.200 F 
ATOM     77  F   UNL A   1      50.309  26.102  24.010  1.00  0.00    -0.200 F 
ENDBRANCH  43  67
BRANCH  55  78
ATOM     78  C   UNL A   1      45.110  33.327  29.230  1.00  0.00     0.064 A 
ATOM     79  C   UNL A   1      45.862  33.553  30.391  1.00  0.00     0.173 A 
ATOM     80  C   UNL A   1      45.077  34.340  28.259  1.00  0.00     0.173 A 
ATOM     81  F   UNL A   1      45.911  32.623  31.356  1.00  0.00    -0.203 F 
ATOM     82  C   UNL A   1      46.536  34.756  30.583  1.00  0.00     0.198 A 
ATOM     83  C   UNL A   1      45.775  35.530  28.442  1.00  0.00     0.198 A 
ATOM     84  F   UNL A   1      44.376  34.170  27.128  1.00  0.00    -0.203 F 
ATOM     85  F   UNL A   1      47.212  34.969  31.721  1.00  0.00    -0.200 F 
ATOM     86  C   UNL A   1      46.498  35.740  29.606  1.00  0.00     0.200 A 
ATOM     87  F   UNL A   1      45.746  36.475  27.491  1.00  0.00    -0.200 F 
ATOM     88  F   UNL A   1      47.152  36.895  29.790  1.00  0.00    -0.200 F 
ENDBRANCH  55  78
ENDBRANCH  29  30
ENDBRANCH  22  24
ENDBRANCH  21  22
ENDBRANCH  20  21
ENDBRANCH   1  20
TORSDOF 13
ENDMDL
