MODEL 1
REMARK VINA RESULT:     -11.8      0.000      0.000
REMARK SMILES CCC[C@H](CNC(=O)N1C[C@H]2CCC[N@H+]2C[C@@H]1C)C(=O)OCCOC(=O)c1ccc(-c2c3nc(c(-c4c(F)c(F)c(F)c(F)c4F)c4ccc([nH]4)c(-c4c(F)c(F)c(F)c(F)c4F)c4nc(c(-c5c(F)c(F)c(F)c(F)c5F)c5ccc2[nH]5)C=C4)C=C3)cc1
REMARK SMILES IDX 22 1 21 2 19 3 20 4 4 5 3 6 2 7 1 8 5 9 6 10 7 11 8 13 9 14
REMARK SMILES IDX 10 15 17 16 11 17 16 18 18 19 12 20 15 21 13 22 14 23 23 25
REMARK SMILES IDX 24 26 25 27 26 28 27 29 28 30 89 31 29 32 88 33 30 34 31 35
REMARK SMILES IDX 32 36 82 37 33 38 87 39 81 40 83 41 34 42 86 43 80 44 79 45
REMARK SMILES IDX 35 47 67 48 47 49 66 50 48 51 51 52 65 53 84 54 49 55 50 56
REMARK SMILES IDX 64 58 85 59 52 60 36 61 37 62 45 63 38 64 39 65 43 66 46 67
REMARK SMILES IDX 40 68 41 69 44 70 42 71 68 72 69 73 77 74 70 75 71 76 75 77
REMARK SMILES IDX 78 78 72 79 73 80 76 81 74 82 53 83 54 84 62 85 55 86 56 87
REMARK SMILES IDX 60 88 63 89 57 90 58 91 61 92 59 93
REMARK H PARENT 6 12 15 24 83 46 51 57
REMARK Flexibility Score: inf
ROOT
ATOM      1  C   UNL A   1      31.366  29.308  24.723  1.00  0.00     0.274 C 
ENDROOT
BRANCH   1   2
ATOM      2  O   UNL A   1      31.347  27.867  24.710  1.00  0.00    -0.462 OA
BRANCH   2   3
ATOM      3  C   UNL A   1      30.558  27.271  23.780  1.00  0.00     0.310 C 
ATOM      4  O   UNL A   1      30.272  27.759  22.693  1.00  0.00    -0.252 OA
BRANCH   3   5
ATOM      5  C   UNL A   1      30.075  25.890  24.204  1.00  0.00     0.118 C 
BRANCH   5   6
ATOM      6  C   UNL A   1      30.151  25.708  25.726  1.00  0.00     0.017 C 
BRANCH   6   7
ATOM      7  C   UNL A   1      31.054  24.534  26.141  1.00  0.00    -0.002 C 
ATOM      8  C   UNL A   1      30.278  23.361  26.731  1.00  0.00     0.004 C 
ENDBRANCH   6   7
ENDBRANCH   5   6
BRANCH   5   9
ATOM      9  C   UNL A   1      30.683  24.742  23.384  1.00  0.00     0.133 C 
BRANCH   9  10
ATOM     10  N   UNL A   1      31.518  25.161  22.278  1.00  0.00    -0.337 N 
ATOM     11  C   UNL A   1      32.834  25.019  22.033  1.00  0.00     0.318 C 
ATOM     12  H   UNL A   1      31.030  25.641  21.571  1.00  0.00     0.165 HD
ATOM     13  O   UNL A   1      33.357  25.889  21.333  1.00  0.00    -0.249 OA
BRANCH  11  14
ATOM     14  N   UNL A   1      33.547  23.992  22.584  1.00  0.00    -0.311 N 
ATOM     15  C   UNL A   1      33.029  22.641  22.373  1.00  0.00     0.186 C 
ATOM     16  C   UNL A   1      34.637  24.105  23.591  1.00  0.00     0.139 C 
ATOM     17  C   UNL A   1      32.730  21.930  23.701  1.00  0.00     0.204 C 
ATOM     18  C   UNL A   1      34.993  22.722  24.225  1.00  0.00     0.287 C 
ATOM     19  C   UNL A   1      34.304  25.113  24.697  1.00  0.00     0.037 C 
ATOM     20  C   UNL A   1      32.425  20.449  23.495  1.00  0.00     0.073 C 
ATOM     21  N   UNL A   1      33.819  21.982  24.708  1.00  0.00    -0.329 N 
ATOM     22  C   UNL A   1      32.891  19.814  24.789  1.00  0.00     0.068 C 
ATOM     23  C   UNL A   1      34.142  20.610  25.113  1.00  0.00     0.262 C 
ATOM     24  H   UNL A   1      33.501  22.502  25.525  1.00  0.00     0.348 HD
ENDBRANCH  11  14
ENDBRANCH   9  10
ENDBRANCH   5   9
ENDBRANCH   3   5
ENDBRANCH   2   3
ENDBRANCH   1   2
BRANCH   1  25
ATOM     25  C   UNL A   1      31.779  29.820  26.104  1.00  0.00     0.275 C 
BRANCH  25  26
ATOM     26  O   UNL A   1      33.144  30.285  26.093  1.00  0.00    -0.458 OA
BRANCH  26  27
ATOM     27  C   UNL A   1      33.436  31.247  26.996  1.00  0.00     0.338 C 
ATOM     28  O   UNL A   1      32.728  32.169  27.363  1.00  0.00    -0.246 OA
BRANCH  27  29
ATOM     29  C   UNL A   1      34.734  30.960  27.625  1.00  0.00     0.060 A 
ATOM     30  C   UNL A   1      34.995  29.643  28.005  1.00  0.00     0.016 A 
ATOM     31  C   UNL A   1      35.627  31.978  27.953  1.00  0.00     0.016 A 
ATOM     32  C   UNL A   1      36.144  29.328  28.719  1.00  0.00     0.010 A 
ATOM     33  C   UNL A   1      36.791  31.662  28.666  1.00  0.00     0.010 A 
ATOM     34  C   UNL A   1      37.047  30.338  29.067  1.00  0.00    -0.014 A 
BRANCH  34  35
ATOM     35  C   UNL A   1      38.217  30.002  29.913  1.00  0.00     0.031 A 
ATOM     36  C   UNL A   1      39.300  29.114  29.369  1.00  0.00     0.074 A 
ATOM     37  C   UNL A   1      38.336  30.536  31.142  1.00  0.00     0.049 A 
ATOM     38  N   UNL A   1      40.364  28.644  29.968  1.00  0.00    -0.248 NA
ATOM     39  C   UNL A   1      39.168  28.703  27.963  1.00  0.00     0.031 C 
ATOM     40  C   UNL A   1      37.384  31.461  31.756  1.00  0.00     0.029 A 
ATOM     41  N   UNL A   1      39.313  30.379  32.092  1.00  0.00    -0.354 N 
ATOM     42  C   UNL A   1      41.012  27.860  29.024  1.00  0.00     0.074 A 
ATOM     43  C   UNL A   1      40.220  27.912  27.813  1.00  0.00     0.031 C 
ATOM     44  C   UNL A   1      37.827  31.797  32.977  1.00  0.00     0.029 A 
ATOM     45  C   UNL A   1      39.068  31.075  33.250  1.00  0.00     0.049 A 
ATOM     46  H   UNL A   1      40.113  29.822  31.957  1.00  0.00     0.167 HD
ATOM     47  C   UNL A   1      42.164  27.159  29.158  1.00  0.00     0.037 A 
ATOM     48  C   UNL A   1      39.753  31.104  34.408  1.00  0.00     0.037 A 
ATOM     49  C   UNL A   1      42.963  27.128  30.354  1.00  0.00     0.049 A 
ATOM     50  C   UNL A   1      41.005  30.284  34.545  1.00  0.00     0.074 A 
ATOM     51  C   UNL A   1      44.145  26.446  30.587  1.00  0.00     0.029 A 
ATOM     52  N   UNL A   1      42.665  27.819  31.519  1.00  0.00    -0.354 N 
ATOM     53  N   UNL A   1      41.592  29.516  33.659  1.00  0.00    -0.248 NA
ATOM     54  C   UNL A   1      41.685  30.325  35.847  1.00  0.00     0.031 C 
ATOM     55  C   UNL A   1      44.545  26.700  31.904  1.00  0.00     0.029 A 
ATOM     56  C   UNL A   1      43.633  27.570  32.478  1.00  0.00     0.049 A 
ATOM     57  H   UNL A   1      41.880  28.401  31.646  1.00  0.00     0.167 HD
ATOM     58  C   UNL A   1      42.715  28.995  34.288  1.00  0.00     0.074 A 
ATOM     59  C   UNL A   1      42.737  29.549  35.627  1.00  0.00     0.031 C 
ATOM     60  C   UNL A   1      43.640  28.133  33.804  1.00  0.00     0.037 A 
BRANCH  47  61
ATOM     61  C   UNL A   1      42.611  26.339  27.985  1.00  0.00     0.064 A 
ATOM     62  C   UNL A   1      43.483  26.853  27.015  1.00  0.00     0.173 A 
ATOM     63  C   UNL A   1      42.180  25.010  27.848  1.00  0.00     0.173 A 
ATOM     64  F   UNL A   1      43.908  28.122  27.094  1.00  0.00    -0.203 F 
ATOM     65  C   UNL A   1      43.893  26.071  25.938  1.00  0.00     0.198 A 
ATOM     66  C   UNL A   1      42.610  24.225  26.782  1.00  0.00     0.198 A 
ATOM     67  F   UNL A   1      41.346  24.473  28.751  1.00  0.00    -0.203 F 
ATOM     68  F   UNL A   1      44.696  26.592  25.001  1.00  0.00    -0.200 F 
ATOM     69  C   UNL A   1      43.461  24.757  25.826  1.00  0.00     0.200 A 
ATOM     70  F   UNL A   1      42.198  22.954  26.679  1.00  0.00    -0.200 F 
ATOM     71  F   UNL A   1      43.861  24.006  24.790  1.00  0.00    -0.200 F 
ENDBRANCH  47  61
BRANCH  48  72
ATOM     72  C   UNL A   1      39.254  31.926  35.540  1.00  0.00     0.064 A 
ATOM     73  C   UNL A   1      38.440  31.366  36.533  1.00  0.00     0.173 A 
ATOM     74  C   UNL A   1      39.581  33.285  35.649  1.00  0.00     0.173 A 
ATOM     75  F   UNL A   1      38.079  30.077  36.456  1.00  0.00    -0.203 F 
ATOM     76  C   UNL A   1      37.961  32.140  37.589  1.00  0.00     0.198 A 
ATOM     77  C   UNL A   1      39.123  34.051  36.719  1.00  0.00     0.198 A 
ATOM     78  F   UNL A   1      40.355  33.866  34.721  1.00  0.00    -0.203 F 
ATOM     79  F   UNL A   1      37.152  31.591  38.506  1.00  0.00    -0.200 F 
ATOM     80  C   UNL A   1      38.309  33.480  37.685  1.00  0.00     0.200 A 
ATOM     81  F   UNL A   1      39.469  35.342  36.812  1.00  0.00    -0.200 F 
ATOM     82  F   UNL A   1      37.853  34.221  38.703  1.00  0.00    -0.200 F 
ENDBRANCH  48  72
BRANCH  60  83
ATOM     83  C   UNL A   1      44.764  27.755  34.719  1.00  0.00     0.064 A 
ATOM     84  C   UNL A   1      44.686  26.626  35.547  1.00  0.00     0.173 A 
ATOM     85  C   UNL A   1      45.943  28.514  34.748  1.00  0.00     0.173 A 
ATOM     86  F   UNL A   1      43.572  25.879  35.565  1.00  0.00    -0.203 F 
ATOM     87  C   UNL A   1      45.741  26.283  36.389  1.00  0.00     0.198 A 
ATOM     88  C   UNL A   1      47.005  28.156  35.574  1.00  0.00     0.198 A 
ATOM     89  F   UNL A   1      46.067  29.601  33.970  1.00  0.00    -0.203 F 
ATOM     90  F   UNL A   1      45.629  25.226  37.204  1.00  0.00    -0.200 F 
ATOM     91  C   UNL A   1      46.900  27.045  36.398  1.00  0.00     0.200 A 
ATOM     92  F   UNL A   1      48.128  28.888  35.577  1.00  0.00    -0.200 F 
ATOM     93  F   UNL A   1      47.914  26.714  37.209  1.00  0.00    -0.200 F 
ENDBRANCH  60  83
ENDBRANCH  34  35
ENDBRANCH  27  29
ENDBRANCH  26  27
ENDBRANCH  25  26
ENDBRANCH   1  25
TORSDOF 16
ENDMDL
MODEL 2
REMARK VINA RESULT:     -11.7      0.285      1.971
REMARK SMILES CCC[C@H](CNC(=O)N1C[C@H]2CCC[N@H+]2C[C@@H]1C)C(=O)OCCOC(=O)c1ccc(-c2c3nc(c(-c4c(F)c(F)c(F)c(F)c4F)c4ccc([nH]4)c(-c4c(F)c(F)c(F)c(F)c4F)c4nc(c(-c5c(F)c(F)c(F)c(F)c5F)c5ccc2[nH]5)C=C4)C=C3)cc1
REMARK SMILES IDX 22 1 21 2 19 3 20 4 4 5 3 6 2 7 1 8 5 9 6 10 7 11 8 13 9 14
REMARK SMILES IDX 10 15 17 16 11 17 16 18 18 19 12 20 15 21 13 22 14 23 23 25
REMARK SMILES IDX 24 26 25 27 26 28 27 29 28 30 89 31 29 32 88 33 30 34 31 35
REMARK SMILES IDX 32 36 82 37 33 38 87 39 81 40 83 41 34 42 86 43 80 44 79 45
REMARK SMILES IDX 35 47 67 48 47 49 66 50 48 51 51 52 65 53 84 54 49 55 50 56
REMARK SMILES IDX 64 58 85 59 52 60 36 61 37 62 45 63 38 64 39 65 43 66 46 67
REMARK SMILES IDX 40 68 41 69 44 70 42 71 68 72 69 73 77 74 70 75 71 76 75 77
REMARK SMILES IDX 78 78 72 79 73 80 76 81 74 82 53 83 54 84 62 85 55 86 56 87
REMARK SMILES IDX 60 88 63 89 57 90 58 91 61 92 59 93
REMARK H PARENT 6 12 15 24 83 46 51 57
REMARK Flexibility Score: inf
ROOT
ATOM      1  C   UNL A   1      31.348  29.277  24.801  1.00  0.00     0.274 C 
ENDROOT
BRANCH   1   2
ATOM      2  O   UNL A   1      31.243  27.841  24.839  1.00  0.00    -0.462 OA
BRANCH   2   3
ATOM      3  C   UNL A   1      30.547  27.248  23.835  1.00  0.00     0.310 C 
ATOM      4  O   UNL A   1      30.347  27.750  22.735  1.00  0.00    -0.252 OA
BRANCH   3   5
ATOM      5  C   UNL A   1      30.054  25.853  24.193  1.00  0.00     0.118 C 
BRANCH   5   6
ATOM      6  C   UNL A   1      30.127  25.599  25.706  1.00  0.00     0.017 C 
BRANCH   6   7
ATOM      7  C   UNL A   1      31.033  24.410  26.066  1.00  0.00    -0.002 C 
ATOM      8  C   UNL A   1      30.281  23.268  26.745  1.00  0.00     0.004 C 
ENDBRANCH   6   7
ENDBRANCH   5   6
BRANCH   5   9
ATOM      9  C   UNL A   1      30.653  24.739  23.321  1.00  0.00     0.133 C 
BRANCH   9  10
ATOM     10  N   UNL A   1      31.528  25.201  22.264  1.00  0.00    -0.337 N 
ATOM     11  C   UNL A   1      32.852  25.065  22.061  1.00  0.00     0.318 C 
ATOM     12  H   UNL A   1      31.067  25.712  21.560  1.00  0.00     0.165 HD
ATOM     13  O   UNL A   1      33.401  25.961  21.417  1.00  0.00    -0.249 OA
BRANCH  11  14
ATOM     14  N   UNL A   1      33.543  24.015  22.595  1.00  0.00    -0.311 N 
ATOM     15  C   UNL A   1      32.997  22.678  22.360  1.00  0.00     0.186 C 
ATOM     16  C   UNL A   1      34.634  24.087  23.604  1.00  0.00     0.139 C 
ATOM     17  C   UNL A   1      32.681  21.950  23.675  1.00  0.00     0.204 C 
ATOM     18  C   UNL A   1      34.960  22.686  24.214  1.00  0.00     0.287 C 
ATOM     19  C   UNL A   1      34.321  25.082  24.728  1.00  0.00     0.037 C 
ATOM     20  C   UNL A   1      32.346  20.480  23.443  1.00  0.00     0.073 C 
ATOM     21  N   UNL A   1      33.771  21.962  24.684  1.00  0.00    -0.329 N 
ATOM     22  C   UNL A   1      32.797  19.813  24.726  1.00  0.00     0.068 C 
ATOM     23  C   UNL A   1      34.064  20.577  25.064  1.00  0.00     0.262 C 
ATOM     24  H   UNL A   1      33.462  22.475  25.509  1.00  0.00     0.348 HD
ENDBRANCH  11  14
ENDBRANCH   9  10
ENDBRANCH   5   9
ENDBRANCH   3   5
ENDBRANCH   2   3
ENDBRANCH   1   2
BRANCH   1  25
ATOM     25  C   UNL A   1      32.700  29.725  25.358  1.00  0.00     0.275 C 
BRANCH  25  26
ATOM     26  O   UNL A   1      32.596  30.059  26.757  1.00  0.00    -0.458 OA
BRANCH  26  27
ATOM     27  C   UNL A   1      33.171  31.228  27.118  1.00  0.00     0.338 C 
ATOM     28  O   UNL A   1      32.679  32.343  27.095  1.00  0.00    -0.246 OA
BRANCH  27  29
ATOM     29  C   UNL A   1      34.493  30.969  27.706  1.00  0.00     0.060 A 
ATOM     30  C   UNL A   1      34.794  29.659  28.079  1.00  0.00     0.016 A 
ATOM     31  C   UNL A   1      35.375  32.006  28.004  1.00  0.00     0.016 A 
ATOM     32  C   UNL A   1      35.971  29.369  28.757  1.00  0.00     0.010 A 
ATOM     33  C   UNL A   1      36.566  31.716  28.681  1.00  0.00     0.010 A 
ATOM     34  C   UNL A   1      36.863  30.398  29.075  1.00  0.00    -0.014 A 
BRANCH  34  35
ATOM     35  C   UNL A   1      38.066  30.088  29.884  1.00  0.00     0.031 A 
ATOM     36  C   UNL A   1      39.150  29.224  29.307  1.00  0.00     0.074 A 
ATOM     37  C   UNL A   1      38.212  30.625  31.109  1.00  0.00     0.049 A 
ATOM     38  N   UNL A   1      40.243  28.777  29.872  1.00  0.00    -0.248 NA
ATOM     39  C   UNL A   1      38.983  28.809  27.906  1.00  0.00     0.031 C 
ATOM     40  C   UNL A   1      37.260  31.530  31.752  1.00  0.00     0.029 A 
ATOM     41  N   UNL A   1      39.221  30.490  32.028  1.00  0.00    -0.354 N 
ATOM     42  C   UNL A   1      40.878  28.006  28.908  1.00  0.00     0.074 A 
ATOM     43  C   UNL A   1      40.048  28.041  27.723  1.00  0.00     0.031 C 
ATOM     44  C   UNL A   1      37.733  31.876  32.959  1.00  0.00     0.029 A 
ATOM     45  C   UNL A   1      38.997  31.182  33.193  1.00  0.00     0.049 A 
ATOM     46  H   UNL A   1      40.028  29.951  31.868  1.00  0.00     0.167 HD
ATOM     47  C   UNL A   1      42.048  27.331  29.006  1.00  0.00     0.037 A 
ATOM     48  C   UNL A   1      39.717  31.226  34.329  1.00  0.00     0.037 A 
ATOM     49  C   UNL A   1      42.884  27.318  30.177  1.00  0.00     0.049 A 
ATOM     50  C   UNL A   1      40.990  30.433  34.427  1.00  0.00     0.074 A 
ATOM     51  C   UNL A   1      44.087  26.662  30.374  1.00  0.00     0.029 A 
ATOM     52  N   UNL A   1      42.608  28.003  31.351  1.00  0.00    -0.354 N 
ATOM     53  N   UNL A   1      41.566  29.678  33.523  1.00  0.00    -0.248 NA
ATOM     54  C   UNL A   1      41.710  30.490  35.707  1.00  0.00     0.031 C 
ATOM     55  C   UNL A   1      44.523  26.925  31.677  1.00  0.00     0.029 A 
ATOM     56  C   UNL A   1      43.610  27.775  32.279  1.00  0.00     0.049 A 
ATOM     57  H   UNL A   1      41.815  28.568  31.502  1.00  0.00     0.167 HD
ATOM     58  C   UNL A   1      42.718  29.182  34.117  1.00  0.00     0.074 A 
ATOM     59  C   UNL A   1      42.770  29.737  35.454  1.00  0.00     0.031 C 
ATOM     60  C   UNL A   1      43.646  28.339  33.604  1.00  0.00     0.037 A 
BRANCH  47  61
ATOM     61  C   UNL A   1      42.476  26.519  27.820  1.00  0.00     0.064 A 
ATOM     62  C   UNL A   1      42.027  25.205  27.626  1.00  0.00     0.173 A 
ATOM     63  C   UNL A   1      43.324  27.077  26.852  1.00  0.00     0.173 A 
ATOM     64  F   UNL A   1      41.229  24.623  28.533  1.00  0.00    -0.203 F 
ATOM     65  C   UNL A   1      42.430  24.471  26.514  1.00  0.00     0.198 A 
ATOM     66  C   UNL A   1      43.706  26.347  25.731  1.00  0.00     0.198 A 
ATOM     67  F   UNL A   1      43.779  28.331  26.993  1.00  0.00    -0.203 F 
ATOM     68  F   UNL A   1      42.022  23.203  26.366  1.00  0.00    -0.200 F 
ATOM     69  C   UNL A   1      43.264  25.044  25.564  1.00  0.00     0.200 A 
ATOM     70  F   UNL A   1      44.506  26.905  24.811  1.00  0.00    -0.200 F 
ATOM     71  F   UNL A   1      43.646  24.336  24.492  1.00  0.00    -0.200 F 
ENDBRANCH  47  61
BRANCH  48  72
ATOM     72  C   UNL A   1      39.236  32.037  35.476  1.00  0.00     0.064 A 
ATOM     73  C   UNL A   1      39.613  33.379  35.619  1.00  0.00     0.173 A 
ATOM     74  C   UNL A   1      38.395  31.485  36.453  1.00  0.00     0.173 A 
ATOM     75  F   UNL A   1      40.438  33.942  34.724  1.00  0.00    -0.203 F 
ATOM     76  C   UNL A   1      39.173  34.137  36.703  1.00  0.00     0.198 A 
ATOM     77  C   UNL A   1      37.936  32.251  37.522  1.00  0.00     0.198 A 
ATOM     78  F   UNL A   1      38.011  30.204  36.362  1.00  0.00    -0.203 F 
ATOM     79  F   UNL A   1      39.578  35.408  36.837  1.00  0.00    -0.200 F 
ATOM     80  C   UNL A   1      38.329  33.574  37.650  1.00  0.00     0.200 A 
ATOM     81  F   UNL A   1      37.113  31.706  38.429  1.00  0.00    -0.200 F 
ATOM     82  F   UNL A   1      37.903  34.305  38.688  1.00  0.00    -0.200 F 
ENDBRANCH  48  72
BRANCH  60  83
ATOM     83  C   UNL A   1      44.807  27.986  34.484  1.00  0.00     0.064 A 
ATOM     84  C   UNL A   1      45.970  28.768  34.509  1.00  0.00     0.173 A 
ATOM     85  C   UNL A   1      44.744  26.870  35.330  1.00  0.00     0.173 A 
ATOM     86  F   UNL A   1      46.083  29.836  33.705  1.00  0.00    -0.203 F 
ATOM     87  C   UNL A   1      47.040  28.432  35.335  1.00  0.00     0.198 A 
ATOM     88  C   UNL A   1      45.806  26.549  36.172  1.00  0.00     0.198 A 
ATOM     89  F   UNL A   1      43.650  26.093  35.345  1.00  0.00    -0.203 F 
ATOM     90  F   UNL A   1      48.159  29.168  35.313  1.00  0.00    -0.200 F 
ATOM     91  C   UNL A   1      46.954  27.327  36.169  1.00  0.00     0.200 A 
ATOM     92  F   UNL A   1      45.719  25.485  36.982  1.00  0.00    -0.200 F 
ATOM     93  F   UNL A   1      47.984  27.004  36.964  1.00  0.00    -0.200 F 
ENDBRANCH  60  83
ENDBRANCH  34  35
ENDBRANCH  27  29
ENDBRANCH  26  27
ENDBRANCH  25  26
ENDBRANCH   1  25
TORSDOF 16
ENDMDL
MODEL 3
REMARK VINA RESULT:     -11.5      1.171      2.314
REMARK SMILES CCC[C@H](CNC(=O)N1C[C@H]2CCC[N@H+]2C[C@@H]1C)C(=O)OCCOC(=O)c1ccc(-c2c3nc(c(-c4c(F)c(F)c(F)c(F)c4F)c4ccc([nH]4)c(-c4c(F)c(F)c(F)c(F)c4F)c4nc(c(-c5c(F)c(F)c(F)c(F)c5F)c5ccc2[nH]5)C=C4)C=C3)cc1
REMARK SMILES IDX 22 1 21 2 19 3 20 4 4 5 3 6 2 7 1 8 5 9 6 10 7 11 8 13 9 14
REMARK SMILES IDX 10 15 17 16 11 17 16 18 18 19 12 20 15 21 13 22 14 23 23 25
REMARK SMILES IDX 24 26 25 27 26 28 27 29 28 30 89 31 29 32 88 33 30 34 31 35
REMARK SMILES IDX 32 36 82 37 33 38 87 39 81 40 83 41 34 42 86 43 80 44 79 45
REMARK SMILES IDX 35 47 67 48 47 49 66 50 48 51 51 52 65 53 84 54 49 55 50 56
REMARK SMILES IDX 64 58 85 59 52 60 36 61 37 62 45 63 38 64 39 65 43 66 46 67
REMARK SMILES IDX 40 68 41 69 44 70 42 71 68 72 69 73 77 74 70 75 71 76 75 77
REMARK SMILES IDX 78 78 72 79 73 80 76 81 74 82 53 83 54 84 62 85 55 86 56 87
REMARK SMILES IDX 60 88 63 89 57 90 58 91 61 92 59 93
REMARK H PARENT 6 12 15 24 83 46 51 57
REMARK Flexibility Score: inf
ROOT
ATOM      1  C   UNL A   1      31.700  28.851  25.884  1.00  0.00     0.274 C 
ENDROOT
BRANCH   1   2
ATOM      2  O   UNL A   1      32.779  28.558  24.975  1.00  0.00    -0.462 OA
BRANCH   2   3
ATOM      3  C   UNL A   1      33.415  27.369  25.140  1.00  0.00     0.310 C 
ATOM      4  O   UNL A   1      34.012  27.033  26.157  1.00  0.00    -0.252 OA
BRANCH   3   5
ATOM      5  C   UNL A   1      33.289  26.452  23.931  1.00  0.00     0.118 C 
BRANCH   5   6
ATOM      6  C   UNL A   1      32.796  27.215  22.693  1.00  0.00     0.017 C 
BRANCH   6   7
ATOM      7  C   UNL A   1      31.405  26.754  22.226  1.00  0.00    -0.002 C 
ATOM      8  C   UNL A   1      30.278  27.656  22.723  1.00  0.00     0.004 C 
ENDBRANCH   6   7
ENDBRANCH   5   6
BRANCH   5   9
ATOM      9  C   UNL A   1      32.545  25.140  24.222  1.00  0.00     0.133 C 
BRANCH   9  10
ATOM     10  N   UNL A   1      32.010  25.030  25.562  1.00  0.00    -0.337 N 
ATOM     11  C   UNL A   1      32.001  24.021  26.453  1.00  0.00     0.318 C 
ATOM     12  H   UNL A   1      31.567  25.849  25.882  1.00  0.00     0.165 HD
ATOM     13  O   UNL A   1      31.063  24.006  27.252  1.00  0.00    -0.249 OA
BRANCH  11  14
ATOM     14  N   UNL A   1      32.957  23.046  26.424  1.00  0.00    -0.311 N 
ATOM     15  C   UNL A   1      34.342  23.473  26.626  1.00  0.00     0.186 C 
ATOM     16  C   UNL A   1      32.787  21.646  25.949  1.00  0.00     0.139 C 
ATOM     17  C   UNL A   1      35.234  23.105  25.432  1.00  0.00     0.204 C 
ATOM     18  C   UNL A   1      34.159  20.923  25.758  1.00  0.00     0.287 C 
ATOM     19  C   UNL A   1      31.973  21.567  24.653  1.00  0.00     0.037 C 
ATOM     20  C   UNL A   1      36.713  23.325  25.739  1.00  0.00     0.073 C 
ATOM     21  N   UNL A   1      35.124  21.699  24.967  1.00  0.00    -0.329 N 
ATOM     22  C   UNL A   1      37.406  22.291  24.876  1.00  0.00     0.068 C 
ATOM     23  C   UNL A   1      36.464  21.105  24.966  1.00  0.00     0.262 C 
ATOM     24  H   UNL A   1      34.753  21.684  24.017  1.00  0.00     0.348 HD
ENDBRANCH  11  14
ENDBRANCH   9  10
ENDBRANCH   5   9
ENDBRANCH   3   5
ENDBRANCH   2   3
ENDBRANCH   1   2
BRANCH   1  25
ATOM     25  C   UNL A   1      31.769  30.311  26.335  1.00  0.00     0.275 C 
BRANCH  25  26
ATOM     26  O   UNL A   1      33.115  30.819  26.233  1.00  0.00    -0.458 OA
BRANCH  26  27
ATOM     27  C   UNL A   1      33.467  31.722  27.176  1.00  0.00     0.338 C 
ATOM     28  O   UNL A   1      32.813  32.663  27.591  1.00  0.00    -0.246 OA
BRANCH  27  29
ATOM     29  C   UNL A   1      34.753  31.337  27.775  1.00  0.00     0.060 A 
ATOM     30  C   UNL A   1      34.894  30.025  28.226  1.00  0.00     0.016 A 
ATOM     31  C   UNL A   1      35.758  32.274  28.009  1.00  0.00     0.016 A 
ATOM     32  C   UNL A   1      36.033  29.633  28.918  1.00  0.00     0.010 A 
ATOM     33  C   UNL A   1      36.911  31.881  28.699  1.00  0.00     0.010 A 
ATOM     34  C   UNL A   1      37.048  30.562  29.171  1.00  0.00    -0.014 A 
BRANCH  34  35
ATOM     35  C   UNL A   1      38.211  30.155  29.996  1.00  0.00     0.031 A 
ATOM     36  C   UNL A   1      39.250  29.239  29.417  1.00  0.00     0.074 A 
ATOM     37  C   UNL A   1      38.364  30.650  31.237  1.00  0.00     0.049 A 
ATOM     38  N   UNL A   1      40.300  28.709  29.991  1.00  0.00    -0.248 NA
ATOM     39  C   UNL A   1      39.088  28.872  28.002  1.00  0.00     0.031 C 
ATOM     40  C   UNL A   1      37.457  31.596  31.886  1.00  0.00     0.029 A 
ATOM     41  N   UNL A   1      39.342  30.427  32.173  1.00  0.00    -0.354 N 
ATOM     42  C   UNL A   1      40.906  27.925  29.019  1.00  0.00     0.074 A 
ATOM     43  C   UNL A   1      40.106  28.043  27.819  1.00  0.00     0.031 C 
ATOM     44  C   UNL A   1      37.925  31.880  33.112  1.00  0.00     0.029 A 
ATOM     45  C   UNL A   1      39.137  31.101  33.352  1.00  0.00     0.049 A 
ATOM     46  H   UNL A   1      40.117  29.842  32.014  1.00  0.00     0.167 HD
ATOM     47  C   UNL A   1      42.029  27.175  29.122  1.00  0.00     0.037 A 
ATOM     48  C   UNL A   1      39.833  31.070  34.502  1.00  0.00     0.037 A 
ATOM     49  C   UNL A   1      42.838  27.078  30.308  1.00  0.00     0.049 A 
ATOM     50  C   UNL A   1      41.052  30.195  34.604  1.00  0.00     0.074 A 
ATOM     51  C   UNL A   1      43.992  26.342  30.511  1.00  0.00     0.029 A 
ATOM     52  N   UNL A   1      42.579  27.749  31.495  1.00  0.00    -0.354 N 
ATOM     53  N   UNL A   1      41.598  29.429  33.691  1.00  0.00    -0.248 NA
ATOM     54  C   UNL A   1      41.746  30.173  35.899  1.00  0.00     0.031 C 
ATOM     55  C   UNL A   1      44.415  26.543  31.829  1.00  0.00     0.029 A 
ATOM     56  C   UNL A   1      43.545  27.433  32.436  1.00  0.00     0.049 A 
ATOM     57  H   UNL A   1      41.821  28.358  31.645  1.00  0.00     0.167 HD
ATOM     58  C   UNL A   1      42.704  28.845  34.294  1.00  0.00     0.074 A 
ATOM     59  C   UNL A   1      42.762  29.360  35.647  1.00  0.00     0.031 C 
ATOM     60  C   UNL A   1      43.588  27.959  33.776  1.00  0.00     0.037 A 
BRANCH  47  61
ATOM     61  C   UNL A   1      42.430  26.369  27.923  1.00  0.00     0.064 A 
ATOM     62  C   UNL A   1      43.367  26.846  26.994  1.00  0.00     0.173 A 
ATOM     63  C   UNL A   1      41.890  25.091  27.718  1.00  0.00     0.173 A 
ATOM     64  F   UNL A   1      43.897  28.069  27.137  1.00  0.00    -0.203 F 
ATOM     65  C   UNL A   1      43.732  26.078  25.892  1.00  0.00     0.198 A 
ATOM     66  C   UNL A   1      42.275  24.317  26.627  1.00  0.00     0.198 A 
ATOM     67  F   UNL A   1      40.992  24.590  28.580  1.00  0.00    -0.203 F 
ATOM     68  F   UNL A   1      44.599  26.567  24.994  1.00  0.00    -0.200 F 
ATOM     69  C   UNL A   1      43.191  24.813  25.712  1.00  0.00     0.200 A 
ATOM     70  F   UNL A   1      41.757  23.093  26.460  1.00  0.00    -0.200 F 
ATOM     71  F   UNL A   1      43.548  24.074  24.652  1.00  0.00    -0.200 F 
ENDBRANCH  47  61
BRANCH  48  72
ATOM     72  C   UNL A   1      39.380  31.879  35.662  1.00  0.00     0.064 A 
ATOM     73  C   UNL A   1      38.435  31.379  36.565  1.00  0.00     0.173 A 
ATOM     74  C   UNL A   1      39.882  33.170  35.886  1.00  0.00     0.173 A 
ATOM     75  F   UNL A   1      37.907  30.161  36.376  1.00  0.00    -0.203 F 
ATOM     76  C   UNL A   1      37.999  32.143  37.647  1.00  0.00     0.198 A 
ATOM     77  C   UNL A   1      39.465  33.923  36.981  1.00  0.00     0.198 A 
ATOM     78  F   UNL A   1      40.787  33.694  35.046  1.00  0.00    -0.203 F 
ATOM     79  F   UNL A   1      37.066  31.656  38.476  1.00  0.00    -0.200 F 
ATOM     80  C   UNL A   1      38.520  33.412  37.857  1.00  0.00     0.200 A 
ATOM     81  F   UNL A   1      39.978  35.144  37.186  1.00  0.00    -0.200 F 
ATOM     82  F   UNL A   1      38.105  34.144  38.899  1.00  0.00    -0.200 F 
ENDBRANCH  48  72
BRANCH  60  83
ATOM     83  C   UNL A   1      44.705  27.510  34.669  1.00  0.00     0.064 A 
ATOM     84  C   UNL A   1      45.904  28.232  34.760  1.00  0.00     0.173 A 
ATOM     85  C   UNL A   1      44.564  26.362  35.462  1.00  0.00     0.173 A 
ATOM     86  F   UNL A   1      46.091  29.327  34.009  1.00  0.00    -0.203 F 
ATOM     87  C   UNL A   1      46.932  27.807  35.598  1.00  0.00     0.198 A 
ATOM     88  C   UNL A   1      45.585  25.952  36.315  1.00  0.00     0.198 A 
ATOM     89  F   UNL A   1      43.434  25.640  35.412  1.00  0.00    -0.203 F 
ATOM     90  F   UNL A   1      48.086  28.486  35.639  1.00  0.00    -0.200 F 
ATOM     91  C   UNL A   1      46.770  26.671  36.378  1.00  0.00     0.200 A 
ATOM     92  F   UNL A   1      45.424  24.859  37.074  1.00  0.00    -0.200 F 
ATOM     93  F   UNL A   1      47.760  26.263  37.183  1.00  0.00    -0.200 F 
ENDBRANCH  60  83
ENDBRANCH  34  35
ENDBRANCH  27  29
ENDBRANCH  26  27
ENDBRANCH  25  26
ENDBRANCH   1  25
TORSDOF 16
ENDMDL
