MODEL 1
REMARK VINA RESULT:     -13.4      0.000      0.000
REMARK SMILES CC(=O)N[C@H]1[C@@H](Oc2ccc(C)c(C)c2)O[C@H]2CO[C@H](c3ccco3)O[C@@H]2[C@H]1OCC(=O)OCCOC(=O)c1ccc(-c2c3nc(c(-c4c(F)c(F)c(F)c(F)c4F)c4ccc([nH]4)c(-c4c(F)c(F)c(F)c(F)c4F)c4nc(c(-c5c(F)c(F)c(F)c(F)c5F)c5ccc2[nH]5)C=C4)C=C3)cc1
REMARK SMILES IDX 34 1 33 2 31 3 32 4 30 5 29 6 28 7 5 8 6 9 16 10 27 11 17 12
REMARK SMILES IDX 26 13 18 14 20 15 19 16 4 17 1 18 2 19 3 20 7 22 8 23 9 24
REMARK SMILES IDX 15 25 10 26 13 27 11 28 14 29 12 30 21 31 22 32 25 33 23 34
REMARK SMILES IDX 24 35 35 36 36 37 37 38 38 39 39 40 40 41 101 42 41 43
REMARK SMILES IDX 100 44 42 45 43 46 44 47 94 48 45 49 99 50 93 51 95 52 46 53
REMARK SMILES IDX 98 54 92 55 91 56 47 58 79 59 59 60 78 61 60 62 63 63 77 64
REMARK SMILES IDX 96 65 61 66 62 67 76 69 97 70 64 71 48 72 49 73 57 74 50 75
REMARK SMILES IDX 51 76 55 77 58 78 52 79 53 80 56 81 54 82 80 83 81 84 89 85
REMARK SMILES IDX 82 86 83 87 87 88 90 89 84 90 85 91 88 92 86 93 65 94 66 95
REMARK SMILES IDX 74 96 67 97 68 98 72 99 75 100 69 101 70 102 73 103 71 104
REMARK H PARENT 4 21 95 57 63 68
REMARK Flexibility Score: inf
ROOT
ATOM      1  C   UNL A   1      39.002  21.298  25.759  1.00  0.00     0.274 C 
ENDROOT
BRANCH   1   2
ATOM      2  O   UNL A   1      37.634  21.498  25.346  1.00  0.00    -0.460 OA
BRANCH   2   3
ATOM      3  C   UNL A   1      37.295  22.781  25.040  1.00  0.00     0.332 C 
ATOM      4  O   UNL A   1      37.273  23.710  25.841  1.00  0.00    -0.250 OA
BRANCH   3   5
ATOM      5  C   UNL A   1      36.908  22.951  23.571  1.00  0.00     0.283 C 
BRANCH   5   6
ATOM      6  O   UNL A   1      35.601  23.349  23.206  1.00  0.00    -0.361 OA
BRANCH   6   7
ATOM      7  C   UNL A   1      34.615  23.442  24.240  1.00  0.00     0.179 C 
ATOM      8  C   UNL A   1      33.924  24.818  24.077  1.00  0.00     0.182 C 
ATOM      9  C   UNL A   1      32.793  24.989  25.164  1.00  0.00     0.333 C 
ATOM     10  O   UNL A   1      31.927  23.867  25.349  1.00  0.00    -0.332 OA
ATOM     11  C   UNL A   1      33.499  22.378  24.262  1.00  0.00     0.184 C 
ATOM     12  C   UNL A   1      32.594  22.621  25.473  1.00  0.00     0.180 C 
ATOM     13  O   UNL A   1      33.967  21.039  24.259  1.00  0.00    -0.337 OA
ATOM     14  C   UNL A   1      31.531  21.519  25.534  1.00  0.00     0.199 C 
ATOM     15  C   UNL A   1      32.840  20.163  24.154  1.00  0.00     0.319 C 
ATOM     16  O   UNL A   1      32.092  20.219  25.367  1.00  0.00    -0.343 OA
BRANCH   8  17
ATOM     17  N   UNL A   1      33.544  25.234  22.688  1.00  0.00    -0.345 N 
ATOM     18  C   UNL A   1      33.859  27.722  22.317  1.00  0.00     0.114 C 
ATOM     19  C   UNL A   1      33.460  26.334  21.904  1.00  0.00     0.217 C 
ATOM     20  O   UNL A   1      33.065  26.158  20.746  1.00  0.00    -0.275 OA
ATOM     21  H   UNL A   1      33.260  24.443  22.174  1.00  0.00     0.164 HD
ENDBRANCH   8  17
BRANCH   9  22
ATOM     22  O   UNL A   1      32.065  26.224  25.045  1.00  0.00    -0.463 OA
BRANCH  22  23
ATOM     23  C   UNL A   1      32.585  27.384  25.554  1.00  0.00     0.123 A 
ATOM     24  C   UNL A   1      33.772  27.518  26.267  1.00  0.00     0.047 A 
ATOM     25  C   UNL A   1      31.792  28.517  25.362  1.00  0.00     0.050 A 
ATOM     26  C   UNL A   1      34.092  28.725  26.889  1.00  0.00     0.007 A 
ATOM     27  C   UNL A   1      32.113  29.751  25.960  1.00  0.00    -0.045 A 
ATOM     28  C   UNL A   1      33.249  29.838  26.783  1.00  0.00    -0.048 A 
ATOM     29  C   UNL A   1      31.210  30.922  25.685  1.00  0.00     0.045 C 
ATOM     30  C   UNL A   1      33.594  31.074  27.564  1.00  0.00     0.044 C 
ENDBRANCH  22  23
ENDBRANCH   9  22
BRANCH  15  31
ATOM     31  C   UNL A   1      33.315  18.770  23.947  1.00  0.00     0.159 A 
ATOM     32  C   UNL A   1      32.890  17.742  23.127  1.00  0.00     0.051 A 
ATOM     33  O   UNL A   1      34.432  18.374  24.634  1.00  0.00    -0.464 OA
ATOM     34  C   UNL A   1      33.780  16.661  23.338  1.00  0.00     0.042 A 
ATOM     35  C   UNL A   1      34.695  17.093  24.268  1.00  0.00     0.195 A 
ENDBRANCH  15  31
ENDBRANCH   6   7
ENDBRANCH   5   6
ENDBRANCH   3   5
ENDBRANCH   2   3
ENDBRANCH   1   2
BRANCH   1  36
ATOM     36  C   UNL A   1      39.464  19.885  25.409  1.00  0.00     0.275 C 
BRANCH  36  37
ATOM     37  O   UNL A   1      40.262  19.354  26.482  1.00  0.00    -0.458 OA
BRANCH  37  38
ATOM     38  C   UNL A   1      41.586  19.227  26.235  1.00  0.00     0.338 C 
ATOM     39  O   UNL A   1      42.167  18.270  25.753  1.00  0.00    -0.246 OA
BRANCH  38  40
ATOM     40  C   UNL A   1      42.279  20.482  26.574  1.00  0.00     0.060 A 
ATOM     41  C   UNL A   1      42.200  20.980  27.869  1.00  0.00     0.016 A 
ATOM     42  C   UNL A   1      42.889  21.243  25.572  1.00  0.00     0.016 A 
ATOM     43  C   UNL A   1      42.663  22.265  28.143  1.00  0.00     0.010 A 
ATOM     44  C   UNL A   1      43.418  22.507  25.877  1.00  0.00     0.010 A 
ATOM     45  C   UNL A   1      43.270  23.060  27.159  1.00  0.00    -0.014 A 
BRANCH  45  46
ATOM     46  C   UNL A   1      43.682  24.465  27.480  1.00  0.00     0.031 A 
ATOM     47  C   UNL A   1      42.672  25.494  27.937  1.00  0.00     0.074 A 
ATOM     48  C   UNL A   1      44.984  24.818  27.454  1.00  0.00     0.049 A 
ATOM     49  N   UNL A   1      42.846  26.765  28.219  1.00  0.00    -0.248 NA
ATOM     50  C   UNL A   1      41.282  25.043  28.096  1.00  0.00     0.031 C 
ATOM     51  C   UNL A   1      46.091  23.935  27.092  1.00  0.00     0.029 A 
ATOM     52  N   UNL A   1      45.602  26.004  27.777  1.00  0.00    -0.354 N 
ATOM     53  C   UNL A   1      41.591  27.265  28.544  1.00  0.00     0.074 A 
ATOM     54  C   UNL A   1      40.661  26.162  28.438  1.00  0.00     0.031 C 
ATOM     55  C   UNL A   1      47.251  24.574  27.303  1.00  0.00     0.029 A 
ATOM     56  C   UNL A   1      46.972  25.944  27.717  1.00  0.00     0.049 A 
ATOM     57  H   UNL A   1      45.108  26.819  28.028  1.00  0.00     0.167 HD
ATOM     58  C   UNL A   1      41.236  28.527  28.890  1.00  0.00     0.037 A 
ATOM     59  C   UNL A   1      47.909  26.886  27.944  1.00  0.00     0.037 A 
ATOM     60  C   UNL A   1      42.147  29.633  29.020  1.00  0.00     0.049 A 
ATOM     61  C   UNL A   1      47.490  28.288  28.279  1.00  0.00     0.074 A 
ATOM     62  C   UNL A   1      41.866  30.953  29.336  1.00  0.00     0.029 A 
ATOM     63  N   UNL A   1      43.520  29.550  28.850  1.00  0.00    -0.354 N 
ATOM     64  N   UNL A   1      46.291  28.761  28.508  1.00  0.00    -0.248 NA
ATOM     65  C   UNL A   1      48.558  29.297  28.346  1.00  0.00     0.031 C 
ATOM     66  C   UNL A   1      43.064  31.676  29.317  1.00  0.00     0.029 A 
ATOM     67  C   UNL A   1      44.096  30.798  29.030  1.00  0.00     0.049 A 
ATOM     68  H   UNL A   1      44.013  28.726  28.632  1.00  0.00     0.167 HD
ATOM     69  C   UNL A   1      46.454  30.123  28.715  1.00  0.00     0.074 A 
ATOM     70  C   UNL A   1      47.874  30.394  28.640  1.00  0.00     0.031 C 
ATOM     71  C   UNL A   1      45.506  31.068  28.924  1.00  0.00     0.037 A 
BRANCH  58  72
ATOM     72  C   UNL A   1      39.776  28.801  29.100  1.00  0.00     0.064 A 
ATOM     73  C   UNL A   1      39.160  28.624  30.347  1.00  0.00     0.173 A 
ATOM     74  C   UNL A   1      38.992  29.285  28.040  1.00  0.00     0.173 A 
ATOM     75  F   UNL A   1      39.863  28.149  31.386  1.00  0.00    -0.203 F 
ATOM     76  C   UNL A   1      37.807  28.908  30.521  1.00  0.00     0.198 A 
ATOM     77  C   UNL A   1      37.646  29.588  28.224  1.00  0.00     0.198 A 
ATOM     78  F   UNL A   1      39.537  29.474  26.829  1.00  0.00    -0.203 F 
ATOM     79  F   UNL A   1      37.229  28.701  31.712  1.00  0.00    -0.200 F 
ATOM     80  C   UNL A   1      37.053  29.394  29.462  1.00  0.00     0.200 A 
ATOM     81  F   UNL A   1      36.923  30.066  27.202  1.00  0.00    -0.200 F 
ATOM     82  F   UNL A   1      35.754  29.673  29.634  1.00  0.00    -0.200 F 
ENDBRANCH  58  72
BRANCH  59  83
ATOM     83  C   UNL A   1      49.347  26.535  27.823  1.00  0.00     0.064 A 
ATOM     84  C   UNL A   1      49.951  26.417  26.565  1.00  0.00     0.173 A 
ATOM     85  C   UNL A   1      50.148  26.328  28.956  1.00  0.00     0.173 A 
ATOM     86  F   UNL A   1      49.218  26.579  25.452  1.00  0.00    -0.203 F 
ATOM     87  C   UNL A   1      51.304  26.108  26.444  1.00  0.00     0.198 A 
ATOM     88  C   UNL A   1      51.507  26.051  28.835  1.00  0.00     0.198 A 
ATOM     89  F   UNL A   1      49.614  26.423  30.182  1.00  0.00    -0.203 F 
ATOM     90  F   UNL A   1      51.852  25.970  25.229  1.00  0.00    -0.200 F 
ATOM     91  C   UNL A   1      52.083  25.937  27.580  1.00  0.00     0.200 A 
ATOM     92  F   UNL A   1      52.258  25.902  29.935  1.00  0.00    -0.200 F 
ATOM     93  F   UNL A   1      53.389  25.659  27.463  1.00  0.00    -0.200 F 
ENDBRANCH  59  83
BRANCH  71  94
ATOM     94  C   UNL A   1      45.970  32.489  29.048  1.00  0.00     0.064 A 
ATOM     95  C   UNL A   1      46.040  33.328  27.924  1.00  0.00     0.173 A 
ATOM     96  C   UNL A   1      46.327  33.026  30.292  1.00  0.00     0.173 A 
ATOM     97  F   UNL A   1      45.723  32.855  26.709  1.00  0.00    -0.203 F 
ATOM     98  C   UNL A   1      46.472  34.646  28.040  1.00  0.00     0.198 A 
ATOM     99  C   UNL A   1      46.736  34.352  30.409  1.00  0.00     0.198 A 
ATOM    100  F   UNL A   1      46.274  32.266  31.397  1.00  0.00    -0.203 F 
ATOM    101  F   UNL A   1      46.572  35.415  26.947  1.00  0.00    -0.200 F 
ATOM    102  C   UNL A   1      46.815  35.158  29.282  1.00  0.00     0.200 A 
ATOM    103  F   UNL A   1      47.061  34.849  31.610  1.00  0.00    -0.200 F 
ATOM    104  F   UNL A   1      47.232  36.427  29.392  1.00  0.00    -0.200 F 
ENDBRANCH  71  94
ENDBRANCH  45  46
ENDBRANCH  38  40
ENDBRANCH  37  38
ENDBRANCH  36  37
ENDBRANCH   1  36
TORSDOF 17
ENDMDL
MODEL 2
REMARK VINA RESULT:     -13.4      4.742     10.516
REMARK SMILES CC(=O)N[C@H]1[C@@H](Oc2ccc(C)c(C)c2)O[C@H]2CO[C@H](c3ccco3)O[C@@H]2[C@H]1OCC(=O)OCCOC(=O)c1ccc(-c2c3nc(c(-c4c(F)c(F)c(F)c(F)c4F)c4ccc([nH]4)c(-c4c(F)c(F)c(F)c(F)c4F)c4nc(c(-c5c(F)c(F)c(F)c(F)c5F)c5ccc2[nH]5)C=C4)C=C3)cc1
REMARK SMILES IDX 34 1 33 2 31 3 32 4 30 5 29 6 28 7 5 8 6 9 16 10 27 11 17 12
REMARK SMILES IDX 26 13 18 14 20 15 19 16 4 17 1 18 2 19 3 20 7 22 8 23 9 24
REMARK SMILES IDX 15 25 10 26 13 27 11 28 14 29 12 30 21 31 22 32 25 33 23 34
REMARK SMILES IDX 24 35 35 36 36 37 37 38 38 39 39 40 40 41 101 42 41 43
REMARK SMILES IDX 100 44 42 45 43 46 44 47 94 48 45 49 99 50 93 51 95 52 46 53
REMARK SMILES IDX 98 54 92 55 91 56 47 58 79 59 59 60 78 61 60 62 63 63 77 64
REMARK SMILES IDX 96 65 61 66 62 67 76 69 97 70 64 71 48 72 49 73 57 74 50 75
REMARK SMILES IDX 51 76 55 77 58 78 52 79 53 80 56 81 54 82 80 83 81 84 89 85
REMARK SMILES IDX 82 86 83 87 87 88 90 89 84 90 85 91 88 92 86 93 65 94 66 95
REMARK SMILES IDX 74 96 67 97 68 98 72 99 75 100 69 101 70 102 73 103 71 104
REMARK H PARENT 4 21 95 57 63 68
REMARK Flexibility Score: inf
ROOT
ATOM      1  C   UNL A   1      31.473  30.893  26.521  1.00  0.00     0.274 C 
ENDROOT
BRANCH   1   2
ATOM      2  O   UNL A   1      32.771  30.489  26.040  1.00  0.00    -0.460 OA
BRANCH   2   3
ATOM      3  C   UNL A   1      33.267  29.342  26.582  1.00  0.00     0.332 C 
ATOM      4  O   UNL A   1      34.436  28.978  26.503  1.00  0.00    -0.250 OA
BRANCH   3   5
ATOM      5  C   UNL A   1      32.195  28.516  27.294  1.00  0.00     0.283 C 
BRANCH   5   6
ATOM      6  O   UNL A   1      31.701  27.322  26.723  1.00  0.00    -0.361 OA
BRANCH   6   7
ATOM      7  C   UNL A   1      32.274  26.881  25.487  1.00  0.00     0.179 C 
ATOM      8  C   UNL A   1      32.676  25.400  25.682  1.00  0.00     0.182 C 
ATOM      9  C   UNL A   1      33.290  24.823  24.347  1.00  0.00     0.333 C 
ATOM     10  O   UNL A   1      32.578  25.129  23.147  1.00  0.00    -0.332 OA
ATOM     11  C   UNL A   1      31.389  26.945  24.225  1.00  0.00     0.184 C 
ATOM     12  C   UNL A   1      32.207  26.493  23.013  1.00  0.00     0.180 C 
ATOM     13  O   UNL A   1      30.809  28.216  23.981  1.00  0.00    -0.337 OA
ATOM     14  C   UNL A   1      31.348  26.628  21.750  1.00  0.00     0.199 C 
ATOM     15  C   UNL A   1      29.921  28.105  22.863  1.00  0.00     0.319 C 
ATOM     16  O   UNL A   1      30.687  27.889  21.680  1.00  0.00    -0.343 OA
BRANCH   8  17
ATOM     17  N   UNL A   1      31.688  24.506  26.369  1.00  0.00    -0.345 N 
ATOM     18  C   UNL A   1      32.823  22.657  27.681  1.00  0.00     0.114 C 
ATOM     19  C   UNL A   1      31.632  23.403  27.152  1.00  0.00     0.217 C 
ATOM     20  O   UNL A   1      30.505  23.021  27.487  1.00  0.00    -0.275 OA
ATOM     21  H   UNL A   1      30.775  24.828  26.192  1.00  0.00     0.164 HD
ENDBRANCH   8  17
BRANCH   9  22
ATOM     22  O   UNL A   1      33.640  23.431  24.431  1.00  0.00    -0.463 OA
BRANCH  22  23
ATOM     23  C   UNL A   1      34.871  23.055  24.896  1.00  0.00     0.123 A 
ATOM     24  C   UNL A   1      35.847  23.891  25.430  1.00  0.00     0.047 A 
ATOM     25  C   UNL A   1      35.162  21.696  24.760  1.00  0.00     0.050 A 
ATOM     26  C   UNL A   1      37.128  23.406  25.694  1.00  0.00     0.007 A 
ATOM     27  C   UNL A   1      36.442  21.183  25.047  1.00  0.00    -0.045 A 
ATOM     28  C   UNL A   1      37.454  22.064  25.465  1.00  0.00    -0.048 A 
ATOM     29  C   UNL A   1      36.659  19.704  24.887  1.00  0.00     0.045 C 
ATOM     30  C   UNL A   1      38.878  21.629  25.665  1.00  0.00     0.044 C 
ENDBRANCH  22  23
ENDBRANCH   9  22
BRANCH  15  31
ATOM     31  C   UNL A   1      29.154  29.369  22.715  1.00  0.00     0.159 A 
ATOM     32  C   UNL A   1      28.821  30.377  23.600  1.00  0.00     0.051 A 
ATOM     33  O   UNL A   1      28.702  29.692  21.464  1.00  0.00    -0.464 OA
ATOM     34  C   UNL A   1      28.117  31.353  22.856  1.00  0.00     0.042 A 
ATOM     35  C   UNL A   1      28.065  30.887  21.564  1.00  0.00     0.195 A 
ENDBRANCH  15  31
ENDBRANCH   6   7
ENDBRANCH   5   6
ENDBRANCH   3   5
ENDBRANCH   2   3
ENDBRANCH   1   2
BRANCH   1  36
ATOM     36  C   UNL A   1      31.464  32.385  26.844  1.00  0.00     0.275 C 
BRANCH  36  37
ATOM     37  O   UNL A   1      32.798  32.915  26.739  1.00  0.00    -0.458 OA
BRANCH  37  38
ATOM     38  C   UNL A   1      33.268  33.571  27.825  1.00  0.00     0.338 C 
ATOM     39  O   UNL A   1      32.766  34.524  28.396  1.00  0.00    -0.246 OA
BRANCH  38  40
ATOM     40  C   UNL A   1      34.497  32.917  28.309  1.00  0.00     0.060 A 
ATOM     41  C   UNL A   1      34.432  31.624  28.815  1.00  0.00     0.016 A 
ATOM     42  C   UNL A   1      35.691  33.639  28.396  1.00  0.00     0.016 A 
ATOM     43  C   UNL A   1      35.535  31.085  29.470  1.00  0.00     0.010 A 
ATOM     44  C   UNL A   1      36.819  33.057  28.995  1.00  0.00     0.010 A 
ATOM     45  C   UNL A   1      36.746  31.785  29.586  1.00  0.00    -0.014 A 
BRANCH  45  46
ATOM     46  C   UNL A   1      37.880  31.196  30.368  1.00  0.00     0.031 A 
ATOM     47  C   UNL A   1      38.875  30.258  29.722  1.00  0.00     0.074 A 
ATOM     48  C   UNL A   1      38.090  31.563  31.650  1.00  0.00     0.049 A 
ATOM     49  N   UNL A   1      39.894  29.625  30.258  1.00  0.00    -0.248 NA
ATOM     50  C   UNL A   1      38.707  29.989  28.287  1.00  0.00     0.031 C 
ATOM     51  C   UNL A   1      37.261  32.500  32.407  1.00  0.00     0.029 A 
ATOM     52  N   UNL A   1      39.091  31.224  32.531  1.00  0.00    -0.354 N 
ATOM     53  C   UNL A   1      40.452  28.860  29.241  1.00  0.00     0.074 A 
ATOM     54  C   UNL A   1      39.671  29.112  28.050  1.00  0.00     0.031 C 
ATOM     55  C   UNL A   1      37.834  32.734  33.596  1.00  0.00     0.029 A 
ATOM     56  C   UNL A   1      39.015  31.888  33.731  1.00  0.00     0.049 A 
ATOM     57  H   UNL A   1      39.794  30.567  32.321  1.00  0.00     0.167 HD
ATOM     58  C   UNL A   1      41.511  28.015  29.290  1.00  0.00     0.037 A 
ATOM     59  C   UNL A   1      39.789  31.816  34.831  1.00  0.00     0.037 A 
ATOM     60  C   UNL A   1      42.313  27.764  30.459  1.00  0.00     0.049 A 
ATOM     61  C   UNL A   1      40.927  30.838  34.879  1.00  0.00     0.074 A 
ATOM     62  C   UNL A   1      43.386  26.898  30.602  1.00  0.00     0.029 A 
ATOM     63  N   UNL A   1      42.138  28.386  31.685  1.00  0.00    -0.354 N 
ATOM     64  N   UNL A   1      41.395  30.065  33.931  1.00  0.00    -0.248 NA
ATOM     65  C   UNL A   1      41.620  30.695  36.168  1.00  0.00     0.031 C 
ATOM     66  C   UNL A   1      43.833  26.967  31.927  1.00  0.00     0.029 A 
ATOM     67  C   UNL A   1      43.066  27.905  32.596  1.00  0.00     0.049 A 
ATOM     68  H   UNL A   1      41.454  29.067  31.881  1.00  0.00     0.167 HD
ATOM     69  C   UNL A   1      42.412  29.324  34.513  1.00  0.00     0.074 A 
ATOM     70  C   UNL A   1      42.533  29.777  35.883  1.00  0.00     0.031 C 
ATOM     71  C   UNL A   1      43.161  28.337  33.966  1.00  0.00     0.037 A 
BRANCH  58  72
ATOM     72  C   UNL A   1      41.837  27.244  28.045  1.00  0.00     0.064 A 
ATOM     73  C   UNL A   1      42.771  27.708  27.108  1.00  0.00     0.173 A 
ATOM     74  C   UNL A   1      41.231  26.000  27.810  1.00  0.00     0.173 A 
ATOM     75  F   UNL A   1      43.365  28.898  27.280  1.00  0.00    -0.203 F 
ATOM     76  C   UNL A   1      43.073  26.961  25.971  1.00  0.00     0.198 A 
ATOM     77  C   UNL A   1      41.551  25.247  26.685  1.00  0.00     0.198 A 
ATOM     78  F   UNL A   1      40.334  25.511  28.681  1.00  0.00    -0.203 F 
ATOM     79  F   UNL A   1      43.943  27.438  25.070  1.00  0.00    -0.200 F 
ATOM     80  C   UNL A   1      42.467  25.730  25.763  1.00  0.00     0.200 A 
ATOM     81  F   UNL A   1      40.972  24.054  26.492  1.00  0.00    -0.200 F 
ATOM     82  F   UNL A   1      42.764  25.010  24.673  1.00  0.00    -0.200 F 
ENDBRANCH  58  72
BRANCH  59  83
ATOM     83  C   UNL A   1      39.484  32.679  36.001  1.00  0.00     0.064 A 
ATOM     84  C   UNL A   1      40.137  33.906  36.174  1.00  0.00     0.173 A 
ATOM     85  C   UNL A   1      38.528  32.305  36.956  1.00  0.00     0.173 A 
ATOM     86  F   UNL A   1      41.080  34.293  35.301  1.00  0.00    -0.203 F 
ATOM     87  C   UNL A   1      39.842  34.730  37.259  1.00  0.00     0.198 A 
ATOM     88  C   UNL A   1      38.210  33.143  38.021  1.00  0.00     0.198 A 
ATOM     89  F   UNL A   1      37.882  31.136  36.838  1.00  0.00    -0.203 F 
ATOM     90  F   UNL A   1      40.501  35.885  37.419  1.00  0.00    -0.200 F 
ATOM     91  C   UNL A   1      38.870  34.353  38.175  1.00  0.00     0.200 A 
ATOM     92  F   UNL A   1      37.261  32.781  38.895  1.00  0.00    -0.200 F 
ATOM     93  F   UNL A   1      38.573  35.153  39.207  1.00  0.00    -0.200 F 
ENDBRANCH  59  83
BRANCH  71  94
ATOM     94  C   UNL A   1      44.153  27.653  34.860  1.00  0.00     0.064 A 
ATOM     95  C   UNL A   1      43.798  26.509  35.592  1.00  0.00     0.173 A 
ATOM     96  C   UNL A   1      45.468  28.125  34.974  1.00  0.00     0.173 A 
ATOM     97  F   UNL A   1      42.547  26.028  35.528  1.00  0.00    -0.203 F 
ATOM     98  C   UNL A   1      44.719  25.877  36.423  1.00  0.00     0.198 A 
ATOM     99  C   UNL A   1      46.393  27.475  35.787  1.00  0.00     0.198 A 
ATOM    100  F   UNL A   1      45.857  29.212  34.292  1.00  0.00    -0.203 F 
ATOM    101  F   UNL A   1      44.345  24.811  37.145  1.00  0.00    -0.200 F 
ATOM    102  C   UNL A   1      46.016  26.357  36.516  1.00  0.00     0.200 A 
ATOM    103  F   UNL A   1      47.649  27.936  35.872  1.00  0.00    -0.200 F 
ATOM    104  F   UNL A   1      46.901  25.747  37.317  1.00  0.00    -0.200 F 
ENDBRANCH  71  94
ENDBRANCH  45  46
ENDBRANCH  38  40
ENDBRANCH  37  38
ENDBRANCH  36  37
ENDBRANCH   1  36
TORSDOF 17
ENDMDL
MODEL 3
REMARK VINA RESULT:     -13.2      4.998     10.728
REMARK SMILES CC(=O)N[C@H]1[C@@H](Oc2ccc(C)c(C)c2)O[C@H]2CO[C@H](c3ccco3)O[C@@H]2[C@H]1OCC(=O)OCCOC(=O)c1ccc(-c2c3nc(c(-c4c(F)c(F)c(F)c(F)c4F)c4ccc([nH]4)c(-c4c(F)c(F)c(F)c(F)c4F)c4nc(c(-c5c(F)c(F)c(F)c(F)c5F)c5ccc2[nH]5)C=C4)C=C3)cc1
REMARK SMILES IDX 34 1 33 2 31 3 32 4 30 5 29 6 28 7 5 8 6 9 16 10 27 11 17 12
REMARK SMILES IDX 26 13 18 14 20 15 19 16 4 17 1 18 2 19 3 20 7 22 8 23 9 24
REMARK SMILES IDX 15 25 10 26 13 27 11 28 14 29 12 30 21 31 22 32 25 33 23 34
REMARK SMILES IDX 24 35 35 36 36 37 37 38 38 39 39 40 40 41 101 42 41 43
REMARK SMILES IDX 100 44 42 45 43 46 44 47 94 48 45 49 99 50 93 51 95 52 46 53
REMARK SMILES IDX 98 54 92 55 91 56 47 58 79 59 59 60 78 61 60 62 63 63 77 64
REMARK SMILES IDX 96 65 61 66 62 67 76 69 97 70 64 71 48 72 49 73 57 74 50 75
REMARK SMILES IDX 51 76 55 77 58 78 52 79 53 80 56 81 54 82 80 83 81 84 89 85
REMARK SMILES IDX 82 86 83 87 87 88 90 89 84 90 85 91 88 92 86 93 65 94 66 95
REMARK SMILES IDX 74 96 67 97 68 98 72 99 75 100 69 101 70 102 73 103 71 104
REMARK H PARENT 4 21 95 57 63 68
REMARK Flexibility Score: inf
ROOT
ATOM      1  C   UNL A   1      31.696  31.564  26.767  1.00  0.00     0.274 C 
ENDROOT
BRANCH   1   2
ATOM      2  O   UNL A   1      32.267  30.413  26.111  1.00  0.00    -0.460 OA
BRANCH   2   3
ATOM      3  C   UNL A   1      32.840  29.492  26.935  1.00  0.00     0.332 C 
ATOM      4  O   UNL A   1      34.045  29.381  27.133  1.00  0.00    -0.250 OA
BRANCH   3   5
ATOM      5  C   UNL A   1      31.811  28.566  27.585  1.00  0.00     0.283 C 
BRANCH   5   6
ATOM      6  O   UNL A   1      31.560  27.278  27.061  1.00  0.00    -0.361 OA
BRANCH   6   7
ATOM      7  C   UNL A   1      32.142  26.943  25.796  1.00  0.00     0.179 C 
ATOM      8  C   UNL A   1      32.574  25.459  25.880  1.00  0.00     0.182 C 
ATOM      9  C   UNL A   1      33.198  24.997  24.506  1.00  0.00     0.333 C 
ATOM     10  O   UNL A   1      32.480  25.378  23.331  1.00  0.00    -0.332 OA
ATOM     11  C   UNL A   1      31.256  27.083  24.542  1.00  0.00     0.184 C 
ATOM     12  C   UNL A   1      32.082  26.739  23.300  1.00  0.00     0.180 C 
ATOM     13  O   UNL A   1      30.650  28.357  24.393  1.00  0.00    -0.337 OA
ATOM     14  C   UNL A   1      31.220  26.952  22.050  1.00  0.00     0.199 C 
ATOM     15  C   UNL A   1      29.765  28.312  23.269  1.00  0.00     0.319 C 
ATOM     16  O   UNL A   1      30.534  28.201  22.074  1.00  0.00    -0.343 OA
BRANCH   8  17
ATOM     17  N   UNL A   1      31.604  24.496  26.497  1.00  0.00    -0.345 N 
ATOM     18  C   UNL A   1      32.776  22.608  27.716  1.00  0.00     0.114 C 
ATOM     19  C   UNL A   1      31.571  23.348  27.213  1.00  0.00     0.217 C 
ATOM     20  O   UNL A   1      30.451  22.913  27.506  1.00  0.00    -0.275 OA
ATOM     21  H   UNL A   1      30.683  24.801  26.324  1.00  0.00     0.164 HD
ENDBRANCH   8  17
BRANCH   9  22
ATOM     22  O   UNL A   1      33.576  23.609  24.486  1.00  0.00    -0.463 OA
BRANCH  22  23
ATOM     23  C   UNL A   1      34.799  23.220  24.962  1.00  0.00     0.123 A 
ATOM     24  C   UNL A   1      35.761  24.037  25.547  1.00  0.00     0.047 A 
ATOM     25  C   UNL A   1      35.097  21.867  24.779  1.00  0.00     0.050 A 
ATOM     26  C   UNL A   1      37.039  23.546  25.818  1.00  0.00     0.007 A 
ATOM     27  C   UNL A   1      36.374  21.348  25.072  1.00  0.00    -0.045 A 
ATOM     28  C   UNL A   1      37.374  22.215  25.544  1.00  0.00    -0.048 A 
ATOM     29  C   UNL A   1      36.600  19.876  24.860  1.00  0.00     0.045 C 
ATOM     30  C   UNL A   1      38.795  21.776  25.756  1.00  0.00     0.044 C 
ENDBRANCH  22  23
ENDBRANCH   9  22
BRANCH  15  31
ATOM     31  C   UNL A   1      28.972  29.568  23.215  1.00  0.00     0.159 A 
ATOM     32  C   UNL A   1      27.656  29.838  22.890  1.00  0.00     0.051 A 
ATOM     33  O   UNL A   1      29.591  30.724  23.609  1.00  0.00    -0.464 OA
ATOM     34  C   UNL A   1      27.469  31.228  23.077  1.00  0.00     0.042 A 
ATOM     35  C   UNL A   1      28.677  31.723  23.507  1.00  0.00     0.195 A 
ENDBRANCH  15  31
ENDBRANCH   6   7
ENDBRANCH   5   6
ENDBRANCH   3   5
ENDBRANCH   2   3
ENDBRANCH   1   2
BRANCH   1  36
ATOM     36  C   UNL A   1      32.799  32.481  27.291  1.00  0.00     0.275 C 
BRANCH  36  37
ATOM     37  O   UNL A   1      32.257  33.785  27.568  1.00  0.00    -0.458 OA
BRANCH  37  38
ATOM     38  C   UNL A   1      32.956  34.550  28.438  1.00  0.00     0.338 C 
ATOM     39  O   UNL A   1      32.660  35.651  28.869  1.00  0.00    -0.246 OA
BRANCH  38  40
ATOM     40  C   UNL A   1      34.157  33.824  28.887  1.00  0.00     0.060 A 
ATOM     41  C   UNL A   1      34.016  32.627  29.579  1.00  0.00     0.016 A 
ATOM     42  C   UNL A   1      35.422  34.402  28.747  1.00  0.00     0.016 A 
ATOM     43  C   UNL A   1      35.125  32.050  30.191  1.00  0.00     0.010 A 
ATOM     44  C   UNL A   1      36.545  33.773  29.308  1.00  0.00     0.010 A 
ATOM     45  C   UNL A   1      36.408  32.609  30.082  1.00  0.00    -0.014 A 
BRANCH  45  46
ATOM     46  C   UNL A   1      37.557  31.997  30.823  1.00  0.00     0.031 A 
ATOM     47  C   UNL A   1      38.467  30.985  30.163  1.00  0.00     0.074 A 
ATOM     48  C   UNL A   1      37.860  32.406  32.073  1.00  0.00     0.049 A 
ATOM     49  N   UNL A   1      39.484  30.325  30.668  1.00  0.00    -0.248 NA
ATOM     50  C   UNL A   1      38.202  30.665  28.754  1.00  0.00     0.031 C 
ATOM     51  C   UNL A   1      37.122  33.413  32.834  1.00  0.00     0.029 A 
ATOM     52  N   UNL A   1      38.893  32.054  32.910  1.00  0.00    -0.354 N 
ATOM     53  C   UNL A   1      39.945  29.491  29.656  1.00  0.00     0.074 A 
ATOM     54  C   UNL A   1      39.108  29.732  28.501  1.00  0.00     0.031 C 
ATOM     55  C   UNL A   1      37.775  33.667  33.977  1.00  0.00     0.029 A 
ATOM     56  C   UNL A   1      38.920  32.770  34.082  1.00  0.00     0.049 A 
ATOM     57  H   UNL A   1      39.551  31.355  32.690  1.00  0.00     0.167 HD
ATOM     58  C   UNL A   1      40.964  28.597  29.682  1.00  0.00     0.037 A 
ATOM     59  C   UNL A   1      39.754  32.705  35.138  1.00  0.00     0.037 A 
ATOM     60  C   UNL A   1      41.821  28.356  30.813  1.00  0.00     0.049 A 
ATOM     61  C   UNL A   1      40.845  31.674  35.164  1.00  0.00     0.074 A 
ATOM     62  C   UNL A   1      42.858  27.444  30.933  1.00  0.00     0.029 A 
ATOM     63  N   UNL A   1      41.748  29.035  32.018  1.00  0.00    -0.354 N 
ATOM     64  N   UNL A   1      41.219  30.841  34.226  1.00  0.00    -0.248 NA
ATOM     65  C   UNL A   1      41.605  31.551  36.417  1.00  0.00     0.031 C 
ATOM     66  C   UNL A   1      43.385  27.544  32.226  1.00  0.00     0.029 A 
ATOM     67  C   UNL A   1      42.704  28.547  32.896  1.00  0.00     0.049 A 
ATOM     68  H   UNL A   1      41.110  29.757  32.222  1.00  0.00     0.167 HD
ATOM     69  C   UNL A   1      42.233  30.074  34.782  1.00  0.00     0.074 A 
ATOM     70  C   UNL A   1      42.455  30.577  36.121  1.00  0.00     0.031 C 
ATOM     71  C   UNL A   1      42.901  29.029  34.237  1.00  0.00     0.037 A 
BRANCH  58  72
ATOM     72  C   UNL A   1      41.179  27.760  28.456  1.00  0.00     0.064 A 
ATOM     73  C   UNL A   1      40.497  26.552  28.254  1.00  0.00     0.173 A 
ATOM     74  C   UNL A   1      42.055  28.198  27.450  1.00  0.00     0.173 A 
ATOM     75  F   UNL A   1      39.662  26.083  29.193  1.00  0.00    -0.203 F 
ATOM     76  C   UNL A   1      40.698  25.804  27.095  1.00  0.00     0.198 A 
ATOM     77  C   UNL A   1      42.237  27.460  26.284  1.00  0.00     0.198 A 
ATOM     78  F   UNL A   1      42.727  29.350  27.595  1.00  0.00    -0.203 F 
ATOM     79  F   UNL A   1      40.063  24.635  26.936  1.00  0.00    -0.200 F 
ATOM     80  C   UNL A   1      41.562  26.261  26.110  1.00  0.00     0.200 A 
ATOM     81  F   UNL A   1      43.064  27.908  25.331  1.00  0.00    -0.200 F 
ATOM     82  F   UNL A   1      41.749  25.543  24.994  1.00  0.00    -0.200 F 
ENDBRANCH  58  72
BRANCH  59  83
ATOM     83  C   UNL A   1      39.560  33.630  36.285  1.00  0.00     0.064 A 
ATOM     84  C   UNL A   1      38.760  33.260  37.374  1.00  0.00     0.173 A 
ATOM     85  C   UNL A   1      40.177  34.888  36.323  1.00  0.00     0.173 A 
ATOM     86  F   UNL A   1      38.127  32.077  37.370  1.00  0.00    -0.203 F 
ATOM     87  C   UNL A   1      38.590  34.113  38.462  1.00  0.00     0.198 A 
ATOM     88  C   UNL A   1      40.033  35.727  37.424  1.00  0.00     0.198 A 
ATOM     89  F   UNL A   1      40.946  35.290  35.300  1.00  0.00    -0.203 F 
ATOM     90  F   UNL A   1      37.797  33.749  39.479  1.00  0.00    -0.200 F 
ATOM     91  C   UNL A   1      39.236  35.341  38.491  1.00  0.00     0.200 A 
ATOM     92  F   UNL A   1      40.670  36.905  37.454  1.00  0.00    -0.200 F 
ATOM     93  F   UNL A   1      39.087  36.154  39.546  1.00  0.00    -0.200 F 
ENDBRANCH  59  83
BRANCH  71  94
ATOM     94  C   UNL A   1      43.910  28.335  35.103  1.00  0.00     0.064 A 
ATOM     95  C   UNL A   1      45.244  28.770  35.150  1.00  0.00     0.173 A 
ATOM     96  C   UNL A   1      43.546  27.246  35.906  1.00  0.00     0.173 A 
ATOM     97  F   UNL A   1      45.645  29.800  34.387  1.00  0.00    -0.203 F 
ATOM     98  C   UNL A   1      46.180  28.125  35.952  1.00  0.00     0.198 A 
ATOM     99  C   UNL A   1      44.479  26.617  36.726  1.00  0.00     0.198 A 
ATOM    100  F   UNL A   1      42.282  26.794  35.899  1.00  0.00    -0.203 F 
ATOM    101  F   UNL A   1      47.457  28.531  35.948  1.00  0.00    -0.200 F 
ATOM    102  C   UNL A   1      45.796  27.052  36.743  1.00  0.00     0.200 A 
ATOM    103  F   UNL A   1      44.106  25.585  37.495  1.00  0.00    -0.200 F 
ATOM    104  F   UNL A   1      46.699  26.431  37.515  1.00  0.00    -0.200 F 
ENDBRANCH  71  94
ENDBRANCH  45  46
ENDBRANCH  38  40
ENDBRANCH  37  38
ENDBRANCH  36  37
ENDBRANCH   1  36
TORSDOF 17
ENDMDL
