MODEL 1
REMARK VINA RESULT:     -13.5      0.000      0.000
REMARK SMILES O=C(OCCOC(=O)c1ccc(N2C(=O)C[C@H](c3c[nH]c4ccccc34)C2=O)cc1O)c1ccc(-c2c3nc(c(-c4c(F)c(F)c(F)c(F)c4F)c4ccc([nH]4)c(-c4c(F)c(F)c(F)c(F)c4F)c4nc(c(-c5c(F)c(F)c(F)c(F)c5F)c5ccc2[nH]5)C=C4)C=C3)cc1
REMARK SMILES IDX 4 1 3 2 2 3 1 4 32 5 33 6 94 7 34 8 93 9 35 10 36 11 37 12
REMARK SMILES IDX 87 13 38 14 92 15 86 16 88 17 39 18 91 19 85 20 84 21 40 23
REMARK SMILES IDX 72 24 52 25 71 26 53 27 56 28 70 29 89 30 54 31 55 32 69 34
REMARK SMILES IDX 90 35 57 36 41 37 42 38 50 39 43 40 44 41 48 42 51 43 45 44
REMARK SMILES IDX 46 45 49 46 47 47 73 48 74 49 82 50 75 51 76 52 80 53 83 54
REMARK SMILES IDX 77 55 78 56 81 57 79 58 58 59 59 60 67 61 60 62 61 63 65 64
REMARK SMILES IDX 68 65 62 66 63 67 66 68 64 69 5 70 6 71 7 72 8 73 9 74 10 75
REMARK SMILES IDX 30 76 11 77 29 78 12 79 31 80 13 82 14 83 27 84 15 85 16 86
REMARK SMILES IDX 17 87 28 88 18 89 19 90 26 91 20 92 21 93 25 94 22 96 24 97
REMARK SMILES IDX 23 98
REMARK H PARENT 88 22 56 33 31 81 20 95
REMARK Flexibility Score: inf
ROOT
ATOM      1  C   UNL A   1      44.050  21.662  25.290  1.00  0.00     0.275 C 
ENDROOT
BRANCH   1   2
ATOM      2  O   UNL A   1      43.532  22.918  24.817  1.00  0.00    -0.458 OA
BRANCH   2   3
ATOM      3  C   UNL A   1      44.019  24.169  24.982  1.00  0.00     0.338 C 
ATOM      4  O   UNL A   1      45.018  24.506  24.346  1.00  0.00    -0.246 OA
BRANCH   3   5
ATOM      5  C   UNL A   1      43.508  25.126  26.010  1.00  0.00     0.060 A 
ATOM      6  C   UNL A   1      43.994  26.412  26.257  1.00  0.00     0.016 A 
ATOM      7  C   UNL A   1      42.453  24.658  26.815  1.00  0.00     0.016 A 
ATOM      8  C   UNL A   1      43.396  27.238  27.215  1.00  0.00     0.010 A 
ATOM      9  C   UNL A   1      41.842  25.480  27.763  1.00  0.00     0.010 A 
ATOM     10  C   UNL A   1      42.316  26.779  27.971  1.00  0.00    -0.014 A 
BRANCH  10  11
ATOM     11  C   UNL A   1      41.804  27.580  29.103  1.00  0.00     0.031 A 
ATOM     12  C   UNL A   1      42.496  27.452  30.425  1.00  0.00     0.074 A 
ATOM     13  C   UNL A   1      40.763  28.418  28.950  1.00  0.00     0.049 A 
ATOM     14  N   UNL A   1      42.245  28.061  31.554  1.00  0.00    -0.248 NA
ATOM     15  C   UNL A   1      43.643  26.530  30.474  1.00  0.00     0.031 C 
ATOM     16  C   UNL A   1      40.069  28.680  27.695  1.00  0.00     0.029 A 
ATOM     17  N   UNL A   1      40.100  29.195  29.865  1.00  0.00    -0.354 N 
ATOM     18  C   UNL A   1      43.227  27.625  32.431  1.00  0.00     0.074 A 
ATOM     19  C   UNL A   1      44.026  26.643  31.734  1.00  0.00     0.031 C 
ATOM     20  C   UNL A   1      39.033  29.504  27.926  1.00  0.00     0.029 A 
ATOM     21  C   UNL A   1      39.005  29.840  29.346  1.00  0.00     0.049 A 
ATOM     22  H   UNL A   1      40.383  29.281  30.804  1.00  0.00     0.167 HD
ATOM     23  C   UNL A   1      43.467  28.040  33.696  1.00  0.00     0.037 A 
ATOM     24  C   UNL A   1      38.088  30.614  29.957  1.00  0.00     0.037 A 
ATOM     25  C   UNL A   1      42.646  28.990  34.391  1.00  0.00     0.049 A 
ATOM     26  C   UNL A   1      38.284  30.952  31.409  1.00  0.00     0.074 A 
ATOM     27  C   UNL A   1      42.775  29.466  35.682  1.00  0.00     0.029 A 
ATOM     28  N   UNL A   1      41.525  29.598  33.844  1.00  0.00    -0.354 N 
ATOM     29  N   UNL A   1      39.239  30.569  32.223  1.00  0.00    -0.248 NA
ATOM     30  C   UNL A   1      37.305  31.860  32.020  1.00  0.00     0.031 C 
ATOM     31  C   UNL A   1      41.699  30.326  35.933  1.00  0.00     0.029 A 
ATOM     32  C   UNL A   1      40.929  30.421  34.784  1.00  0.00     0.049 A 
ATOM     33  H   UNL A   1      41.202  29.465  32.924  1.00  0.00     0.167 HD
ATOM     34  C   UNL A   1      39.014  31.236  33.419  1.00  0.00     0.074 A 
ATOM     35  C   UNL A   1      37.816  32.030  33.231  1.00  0.00     0.031 C 
ATOM     36  C   UNL A   1      39.743  31.210  34.562  1.00  0.00     0.037 A 
BRANCH  23  37
ATOM     37  C   UNL A   1      44.653  27.434  34.384  1.00  0.00     0.064 A 
ATOM     38  C   UNL A   1      44.533  26.260  35.146  1.00  0.00     0.173 A 
ATOM     39  C   UNL A   1      45.904  28.062  34.335  1.00  0.00     0.173 A 
ATOM     40  F   UNL A   1      43.349  25.636  35.243  1.00  0.00    -0.203 F 
ATOM     41  C   UNL A   1      45.613  25.762  35.870  1.00  0.00     0.198 A 
ATOM     42  C   UNL A   1      46.990  27.546  35.038  1.00  0.00     0.198 A 
ATOM     43  F   UNL A   1      46.068  29.187  33.624  1.00  0.00    -0.203 F 
ATOM     44  F   UNL A   1      45.457  24.681  36.645  1.00  0.00    -0.200 F 
ATOM     45  C   UNL A   1      46.840  26.405  35.814  1.00  0.00     0.200 A 
ATOM     46  F   UNL A   1      48.176  28.166  34.981  1.00  0.00    -0.200 F 
ATOM     47  F   UNL A   1      47.876  25.936  36.523  1.00  0.00    -0.200 F 
ENDBRANCH  23  37
BRANCH  24  48
ATOM     48  C   UNL A   1      36.928  31.139  29.189  1.00  0.00     0.064 A 
ATOM     49  C   UNL A   1      36.886  32.468  28.748  1.00  0.00     0.173 A 
ATOM     50  C   UNL A   1      35.832  30.316  28.887  1.00  0.00     0.173 A 
ATOM     51  F   UNL A   1      37.902  33.298  29.027  1.00  0.00    -0.203 F 
ATOM     52  C   UNL A   1      35.783  32.961  28.051  1.00  0.00     0.198 A 
ATOM     53  C   UNL A   1      34.740  30.804  28.173  1.00  0.00     0.198 A 
ATOM     54  F   UNL A   1      35.829  29.033  29.282  1.00  0.00    -0.203 F 
ATOM     55  F   UNL A   1      35.753  34.246  27.673  1.00  0.00    -0.200 F 
ATOM     56  C   UNL A   1      34.713  32.128  27.761  1.00  0.00     0.200 A 
ATOM     57  F   UNL A   1      33.711  29.996  27.888  1.00  0.00    -0.200 F 
ATOM     58  F   UNL A   1      33.655  32.604  27.091  1.00  0.00    -0.200 F 
ENDBRANCH  24  48
BRANCH  36  59
ATOM     59  C   UNL A   1      39.292  32.096  35.682  1.00  0.00     0.064 A 
ATOM     60  C   UNL A   1      38.412  31.640  36.672  1.00  0.00     0.173 A 
ATOM     61  C   UNL A   1      39.802  33.399  35.798  1.00  0.00     0.173 A 
ATOM     62  F   UNL A   1      37.892  30.406  36.593  1.00  0.00    -0.203 F 
ATOM     63  C   UNL A   1      38.043  32.463  37.731  1.00  0.00     0.198 A 
ATOM     64  C   UNL A   1      39.453  34.209  36.874  1.00  0.00     0.198 A 
ATOM     65  F   UNL A   1      40.653  33.876  34.877  1.00  0.00    -0.203 F 
ATOM     66  F   UNL A   1      37.173  32.020  38.648  1.00  0.00    -0.200 F 
ATOM     67  C   UNL A   1      38.571  33.742  37.836  1.00  0.00     0.200 A 
ATOM     68  F   UNL A   1      39.975  35.438  36.982  1.00  0.00    -0.200 F 
ATOM     69  F   UNL A   1      38.226  34.527  38.866  1.00  0.00    -0.200 F 
ENDBRANCH  36  59
ENDBRANCH  10  11
ENDBRANCH   3   5
ENDBRANCH   2   3
ENDBRANCH   1   2
BRANCH   1  70
ATOM     70  C   UNL A   1      43.046  20.810  26.066  1.00  0.00     0.275 C 
BRANCH  70  71
ATOM     71  O   UNL A   1      41.684  21.055  25.686  1.00  0.00    -0.458 OA
BRANCH  71  72
ATOM     72  C   UNL A   1      40.841  21.344  26.712  1.00  0.00     0.342 C 
ATOM     73  O   UNL A   1      41.145  21.540  27.878  1.00  0.00    -0.246 OA
BRANCH  72  74
ATOM     74  C   UNL A   1      39.479  21.562  26.195  1.00  0.00     0.101 A 
ATOM     75  C   UNL A   1      38.906  22.825  26.377  1.00  0.00     0.022 A 
ATOM     76  C   UNL A   1      38.747  20.565  25.555  1.00  0.00     0.132 A 
ATOM     77  C   UNL A   1      37.653  23.118  25.826  1.00  0.00     0.028 A 
ATOM     78  C   UNL A   1      37.459  20.836  25.079  1.00  0.00     0.074 A 
ATOM     79  C   UNL A   1      36.912  22.127  25.170  1.00  0.00     0.055 A 
BRANCH  76  80
ATOM     80  O   UNL A   1      39.280  19.317  25.387  1.00  0.00    -0.507 OA
ATOM     81  H   UNL A   1      40.106  19.104  25.773  1.00  0.00     0.293 HD
ENDBRANCH  76  80
BRANCH  79  82
ATOM     82  N   UNL A   1      35.614  22.406  24.668  1.00  0.00    -0.250 N 
ATOM     83  C   UNL A   1      35.397  22.942  23.423  1.00  0.00     0.234 C 
ATOM     84  C   UNL A   1      34.435  22.134  25.333  1.00  0.00     0.241 C 
ATOM     85  O   UNL A   1      36.224  23.348  22.616  1.00  0.00    -0.274 OA
ATOM     86  C   UNL A   1      33.941  22.855  23.103  1.00  0.00     0.119 C 
ATOM     87  C   UNL A   1      33.276  22.416  24.400  1.00  0.00     0.121 C 
ATOM     88  O   UNL A   1      34.316  21.731  26.484  1.00  0.00    -0.273 OA
BRANCH  87  89
ATOM     89  C   UNL A   1      32.251  23.422  24.842  1.00  0.00    -0.010 A 
ATOM     90  C   UNL A   1      30.881  23.300  24.965  1.00  0.00     0.088 A 
ATOM     91  C   UNL A   1      32.583  24.749  25.297  1.00  0.00     0.003 A 
ATOM     92  N   UNL A   1      30.382  24.476  25.476  1.00  0.00    -0.361 N 
ATOM     93  C   UNL A   1      31.406  25.366  25.712  1.00  0.00     0.046 A 
ATOM     94  C   UNL A   1      33.796  25.460  25.422  1.00  0.00     0.010 A 
ATOM     95  H   UNL A   1      29.430  24.654  25.649  1.00  0.00     0.166 HD
ATOM     96  C   UNL A   1      31.382  26.658  26.258  1.00  0.00     0.026 A 
ATOM     97  C   UNL A   1      33.792  26.748  25.967  1.00  0.00     0.001 A 
ATOM     98  C   UNL A   1      32.601  27.335  26.382  1.00  0.00     0.002 A 
ENDBRANCH  87  89
ENDBRANCH  79  82
ENDBRANCH  72  74
ENDBRANCH  71  72
ENDBRANCH  70  71
ENDBRANCH   1  70
TORSDOF 14
ENDMDL
MODEL 2
REMARK VINA RESULT:     -13.3      4.609      7.090
REMARK SMILES O=C(OCCOC(=O)c1ccc(N2C(=O)C[C@H](c3c[nH]c4ccccc34)C2=O)cc1O)c1ccc(-c2c3nc(c(-c4c(F)c(F)c(F)c(F)c4F)c4ccc([nH]4)c(-c4c(F)c(F)c(F)c(F)c4F)c4nc(c(-c5c(F)c(F)c(F)c(F)c5F)c5ccc2[nH]5)C=C4)C=C3)cc1
REMARK SMILES IDX 4 1 3 2 2 3 1 4 32 5 33 6 94 7 34 8 93 9 35 10 36 11 37 12
REMARK SMILES IDX 87 13 38 14 92 15 86 16 88 17 39 18 91 19 85 20 84 21 40 23
REMARK SMILES IDX 72 24 52 25 71 26 53 27 56 28 70 29 89 30 54 31 55 32 69 34
REMARK SMILES IDX 90 35 57 36 41 37 42 38 50 39 43 40 44 41 48 42 51 43 45 44
REMARK SMILES IDX 46 45 49 46 47 47 73 48 74 49 82 50 75 51 76 52 80 53 83 54
REMARK SMILES IDX 77 55 78 56 81 57 79 58 58 59 59 60 67 61 60 62 61 63 65 64
REMARK SMILES IDX 68 65 62 66 63 67 66 68 64 69 5 70 6 71 7 72 8 73 9 74 10 75
REMARK SMILES IDX 30 76 11 77 29 78 12 79 31 80 13 82 14 83 27 84 15 85 16 86
REMARK SMILES IDX 17 87 28 88 18 89 19 90 26 91 20 92 21 93 25 94 22 96 24 97
REMARK SMILES IDX 23 98
REMARK H PARENT 88 22 56 33 31 81 20 95
REMARK Flexibility Score: inf
ROOT
ATOM      1  C   UNL A   1      38.652  19.651  25.627  1.00  0.00     0.275 C 
ENDROOT
BRANCH   1   2
ATOM      2  O   UNL A   1      40.046  19.867  25.911  1.00  0.00    -0.458 OA
BRANCH   2   3
ATOM      3  C   UNL A   1      40.631  20.400  27.008  1.00  0.00     0.338 C 
ATOM      4  O   UNL A   1      40.817  19.682  27.990  1.00  0.00    -0.246 OA
BRANCH   3   5
ATOM      5  C   UNL A   1      40.927  21.857  27.160  1.00  0.00     0.060 A 
ATOM      6  C   UNL A   1      40.533  22.877  26.291  1.00  0.00     0.016 A 
ATOM      7  C   UNL A   1      41.700  22.213  28.280  1.00  0.00     0.016 A 
ATOM      8  C   UNL A   1      40.826  24.216  26.569  1.00  0.00     0.010 A 
ATOM      9  C   UNL A   1      41.985  23.547  28.573  1.00  0.00     0.010 A 
ATOM     10  C   UNL A   1      41.550  24.560  27.712  1.00  0.00    -0.014 A 
BRANCH  10  11
ATOM     11  C   UNL A   1      42.014  25.949  27.911  1.00  0.00     0.031 A 
ATOM     12  C   UNL A   1      43.384  26.309  27.424  1.00  0.00     0.074 A 
ATOM     13  C   UNL A   1      41.226  26.873  28.489  1.00  0.00     0.049 A 
ATOM     14  N   UNL A   1      44.003  27.460  27.468  1.00  0.00    -0.248 NA
ATOM     15  C   UNL A   1      44.151  25.231  26.778  1.00  0.00     0.031 C 
ATOM     16  C   UNL A   1      39.851  26.653  28.926  1.00  0.00     0.029 A 
ATOM     17  N   UNL A   1      41.475  28.180  28.820  1.00  0.00    -0.354 N 
ATOM     18  C   UNL A   1      45.211  27.251  26.820  1.00  0.00     0.074 A 
ATOM     19  C   UNL A   1      45.276  25.851  26.466  1.00  0.00     0.031 C 
ATOM     20  C   UNL A   1      39.397  27.764  29.530  1.00  0.00     0.029 A 
ATOM     21  C   UNL A   1      40.447  28.778  29.506  1.00  0.00     0.049 A 
ATOM     22  H   UNL A   1      42.312  28.644  28.589  1.00  0.00     0.167 HD
ATOM     23  C   UNL A   1      46.166  28.157  26.509  1.00  0.00     0.037 A 
ATOM     24  C   UNL A   1      40.370  30.007  30.048  1.00  0.00     0.037 A 
ATOM     25  C   UNL A   1      46.108  29.538  26.896  1.00  0.00     0.049 A 
ATOM     26  C   UNL A   1      41.507  30.967  29.822  1.00  0.00     0.074 A 
ATOM     27  C   UNL A   1      47.027  30.543  26.663  1.00  0.00     0.029 A 
ATOM     28  N   UNL A   1      45.065  30.101  27.619  1.00  0.00    -0.354 N 
ATOM     29  N   UNL A   1      42.631  30.774  29.173  1.00  0.00    -0.248 NA
ATOM     30  C   UNL A   1      41.353  32.322  30.365  1.00  0.00     0.031 C 
ATOM     31  C   UNL A   1      46.562  31.706  27.290  1.00  0.00     0.029 A 
ATOM     32  C   UNL A   1      45.334  31.435  27.872  1.00  0.00     0.049 A 
ATOM     33  H   UNL A   1      44.255  29.623  27.908  1.00  0.00     0.167 HD
ATOM     34  C   UNL A   1      43.287  31.996  29.172  1.00  0.00     0.074 A 
ATOM     35  C   UNL A   1      42.446  32.919  29.909  1.00  0.00     0.031 C 
ATOM     36  C   UNL A   1      44.468  32.331  28.598  1.00  0.00     0.037 A 
BRANCH  23  37
ATOM     37  C   UNL A   1      47.345  27.648  25.737  1.00  0.00     0.064 A 
ATOM     38  C   UNL A   1      48.503  27.192  26.389  1.00  0.00     0.173 A 
ATOM     39  C   UNL A   1      47.345  27.672  24.336  1.00  0.00     0.173 A 
ATOM     40  F   UNL A   1      48.560  27.173  27.729  1.00  0.00    -0.203 F 
ATOM     41  C   UNL A   1      49.633  26.822  25.665  1.00  0.00     0.198 A 
ATOM     42  C   UNL A   1      48.467  27.274  23.615  1.00  0.00     0.198 A 
ATOM     43  F   UNL A   1      46.264  28.102  23.668  1.00  0.00    -0.203 F 
ATOM     44  F   UNL A   1      50.750  26.457  26.310  1.00  0.00    -0.200 F 
ATOM     45  C   UNL A   1      49.614  26.862  24.280  1.00  0.00     0.200 A 
ATOM     46  F   UNL A   1      48.448  27.311  22.276  1.00  0.00    -0.200 F 
ATOM     47  F   UNL A   1      50.707  26.522  23.584  1.00  0.00    -0.200 F 
ENDBRANCH  23  37
BRANCH  24  48
ATOM     48  C   UNL A   1      39.167  30.403  30.827  1.00  0.00     0.064 A 
ATOM     49  C   UNL A   1      39.086  30.185  32.208  1.00  0.00     0.173 A 
ATOM     50  C   UNL A   1      38.068  31.006  30.196  1.00  0.00     0.173 A 
ATOM     51  F   UNL A   1      40.106  29.597  32.853  1.00  0.00    -0.203 F 
ATOM     52  C   UNL A   1      37.945  30.535  32.928  1.00  0.00     0.198 A 
ATOM     53  C   UNL A   1      36.935  31.374  30.919  1.00  0.00     0.198 A 
ATOM     54  F   UNL A   1      38.100  31.242  28.876  1.00  0.00    -0.203 F 
ATOM     55  F   UNL A   1      37.880  30.281  34.242  1.00  0.00    -0.200 F 
ATOM     56  C   UNL A   1      36.871  31.132  32.284  1.00  0.00     0.200 A 
ATOM     57  F   UNL A   1      35.903  31.958  30.297  1.00  0.00    -0.200 F 
ATOM     58  F   UNL A   1      35.775  31.469  32.977  1.00  0.00    -0.200 F 
ENDBRANCH  24  48
BRANCH  36  59
ATOM     59  C   UNL A   1      44.901  33.762  28.704  1.00  0.00     0.064 A 
ATOM     60  C   UNL A   1      44.496  34.723  27.769  1.00  0.00     0.173 A 
ATOM     61  C   UNL A   1      45.676  34.183  29.795  1.00  0.00     0.173 A 
ATOM     62  F   UNL A   1      43.764  34.362  26.705  1.00  0.00    -0.203 F 
ATOM     63  C   UNL A   1      44.868  36.056  27.912  1.00  0.00     0.198 A 
ATOM     64  C   UNL A   1      46.022  35.522  29.951  1.00  0.00     0.198 A 
ATOM     65  F   UNL A   1      46.081  33.298  30.719  1.00  0.00    -0.203 F 
ATOM     66  F   UNL A   1      44.501  36.954  26.989  1.00  0.00    -0.200 F 
ATOM     67  C   UNL A   1      45.622  36.456  29.007  1.00  0.00     0.200 A 
ATOM     68  F   UNL A   1      46.738  35.908  31.015  1.00  0.00    -0.200 F 
ATOM     69  F   UNL A   1      45.966  37.743  29.151  1.00  0.00    -0.200 F 
ENDBRANCH  36  59
ENDBRANCH  10  11
ENDBRANCH   3   5
ENDBRANCH   2   3
ENDBRANCH   1   2
BRANCH   1  70
ATOM     70  C   UNL A   1      37.944  20.838  24.977  1.00  0.00     0.275 C 
BRANCH  70  71
ATOM     71  O   UNL A   1      36.671  21.132  25.569  1.00  0.00    -0.458 OA
BRANCH  71  72
ATOM     72  C   UNL A   1      35.594  20.660  24.888  1.00  0.00     0.342 C 
ATOM     73  O   UNL A   1      35.281  19.491  24.729  1.00  0.00    -0.246 OA
BRANCH  72  74
ATOM     74  C   UNL A   1      34.724  21.780  24.488  1.00  0.00     0.101 A 
ATOM     75  C   UNL A   1      35.292  23.056  24.421  1.00  0.00     0.022 A 
ATOM     76  C   UNL A   1      33.373  21.617  24.195  1.00  0.00     0.132 A 
ATOM     77  C   UNL A   1      34.538  24.142  23.958  1.00  0.00     0.028 A 
ATOM     78  C   UNL A   1      32.599  22.719  23.813  1.00  0.00     0.074 A 
ATOM     79  C   UNL A   1      33.181  23.987  23.648  1.00  0.00     0.055 A 
BRANCH  76  80
ATOM     80  O   UNL A   1      32.793  20.381  24.275  1.00  0.00    -0.507 OA
ATOM     81  H   UNL A   1      32.792  19.916  25.088  1.00  0.00     0.293 HD
ENDBRANCH  76  80
BRANCH  79  82
ATOM     82  N   UNL A   1      32.400  25.101  23.240  1.00  0.00    -0.250 N 
ATOM     83  C   UNL A   1      32.520  25.679  22.002  1.00  0.00     0.234 C 
ATOM     84  C   UNL A   1      31.413  25.693  24.002  1.00  0.00     0.241 C 
ATOM     85  O   UNL A   1      33.335  25.431  21.122  1.00  0.00    -0.274 OA
ATOM     86  C   UNL A   1      31.387  26.630  21.797  1.00  0.00     0.119 C 
ATOM     87  C   UNL A   1      30.701  26.727  23.154  1.00  0.00     0.121 C 
ATOM     88  O   UNL A   1      31.135  25.445  25.169  1.00  0.00    -0.273 OA
BRANCH  87  89
ATOM     89  C   UNL A   1      30.689  28.147  23.646  1.00  0.00    -0.010 A 
ATOM     90  C   UNL A   1      31.676  28.878  24.277  1.00  0.00     0.088 A 
ATOM     91  C   UNL A   1      29.576  29.044  23.460  1.00  0.00     0.003 A 
ATOM     92  N   UNL A   1      31.215  30.160  24.467  1.00  0.00    -0.361 N 
ATOM     93  C   UNL A   1      29.945  30.292  23.953  1.00  0.00     0.046 A 
ATOM     94  C   UNL A   1      28.297  28.901  22.880  1.00  0.00     0.010 A 
ATOM     95  H   UNL A   1      31.722  30.880  24.907  1.00  0.00     0.166 HD
ATOM     96  C   UNL A   1      29.102  31.411  23.883  1.00  0.00     0.026 A 
ATOM     97  C   UNL A   1      27.443  30.006  22.798  1.00  0.00     0.001 A 
ATOM     98  C   UNL A   1      27.845  31.244  23.291  1.00  0.00     0.002 A 
ENDBRANCH  87  89
ENDBRANCH  79  82
ENDBRANCH  72  74
ENDBRANCH  71  72
ENDBRANCH  70  71
ENDBRANCH   1  70
TORSDOF 14
ENDMDL
MODEL 3
REMARK VINA RESULT:     -13.2      3.372      8.840
REMARK SMILES O=C(OCCOC(=O)c1ccc(N2C(=O)C[C@H](c3c[nH]c4ccccc34)C2=O)cc1O)c1ccc(-c2c3nc(c(-c4c(F)c(F)c(F)c(F)c4F)c4ccc([nH]4)c(-c4c(F)c(F)c(F)c(F)c4F)c4nc(c(-c5c(F)c(F)c(F)c(F)c5F)c5ccc2[nH]5)C=C4)C=C3)cc1
REMARK SMILES IDX 4 1 3 2 2 3 1 4 32 5 33 6 94 7 34 8 93 9 35 10 36 11 37 12
REMARK SMILES IDX 87 13 38 14 92 15 86 16 88 17 39 18 91 19 85 20 84 21 40 23
REMARK SMILES IDX 72 24 52 25 71 26 53 27 56 28 70 29 89 30 54 31 55 32 69 34
REMARK SMILES IDX 90 35 57 36 41 37 42 38 50 39 43 40 44 41 48 42 51 43 45 44
REMARK SMILES IDX 46 45 49 46 47 47 73 48 74 49 82 50 75 51 76 52 80 53 83 54
REMARK SMILES IDX 77 55 78 56 81 57 79 58 58 59 59 60 67 61 60 62 61 63 65 64
REMARK SMILES IDX 68 65 62 66 63 67 66 68 64 69 5 70 6 71 7 72 8 73 9 74 10 75
REMARK SMILES IDX 30 76 11 77 29 78 12 79 31 80 13 82 14 83 27 84 15 85 16 86
REMARK SMILES IDX 17 87 28 88 18 89 19 90 26 91 20 92 21 93 25 94 22 96 24 97
REMARK SMILES IDX 23 98
REMARK H PARENT 88 22 56 33 31 81 20 95
REMARK Flexibility Score: inf
ROOT
ATOM      1  C   UNL A   1      31.685  32.594  27.101  1.00  0.00     0.275 C 
ENDROOT
BRANCH   1   2
ATOM      2  O   UNL A   1      32.361  33.855  27.255  1.00  0.00    -0.458 OA
BRANCH   2   3
ATOM      3  C   UNL A   1      32.955  34.387  28.348  1.00  0.00     0.338 C 
ATOM      4  O   UNL A   1      32.528  35.450  28.798  1.00  0.00    -0.246 OA
BRANCH   3   5
ATOM      5  C   UNL A   1      34.206  33.840  28.957  1.00  0.00     0.060 A 
ATOM      6  C   UNL A   1      35.514  34.187  28.613  1.00  0.00     0.016 A 
ATOM      7  C   UNL A   1      34.027  32.863  29.954  1.00  0.00     0.016 A 
ATOM      8  C   UNL A   1      36.609  33.644  29.295  1.00  0.00     0.010 A 
ATOM      9  C   UNL A   1      35.112  32.327  30.648  1.00  0.00     0.010 A 
ATOM     10  C   UNL A   1      36.415  32.714  30.317  1.00  0.00    -0.014 A 
BRANCH  10  11
ATOM     11  C   UNL A   1      37.569  32.007  30.911  1.00  0.00     0.031 A 
ATOM     12  C   UNL A   1      38.049  32.451  32.259  1.00  0.00     0.074 A 
ATOM     13  C   UNL A   1      38.161  30.980  30.276  1.00  0.00     0.049 A 
ATOM     14  N   UNL A   1      39.025  31.978  32.989  1.00  0.00    -0.248 NA
ATOM     15  C   UNL A   1      37.311  33.564  32.879  1.00  0.00     0.031 C 
ATOM     16  C   UNL A   1      37.728  30.414  29.002  1.00  0.00     0.029 A 
ATOM     17  N   UNL A   1      39.263  30.237  30.612  1.00  0.00    -0.354 N 
ATOM     18  C   UNL A   1      38.989  32.709  34.167  1.00  0.00     0.074 A 
ATOM     19  C   UNL A   1      37.955  33.709  34.025  1.00  0.00     0.031 C 
ATOM     20  C   UNL A   1      38.594  29.458  28.627  1.00  0.00     0.029 A 
ATOM     21  C   UNL A   1      39.631  29.334  29.646  1.00  0.00     0.049 A 
ATOM     22  H   UNL A   1      39.745  30.341  31.464  1.00  0.00     0.167 HD
ATOM     23  C   UNL A   1      39.728  32.535  35.286  1.00  0.00     0.037 A 
ATOM     24  C   UNL A   1      40.690  28.503  29.597  1.00  0.00     0.037 A 
ATOM     25  C   UNL A   1      40.777  31.563  35.403  1.00  0.00     0.049 A 
ATOM     26  C   UNL A   1      41.597  28.422  30.795  1.00  0.00     0.074 A 
ATOM     27  C   UNL A   1      41.610  31.312  36.477  1.00  0.00     0.029 A 
ATOM     28  N   UNL A   1      41.144  30.686  34.391  1.00  0.00    -0.354 N 
ATOM     29  N   UNL A   1      41.533  29.088  31.923  1.00  0.00    -0.248 NA
ATOM     30  C   UNL A   1      42.695  27.450  30.734  1.00  0.00     0.031 C 
ATOM     31  C   UNL A   1      42.517  30.316  36.094  1.00  0.00     0.029 A 
ATOM     32  C   UNL A   1      42.217  29.915  34.801  1.00  0.00     0.049 A 
ATOM     33  H   UNL A   1      40.705  30.623  33.513  1.00  0.00     0.167 HD
ATOM     34  C   UNL A   1      42.537  28.573  32.730  1.00  0.00     0.074 A 
ATOM     35  C   UNL A   1      43.213  27.554  31.951  1.00  0.00     0.031 C 
ATOM     36  C   UNL A   1      42.859  28.899  34.006  1.00  0.00     0.037 A 
BRANCH  23  37
ATOM     37  C   UNL A   1      39.418  33.441  36.438  1.00  0.00     0.064 A 
ATOM     38  C   UNL A   1      40.053  34.687  36.578  1.00  0.00     0.173 A 
ATOM     39  C   UNL A   1      38.530  33.039  37.444  1.00  0.00     0.173 A 
ATOM     40  F   UNL A   1      40.931  35.105  35.653  1.00  0.00    -0.203 F 
ATOM     41  C   UNL A   1      39.841  35.476  37.706  1.00  0.00     0.198 A 
ATOM     42  C   UNL A   1      38.300  33.843  38.557  1.00  0.00     0.198 A 
ATOM     43  F   UNL A   1      37.902  31.857  37.358  1.00  0.00    -0.203 F 
ATOM     44  F   UNL A   1      40.511  36.627  37.850  1.00  0.00    -0.200 F 
ATOM     45  C   UNL A   1      38.965  35.054  38.693  1.00  0.00     0.200 A 
ATOM     46  F   UNL A   1      37.450  33.436  39.510  1.00  0.00    -0.200 F 
ATOM     47  F   UNL A   1      38.774  35.805  39.786  1.00  0.00    -0.200 F 
ENDBRANCH  23  37
BRANCH  24  48
ATOM     48  C   UNL A   1      40.926  27.668  28.390  1.00  0.00     0.064 A 
ATOM     49  C   UNL A   1      41.777  28.095  27.362  1.00  0.00     0.173 A 
ATOM     50  C   UNL A   1      40.295  26.423  28.241  1.00  0.00     0.173 A 
ATOM     51  F   UNL A   1      42.389  29.285  27.452  1.00  0.00    -0.203 F 
ATOM     52  C   UNL A   1      41.974  27.319  26.221  1.00  0.00     0.198 A 
ATOM     53  C   UNL A   1      40.509  25.639  27.109  1.00  0.00     0.198 A 
ATOM     54  F   UNL A   1      39.477  25.968  29.201  1.00  0.00    -0.203 F 
ATOM     55  F   UNL A   1      42.764  27.768  25.237  1.00  0.00    -0.200 F 
ATOM     56  C   UNL A   1      41.343  26.090  26.096  1.00  0.00     0.200 A 
ATOM     57  F   UNL A   1      39.904  24.449  26.994  1.00  0.00    -0.200 F 
ATOM     58  F   UNL A   1      41.534  25.345  24.999  1.00  0.00    -0.200 F 
ENDBRANCH  24  48
BRANCH  36  59
ATOM     59  C   UNL A   1      43.961  28.118  34.654  1.00  0.00     0.064 A 
ATOM     60  C   UNL A   1      45.284  28.580  34.662  1.00  0.00     0.173 A 
ATOM     61  C   UNL A   1      43.673  26.924  35.334  1.00  0.00     0.173 A 
ATOM     62  F   UNL A   1      45.606  29.711  34.014  1.00  0.00    -0.203 F 
ATOM     63  C   UNL A   1      46.285  27.865  35.311  1.00  0.00     0.198 A 
ATOM     64  C   UNL A   1      44.671  26.226  36.006  1.00  0.00     0.198 A 
ATOM     65  F   UNL A   1      42.419  26.447  35.360  1.00  0.00    -0.203 F 
ATOM     66  F   UNL A   1      47.550  28.305  35.276  1.00  0.00    -0.200 F 
ATOM     67  C   UNL A   1      45.976  26.695  35.991  1.00  0.00     0.200 A 
ATOM     68  F   UNL A   1      44.369  25.105  36.674  1.00  0.00    -0.200 F 
ATOM     69  F   UNL A   1      46.939  26.016  36.629  1.00  0.00    -0.200 F 
ENDBRANCH  36  59
ENDBRANCH  10  11
ENDBRANCH   3   5
ENDBRANCH   2   3
ENDBRANCH   1   2
BRANCH   1  70
ATOM     70  C   UNL A   1      32.611  31.398  26.885  1.00  0.00     0.275 C 
BRANCH  70  71
ATOM     71  O   UNL A   1      31.920  30.141  26.880  1.00  0.00    -0.458 OA
BRANCH  71  72
ATOM     72  C   UNL A   1      31.578  29.674  25.651  1.00  0.00     0.342 C 
ATOM     73  O   UNL A   1      31.339  30.339  24.655  1.00  0.00    -0.246 OA
BRANCH  72  74
ATOM     74  C   UNL A   1      31.696  28.206  25.620  1.00  0.00     0.101 A 
ATOM     75  C   UNL A   1      30.651  27.479  25.040  1.00  0.00     0.022 A 
ATOM     76  C   UNL A   1      32.787  27.526  26.155  1.00  0.00     0.132 A 
ATOM     77  C   UNL A   1      30.750  26.089  24.899  1.00  0.00     0.028 A 
ATOM     78  C   UNL A   1      32.845  26.129  26.090  1.00  0.00     0.074 A 
ATOM     79  C   UNL A   1      31.849  25.396  25.423  1.00  0.00     0.055 A 
BRANCH  76  80
ATOM     80  O   UNL A   1      33.808  28.216  26.747  1.00  0.00    -0.507 OA
ATOM     81  H   UNL A   1      34.672  28.176  26.386  1.00  0.00     0.293 HD
ENDBRANCH  76  80
BRANCH  79  82
ATOM     82  N   UNL A   1      31.919  23.980  25.338  1.00  0.00    -0.250 N 
ATOM     83  C   UNL A   1      31.291  23.149  26.231  1.00  0.00     0.234 C 
ATOM     84  C   UNL A   1      32.571  23.282  24.342  1.00  0.00     0.241 C 
ATOM     85  O   UNL A   1      30.686  23.449  27.252  1.00  0.00    -0.274 OA
ATOM     86  C   UNL A   1      31.335  21.751  25.708  1.00  0.00     0.119 C 
ATOM     87  C   UNL A   1      32.269  21.807  24.507  1.00  0.00     0.121 C 
ATOM     88  O   UNL A   1      33.281  23.749  23.459  1.00  0.00    -0.273 OA
BRANCH  87  89
ATOM     89  C   UNL A   1      33.431  20.872  24.690  1.00  0.00    -0.010 A 
ATOM     90  C   UNL A   1      34.620  21.053  25.368  1.00  0.00     0.088 A 
ATOM     91  C   UNL A   1      33.448  19.517  24.197  1.00  0.00     0.003 A 
ATOM     92  N   UNL A   1      35.337  19.880  25.313  1.00  0.00    -0.361 N 
ATOM     93  C   UNL A   1      34.630  18.920  24.626  1.00  0.00     0.046 A 
ATOM     94  C   UNL A   1      32.535  18.742  23.449  1.00  0.00     0.010 A 
ATOM     95  H   UNL A   1      36.228  19.747  25.710  1.00  0.00     0.166 HD
ATOM     96  C   UNL A   1      34.941  17.579  24.354  1.00  0.00     0.026 A 
ATOM     97  C   UNL A   1      32.826  17.402  23.171  1.00  0.00     0.001 A 
ATOM     98  C   UNL A   1      34.012  16.831  23.622  1.00  0.00     0.002 A 
ENDBRANCH  87  89
ENDBRANCH  79  82
ENDBRANCH  72  74
ENDBRANCH  71  72
ENDBRANCH  70  71
ENDBRANCH   1  70
TORSDOF 14
ENDMDL
