MODEL 1
REMARK VINA RESULT:     -12.4      0.000      0.000
REMARK SMILES CCOc1cccc(C(=O)Nc2ccc(Cl)c(C(=O)OCCOC(=O)c3ccc(-c4c5nc(c(-c6c(F)c(F)c(F)c(F)c6F)c6ccc([nH]6)c(-c6c(F)c(F)c(F)c(F)c6F)c6nc(c(-c7c(F)c(F)c(F)c(F)c7F)c7ccc4[nH]7)C=C6)C=C5)cc3)c2)c1
REMARK SMILES IDX 21 1 20 2 18 3 19 4 17 5 12 6 13 7 89 8 14 9 15 10 16 11
REMARK SMILES IDX 11 12 9 13 10 14 8 16 4 17 5 18 90 19 6 20 7 21 3 22 2 23
REMARK SMILES IDX 1 24 22 25 23 26 24 27 25 28 26 29 27 30 88 31 28 32 87 33
REMARK SMILES IDX 29 34 30 35 31 36 81 37 32 38 86 39 80 40 82 41 33 42 85 43
REMARK SMILES IDX 79 44 78 45 34 47 66 48 46 49 65 50 47 51 50 52 64 53 83 54
REMARK SMILES IDX 48 55 49 56 63 58 84 59 51 60 35 61 36 62 44 63 37 64 38 65
REMARK SMILES IDX 42 66 45 67 39 68 40 69 43 70 41 71 67 72 68 73 76 74 69 75
REMARK SMILES IDX 70 76 74 77 77 78 71 79 72 80 75 81 73 82 52 83 53 84 61 85
REMARK SMILES IDX 54 86 55 87 59 88 62 89 56 90 57 91 60 92 58 93
REMARK H PARENT 11 15 82 46 50 57
REMARK Flexibility Score: inf
ROOT
ATOM      1  C   UNL A   1      35.753  21.048  25.271  1.00  0.00     0.275 C 
ENDROOT
BRANCH   1   2
ATOM      2  O   UNL A   1      35.236  21.951  24.269  1.00  0.00    -0.458 OA
BRANCH   2   3
ATOM      3  C   UNL A   1      34.985  23.225  24.671  1.00  0.00     0.339 C 
ATOM      4  O   UNL A   1      35.833  24.069  24.904  1.00  0.00    -0.246 OA
BRANCH   3   5
ATOM      5  C   UNL A   1      33.514  23.447  24.778  1.00  0.00     0.080 A 
ATOM      6  C   UNL A   1      31.757  24.599  25.977  1.00  0.00     0.042 A 
ATOM      7  C   UNL A   1      30.808  24.176  25.051  1.00  0.00     0.028 A 
ATOM      8  C   UNL A   1      33.051  24.083  25.940  1.00  0.00     0.043 A 
ATOM      9  C   UNL A   1      31.237  23.509  23.914  1.00  0.00     0.023 A 
ATOM     10  C   UNL A   1      32.601  23.260  23.724  1.00  0.00     0.055 A 
ATOM     11  Cl  UNL A   1      33.016  22.924  22.089  1.00  0.00    -0.083 Cl
BRANCH   6  12
ATOM     12  N   UNL A   1      31.396  25.676  26.792  1.00  0.00    -0.322 N 
ATOM     13  C   UNL A   1      31.453  27.043  26.579  1.00  0.00     0.255 C 
ATOM     14  O   UNL A   1      31.117  27.771  27.517  1.00  0.00    -0.269 OA
ATOM     15  H   UNL A   1      31.040  25.417  27.673  1.00  0.00     0.170 HD
BRANCH  13  16
ATOM     16  C   UNL A   1      31.824  27.697  25.280  1.00  0.00     0.043 A 
ATOM     17  C   UNL A   1      31.342  28.588  23.073  1.00  0.00     0.120 A 
ATOM     18  C   UNL A   1      32.698  28.669  22.785  1.00  0.00     0.046 A 
ATOM     19  C   UNL A   1      30.911  28.191  24.342  1.00  0.00     0.060 A 
ATOM     20  C   UNL A   1      33.626  28.340  23.769  1.00  0.00     0.005 A 
ATOM     21  C   UNL A   1      33.191  27.831  24.998  1.00  0.00     0.014 A 
BRANCH  17  22
ATOM     22  O   UNL A   1      30.448  28.641  22.040  1.00  0.00    -0.494 OA
BRANCH  22  23
ATOM     23  C   UNL A   1      29.670  29.837  21.984  1.00  0.00     0.226 C 
ATOM     24  C   UNL A   1      28.210  29.543  22.276  1.00  0.00     0.049 C 
ENDBRANCH  22  23
ENDBRANCH  17  22
ENDBRANCH  13  16
ENDBRANCH   6  12
ENDBRANCH   3   5
ENDBRANCH   2   3
ENDBRANCH   1   2
BRANCH   1  25
ATOM     25  C   UNL A   1      37.209  20.677  24.988  1.00  0.00     0.275 C 
BRANCH  25  26
ATOM     26  O   UNL A   1      38.091  21.752  25.365  1.00  0.00    -0.458 OA
BRANCH  26  27
ATOM     27  C   UNL A   1      39.179  21.390  26.084  1.00  0.00     0.338 C 
ATOM     28  O   UNL A   1      39.732  20.308  26.110  1.00  0.00    -0.246 OA
BRANCH  27  29
ATOM     29  C   UNL A   1      39.744  22.583  26.735  1.00  0.00     0.060 A 
ATOM     30  C   UNL A   1      39.303  23.807  26.261  1.00  0.00     0.016 A 
ATOM     31  C   UNL A   1      40.787  22.539  27.653  1.00  0.00     0.016 A 
ATOM     32  C   UNL A   1      39.915  24.990  26.636  1.00  0.00     0.010 A 
ATOM     33  C   UNL A   1      41.378  23.744  28.080  1.00  0.00     0.010 A 
ATOM     34  C   UNL A   1      40.962  24.981  27.549  1.00  0.00    -0.014 A 
BRANCH  34  35
ATOM     35  C   UNL A   1      41.674  26.264  27.792  1.00  0.00     0.031 A 
ATOM     36  C   UNL A   1      41.015  27.315  28.639  1.00  0.00     0.074 A 
ATOM     37  C   UNL A   1      42.957  26.434  27.407  1.00  0.00     0.049 A 
ATOM     38  N   UNL A   1      41.382  28.550  28.870  1.00  0.00    -0.248 NA
ATOM     39  C   UNL A   1      39.780  26.916  29.331  1.00  0.00     0.031 C 
ATOM     40  C   UNL A   1      43.784  25.429  26.736  1.00  0.00     0.029 A 
ATOM     41  N   UNL A   1      43.800  27.509  27.553  1.00  0.00    -0.354 N 
ATOM     42  C   UNL A   1      40.396  29.088  29.687  1.00  0.00     0.074 A 
ATOM     43  C   UNL A   1      39.418  28.047  29.916  1.00  0.00     0.031 C 
ATOM     44  C   UNL A   1      45.017  25.926  26.549  1.00  0.00     0.029 A 
ATOM     45  C   UNL A   1      45.038  27.316  26.989  1.00  0.00     0.049 A 
ATOM     46  H   UNL A   1      43.542  28.338  28.018  1.00  0.00     0.167 HD
ATOM     47  C   UNL A   1      40.318  30.342  30.192  1.00  0.00     0.037 A 
ATOM     48  C   UNL A   1      46.054  28.180  26.795  1.00  0.00     0.037 A 
ATOM     49  C   UNL A   1      41.319  31.357  29.989  1.00  0.00     0.049 A 
ATOM     50  C   UNL A   1      45.888  29.605  27.253  1.00  0.00     0.074 A 
ATOM     51  C   UNL A   1      41.310  32.676  30.403  1.00  0.00     0.029 A 
ATOM     52  N   UNL A   1      42.520  31.154  29.324  1.00  0.00    -0.354 N 
ATOM     53  N   UNL A   1      44.900  30.154  27.918  1.00  0.00    -0.248 NA
ATOM     54  C   UNL A   1      46.973  30.537  26.916  1.00  0.00     0.031 C 
ATOM     55  C   UNL A   1      42.485  33.285  29.946  1.00  0.00     0.029 A 
ATOM     56  C   UNL A   1      43.254  32.330  29.303  1.00  0.00     0.049 A 
ATOM     57  H   UNL A   1      42.809  30.301  28.925  1.00  0.00     0.167 HD
ATOM     58  C   UNL A   1      45.254  31.483  28.102  1.00  0.00     0.074 A 
ATOM     59  C   UNL A   1      46.558  31.654  27.496  1.00  0.00     0.031 C 
ATOM     60  C   UNL A   1      44.560  32.476  28.713  1.00  0.00     0.037 A 
BRANCH  47  61
ATOM     61  C   UNL A   1      39.072  30.702  30.948  1.00  0.00     0.064 A 
ATOM     62  C   UNL A   1      37.930  31.213  30.314  1.00  0.00     0.173 A 
ATOM     63  C   UNL A   1      39.026  30.528  32.341  1.00  0.00     0.173 A 
ATOM     64  F   UNL A   1      37.930  31.420  28.989  1.00  0.00    -0.203 F 
ATOM     65  C   UNL A   1      36.801  31.564  31.050  1.00  0.00     0.198 A 
ATOM     66  C   UNL A   1      37.884  30.848  33.068  1.00  0.00     0.198 A 
ATOM     67  F   UNL A   1      40.091  30.042  32.998  1.00  0.00    -0.203 F 
ATOM     68  F   UNL A   1      35.740  32.103  30.431  1.00  0.00    -0.200 F 
ATOM     69  C   UNL A   1      36.775  31.375  32.424  1.00  0.00     0.200 A 
ATOM     70  F   UNL A   1      37.859  30.654  34.394  1.00  0.00    -0.200 F 
ATOM     71  F   UNL A   1      35.687  31.710  33.129  1.00  0.00    -0.200 F 
ENDBRANCH  47  61
BRANCH  48  72
ATOM     72  C   UNL A   1      47.278  27.756  26.061  1.00  0.00     0.064 A 
ATOM     73  C   UNL A   1      47.324  27.744  24.660  1.00  0.00     0.173 A 
ATOM     74  C   UNL A   1      48.414  27.298  26.750  1.00  0.00     0.173 A 
ATOM     75  F   UNL A   1      46.256  28.139  23.951  1.00  0.00    -0.203 F 
ATOM     76  C   UNL A   1      48.444  27.270  23.979  1.00  0.00     0.198 A 
ATOM     77  C   UNL A   1      49.547  26.861  26.068  1.00  0.00     0.198 A 
ATOM     78  F   UNL A   1      48.425  27.274  28.091  1.00  0.00    -0.203 F 
ATOM     79  F   UNL A   1      48.435  27.207  22.640  1.00  0.00    -0.200 F 
ATOM     80  C   UNL A   1      49.558  26.834  24.683  1.00  0.00     0.200 A 
ATOM     81  F   UNL A   1      50.624  26.454  26.755  1.00  0.00    -0.200 F 
ATOM     82  F   UNL A   1      50.632  26.375  24.027  1.00  0.00    -0.200 F 
ENDBRANCH  48  72
BRANCH  60  83
ATOM     83  C   UNL A   1      45.228  33.818  28.811  1.00  0.00     0.064 A 
ATOM     84  C   UNL A   1      46.088  34.144  29.870  1.00  0.00     0.173 A 
ATOM     85  C   UNL A   1      45.018  34.783  27.814  1.00  0.00     0.173 A 
ATOM     86  F   UNL A   1      46.310  33.263  30.857  1.00  0.00    -0.203 F 
ATOM     87  C   UNL A   1      46.684  35.400  29.944  1.00  0.00     0.198 A 
ATOM     88  C   UNL A   1      45.645  36.024  27.873  1.00  0.00     0.198 A 
ATOM     89  F   UNL A   1      44.211  34.519  26.775  1.00  0.00    -0.203 F 
ATOM     90  F   UNL A   1      47.453  35.713  30.997  1.00  0.00    -0.200 F 
ATOM     91  C   UNL A   1      46.468  36.336  28.943  1.00  0.00     0.200 A 
ATOM     92  F   UNL A   1      45.447  36.920  26.897  1.00  0.00    -0.200 F 
ATOM     93  F   UNL A   1      47.047  37.542  29.016  1.00  0.00    -0.200 F 
ENDBRANCH  60  83
ENDBRANCH  34  35
ENDBRANCH  27  29
ENDBRANCH  26  27
ENDBRANCH  25  26
ENDBRANCH   1  25
TORSDOF 15
ENDMDL
MODEL 2
REMARK VINA RESULT:     -12.4      4.300      9.877
REMARK SMILES CCOc1cccc(C(=O)Nc2ccc(Cl)c(C(=O)OCCOC(=O)c3ccc(-c4c5nc(c(-c6c(F)c(F)c(F)c(F)c6F)c6ccc([nH]6)c(-c6c(F)c(F)c(F)c(F)c6F)c6nc(c(-c7c(F)c(F)c(F)c(F)c7F)c7ccc4[nH]7)C=C6)C=C5)cc3)c2)c1
REMARK SMILES IDX 21 1 20 2 18 3 19 4 17 5 12 6 13 7 89 8 14 9 15 10 16 11
REMARK SMILES IDX 11 12 9 13 10 14 8 16 4 17 5 18 90 19 6 20 7 21 3 22 2 23
REMARK SMILES IDX 1 24 22 25 23 26 24 27 25 28 26 29 27 30 88 31 28 32 87 33
REMARK SMILES IDX 29 34 30 35 31 36 81 37 32 38 86 39 80 40 82 41 33 42 85 43
REMARK SMILES IDX 79 44 78 45 34 47 66 48 46 49 65 50 47 51 50 52 64 53 83 54
REMARK SMILES IDX 48 55 49 56 63 58 84 59 51 60 35 61 36 62 44 63 37 64 38 65
REMARK SMILES IDX 42 66 45 67 39 68 40 69 43 70 41 71 67 72 68 73 76 74 69 75
REMARK SMILES IDX 70 76 74 77 77 78 71 79 72 80 75 81 73 82 52 83 53 84 61 85
REMARK SMILES IDX 54 86 55 87 59 88 62 89 56 90 57 91 60 92 58 93
REMARK H PARENT 11 15 82 46 50 57
REMARK Flexibility Score: inf
ROOT
ATOM      1  C   UNL A   1      31.776  30.056  24.697  1.00  0.00     0.275 C 
ENDROOT
BRANCH   1   2
ATOM      2  O   UNL A   1      30.615  29.330  24.236  1.00  0.00    -0.458 OA
BRANCH   2   3
ATOM      3  C   UNL A   1      30.848  28.154  23.596  1.00  0.00     0.339 C 
ATOM      4  O   UNL A   1      30.372  27.832  22.521  1.00  0.00    -0.246 OA
BRANCH   3   5
ATOM      5  C   UNL A   1      31.780  27.310  24.399  1.00  0.00     0.080 A 
ATOM      6  C   UNL A   1      31.964  25.712  26.205  1.00  0.00     0.042 A 
ATOM      7  C   UNL A   1      33.307  25.492  25.912  1.00  0.00     0.028 A 
ATOM      8  C   UNL A   1      31.270  26.745  25.577  1.00  0.00     0.043 A 
ATOM      9  C   UNL A   1      33.845  26.073  24.775  1.00  0.00     0.023 A 
ATOM     10  C   UNL A   1      33.044  26.877  23.956  1.00  0.00     0.055 A 
ATOM     11  Cl  UNL A   1      33.669  27.077  22.366  1.00  0.00    -0.083 Cl
BRANCH   6  12
ATOM     12  N   UNL A   1      31.332  24.748  26.995  1.00  0.00    -0.322 N 
ATOM     13  C   UNL A   1      30.986  23.433  26.731  1.00  0.00     0.255 C 
ATOM     14  O   UNL A   1      30.370  22.827  27.612  1.00  0.00    -0.269 OA
ATOM     15  H   UNL A   1      31.088  25.058  27.897  1.00  0.00     0.170 HD
BRANCH  13  16
ATOM     16  C   UNL A   1      31.362  22.677  25.490  1.00  0.00     0.043 A 
ATOM     17  C   UNL A   1      32.457  20.875  24.285  1.00  0.00     0.120 A 
ATOM     18  C   UNL A   1      32.228  21.515  23.074  1.00  0.00     0.046 A 
ATOM     19  C   UNL A   1      31.949  21.406  25.473  1.00  0.00     0.060 A 
ATOM     20  C   UNL A   1      31.496  22.700  23.056  1.00  0.00     0.005 A 
ATOM     21  C   UNL A   1      31.091  23.290  24.259  1.00  0.00     0.014 A 
BRANCH  17  22
ATOM     22  O   UNL A   1      33.394  19.881  24.333  1.00  0.00    -0.494 OA
BRANCH  22  23
ATOM     23  C   UNL A   1      32.868  18.574  24.561  1.00  0.00     0.226 C 
ATOM     24  C   UNL A   1      33.135  17.671  23.370  1.00  0.00     0.049 C 
ENDBRANCH  22  23
ENDBRANCH  17  22
ENDBRANCH  13  16
ENDBRANCH   6  12
ENDBRANCH   3   5
ENDBRANCH   2   3
ENDBRANCH   1   2
BRANCH   1  25
ATOM     25  C   UNL A   1      31.529  30.687  26.068  1.00  0.00     0.275 C 
BRANCH  25  26
ATOM     26  O   UNL A   1      32.689  30.545  26.910  1.00  0.00    -0.458 OA
BRANCH  26  27
ATOM     27  C   UNL A   1      33.288  31.702  27.278  1.00  0.00     0.338 C 
ATOM     28  O   UNL A   1      32.790  32.808  27.361  1.00  0.00    -0.246 OA
BRANCH  27  29
ATOM     29  C   UNL A   1      34.648  31.409  27.759  1.00  0.00     0.060 A 
ATOM     30  C   UNL A   1      34.885  30.107  28.168  1.00  0.00     0.016 A 
ATOM     31  C   UNL A   1      35.616  32.382  27.973  1.00  0.00     0.016 A 
ATOM     32  C   UNL A   1      36.045  29.761  28.839  1.00  0.00     0.010 A 
ATOM     33  C   UNL A   1      36.823  32.024  28.606  1.00  0.00     0.010 A 
ATOM     34  C   UNL A   1      37.033  30.710  29.071  1.00  0.00    -0.014 A 
BRANCH  34  35
ATOM     35  C   UNL A   1      38.182  30.313  29.929  1.00  0.00     0.031 A 
ATOM     36  C   UNL A   1      39.265  29.453  29.342  1.00  0.00     0.074 A 
ATOM     37  C   UNL A   1      38.350  30.841  31.159  1.00  0.00     0.049 A 
ATOM     38  N   UNL A   1      40.281  28.876  29.932  1.00  0.00    -0.248 NA
ATOM     39  C   UNL A   1      39.204  29.225  27.891  1.00  0.00     0.031 C 
ATOM     40  C   UNL A   1      37.472  31.831  31.787  1.00  0.00     0.029 A 
ATOM     41  N   UNL A   1      39.338  30.638  32.092  1.00  0.00    -0.354 N 
ATOM     42  C   UNL A   1      40.944  28.173  28.934  1.00  0.00     0.074 A 
ATOM     43  C   UNL A   1      40.221  28.399  27.702  1.00  0.00     0.031 C 
ATOM     44  C   UNL A   1      37.971  32.163  32.988  1.00  0.00     0.029 A 
ATOM     45  C   UNL A   1      39.142  31.336  33.260  1.00  0.00     0.049 A 
ATOM     46  H   UNL A   1      40.112  30.050  31.939  1.00  0.00     0.167 HD
ATOM     47  C   UNL A   1      42.054  27.405  29.046  1.00  0.00     0.037 A 
ATOM     48  C   UNL A   1      39.795  31.272  34.436  1.00  0.00     0.037 A 
ATOM     49  C   UNL A   1      42.787  27.220  30.271  1.00  0.00     0.049 A 
ATOM     50  C   UNL A   1      40.948  30.312  34.571  1.00  0.00     0.074 A 
ATOM     51  C   UNL A   1      43.886  26.416  30.510  1.00  0.00     0.029 A 
ATOM     52  N   UNL A   1      42.498  27.868  31.465  1.00  0.00    -0.354 N 
ATOM     53  N   UNL A   1      41.502  29.547  33.662  1.00  0.00    -0.248 NA
ATOM     54  C   UNL A   1      41.554  30.192  35.905  1.00  0.00     0.031 C 
ATOM     55  C   UNL A   1      44.234  26.540  31.860  1.00  0.00     0.029 A 
ATOM     56  C   UNL A   1      43.391  27.469  32.447  1.00  0.00     0.049 A 
ATOM     57  H   UNL A   1      41.767  28.515  31.594  1.00  0.00     0.167 HD
ATOM     58  C   UNL A   1      42.535  28.878  34.303  1.00  0.00     0.074 A 
ATOM     59  C   UNL A   1      42.544  29.342  35.675  1.00  0.00     0.031 C 
ATOM     60  C   UNL A   1      43.397  27.958  33.803  1.00  0.00     0.037 A 
BRANCH  47  61
ATOM     61  C   UNL A   1      42.492  26.649  27.826  1.00  0.00     0.064 A 
ATOM     62  C   UNL A   1      43.456  27.149  26.938  1.00  0.00     0.173 A 
ATOM     63  C   UNL A   1      41.933  25.391  27.545  1.00  0.00     0.173 A 
ATOM     64  F   UNL A   1      44.004  28.354  27.147  1.00  0.00    -0.203 F 
ATOM     65  C   UNL A   1      43.819  26.433  25.799  1.00  0.00     0.198 A 
ATOM     66  C   UNL A   1      42.323  24.664  26.425  1.00  0.00     0.198 A 
ATOM     67  F   UNL A   1      41.007  24.865  28.362  1.00  0.00    -0.203 F 
ATOM     68  F   UNL A   1      44.700  26.956  24.934  1.00  0.00    -0.200 F 
ATOM     69  C   UNL A   1      43.258  25.190  25.547  1.00  0.00     0.200 A 
ATOM     70  F   UNL A   1      41.787  23.459  26.191  1.00  0.00    -0.200 F 
ATOM     71  F   UNL A   1      43.612  24.502  24.453  1.00  0.00    -0.200 F 
ENDBRANCH  47  61
BRANCH  48  72
ATOM     72  C   UNL A   1      39.328  32.068  35.606  1.00  0.00     0.064 A 
ATOM     73  C   UNL A   1      39.819  33.357  35.855  1.00  0.00     0.173 A 
ATOM     74  C   UNL A   1      38.418  31.531  36.531  1.00  0.00     0.173 A 
ATOM     75  F   UNL A   1      40.715  33.906  35.022  1.00  0.00    -0.203 F 
ATOM     76  C   UNL A   1      39.439  34.066  36.995  1.00  0.00     0.198 A 
ATOM     77  C   UNL A   1      38.009  32.255  37.649  1.00  0.00     0.198 A 
ATOM     78  F   UNL A   1      37.925  30.297  36.352  1.00  0.00    -0.203 F 
ATOM     79  F   UNL A   1      39.974  35.268  37.243  1.00  0.00    -0.200 F 
ATOM     80  C   UNL A   1      38.529  33.517  37.887  1.00  0.00     0.200 A 
ATOM     81  F   UNL A   1      37.121  31.724  38.500  1.00  0.00    -0.200 F 
ATOM     82  F   UNL A   1      38.168  34.197  38.984  1.00  0.00    -0.200 F 
ENDBRANCH  48  72
BRANCH  60  83
ATOM     83  C   UNL A   1      44.460  27.441  34.729  1.00  0.00     0.064 A 
ATOM     84  C   UNL A   1      44.278  26.281  35.496  1.00  0.00     0.173 A 
ATOM     85  C   UNL A   1      45.691  28.109  34.831  1.00  0.00     0.173 A 
ATOM     86  F   UNL A   1      43.115  25.615  35.447  1.00  0.00    -0.203 F 
ATOM     87  C   UNL A   1      45.275  25.830  36.357  1.00  0.00     0.198 A 
ATOM     88  C   UNL A   1      46.698  27.634  35.666  1.00  0.00     0.198 A 
ATOM     89  F   UNL A   1      45.921  29.219  34.113  1.00  0.00    -0.203 F 
ATOM     90  F   UNL A   1      45.055  24.755  37.128  1.00  0.00    -0.200 F 
ATOM     91  C   UNL A   1      46.486  26.502  36.437  1.00  0.00     0.200 A 
ATOM     92  F   UNL A   1      47.873  28.276  35.728  1.00  0.00    -0.200 F 
ATOM     93  F   UNL A   1      47.444  26.063  37.263  1.00  0.00    -0.200 F 
ENDBRANCH  60  83
ENDBRANCH  34  35
ENDBRANCH  27  29
ENDBRANCH  26  27
ENDBRANCH  25  26
ENDBRANCH   1  25
TORSDOF 15
ENDMDL
MODEL 3
REMARK VINA RESULT:     -12.4      4.222      9.693
REMARK SMILES CCOc1cccc(C(=O)Nc2ccc(Cl)c(C(=O)OCCOC(=O)c3ccc(-c4c5nc(c(-c6c(F)c(F)c(F)c(F)c6F)c6ccc([nH]6)c(-c6c(F)c(F)c(F)c(F)c6F)c6nc(c(-c7c(F)c(F)c(F)c(F)c7F)c7ccc4[nH]7)C=C6)C=C5)cc3)c2)c1
REMARK SMILES IDX 21 1 20 2 18 3 19 4 17 5 12 6 13 7 89 8 14 9 15 10 16 11
REMARK SMILES IDX 11 12 9 13 10 14 8 16 4 17 5 18 90 19 6 20 7 21 3 22 2 23
REMARK SMILES IDX 1 24 22 25 23 26 24 27 25 28 26 29 27 30 88 31 28 32 87 33
REMARK SMILES IDX 29 34 30 35 31 36 81 37 32 38 86 39 80 40 82 41 33 42 85 43
REMARK SMILES IDX 79 44 78 45 34 47 66 48 46 49 65 50 47 51 50 52 64 53 83 54
REMARK SMILES IDX 48 55 49 56 63 58 84 59 51 60 35 61 36 62 44 63 37 64 38 65
REMARK SMILES IDX 42 66 45 67 39 68 40 69 43 70 41 71 67 72 68 73 76 74 69 75
REMARK SMILES IDX 70 76 74 77 77 78 71 79 72 80 75 81 73 82 52 83 53 84 61 85
REMARK SMILES IDX 54 86 55 87 59 88 62 89 56 90 57 91 60 92 58 93
REMARK H PARENT 11 15 82 46 50 57
REMARK Flexibility Score: inf
ROOT
ATOM      1  C   UNL A   1      33.078  29.284  24.792  1.00  0.00     0.275 C 
ENDROOT
BRANCH   1   2
ATOM      2  O   UNL A   1      32.717  29.316  23.395  1.00  0.00    -0.458 OA
BRANCH   2   3
ATOM      3  C   UNL A   1      32.570  28.114  22.777  1.00  0.00     0.339 C 
ATOM      4  O   UNL A   1      33.394  27.595  22.043  1.00  0.00    -0.246 OA
BRANCH   3   5
ATOM      5  C   UNL A   1      31.252  27.513  23.132  1.00  0.00     0.080 A 
ATOM      6  C   UNL A   1      30.106  25.926  24.553  1.00  0.00     0.042 A 
ATOM      7  C   UNL A   1      28.867  26.381  24.111  1.00  0.00     0.028 A 
ATOM      8  C   UNL A   1      31.275  26.359  23.929  1.00  0.00     0.043 A 
ATOM      9  C   UNL A   1      28.821  27.496  23.289  1.00  0.00     0.023 A 
ATOM     10  C   UNL A   1      30.008  28.131  22.907  1.00  0.00     0.055 A 
ATOM     11  Cl  UNL A   1      29.778  29.745  22.359  1.00  0.00    -0.083 Cl
BRANCH   6  12
ATOM     12  N   UNL A   1      30.112  25.188  25.739  1.00  0.00    -0.322 N 
ATOM     13  C   UNL A   1      30.866  24.094  26.132  1.00  0.00     0.255 C 
ATOM     14  O   UNL A   1      30.608  23.602  27.234  1.00  0.00    -0.269 OA
ATOM     15  H   UNL A   1      29.466  25.499  26.414  1.00  0.00     0.170 HD
BRANCH  13  16
ATOM     16  C   UNL A   1      32.008  23.511  25.352  1.00  0.00     0.043 A 
ATOM     17  C   UNL A   1      34.303  23.457  24.561  1.00  0.00     0.120 A 
ATOM     18  C   UNL A   1      33.982  22.479  23.628  1.00  0.00     0.046 A 
ATOM     19  C   UNL A   1      33.345  23.904  25.476  1.00  0.00     0.060 A 
ATOM     20  C   UNL A   1      32.692  21.955  23.605  1.00  0.00     0.005 A 
ATOM     21  C   UNL A   1      31.706  22.488  24.442  1.00  0.00     0.014 A 
BRANCH  17  22
ATOM     22  O   UNL A   1      35.467  24.156  24.403  1.00  0.00    -0.494 OA
BRANCH  22  23
ATOM     23  C   UNL A   1      36.650  23.431  24.736  1.00  0.00     0.226 C 
ATOM     24  C   UNL A   1      37.120  23.782  26.136  1.00  0.00     0.049 C 
ENDBRANCH  22  23
ENDBRANCH  17  22
ENDBRANCH  13  16
ENDBRANCH   6  12
ENDBRANCH   3   5
ENDBRANCH   2   3
ENDBRANCH   1   2
BRANCH   1  25
ATOM     25  C   UNL A   1      32.072  30.059  25.645  1.00  0.00     0.275 C 
BRANCH  25  26
ATOM     26  O   UNL A   1      32.577  30.251  26.980  1.00  0.00    -0.458 OA
BRANCH  26  27
ATOM     27  C   UNL A   1      33.182  31.440  27.209  1.00  0.00     0.338 C 
ATOM     28  O   UNL A   1      32.684  32.549  27.187  1.00  0.00    -0.246 OA
BRANCH  27  29
ATOM     29  C   UNL A   1      34.555  31.199  27.683  1.00  0.00     0.060 A 
ATOM     30  C   UNL A   1      34.850  29.902  28.068  1.00  0.00     0.016 A 
ATOM     31  C   UNL A   1      35.479  32.210  27.915  1.00  0.00     0.016 A 
ATOM     32  C   UNL A   1      36.025  29.595  28.732  1.00  0.00     0.010 A 
ATOM     33  C   UNL A   1      36.702  31.894  28.541  1.00  0.00     0.010 A 
ATOM     34  C   UNL A   1      36.970  30.583  28.981  1.00  0.00    -0.014 A 
BRANCH  34  35
ATOM     35  C   UNL A   1      38.137  30.221  29.830  1.00  0.00     0.031 A 
ATOM     36  C   UNL A   1      39.224  29.363  29.248  1.00  0.00     0.074 A 
ATOM     37  C   UNL A   1      38.315  30.779  31.045  1.00  0.00     0.049 A 
ATOM     38  N   UNL A   1      40.256  28.813  29.835  1.00  0.00    -0.248 NA
ATOM     39  C   UNL A   1      39.145  29.100  27.803  1.00  0.00     0.031 C 
ATOM     40  C   UNL A   1      37.433  31.771  31.664  1.00  0.00     0.029 A 
ATOM     41  N   UNL A   1      39.319  30.612  31.969  1.00  0.00    -0.354 N 
ATOM     42  C   UNL A   1      40.915  28.097  28.844  1.00  0.00     0.074 A 
ATOM     43  C   UNL A   1      40.171  28.284  27.618  1.00  0.00     0.031 C 
ATOM     44  C   UNL A   1      37.945  32.138  32.850  1.00  0.00     0.029 A 
ATOM     45  C   UNL A   1      39.130  31.334  33.122  1.00  0.00     0.049 A 
ATOM     46  H   UNL A   1      40.099  30.030  31.817  1.00  0.00     0.167 HD
ATOM     47  C   UNL A   1      42.036  27.346  28.957  1.00  0.00     0.037 A 
ATOM     48  C   UNL A   1      39.802  31.305  34.290  1.00  0.00     0.037 A 
ATOM     49  C   UNL A   1      42.789  27.200  30.175  1.00  0.00     0.049 A 
ATOM     50  C   UNL A   1      40.970  30.365  34.430  1.00  0.00     0.074 A 
ATOM     51  C   UNL A   1      43.903  26.417  30.416  1.00  0.00     0.029 A 
ATOM     52  N   UNL A   1      42.509  27.872  31.358  1.00  0.00    -0.354 N 
ATOM     53  N   UNL A   1      41.521  29.587  33.531  1.00  0.00    -0.248 NA
ATOM     54  C   UNL A   1      41.596  30.284  35.757  1.00  0.00     0.031 C 
ATOM     55  C   UNL A   1      44.269  26.577  31.758  1.00  0.00     0.029 A 
ATOM     56  C   UNL A   1      43.421  27.508  32.336  1.00  0.00     0.049 A 
ATOM     57  H   UNL A   1      41.771  28.512  31.483  1.00  0.00     0.167 HD
ATOM     58  C   UNL A   1      42.573  28.947  34.171  1.00  0.00     0.074 A 
ATOM     59  C   UNL A   1      42.595  29.442  35.532  1.00  0.00     0.031 C 
ATOM     60  C   UNL A   1      43.441  28.027  33.679  1.00  0.00     0.037 A 
BRANCH  47  61
ATOM     61  C   UNL A   1      42.468  26.569  27.748  1.00  0.00     0.064 A 
ATOM     62  C   UNL A   1      43.441  27.043  26.857  1.00  0.00     0.173 A 
ATOM     63  C   UNL A   1      41.890  25.316  27.481  1.00  0.00     0.173 A 
ATOM     64  F   UNL A   1      44.008  28.243  27.054  1.00  0.00    -0.203 F 
ATOM     65  C   UNL A   1      43.798  26.308  25.729  1.00  0.00     0.198 A 
ATOM     66  C   UNL A   1      42.274  24.570  26.371  1.00  0.00     0.198 A 
ATOM     67  F   UNL A   1      40.954  24.814  28.301  1.00  0.00    -0.203 F 
ATOM     68  F   UNL A   1      44.690  26.806  24.861  1.00  0.00    -0.200 F 
ATOM     69  C   UNL A   1      43.220  25.070  25.491  1.00  0.00     0.200 A 
ATOM     70  F   UNL A   1      41.720  23.369  26.150  1.00  0.00    -0.200 F 
ATOM     71  F   UNL A   1      43.566  24.363  24.406  1.00  0.00    -0.200 F 
ENDBRANCH  47  61
BRANCH  48  72
ATOM     72  C   UNL A   1      39.341  32.122  35.448  1.00  0.00     0.064 A 
ATOM     73  C   UNL A   1      39.793  33.434  35.644  1.00  0.00     0.173 A 
ATOM     74  C   UNL A   1      38.476  31.583  36.416  1.00  0.00     0.173 A 
ATOM     75  F   UNL A   1      40.645  33.987  34.768  1.00  0.00    -0.203 F 
ATOM     76  C   UNL A   1      39.421  34.165  36.771  1.00  0.00     0.198 A 
ATOM     77  C   UNL A   1      38.074  32.328  37.522  1.00  0.00     0.198 A 
ATOM     78  F   UNL A   1      38.021  30.328  36.289  1.00  0.00    -0.203 F 
ATOM     79  F   UNL A   1      39.921  35.392  36.967  1.00  0.00    -0.200 F 
ATOM     80  C   UNL A   1      38.556  33.614  37.707  1.00  0.00     0.200 A 
ATOM     81  F   UNL A   1      37.229  31.795  38.415  1.00  0.00    -0.200 F 
ATOM     82  F   UNL A   1      38.203  34.316  38.792  1.00  0.00    -0.200 F 
ENDBRANCH  48  72
BRANCH  60  83
ATOM     83  C   UNL A   1      44.524  27.547  34.602  1.00  0.00     0.064 A 
ATOM     84  C   UNL A   1      44.369  26.403  35.398  1.00  0.00     0.173 A 
ATOM     85  C   UNL A   1      45.747  28.233  34.669  1.00  0.00     0.173 A 
ATOM     86  F   UNL A   1      43.214  25.720  35.382  1.00  0.00    -0.203 F 
ATOM     87  C   UNL A   1      45.384  25.985  36.255  1.00  0.00     0.198 A 
ATOM     88  C   UNL A   1      46.773  27.791  35.500  1.00  0.00     0.198 A 
ATOM     89  F   UNL A   1      45.951  29.329  33.923  1.00  0.00    -0.203 F 
ATOM     90  F   UNL A   1      45.191  24.926  37.053  1.00  0.00    -0.200 F 
ATOM     91  C   UNL A   1      46.587  26.675  36.300  1.00  0.00     0.200 A 
ATOM     92  F   UNL A   1      47.939  28.450  35.530  1.00  0.00    -0.200 F 
ATOM     93  F   UNL A   1      47.563  26.268  37.122  1.00  0.00    -0.200 F 
ENDBRANCH  60  83
ENDBRANCH  34  35
ENDBRANCH  27  29
ENDBRANCH  26  27
ENDBRANCH  25  26
ENDBRANCH   1  25
TORSDOF 15
ENDMDL
