MODEL 1
REMARK VINA RESULT:     -12.6      0.000      0.000
REMARK SMILES O=C(OCCOC(=O)c1cc(Br)cc2c1N[C@H](c1cccc([N+](=O)[O-])c1)[C@H]1CC=C[C@@H]21)c1ccc(-c2c3nc(c(-c4c(F)c(F)c(F)c(F)c4F)c4ccc([nH]4)c(-c4c(F)c(F)c(F)c(F)c4F)c4nc(c(-c5c(F)c(F)c(F)c(F)c5F)c5ccc2[nH]5)C=C4)C=C3)cc1
REMARK SMILES IDX 4 1 3 2 2 3 1 4 32 5 33 6 94 7 34 8 93 9 35 10 36 11 37 12
REMARK SMILES IDX 87 13 38 14 92 15 86 16 88 17 39 18 91 19 85 20 84 21 40 23
REMARK SMILES IDX 72 24 52 25 71 26 53 27 56 28 70 29 89 30 54 31 55 32 69 34
REMARK SMILES IDX 90 35 57 36 41 37 42 38 50 39 43 40 44 41 48 42 51 43 45 44
REMARK SMILES IDX 46 45 49 46 47 47 73 48 74 49 82 50 75 51 76 52 80 53 83 54
REMARK SMILES IDX 77 55 78 56 81 57 79 58 58 59 59 60 67 61 60 62 61 63 65 64
REMARK SMILES IDX 68 65 62 66 63 67 66 68 64 69 5 70 6 71 7 72 8 73 9 74 10 75
REMARK SMILES IDX 15 76 11 77 14 78 16 79 12 80 13 81 31 82 17 83 27 85 30 86
REMARK SMILES IDX 28 87 29 88 18 89 19 90 26 91 20 92 22 93 21 94 23 95 24 96
REMARK SMILES IDX 25 97
REMARK H PARENT 88 22 56 33 16 84
REMARK Flexibility Score: inf
ROOT
ATOM      1  C   UNL A   1      39.900  28.092  28.311  1.00  0.00     0.275 C 
ENDROOT
BRANCH   1   2
ATOM      2  O   UNL A   1      40.882  27.946  29.337  1.00  0.00    -0.458 OA
BRANCH   2   3
ATOM      3  C   UNL A   1      42.025  28.653  29.498  1.00  0.00     0.338 C 
ATOM      4  O   UNL A   1      43.057  28.025  29.735  1.00  0.00    -0.246 OA
BRANCH   3   5
ATOM      5  C   UNL A   1      42.108  30.165  29.510  1.00  0.00     0.060 A 
ATOM      6  C   UNL A   1      43.383  30.699  29.290  1.00  0.00     0.016 A 
ATOM      7  C   UNL A   1      41.106  31.075  29.878  1.00  0.00     0.016 A 
ATOM      8  C   UNL A   1      43.666  32.038  29.595  1.00  0.00     0.010 A 
ATOM      9  C   UNL A   1      41.376  32.413  30.177  1.00  0.00     0.010 A 
ATOM     10  C   UNL A   1      42.667  32.903  30.087  1.00  0.00    -0.014 A 
BRANCH  10  11
ATOM     11  C   UNL A   1      42.932  34.328  30.454  1.00  0.00     0.031 A 
ATOM     12  C   UNL A   1      43.042  35.440  29.408  1.00  0.00     0.074 A 
ATOM     13  C   UNL A   1      42.894  34.608  31.754  1.00  0.00     0.049 A 
ATOM     14  N   UNL A   1      42.938  36.825  29.502  1.00  0.00    -0.248 NA
ATOM     15  C   UNL A   1      42.828  34.732  27.959  1.00  0.00     0.031 C 
ATOM     16  C   UNL A   1      42.679  33.627  32.817  1.00  0.00     0.029 A 
ATOM     17  N   UNL A   1      43.025  35.804  32.383  1.00  0.00    -0.354 N 
ATOM     18  C   UNL A   1      42.565  37.586  28.010  1.00  0.00     0.074 A 
ATOM     19  C   UNL A   1      42.280  35.916  26.730  1.00  0.00     0.031 C 
ATOM     20  C   UNL A   1      42.698  34.268  33.987  1.00  0.00     0.029 A 
ATOM     21  C   UNL A   1      43.005  35.673  33.739  1.00  0.00     0.049 A 
ATOM     22  H   UNL A   1      43.124  36.664  31.914  1.00  0.00     0.167 HD
ATOM     23  C   UNL A   1      42.948  39.061  27.861  1.00  0.00     0.037 A 
ATOM     24  C   UNL A   1      43.259  36.582  34.685  1.00  0.00     0.037 A 
ATOM     25  C   UNL A   1      43.371  39.929  28.991  1.00  0.00     0.049 A 
ATOM     26  C   UNL A   1      43.519  38.003  34.317  1.00  0.00     0.074 A 
ATOM     27  C   UNL A   1      43.754  41.270  28.889  1.00  0.00     0.029 A 
ATOM     28  N   UNL A   1      43.501  39.620  30.343  1.00  0.00    -0.354 N 
ATOM     29  N   UNL A   1      43.527  38.569  33.137  1.00  0.00    -0.248 NA
ATOM     30  C   UNL A   1      43.776  38.915  35.434  1.00  0.00     0.031 C 
ATOM     31  C   UNL A   1      44.066  41.776  30.140  1.00  0.00     0.029 A 
ATOM     32  C   UNL A   1      43.830  40.776  31.060  1.00  0.00     0.049 A 
ATOM     33  H   UNL A   1      43.381  38.725  30.734  1.00  0.00     0.167 HD
ATOM     34  C   UNL A   1      43.757  39.914  33.377  1.00  0.00     0.074 A 
ATOM     35  C   UNL A   1      43.853  40.080  34.811  1.00  0.00     0.031 C 
ATOM     36  C   UNL A   1      43.891  40.924  32.491  1.00  0.00     0.037 A 
BRANCH  23  37
ATOM     37  C   UNL A   1      43.230  40.020  26.445  1.00  0.00     0.064 A 
ATOM     38  C   UNL A   1      44.468  40.507  25.989  1.00  0.00     0.173 A 
ATOM     39  C   UNL A   1      42.130  40.562  25.710  1.00  0.00     0.173 A 
ATOM     40  F   UNL A   1      45.607  39.838  26.220  1.00  0.00    -0.203 F 
ATOM     41  C   UNL A   1      44.572  41.773  25.375  1.00  0.00     0.198 A 
ATOM     42  C   UNL A   1      42.257  41.703  24.893  1.00  0.00     0.198 A 
ATOM     43  F   UNL A   1      40.896  40.065  25.875  1.00  0.00    -0.203 F 
ATOM     44  F   UNL A   1      45.740  42.434  25.393  1.00  0.00    -0.200 F 
ATOM     45  C   UNL A   1      43.459  42.380  24.835  1.00  0.00     0.200 A 
ATOM     46  F   UNL A   1      41.192  42.200  24.247  1.00  0.00    -0.200 F 
ATOM     47  F   UNL A   1      43.546  43.586  24.255  1.00  0.00    -0.200 F 
ENDBRANCH  23  37
BRANCH  24  48
ATOM     48  C   UNL A   1      43.233  36.119  36.081  1.00  0.00     0.064 A 
ATOM     49  C   UNL A   1      42.018  36.039  36.762  1.00  0.00     0.173 A 
ATOM     50  C   UNL A   1      44.392  35.628  36.702  1.00  0.00     0.173 A 
ATOM     51  F   UNL A   1      40.894  36.485  36.182  1.00  0.00    -0.203 F 
ATOM     52  C   UNL A   1      41.962  35.497  38.037  1.00  0.00     0.198 A 
ATOM     53  C   UNL A   1      44.324  35.038  37.953  1.00  0.00     0.198 A 
ATOM     54  F   UNL A   1      45.566  35.644  36.050  1.00  0.00    -0.203 F 
ATOM     55  F   UNL A   1      40.793  35.458  38.689  1.00  0.00    -0.200 F 
ATOM     56  C   UNL A   1      43.110  34.985  38.625  1.00  0.00     0.200 A 
ATOM     57  F   UNL A   1      45.421  34.491  38.493  1.00  0.00    -0.200 F 
ATOM     58  F   UNL A   1      43.045  34.426  39.840  1.00  0.00    -0.200 F 
ENDBRANCH  24  48
BRANCH  36  59
ATOM     59  C   UNL A   1      44.128  42.314  33.028  1.00  0.00     0.064 A 
ATOM     60  C   UNL A   1      45.425  42.806  33.234  1.00  0.00     0.173 A 
ATOM     61  C   UNL A   1      43.056  43.207  33.201  1.00  0.00     0.173 A 
ATOM     62  F   UNL A   1      46.486  42.000  33.073  1.00  0.00    -0.203 F 
ATOM     63  C   UNL A   1      45.641  44.129  33.610  1.00  0.00     0.198 A 
ATOM     64  C   UNL A   1      43.278  44.541  33.533  1.00  0.00     0.198 A 
ATOM     65  F   UNL A   1      41.795  42.800  32.988  1.00  0.00    -0.203 F 
ATOM     66  F   UNL A   1      46.888  44.565  33.828  1.00  0.00    -0.200 F 
ATOM     67  C   UNL A   1      44.569  44.999  33.744  1.00  0.00     0.200 A 
ATOM     68  F   UNL A   1      42.244  45.391  33.616  1.00  0.00    -0.200 F 
ATOM     69  F   UNL A   1      44.782  46.282  34.065  1.00  0.00    -0.200 F 
ENDBRANCH  36  59
ENDBRANCH  10  11
ENDBRANCH   3   5
ENDBRANCH   2   3
ENDBRANCH   1   2
BRANCH   1  70
ATOM     70  C   UNL A   1      38.505  28.484  28.845  1.00  0.00     0.275 C 
BRANCH  70  71
ATOM     71  O   UNL A   1      38.276  28.178  30.246  1.00  0.00    -0.458 OA
BRANCH  71  72
ATOM     72  C   UNL A   1      37.493  29.012  30.994  1.00  0.00     0.340 C 
ATOM     73  O   UNL A   1      36.279  29.092  30.920  1.00  0.00    -0.246 OA
BRANCH  72  74
ATOM     74  C   UNL A   1      38.312  29.670  32.063  1.00  0.00     0.084 A 
ATOM     75  C   UNL A   1      39.600  29.148  32.349  1.00  0.00     0.033 A 
ATOM     76  C   UNL A   1      38.005  30.866  32.721  1.00  0.00     0.053 A 
ATOM     77  C   UNL A   1      40.591  29.799  33.184  1.00  0.00     0.019 A 
ATOM     78  C   UNL A   1      39.174  31.609  33.772  1.00  0.00    -0.016 A 
ATOM     79  N   UNL A   1      36.482  31.580  32.297  1.00  0.00    -0.377 N 
ATOM     80  Br  UNL A   1      42.330  29.008  33.263  1.00  0.00    -0.051 Br
ATOM     81  C   UNL A   1      40.419  31.017  33.878  1.00  0.00     0.022 A 
ATOM     82  C   UNL A   1      39.092  33.469  34.450  1.00  0.00     0.049 C 
ATOM     83  C   UNL A   1      35.880  33.245  32.793  1.00  0.00     0.114 C 
ATOM     84  H   UNL A   1      35.880  31.039  31.736  1.00  0.00     0.161 HD
ATOM     85  C   UNL A   1      37.088  34.475  33.766  1.00  0.00     0.031 C 
ATOM     86  C   UNL A   1      38.760  33.166  36.283  1.00  0.00    -0.023 C 
ATOM     87  C   UNL A   1      36.128  34.134  35.489  1.00  0.00     0.034 C 
ATOM     88  C   UNL A   1      37.430  33.453  36.712  1.00  0.00    -0.030 C 
BRANCH  83  89
ATOM     89  C   UNL A   1      35.045  33.972  31.747  1.00  0.00    -0.019 A 
ATOM     90  C   UNL A   1      35.021  33.609  30.397  1.00  0.00     0.006 A 
ATOM     91  C   UNL A   1      34.114  34.941  32.151  1.00  0.00     0.091 A 
ATOM     92  C   UNL A   1      34.145  34.252  29.496  1.00  0.00     0.007 A 
ATOM     93  C   UNL A   1      33.329  35.661  31.251  1.00  0.00     0.269 A 
ATOM     94  C   UNL A   1      33.327  35.310  29.910  1.00  0.00     0.085 A 
BRANCH  93  95
ATOM     95  N   UNL A   1      32.564  36.811  31.761  1.00  0.00     0.062 N 
ATOM     96  O   UNL A   1      31.604  36.580  32.505  1.00  0.00    -0.258 OA
ATOM     97  O   UNL A   1      32.903  37.941  31.377  1.00  0.00    -0.258 OA
ENDBRANCH  93  95
ENDBRANCH  83  89
ENDBRANCH  72  74
ENDBRANCH  71  72
ENDBRANCH  70  71
ENDBRANCH   1  70
TORSDOF 13
ENDMDL
MODEL 2
REMARK VINA RESULT:     -12.5      2.654      4.498
REMARK SMILES O=C(OCCOC(=O)c1cc(Br)cc2c1N[C@H](c1cccc([N+](=O)[O-])c1)[C@H]1CC=C[C@@H]21)c1ccc(-c2c3nc(c(-c4c(F)c(F)c(F)c(F)c4F)c4ccc([nH]4)c(-c4c(F)c(F)c(F)c(F)c4F)c4nc(c(-c5c(F)c(F)c(F)c(F)c5F)c5ccc2[nH]5)C=C4)C=C3)cc1
REMARK SMILES IDX 4 1 3 2 2 3 1 4 32 5 33 6 94 7 34 8 93 9 35 10 36 11 37 12
REMARK SMILES IDX 87 13 38 14 92 15 86 16 88 17 39 18 91 19 85 20 84 21 40 23
REMARK SMILES IDX 72 24 52 25 71 26 53 27 56 28 70 29 89 30 54 31 55 32 69 34
REMARK SMILES IDX 90 35 57 36 41 37 42 38 50 39 43 40 44 41 48 42 51 43 45 44
REMARK SMILES IDX 46 45 49 46 47 47 73 48 74 49 82 50 75 51 76 52 80 53 83 54
REMARK SMILES IDX 77 55 78 56 81 57 79 58 58 59 59 60 67 61 60 62 61 63 65 64
REMARK SMILES IDX 68 65 62 66 63 67 66 68 64 69 5 70 6 71 7 72 8 73 9 74 10 75
REMARK SMILES IDX 15 76 11 77 14 78 16 79 12 80 13 81 31 82 17 83 27 85 30 86
REMARK SMILES IDX 28 87 29 88 18 89 19 90 26 91 20 92 22 93 21 94 23 95 24 96
REMARK SMILES IDX 25 97
REMARK H PARENT 88 22 56 33 16 84
REMARK Flexibility Score: inf
ROOT
ATOM      1  C   UNL A   1      43.021  27.443  31.848  1.00  0.00     0.275 C 
ENDROOT
BRANCH   1   2
ATOM      2  O   UNL A   1      42.328  27.866  30.674  1.00  0.00    -0.458 OA
BRANCH   2   3
ATOM      3  C   UNL A   1      42.818  28.582  29.635  1.00  0.00     0.338 C 
ATOM      4  O   UNL A   1      43.313  27.959  28.696  1.00  0.00    -0.246 OA
BRANCH   3   5
ATOM      5  C   UNL A   1      42.895  30.093  29.590  1.00  0.00     0.060 A 
ATOM      6  C   UNL A   1      44.177  30.635  29.741  1.00  0.00     0.016 A 
ATOM      7  C   UNL A   1      41.829  31.006  29.584  1.00  0.00     0.016 A 
ATOM      8  C   UNL A   1      44.354  31.992  30.046  1.00  0.00     0.010 A 
ATOM      9  C   UNL A   1      41.995  32.361  29.879  1.00  0.00     0.010 A 
ATOM     10  C   UNL A   1      43.253  32.866  30.161  1.00  0.00    -0.014 A 
BRANCH  10  11
ATOM     11  C   UNL A   1      43.394  34.312  30.514  1.00  0.00     0.031 A 
ATOM     12  C   UNL A   1      43.424  35.417  29.455  1.00  0.00     0.074 A 
ATOM     13  C   UNL A   1      43.318  34.602  31.810  1.00  0.00     0.049 A 
ATOM     14  N   UNL A   1      43.204  36.790  29.532  1.00  0.00    -0.248 NA
ATOM     15  C   UNL A   1      43.287  34.678  28.014  1.00  0.00     0.031 C 
ATOM     16  C   UNL A   1      43.173  33.619  32.882  1.00  0.00     0.029 A 
ATOM     17  N   UNL A   1      43.342  35.811  32.426  1.00  0.00    -0.354 N 
ATOM     18  C   UNL A   1      42.787  37.501  28.027  1.00  0.00     0.074 A 
ATOM     19  C   UNL A   1      42.657  35.799  26.764  1.00  0.00     0.031 C 
ATOM     20  C   UNL A   1      43.125  34.272  34.044  1.00  0.00     0.029 A 
ATOM     21  C   UNL A   1      43.316  35.695  33.783  1.00  0.00     0.049 A 
ATOM     22  H   UNL A   1      43.374  36.672  31.948  1.00  0.00     0.167 HD
ATOM     23  C   UNL A   1      43.048  39.001  27.865  1.00  0.00     0.037 A 
ATOM     24  C   UNL A   1      43.483  36.632  34.721  1.00  0.00     0.037 A 
ATOM     25  C   UNL A   1      43.384  39.913  28.989  1.00  0.00     0.049 A 
ATOM     26  C   UNL A   1      43.628  38.066  34.339  1.00  0.00     0.074 A 
ATOM     27  C   UNL A   1      43.655  41.281  28.875  1.00  0.00     0.029 A 
ATOM     28  N   UNL A   1      43.523  39.632  30.345  1.00  0.00    -0.354 N 
ATOM     29  N   UNL A   1      43.603  38.618  33.152  1.00  0.00    -0.248 NA
ATOM     30  C   UNL A   1      43.796  39.009  35.447  1.00  0.00     0.031 C 
ATOM     31  C   UNL A   1      43.909  41.824  30.122  1.00  0.00     0.029 A 
ATOM     32  C   UNL A   1      43.747  40.818  31.052  1.00  0.00     0.049 A 
ATOM     33  H   UNL A   1      43.473  38.733  30.746  1.00  0.00     0.167 HD
ATOM     34  C   UNL A   1      43.718  39.979  33.378  1.00  0.00     0.074 A 
ATOM     35  C   UNL A   1      43.783  40.169  34.811  1.00  0.00     0.031 C 
ATOM     36  C   UNL A   1      43.778  40.987  32.481  1.00  0.00     0.037 A 
BRANCH  23  37
ATOM     37  C   UNL A   1      43.266  39.965  26.440  1.00  0.00     0.064 A 
ATOM     38  C   UNL A   1      44.481  40.466  25.939  1.00  0.00     0.173 A 
ATOM     39  C   UNL A   1      42.133  40.494  25.747  1.00  0.00     0.173 A 
ATOM     40  F   UNL A   1      45.635  39.809  26.127  1.00  0.00    -0.203 F 
ATOM     41  C   UNL A   1      44.547  41.733  25.323  1.00  0.00     0.198 A 
ATOM     42  C   UNL A   1      42.217  41.638  24.927  1.00  0.00     0.198 A 
ATOM     43  F   UNL A   1      40.912  39.982  25.957  1.00  0.00    -0.203 F 
ATOM     44  F   UNL A   1      45.707  42.408  25.298  1.00  0.00    -0.200 F 
ATOM     45  C   UNL A   1      43.408  42.328  24.826  1.00  0.00     0.200 A 
ATOM     46  F   UNL A   1      41.123  42.122  24.322  1.00  0.00    -0.200 F 
ATOM     47  F   UNL A   1      43.460  43.536  24.244  1.00  0.00    -0.200 F 
ENDBRANCH  23  37
BRANCH  24  48
ATOM     48  C   UNL A   1      43.479  36.184  36.121  1.00  0.00     0.064 A 
ATOM     49  C   UNL A   1      42.276  36.123  36.826  1.00  0.00     0.173 A 
ATOM     50  C   UNL A   1      44.645  35.689  36.726  1.00  0.00     0.173 A 
ATOM     51  F   UNL A   1      41.145  36.573  36.262  1.00  0.00    -0.203 F 
ATOM     52  C   UNL A   1      42.239  35.595  38.108  1.00  0.00     0.198 A 
ATOM     53  C   UNL A   1      44.595  35.112  37.985  1.00  0.00     0.198 A 
ATOM     54  F   UNL A   1      45.806  35.687  36.052  1.00  0.00    -0.203 F 
ATOM     55  F   UNL A   1      41.082  35.573  38.782  1.00  0.00    -0.200 F 
ATOM     56  C   UNL A   1      43.394  35.078  38.680  1.00  0.00     0.200 A 
ATOM     57  F   UNL A   1      45.697  34.561  38.509  1.00  0.00    -0.200 F 
ATOM     58  F   UNL A   1      43.346  34.533  39.901  1.00  0.00    -0.200 F 
ENDBRANCH  24  48
BRANCH  36  59
ATOM     59  C   UNL A   1      43.892  42.398  33.004  1.00  0.00     0.064 A 
ATOM     60  C   UNL A   1      45.141  42.992  33.235  1.00  0.00     0.173 A 
ATOM     61  C   UNL A   1      42.750  43.206  33.138  1.00  0.00     0.173 A 
ATOM     62  F   UNL A   1      46.266  42.269  33.112  1.00  0.00    -0.203 F 
ATOM     63  C   UNL A   1      45.244  44.333  33.598  1.00  0.00     0.198 A 
ATOM     64  C   UNL A   1      42.859  44.558  33.456  1.00  0.00     0.198 A 
ATOM     65  F   UNL A   1      41.530  42.700  32.900  1.00  0.00    -0.203 F 
ATOM     66  F   UNL A   1      46.448  44.868  33.840  1.00  0.00    -0.200 F 
ATOM     67  C   UNL A   1      44.104  45.118  33.692  1.00  0.00     0.200 A 
ATOM     68  F   UNL A   1      41.760  45.325  33.502  1.00  0.00    -0.200 F 
ATOM     69  F   UNL A   1      44.209  46.417  34.001  1.00  0.00    -0.200 F 
ENDBRANCH  36  59
ENDBRANCH  10  11
ENDBRANCH   3   5
ENDBRANCH   2   3
ENDBRANCH   1   2
BRANCH   1  70
ATOM     70  C   UNL A   1      42.942  28.458  33.009  1.00  0.00     0.275 C 
BRANCH  70  71
ATOM     71  O   UNL A   1      41.974  29.525  32.828  1.00  0.00    -0.458 OA
BRANCH  71  72
ATOM     72  C   UNL A   1      40.687  29.342  33.247  1.00  0.00     0.340 C 
ATOM     73  O   UNL A   1      40.321  28.495  34.044  1.00  0.00    -0.246 OA
BRANCH  72  74
ATOM     74  C   UNL A   1      39.816  30.454  32.748  1.00  0.00     0.084 A 
ATOM     75  C   UNL A   1      39.797  31.677  33.470  1.00  0.00     0.033 A 
ATOM     76  C   UNL A   1      39.119  30.479  31.536  1.00  0.00     0.053 A 
ATOM     77  C   UNL A   1      39.190  32.907  32.999  1.00  0.00     0.019 A 
ATOM     78  C   UNL A   1      38.338  31.940  31.006  1.00  0.00    -0.016 A 
ATOM     79  N   UNL A   1      39.226  29.032  30.586  1.00  0.00    -0.377 N 
ATOM     80  Br  UNL A   1      39.464  34.481  34.050  1.00  0.00    -0.051 Br
ATOM     81  C   UNL A   1      38.486  33.073  31.786  1.00  0.00     0.022 A 
ATOM     82  C   UNL A   1      37.674  32.289  29.172  1.00  0.00     0.049 C 
ATOM     83  C   UNL A   1      38.632  28.811  28.860  1.00  0.00     0.114 C 
ATOM     84  H   UNL A   1      39.647  28.251  31.014  1.00  0.00     0.161 HD
ATOM     85  C   UNL A   1      37.940  30.369  27.854  1.00  0.00     0.031 C 
ATOM     86  C   UNL A   1      35.810  32.297  29.464  1.00  0.00    -0.023 C 
ATOM     87  C   UNL A   1      36.052  29.741  28.084  1.00  0.00     0.034 C 
ATOM     88  C   UNL A   1      35.118  31.144  28.986  1.00  0.00    -0.030 C 
BRANCH  83  89
ATOM     89  C   UNL A   1      39.489  27.903  27.989  1.00  0.00    -0.019 A 
ATOM     90  C   UNL A   1      39.359  26.510  27.971  1.00  0.00     0.006 A 
ATOM     91  C   UNL A   1      40.335  28.464  27.020  1.00  0.00     0.091 A 
ATOM     92  C   UNL A   1      40.107  25.731  27.063  1.00  0.00     0.007 A 
ATOM     93  C   UNL A   1      41.163  27.699  26.199  1.00  0.00     0.269 A 
ATOM     94  C   UNL A   1      41.045  26.317  26.203  1.00  0.00     0.085 A 
BRANCH  93  95
ATOM     95  N   UNL A   1      42.176  28.395  25.390  1.00  0.00     0.062 N 
ATOM     96  O   UNL A   1      42.651  27.794  24.419  1.00  0.00    -0.258 OA
ATOM     97  O   UNL A   1      42.525  29.527  25.757  1.00  0.00    -0.258 OA
ENDBRANCH  93  95
ENDBRANCH  83  89
ENDBRANCH  72  74
ENDBRANCH  71  72
ENDBRANCH  70  71
ENDBRANCH   1  70
TORSDOF 13
ENDMDL
MODEL 3
REMARK VINA RESULT:     -12.3      2.322      3.564
REMARK SMILES O=C(OCCOC(=O)c1cc(Br)cc2c1N[C@H](c1cccc([N+](=O)[O-])c1)[C@H]1CC=C[C@@H]21)c1ccc(-c2c3nc(c(-c4c(F)c(F)c(F)c(F)c4F)c4ccc([nH]4)c(-c4c(F)c(F)c(F)c(F)c4F)c4nc(c(-c5c(F)c(F)c(F)c(F)c5F)c5ccc2[nH]5)C=C4)C=C3)cc1
REMARK SMILES IDX 4 1 3 2 2 3 1 4 32 5 33 6 94 7 34 8 93 9 35 10 36 11 37 12
REMARK SMILES IDX 87 13 38 14 92 15 86 16 88 17 39 18 91 19 85 20 84 21 40 23
REMARK SMILES IDX 72 24 52 25 71 26 53 27 56 28 70 29 89 30 54 31 55 32 69 34
REMARK SMILES IDX 90 35 57 36 41 37 42 38 50 39 43 40 44 41 48 42 51 43 45 44
REMARK SMILES IDX 46 45 49 46 47 47 73 48 74 49 82 50 75 51 76 52 80 53 83 54
REMARK SMILES IDX 77 55 78 56 81 57 79 58 58 59 59 60 67 61 60 62 61 63 65 64
REMARK SMILES IDX 68 65 62 66 63 67 66 68 64 69 5 70 6 71 7 72 8 73 9 74 10 75
REMARK SMILES IDX 15 76 11 77 14 78 16 79 12 80 13 81 31 82 17 83 27 85 30 86
REMARK SMILES IDX 28 87 29 88 18 89 19 90 26 91 20 92 22 93 21 94 23 95 24 96
REMARK SMILES IDX 25 97
REMARK H PARENT 88 22 56 33 16 84
REMARK Flexibility Score: inf
ROOT
ATOM      1  C   UNL A   1      40.130  27.406  29.180  1.00  0.00     0.275 C 
ENDROOT
BRANCH   1   2
ATOM      2  O   UNL A   1      40.854  28.402  28.457  1.00  0.00    -0.458 OA
BRANCH   2   3
ATOM      3  C   UNL A   1      42.126  28.815  28.664  1.00  0.00     0.338 C 
ATOM      4  O   UNL A   1      43.035  28.050  28.338  1.00  0.00    -0.246 OA
BRANCH   3   5
ATOM      5  C   UNL A   1      42.511  30.103  29.360  1.00  0.00     0.060 A 
ATOM      6  C   UNL A   1      41.445  30.846  29.883  1.00  0.00     0.016 A 
ATOM      7  C   UNL A   1      43.773  30.715  29.394  1.00  0.00     0.016 A 
ATOM      8  C   UNL A   1      41.615  32.187  30.252  1.00  0.00     0.010 A 
ATOM      9  C   UNL A   1      43.954  32.049  29.767  1.00  0.00     0.010 A 
ATOM     10  C   UNL A   1      42.873  32.819  30.156  1.00  0.00    -0.014 A 
BRANCH  10  11
ATOM     11  C   UNL A   1      43.092  34.256  30.509  1.00  0.00     0.031 A 
ATOM     12  C   UNL A   1      43.156  35.362  29.453  1.00  0.00     0.074 A 
ATOM     13  C   UNL A   1      43.054  34.545  31.807  1.00  0.00     0.049 A 
ATOM     14  N   UNL A   1      43.006  36.743  29.537  1.00  0.00    -0.248 NA
ATOM     15  C   UNL A   1      42.956  34.635  28.013  1.00  0.00     0.031 C 
ATOM     16  C   UNL A   1      42.880  33.566  32.880  1.00  0.00     0.029 A 
ATOM     17  N   UNL A   1      43.149  35.750  32.426  1.00  0.00    -0.354 N 
ATOM     18  C   UNL A   1      42.597  37.478  28.042  1.00  0.00     0.074 A 
ATOM     19  C   UNL A   1      42.360  35.789  26.777  1.00  0.00     0.031 C 
ATOM     20  C   UNL A   1      42.886  34.217  34.044  1.00  0.00     0.029 A 
ATOM     21  C   UNL A   1      43.143  35.630  33.783  1.00  0.00     0.049 A 
ATOM     22  H   UNL A   1      43.215  36.609  31.949  1.00  0.00     0.167 HD
ATOM     23  C   UNL A   1      42.929  38.964  27.878  1.00  0.00     0.037 A 
ATOM     24  C   UNL A   1      43.372  36.555  34.720  1.00  0.00     0.037 A 
ATOM     25  C   UNL A   1      43.330  39.855  28.998  1.00  0.00     0.049 A 
ATOM     26  C   UNL A   1      43.581  37.981  34.338  1.00  0.00     0.074 A 
ATOM     27  C   UNL A   1      43.666  41.208  28.882  1.00  0.00     0.029 A 
ATOM     28  N   UNL A   1      43.480  39.563  30.351  1.00  0.00    -0.354 N 
ATOM     29  N   UNL A   1      43.561  38.537  33.153  1.00  0.00    -0.248 NA
ATOM     30  C   UNL A   1      43.816  38.911  35.445  1.00  0.00     0.031 C 
ATOM     31  C   UNL A   1      43.970  41.734  30.126  1.00  0.00     0.029 A 
ATOM     32  C   UNL A   1      43.775  40.735  31.056  1.00  0.00     0.049 A 
ATOM     33  H   UNL A   1      43.393  38.667  30.750  1.00  0.00     0.167 HD
ATOM     34  C   UNL A   1      43.748  39.891  33.380  1.00  0.00     0.074 A 
ATOM     35  C   UNL A   1      43.848  40.072  34.812  1.00  0.00     0.031 C 
ATOM     36  C   UNL A   1      43.841  40.897  32.485  1.00  0.00     0.037 A 
BRANCH  23  37
ATOM     37  C   UNL A   1      43.168  39.920  26.451  1.00  0.00     0.064 A 
ATOM     38  C   UNL A   1      44.390  40.410  25.960  1.00  0.00     0.173 A 
ATOM     39  C   UNL A   1      42.045  40.456  25.746  1.00  0.00     0.173 A 
ATOM     40  F   UNL A   1      45.538  39.745  26.161  1.00  0.00    -0.203 F 
ATOM     41  C   UNL A   1      44.473  41.674  25.340  1.00  0.00     0.198 A 
ATOM     42  C   UNL A   1      42.146  41.596  24.923  1.00  0.00     0.198 A 
ATOM     43  F   UNL A   1      40.818  39.955  25.947  1.00  0.00    -0.203 F 
ATOM     44  F   UNL A   1      45.639  42.339  25.323  1.00  0.00    -0.200 F 
ATOM     45  C   UNL A   1      43.343  42.277  24.830  1.00  0.00     0.200 A 
ATOM     46  F   UNL A   1      41.061  42.086  24.306  1.00  0.00    -0.200 F 
ATOM     47  F   UNL A   1      43.410  43.481  24.244  1.00  0.00    -0.200 F 
ENDBRANCH  23  37
BRANCH  24  48
ATOM     48  C   UNL A   1      43.372  36.103  36.119  1.00  0.00     0.064 A 
ATOM     49  C   UNL A   1      42.181  36.097  36.846  1.00  0.00     0.173 A 
ATOM     50  C   UNL A   1      44.524  35.551  36.701  1.00  0.00     0.173 A 
ATOM     51  F   UNL A   1      41.063  36.602  36.303  1.00  0.00    -0.203 F 
ATOM     52  C   UNL A   1      42.142  35.567  38.126  1.00  0.00     0.198 A 
ATOM     53  C   UNL A   1      44.469  34.974  37.959  1.00  0.00     0.198 A 
ATOM     54  F   UNL A   1      45.672  35.497  36.006  1.00  0.00    -0.203 F 
ATOM     55  F   UNL A   1      40.997  35.599  38.821  1.00  0.00    -0.200 F 
ATOM     56  C   UNL A   1      43.280  34.994  38.676  1.00  0.00     0.200 A 
ATOM     57  F   UNL A   1      45.553  34.369  38.463  1.00  0.00    -0.200 F 
ATOM     58  F   UNL A   1      43.229  34.448  39.897  1.00  0.00    -0.200 F 
ENDBRANCH  24  48
BRANCH  36  59
ATOM     59  C   UNL A   1      44.034  42.299  33.008  1.00  0.00     0.064 A 
ATOM     60  C   UNL A   1      45.315  42.832  33.212  1.00  0.00     0.173 A 
ATOM     61  C   UNL A   1      42.936  43.161  33.171  1.00  0.00     0.173 A 
ATOM     62  F   UNL A   1      46.401  42.057  33.060  1.00  0.00    -0.203 F 
ATOM     63  C   UNL A   1      45.490  44.165  33.576  1.00  0.00     0.198 A 
ATOM     64  C   UNL A   1      43.116  44.504  33.490  1.00  0.00     0.198 A 
ATOM     65  F   UNL A   1      41.688  42.713  32.961  1.00  0.00    -0.203 F 
ATOM     66  F   UNL A   1      46.723  44.641  33.792  1.00  0.00    -0.200 F 
ATOM     67  C   UNL A   1      44.391  45.003  33.699  1.00  0.00     0.200 A 
ATOM     68  F   UNL A   1      42.056  45.322  33.564  1.00  0.00    -0.200 F 
ATOM     69  F   UNL A   1      44.565  46.295  34.008  1.00  0.00    -0.200 F 
ENDBRANCH  36  59
ENDBRANCH  10  11
ENDBRANCH   3   5
ENDBRANCH   2   3
ENDBRANCH   1   2
BRANCH   1  70
ATOM     70  C   UNL A   1      39.886  27.775  30.660  1.00  0.00     0.275 C 
BRANCH  70  71
ATOM     71  O   UNL A   1      38.624  27.312  31.209  1.00  0.00    -0.458 OA
BRANCH  71  72
ATOM     72  C   UNL A   1      37.775  28.212  31.788  1.00  0.00     0.340 C 
ATOM     73  O   UNL A   1      37.439  28.209  32.960  1.00  0.00    -0.246 OA
BRANCH  72  74
ATOM     74  C   UNL A   1      37.470  29.325  30.833  1.00  0.00     0.084 A 
ATOM     75  C   UNL A   1      36.741  29.026  29.653  1.00  0.00     0.033 A 
ATOM     76  C   UNL A   1      37.695  30.689  31.052  1.00  0.00     0.053 A 
ATOM     77  C   UNL A   1      36.179  30.014  28.753  1.00  0.00     0.019 A 
ATOM     78  C   UNL A   1      37.074  31.867  29.935  1.00  0.00    -0.016 A 
ATOM     79  N   UNL A   1      38.483  31.082  32.546  1.00  0.00    -0.377 N 
ATOM     80  Br  UNL A   1      35.063  29.380  27.336  1.00  0.00    -0.051 Br
ATOM     81  C   UNL A   1      36.307  31.415  28.876  1.00  0.00     0.022 A 
ATOM     82  C   UNL A   1      36.928  33.814  30.279  1.00  0.00     0.049 C 
ATOM     83  C   UNL A   1      38.720  32.765  33.247  1.00  0.00     0.114 C 
ATOM     84  H   UNL A   1      38.840  30.329  33.070  1.00  0.00     0.161 HD
ATOM     85  C   UNL A   1      37.881  34.324  32.359  1.00  0.00     0.031 C 
ATOM     86  C   UNL A   1      38.230  34.484  29.089  1.00  0.00    -0.023 C 
ATOM     87  C   UNL A   1      39.642  34.904  31.604  1.00  0.00     0.034 C 
ATOM     88  C   UNL A   1      39.432  34.945  29.704  1.00  0.00    -0.030 C 
BRANCH  83  89
ATOM     89  C   UNL A   1      38.632  32.856  34.764  1.00  0.00    -0.019 A 
ATOM     90  C   UNL A   1      37.445  33.137  35.449  1.00  0.00     0.006 A 
ATOM     91  C   UNL A   1      39.732  32.476  35.549  1.00  0.00     0.091 A 
ATOM     92  C   UNL A   1      37.404  33.101  36.859  1.00  0.00     0.007 A 
ATOM     93  C   UNL A   1      39.732  32.550  36.941  1.00  0.00     0.269 A 
ATOM     94  C   UNL A   1      38.557  32.851  37.613  1.00  0.00     0.085 A 
BRANCH  93  95
ATOM     95  N   UNL A   1      41.009  32.355  37.648  1.00  0.00     0.062 N 
ATOM     96  O   UNL A   1      40.986  32.328  38.884  1.00  0.00    -0.258 OA
ATOM     97  O   UNL A   1      42.039  32.271  36.960  1.00  0.00    -0.258 OA
ENDBRANCH  93  95
ENDBRANCH  83  89
ENDBRANCH  72  74
ENDBRANCH  71  72
ENDBRANCH  70  71
ENDBRANCH   1  70
TORSDOF 13
ENDMDL
