MODEL 1
REMARK VINA RESULT:     -11.2      0.000      0.000
REMARK SMILES COc1cc(/C=N/NC(=O)c2cccnc2)ccc1OCC(=O)OCCOC(=O)c1ccc(-c2c3nc(c(-c4c(F)c(F)c(F)c(F)c4F)c4ccc([nH]4)c(-c4c(F)c(F)c(F)c(F)c4F)c4nc(c(-c5c(F)c(F)c(F)c(F)c5F)c5ccc2[nH]5)C=C4)C=C3)cc1
REMARK SMILES IDX 24 1 22 2 23 3 21 4 20 5 19 6 3 7 4 8 5 9 18 10 17 11 2 12
REMARK SMILES IDX 1 13 6 14 7 15 8 16 9 17 10 19 11 20 12 21 16 22 13 23 15 24
REMARK SMILES IDX 14 25 25 26 26 27 27 28 28 29 29 30 30 31 31 32 92 33 32 34
REMARK SMILES IDX 91 35 33 36 34 37 35 38 85 39 36 40 90 41 84 42 86 43 37 44
REMARK SMILES IDX 89 45 83 46 82 47 38 49 70 50 50 51 69 52 51 53 54 54 68 55
REMARK SMILES IDX 87 56 52 57 53 58 67 60 88 61 55 62 39 63 40 64 48 65 41 66
REMARK SMILES IDX 42 67 46 68 49 69 43 70 44 71 47 72 45 73 71 74 72 75 80 76
REMARK SMILES IDX 73 77 74 78 78 79 81 80 75 81 76 82 79 83 77 84 56 85 57 86
REMARK SMILES IDX 65 87 58 88 59 89 63 90 66 91 60 92 61 93 64 94 62 95
REMARK H PARENT 8 18 86 48 54 59
REMARK Flexibility Score: inf
ROOT
ATOM      1  O   UNL A   1      34.167  35.220  28.869  1.00  0.00    -0.460 OA
ENDROOT
BRANCH   1   2
ATOM      2  C   UNL A   1      33.461  34.166  28.387  1.00  0.00     0.344 C 
ATOM      3  O   UNL A   1      32.283  34.225  28.044  1.00  0.00    -0.248 OA
BRANCH   2   4
ATOM      4  C   UNL A   1      34.273  32.859  28.278  1.00  0.00     0.352 C 
BRANCH   4   5
ATOM      5  O   UNL A   1      34.389  31.960  27.201  1.00  0.00    -0.478 OA
BRANCH   5   6
ATOM      6  C   UNL A   1      33.822  30.725  27.269  1.00  0.00     0.162 A 
ATOM      7  C   UNL A   1      34.479  29.487  27.259  1.00  0.00     0.161 A 
ATOM      8  C   UNL A   1      33.725  28.297  27.163  1.00  0.00     0.060 A 
ATOM      9  C   UNL A   1      32.329  28.357  27.057  1.00  0.00    -0.002 A 
ATOM     10  C   UNL A   1      32.431  30.764  27.122  1.00  0.00     0.051 A 
ATOM     11  C   UNL A   1      31.684  29.594  27.020  1.00  0.00     0.014 A 
BRANCH   7  12
ATOM     12  O   UNL A   1      35.831  29.374  27.052  1.00  0.00    -0.493 OA
ATOM     13  C   UNL A   1      36.615  29.389  28.234  1.00  0.00     0.278 C 
ENDBRANCH   7  12
BRANCH   9  14
ATOM     14  C   UNL A   1      31.463  27.172  26.881  1.00  0.00     0.141 C 
ATOM     15  N   UNL A   1      31.908  25.955  26.808  1.00  0.00    -0.180 NA
BRANCH  15  16
ATOM     16  N   UNL A   1      30.970  24.994  26.506  1.00  0.00    -0.243 N 
ATOM     17  C   UNL A   1      31.154  23.651  26.198  1.00  0.00     0.272 C 
ATOM     18  H   UNL A   1      30.035  25.301  26.509  1.00  0.00     0.194 HD
ATOM     19  O   UNL A   1      30.213  22.963  25.807  1.00  0.00    -0.267 OA
BRANCH  17  20
ATOM     20  C   UNL A   1      32.479  23.017  26.343  1.00  0.00     0.059 A 
ATOM     21  C   UNL A   1      32.961  22.540  27.562  1.00  0.00     0.017 A 
ATOM     22  C   UNL A   1      33.289  22.886  25.222  1.00  0.00     0.124 A 
ATOM     23  C   UNL A   1      34.252  22.020  27.629  1.00  0.00     0.021 A 
ATOM     24  N   UNL A   1      34.553  22.392  25.262  1.00  0.00    -0.264 NA
ATOM     25  C   UNL A   1      35.005  21.977  26.465  1.00  0.00     0.111 A 
ENDBRANCH  17  20
ENDBRANCH  15  16
ENDBRANCH   9  14
ENDBRANCH   5   6
ENDBRANCH   4   5
ENDBRANCH   2   4
ENDBRANCH   1   2
BRANCH   1  26
ATOM     26  C   UNL A   1      33.490  36.496  28.805  1.00  0.00     0.274 C 
BRANCH  26  27
ATOM     27  C   UNL A   1      33.278  37.035  30.221  1.00  0.00     0.275 C 
BRANCH  27  28
ATOM     28  O   UNL A   1      32.317  36.199  30.890  1.00  0.00    -0.458 OA
BRANCH  28  29
ATOM     29  C   UNL A   1      32.441  36.113  32.238  1.00  0.00     0.338 C 
ATOM     30  O   UNL A   1      31.661  36.575  33.061  1.00  0.00    -0.246 OA
BRANCH  29  31
ATOM     31  C   UNL A   1      33.643  35.303  32.592  1.00  0.00     0.060 A 
ATOM     32  C   UNL A   1      33.520  33.964  32.954  1.00  0.00     0.016 A 
ATOM     33  C   UNL A   1      34.911  35.886  32.623  1.00  0.00     0.016 A 
ATOM     34  C   UNL A   1      34.606  33.264  33.480  1.00  0.00     0.010 A 
ATOM     35  C   UNL A   1      36.032  35.130  33.014  1.00  0.00     0.010 A 
ATOM     36  C   UNL A   1      35.896  33.807  33.471  1.00  0.00    -0.014 A 
BRANCH  36  37
ATOM     37  C   UNL A   1      37.071  32.981  33.906  1.00  0.00     0.031 A 
ATOM     38  C   UNL A   1      37.681  33.157  35.276  1.00  0.00     0.074 A 
ATOM     39  C   UNL A   1      37.606  32.053  33.081  1.00  0.00     0.049 A 
ATOM     40  N   UNL A   1      38.831  32.721  35.734  1.00  0.00    -0.248 NA
ATOM     41  C   UNL A   1      36.908  33.936  36.253  1.00  0.00     0.031 C 
ATOM     42  C   UNL A   1      37.116  31.721  31.741  1.00  0.00     0.029 A 
ATOM     43  N   UNL A   1      38.680  31.206  33.247  1.00  0.00    -0.354 N 
ATOM     44  C   UNL A   1      38.954  33.239  37.017  1.00  0.00     0.074 A 
ATOM     45  C   UNL A   1      37.753  34.009  37.273  1.00  0.00     0.031 C 
ATOM     46  C   UNL A   1      37.826  30.701  31.244  1.00  0.00     0.029 A 
ATOM     47  C   UNL A   1      38.918  30.399  32.159  1.00  0.00     0.049 A 
ATOM     48  H   UNL A   1      39.224  31.181  34.067  1.00  0.00     0.167 HD
ATOM     49  C   UNL A   1      39.979  33.095  37.894  1.00  0.00     0.037 A 
ATOM     50  C   UNL A   1      39.934  29.558  31.878  1.00  0.00     0.037 A 
ATOM     51  C   UNL A   1      41.143  32.274  37.663  1.00  0.00     0.049 A 
ATOM     52  C   UNL A   1      41.070  29.434  32.848  1.00  0.00     0.074 A 
ATOM     53  C   UNL A   1      42.235  32.065  38.490  1.00  0.00     0.029 A 
ATOM     54  N   UNL A   1      41.357  31.505  36.527  1.00  0.00    -0.354 N 
ATOM     55  N   UNL A   1      41.227  30.013  34.014  1.00  0.00    -0.248 NA
ATOM     56  C   UNL A   1      42.188  28.570  32.449  1.00  0.00     0.031 C 
ATOM     57  C   UNL A   1      43.124  31.201  37.840  1.00  0.00     0.029 A 
ATOM     58  C   UNL A   1      42.565  30.832  36.628  1.00  0.00     0.049 A 
ATOM     59  H   UNL A   1      40.740  31.446  35.761  1.00  0.00     0.167 HD
ATOM     60  C   UNL A   1      42.459  29.588  34.486  1.00  0.00     0.074 A 
ATOM     61  C   UNL A   1      42.996  28.677  33.496  1.00  0.00     0.031 C 
ATOM     62  C   UNL A   1      43.093  29.933  35.632  1.00  0.00     0.037 A 
BRANCH  49  63
ATOM     63  C   UNL A   1      39.920  33.889  39.171  1.00  0.00     0.064 A 
ATOM     64  C   UNL A   1      39.301  33.402  40.330  1.00  0.00     0.173 A 
ATOM     65  C   UNL A   1      40.525  35.156  39.236  1.00  0.00     0.173 A 
ATOM     66  F   UNL A   1      38.702  32.201  40.321  1.00  0.00    -0.203 F 
ATOM     67  C   UNL A   1      39.257  34.165  41.495  1.00  0.00     0.198 A 
ATOM     68  C   UNL A   1      40.507  35.903  40.411  1.00  0.00     0.198 A 
ATOM     69  F   UNL A   1      41.144  35.667  38.161  1.00  0.00    -0.203 F 
ATOM     70  F   UNL A   1      38.615  33.700  42.575  1.00  0.00    -0.200 F 
ATOM     71  C   UNL A   1      39.865  35.412  41.537  1.00  0.00     0.200 A 
ATOM     72  F   UNL A   1      41.109  37.101  40.453  1.00  0.00    -0.200 F 
ATOM     73  F   UNL A   1      39.826  36.142  42.660  1.00  0.00    -0.200 F 
ENDBRANCH  49  63
BRANCH  50  74
ATOM     74  C   UNL A   1      39.947  28.828  30.581  1.00  0.00     0.064 A 
ATOM     75  C   UNL A   1      39.365  27.559  30.459  1.00  0.00     0.173 A 
ATOM     76  C   UNL A   1      40.513  29.398  29.429  1.00  0.00     0.173 A 
ATOM     77  F   UNL A   1      38.840  26.957  31.536  1.00  0.00    -0.203 F 
ATOM     78  C   UNL A   1      39.341  26.893  29.235  1.00  0.00     0.198 A 
ATOM     79  C   UNL A   1      40.455  28.748  28.199  1.00  0.00     0.198 A 
ATOM     80  F   UNL A   1      41.087  30.609  29.492  1.00  0.00    -0.203 F 
ATOM     81  F   UNL A   1      38.805  25.668  29.151  1.00  0.00    -0.200 F 
ATOM     82  C   UNL A   1      39.873  27.494  28.103  1.00  0.00     0.200 A 
ATOM     83  F   UNL A   1      40.951  29.345  27.106  1.00  0.00    -0.200 F 
ATOM     84  F   UNL A   1      39.826  26.865  26.921  1.00  0.00    -0.200 F 
ENDBRANCH  50  74
BRANCH  62  85
ATOM     85  C   UNL A   1      44.430  29.302  35.883  1.00  0.00     0.064 A 
ATOM     86  C   UNL A   1      45.620  29.910  35.456  1.00  0.00     0.173 A 
ATOM     87  C   UNL A   1      44.523  28.078  36.562  1.00  0.00     0.173 A 
ATOM     88  F   UNL A   1      45.581  31.069  34.783  1.00  0.00    -0.203 F 
ATOM     89  C   UNL A   1      46.853  29.302  35.676  1.00  0.00     0.198 A 
ATOM     90  C   UNL A   1      45.760  27.486  36.804  1.00  0.00     0.198 A 
ATOM     91  F   UNL A   1      43.414  27.457  36.992  1.00  0.00    -0.203 F 
ATOM     92  F   UNL A   1      47.973  29.874  35.214  1.00  0.00    -0.200 F 
ATOM     93  C   UNL A   1      46.922  28.093  36.354  1.00  0.00     0.200 A 
ATOM     94  F   UNL A   1      45.826  26.322  37.466  1.00  0.00    -0.200 F 
ATOM     95  F   UNL A   1      48.109  27.508  36.563  1.00  0.00    -0.200 F 
ENDBRANCH  62  85
ENDBRANCH  36  37
ENDBRANCH  29  31
ENDBRANCH  28  29
ENDBRANCH  27  28
ENDBRANCH  26  27
ENDBRANCH   1  26
TORSDOF 17
ENDMDL
MODEL 2
REMARK VINA RESULT:     -11.1      4.511     10.730
REMARK SMILES COc1cc(/C=N/NC(=O)c2cccnc2)ccc1OCC(=O)OCCOC(=O)c1ccc(-c2c3nc(c(-c4c(F)c(F)c(F)c(F)c4F)c4ccc([nH]4)c(-c4c(F)c(F)c(F)c(F)c4F)c4nc(c(-c5c(F)c(F)c(F)c(F)c5F)c5ccc2[nH]5)C=C4)C=C3)cc1
REMARK SMILES IDX 24 1 22 2 23 3 21 4 20 5 19 6 3 7 4 8 5 9 18 10 17 11 2 12
REMARK SMILES IDX 1 13 6 14 7 15 8 16 9 17 10 19 11 20 12 21 16 22 13 23 15 24
REMARK SMILES IDX 14 25 25 26 26 27 27 28 28 29 29 30 30 31 31 32 92 33 32 34
REMARK SMILES IDX 91 35 33 36 34 37 35 38 85 39 36 40 90 41 84 42 86 43 37 44
REMARK SMILES IDX 89 45 83 46 82 47 38 49 70 50 50 51 69 52 51 53 54 54 68 55
REMARK SMILES IDX 87 56 52 57 53 58 67 60 88 61 55 62 39 63 40 64 48 65 41 66
REMARK SMILES IDX 42 67 46 68 49 69 43 70 44 71 47 72 45 73 71 74 72 75 80 76
REMARK SMILES IDX 73 77 74 78 78 79 81 80 75 81 76 82 79 83 77 84 56 85 57 86
REMARK SMILES IDX 65 87 58 88 59 89 63 90 66 91 60 92 61 93 64 94 62 95
REMARK H PARENT 8 18 86 48 54 59
REMARK Flexibility Score: inf
ROOT
ATOM      1  O   UNL A   1      43.787  20.117  24.619  1.00  0.00    -0.460 OA
ENDROOT
BRANCH   1   2
ATOM      2  C   UNL A   1      43.503  19.007  25.346  1.00  0.00     0.344 C 
ATOM      3  O   UNL A   1      44.261  18.045  25.458  1.00  0.00    -0.248 OA
BRANCH   2   4
ATOM      4  C   UNL A   1      42.137  19.050  26.058  1.00  0.00     0.352 C 
BRANCH   4   5
ATOM      5  O   UNL A   1      41.484  20.127  26.688  1.00  0.00    -0.478 OA
BRANCH   5   6
ATOM      6  C   UNL A   1      40.313  20.609  26.191  1.00  0.00     0.162 A 
ATOM      7  C   UNL A   1      39.767  21.885  26.390  1.00  0.00     0.161 A 
ATOM      8  C   UNL A   1      38.458  22.162  25.941  1.00  0.00     0.060 A 
ATOM      9  C   UNL A   1      37.701  21.159  25.320  1.00  0.00    -0.002 A 
ATOM     10  C   UNL A   1      39.527  19.611  25.605  1.00  0.00     0.051 A 
ATOM     11  C   UNL A   1      38.233  19.877  25.168  1.00  0.00     0.014 A 
BRANCH   7  12
ATOM     12  O   UNL A   1      40.327  22.798  27.247  1.00  0.00    -0.493 OA
ATOM     13  C   UNL A   1      39.979  24.148  26.986  1.00  0.00     0.278 C 
ENDBRANCH   7  12
BRANCH   9  14
ATOM     14  C   UNL A   1      36.300  21.333  24.883  1.00  0.00     0.141 C 
ATOM     15  N   UNL A   1      35.407  20.392  24.925  1.00  0.00    -0.180 NA
BRANCH  15  16
ATOM     16  N   UNL A   1      34.193  20.695  24.350  1.00  0.00    -0.243 N 
ATOM     17  C   UNL A   1      33.170  19.842  23.955  1.00  0.00     0.272 C 
ATOM     18  H   UNL A   1      34.026  21.653  24.197  1.00  0.00     0.194 HD
ATOM     19  O   UNL A   1      32.208  20.270  23.319  1.00  0.00    -0.267 OA
BRANCH  17  20
ATOM     20  C   UNL A   1      33.206  18.407  24.298  1.00  0.00     0.059 A 
ATOM     21  C   UNL A   1      32.791  17.912  25.534  1.00  0.00     0.017 A 
ATOM     22  C   UNL A   1      33.676  17.501  23.355  1.00  0.00     0.124 A 
ATOM     23  C   UNL A   1      32.925  16.552  25.806  1.00  0.00     0.021 A 
ATOM     24  N   UNL A   1      33.826  16.174  23.597  1.00  0.00    -0.264 NA
ATOM     25  C   UNL A   1      33.452  15.733  24.819  1.00  0.00     0.111 A 
ENDBRANCH  17  20
ENDBRANCH  15  16
ENDBRANCH   9  14
ENDBRANCH   5   6
ENDBRANCH   4   5
ENDBRANCH   2   4
ENDBRANCH   1   2
BRANCH   1  26
ATOM     26  C   UNL A   1      44.652  21.076  25.270  1.00  0.00     0.274 C 
BRANCH  26  27
ATOM     27  C   UNL A   1      44.000  22.459  25.238  1.00  0.00     0.275 C 
BRANCH  27  28
ATOM     28  O   UNL A   1      44.766  23.346  26.074  1.00  0.00    -0.458 OA
BRANCH  28  29
ATOM     29  C   UNL A   1      44.677  24.667  25.777  1.00  0.00     0.338 C 
ATOM     30  O   UNL A   1      45.024  25.190  24.726  1.00  0.00    -0.246 OA
BRANCH  29  31
ATOM     31  C   UNL A   1      44.021  25.400  26.898  1.00  0.00     0.060 A 
ATOM     32  C   UNL A   1      43.898  26.787  26.868  1.00  0.00     0.016 A 
ATOM     33  C   UNL A   1      43.566  24.717  28.028  1.00  0.00     0.016 A 
ATOM     34  C   UNL A   1      43.474  27.491  27.996  1.00  0.00     0.010 A 
ATOM     35  C   UNL A   1      43.000  25.423  29.106  1.00  0.00     0.010 A 
ATOM     36  C   UNL A   1      42.964  26.829  29.119  1.00  0.00    -0.014 A 
BRANCH  36  37
ATOM     37  C   UNL A   1      42.380  27.608  30.260  1.00  0.00     0.031 A 
ATOM     38  C   UNL A   1      41.063  28.332  30.115  1.00  0.00     0.074 A 
ATOM     39  C   UNL A   1      43.018  27.674  31.450  1.00  0.00     0.049 A 
ATOM     40  N   UNL A   1      40.528  29.245  30.891  1.00  0.00    -0.248 NA
ATOM     41  C   UNL A   1      40.248  28.001  28.937  1.00  0.00     0.031 C 
ATOM     42  C   UNL A   1      44.277  27.000  31.779  1.00  0.00     0.029 A 
ATOM     43  N   UNL A   1      42.696  28.334  32.615  1.00  0.00    -0.354 N 
ATOM     44  C   UNL A   1      39.361  29.652  30.257  1.00  0.00     0.074 A 
ATOM     45  C   UNL A   1      39.255  28.875  29.038  1.00  0.00     0.031 C 
ATOM     46  C   UNL A   1      44.575  27.212  33.067  1.00  0.00     0.029 A 
ATOM     47  C   UNL A   1      43.616  28.157  33.622  1.00  0.00     0.049 A 
ATOM     48  H   UNL A   1      41.883  28.879  32.717  1.00  0.00     0.167 HD
ATOM     49  C   UNL A   1      38.469  30.595  30.649  1.00  0.00     0.037 A 
ATOM     50  C   UNL A   1      43.734  28.734  34.834  1.00  0.00     0.037 A 
ATOM     51  C   UNL A   1      38.540  31.320  31.895  1.00  0.00     0.049 A 
ATOM     52  C   UNL A   1      42.753  29.793  35.237  1.00  0.00     0.074 A 
ATOM     53  C   UNL A   1      37.684  32.295  32.381  1.00  0.00     0.029 A 
ATOM     54  N   UNL A   1      39.515  31.133  32.865  1.00  0.00    -0.354 N 
ATOM     55  N   UNL A   1      41.712  30.248  34.582  1.00  0.00    -0.248 NA
ATOM     56  C   UNL A   1      42.982  30.449  36.532  1.00  0.00     0.031 C 
ATOM     57  C   UNL A   1      38.160  32.722  33.626  1.00  0.00     0.029 A 
ATOM     58  C   UNL A   1      39.287  31.980  33.939  1.00  0.00     0.049 A 
ATOM     59  H   UNL A   1      40.259  30.490  32.800  1.00  0.00     0.167 HD
ATOM     60  C   UNL A   1      41.165  31.241  35.379  1.00  0.00     0.074 A 
ATOM     61  C   UNL A   1      41.969  31.303  36.583  1.00  0.00     0.031 C 
ATOM     62  C   UNL A   1      40.099  32.038  35.129  1.00  0.00     0.037 A 
BRANCH  49  63
ATOM     63  C   UNL A   1      37.359  30.944  29.695  1.00  0.00     0.064 A 
ATOM     64  C   UNL A   1      36.272  30.090  29.461  1.00  0.00     0.173 A 
ATOM     65  C   UNL A   1      37.377  32.178  29.021  1.00  0.00     0.173 A 
ATOM     66  F   UNL A   1      36.209  28.897  30.073  1.00  0.00    -0.203 F 
ATOM     67  C   UNL A   1      35.263  30.440  28.566  1.00  0.00     0.198 A 
ATOM     68  C   UNL A   1      36.352  32.538  28.150  1.00  0.00     0.198 A 
ATOM     69  F   UNL A   1      38.386  33.040  29.215  1.00  0.00    -0.203 F 
ATOM     70  F   UNL A   1      34.261  29.585  28.321  1.00  0.00    -0.200 F 
ATOM     71  C   UNL A   1      35.301  31.665  27.915  1.00  0.00     0.200 A 
ATOM     72  F   UNL A   1      36.382  33.729  27.536  1.00  0.00    -0.200 F 
ATOM     73  F   UNL A   1      34.327  32.001  27.058  1.00  0.00    -0.200 F 
ENDBRANCH  49  63
BRANCH  50  74
ATOM     74  C   UNL A   1      44.875  28.368  35.717  1.00  0.00     0.064 A 
ATOM     75  C   UNL A   1      44.809  27.248  36.557  1.00  0.00     0.173 A 
ATOM     76  C   UNL A   1      46.068  29.110  35.713  1.00  0.00     0.173 A 
ATOM     77  F   UNL A   1      43.681  26.525  36.621  1.00  0.00    -0.203 F 
ATOM     78  C   UNL A   1      45.893  26.881  37.353  1.00  0.00     0.198 A 
ATOM     79  C   UNL A   1      47.162  28.720  36.480  1.00  0.00     0.198 A 
ATOM     80  F   UNL A   1      46.182  30.193  34.930  1.00  0.00    -0.203 F 
ATOM     81  F   UNL A   1      45.794  25.823  38.169  1.00  0.00    -0.200 F 
ATOM     82  C   UNL A   1      47.073  27.608  37.303  1.00  0.00     0.200 A 
ATOM     83  F   UNL A   1      48.307  29.414  36.409  1.00  0.00    -0.200 F 
ATOM     84  F   UNL A   1      48.124  27.238  38.047  1.00  0.00    -0.200 F 
ENDBRANCH  50  74
BRANCH  62  85
ATOM     85  C   UNL A   1      39.731  33.031  36.192  1.00  0.00     0.064 A 
ATOM     86  C   UNL A   1      38.760  32.741  37.162  1.00  0.00     0.173 A 
ATOM     87  C   UNL A   1      40.361  34.283  36.244  1.00  0.00     0.173 A 
ATOM     88  F   UNL A   1      38.115  31.565  37.140  1.00  0.00    -0.203 F 
ATOM     89  C   UNL A   1      38.414  33.680  38.130  1.00  0.00     0.198 A 
ATOM     90  C   UNL A   1      40.030  35.209  37.229  1.00  0.00     0.198 A 
ATOM     91  F   UNL A   1      41.297  34.608  35.339  1.00  0.00    -0.203 F 
ATOM     92  F   UNL A   1      37.447  33.402  39.015  1.00  0.00    -0.200 F 
ATOM     93  C   UNL A   1      39.052  34.911  38.165  1.00  0.00     0.200 A 
ATOM     94  F   UNL A   1      40.653  36.396  37.267  1.00  0.00    -0.200 F 
ATOM     95  F   UNL A   1      38.717  35.815  39.096  1.00  0.00    -0.200 F 
ENDBRANCH  62  85
ENDBRANCH  36  37
ENDBRANCH  29  31
ENDBRANCH  28  29
ENDBRANCH  27  28
ENDBRANCH  26  27
ENDBRANCH   1  26
TORSDOF 17
ENDMDL
MODEL 3
REMARK VINA RESULT:     -11.0      7.281     13.077
REMARK SMILES COc1cc(/C=N/NC(=O)c2cccnc2)ccc1OCC(=O)OCCOC(=O)c1ccc(-c2c3nc(c(-c4c(F)c(F)c(F)c(F)c4F)c4ccc([nH]4)c(-c4c(F)c(F)c(F)c(F)c4F)c4nc(c(-c5c(F)c(F)c(F)c(F)c5F)c5ccc2[nH]5)C=C4)C=C3)cc1
REMARK SMILES IDX 24 1 22 2 23 3 21 4 20 5 19 6 3 7 4 8 5 9 18 10 17 11 2 12
REMARK SMILES IDX 1 13 6 14 7 15 8 16 9 17 10 19 11 20 12 21 16 22 13 23 15 24
REMARK SMILES IDX 14 25 25 26 26 27 27 28 28 29 29 30 30 31 31 32 92 33 32 34
REMARK SMILES IDX 91 35 33 36 34 37 35 38 85 39 36 40 90 41 84 42 86 43 37 44
REMARK SMILES IDX 89 45 83 46 82 47 38 49 70 50 50 51 69 52 51 53 54 54 68 55
REMARK SMILES IDX 87 56 52 57 53 58 67 60 88 61 55 62 39 63 40 64 48 65 41 66
REMARK SMILES IDX 42 67 46 68 49 69 43 70 44 71 47 72 45 73 71 74 72 75 80 76
REMARK SMILES IDX 73 77 74 78 78 79 81 80 75 81 76 82 79 83 77 84 56 85 57 86
REMARK SMILES IDX 65 87 58 88 59 89 63 90 66 91 60 92 61 93 64 94 62 95
REMARK H PARENT 8 18 86 48 54 59
REMARK Flexibility Score: inf
ROOT
ATOM      1  O   UNL A   1      42.523  20.301  26.985  1.00  0.00    -0.460 OA
ENDROOT
BRANCH   1   2
ATOM      2  C   UNL A   1      41.648  21.004  26.223  1.00  0.00     0.344 C 
ATOM      3  O   UNL A   1      41.979  21.864  25.410  1.00  0.00    -0.248 OA
BRANCH   2   4
ATOM      4  C   UNL A   1      40.171  20.619  26.441  1.00  0.00     0.352 C 
BRANCH   4   5
ATOM      5  O   UNL A   1      39.148  20.407  25.497  1.00  0.00    -0.478 OA
BRANCH   5   6
ATOM      6  C   UNL A   1      38.113  21.284  25.393  1.00  0.00     0.162 A 
ATOM      7  C   UNL A   1      38.083  22.618  25.823  1.00  0.00     0.161 A 
ATOM      8  C   UNL A   1      36.867  23.334  25.792  1.00  0.00     0.060 A 
ATOM      9  C   UNL A   1      35.693  22.707  25.353  1.00  0.00    -0.002 A 
ATOM     10  C   UNL A   1      36.922  20.665  24.996  1.00  0.00     0.051 A 
ATOM     11  C   UNL A   1      35.720  21.365  24.971  1.00  0.00     0.014 A 
BRANCH   7  12
ATOM     12  O   UNL A   1      39.108  23.181  26.540  1.00  0.00    -0.493 OA
ATOM     13  C   UNL A   1      38.894  24.531  26.920  1.00  0.00     0.278 C 
ENDBRANCH   7  12
BRANCH   9  14
ATOM     14  C   UNL A   1      34.363  23.352  25.353  1.00  0.00     0.141 C 
ATOM     15  N   UNL A   1      34.124  24.518  25.869  1.00  0.00    -0.180 NA
BRANCH  15  16
ATOM     16  N   UNL A   1      32.802  24.899  25.899  1.00  0.00    -0.243 N 
ATOM     17  C   UNL A   1      32.171  25.941  25.229  1.00  0.00     0.272 C 
ATOM     18  H   UNL A   1      32.219  24.356  26.477  1.00  0.00     0.194 HD
ATOM     19  O   UNL A   1      31.004  26.234  25.484  1.00  0.00    -0.267 OA
BRANCH  17  20
ATOM     20  C   UNL A   1      32.880  26.711  24.189  1.00  0.00     0.059 A 
ATOM     21  C   UNL A   1      33.366  28.002  24.401  1.00  0.00     0.017 A 
ATOM     22  C   UNL A   1      33.076  26.135  22.940  1.00  0.00     0.124 A 
ATOM     23  C   UNL A   1      33.960  28.689  23.344  1.00  0.00     0.021 A 
ATOM     24  N   UNL A   1      33.642  26.786  21.892  1.00  0.00    -0.264 NA
ATOM     25  C   UNL A   1      34.066  28.049  22.119  1.00  0.00     0.111 A 
ENDBRANCH  17  20
ENDBRANCH  15  16
ENDBRANCH   9  14
ENDBRANCH   5   6
ENDBRANCH   4   5
ENDBRANCH   2   4
ENDBRANCH   1   2
BRANCH   1  26
ATOM     26  C   UNL A   1      42.516  18.870  26.773  1.00  0.00     0.274 C 
BRANCH  26  27
ATOM     27  C   UNL A   1      42.939  18.564  25.335  1.00  0.00     0.275 C 
BRANCH  27  28
ATOM     28  O   UNL A   1      44.376  18.598  25.264  1.00  0.00    -0.458 OA
BRANCH  28  29
ATOM     29  C   UNL A   1      44.903  19.255  24.200  1.00  0.00     0.338 C 
ATOM     30  O   UNL A   1      45.129  18.770  23.099  1.00  0.00    -0.246 OA
BRANCH  29  31
ATOM     31  C   UNL A   1      45.108  20.693  24.536  1.00  0.00     0.060 A 
ATOM     32  C   UNL A   1      45.640  21.071  25.766  1.00  0.00     0.016 A 
ATOM     33  C   UNL A   1      44.718  21.696  23.645  1.00  0.00     0.016 A 
ATOM     34  C   UNL A   1      45.643  22.409  26.162  1.00  0.00     0.010 A 
ATOM     35  C   UNL A   1      44.862  23.052  23.992  1.00  0.00     0.010 A 
ATOM     36  C   UNL A   1      45.309  23.434  25.270  1.00  0.00    -0.014 A 
BRANCH  36  37
ATOM     37  C   UNL A   1      45.459  24.871  25.673  1.00  0.00     0.031 A 
ATOM     38  C   UNL A   1      46.771  25.596  25.495  1.00  0.00     0.074 A 
ATOM     39  C   UNL A   1      44.418  25.553  26.201  1.00  0.00     0.049 A 
ATOM     40  N   UNL A   1      47.161  26.741  26.002  1.00  0.00    -0.248 NA
ATOM     41  C   UNL A   1      47.782  24.944  24.651  1.00  0.00     0.031 C 
ATOM     42  C   UNL A   1      43.067  25.022  26.403  1.00  0.00     0.029 A 
ATOM     43  N   UNL A   1      44.323  26.849  26.659  1.00  0.00    -0.354 N 
ATOM     44  C   UNL A   1      48.483  26.906  25.607  1.00  0.00     0.074 A 
ATOM     45  C   UNL A   1      48.825  25.750  24.803  1.00  0.00     0.031 C 
ATOM     46  C   UNL A   1      42.268  25.992  26.864  1.00  0.00     0.029 A 
ATOM     47  C   UNL A   1      43.074  27.176  27.133  1.00  0.00     0.049 A 
ATOM     48  H   UNL A   1      45.077  27.480  26.646  1.00  0.00     0.167 HD
ATOM     49  C   UNL A   1      49.335  27.921  25.899  1.00  0.00     0.037 A 
ATOM     50  C   UNL A   1      42.624  28.268  27.782  1.00  0.00     0.037 A 
ATOM     51  C   UNL A   1      48.973  29.103  26.643  1.00  0.00     0.049 A 
ATOM     52  C   UNL A   1      43.587  29.367  28.118  1.00  0.00     0.074 A 
ATOM     53  C   UNL A   1      49.765  30.185  26.991  1.00  0.00     0.029 A 
ATOM     54  N   UNL A   1      47.703  29.370  27.138  1.00  0.00    -0.354 N 
ATOM     55  N   UNL A   1      44.863  29.462  27.832  1.00  0.00    -0.248 NA
ATOM     56  C   UNL A   1      43.060  30.492  28.900  1.00  0.00     0.031 C 
ATOM     57  C   UNL A   1      48.986  31.088  27.724  1.00  0.00     0.029 A 
ATOM     58  C   UNL A   1      47.695  30.591  27.794  1.00  0.00     0.049 A 
ATOM     59  H   UNL A   1      46.922  28.777  27.035  1.00  0.00     0.167 HD
ATOM     60  C   UNL A   1      45.291  30.652  28.400  1.00  0.00     0.074 A 
ATOM     61  C   UNL A   1      44.133  31.262  29.020  1.00  0.00     0.031 C 
ATOM     62  C   UNL A   1      46.537  31.184  28.415  1.00  0.00     0.037 A 
BRANCH  49  63
ATOM     63  C   UNL A   1      50.767  27.776  25.460  1.00  0.00     0.064 A 
ATOM     64  C   UNL A   1      51.184  28.056  24.152  1.00  0.00     0.173 A 
ATOM     65  C   UNL A   1      51.745  27.374  26.386  1.00  0.00     0.173 A 
ATOM     66  F   UNL A   1      50.289  28.438  23.226  1.00  0.00    -0.203 F 
ATOM     67  C   UNL A   1      52.517  27.906  23.776  1.00  0.00     0.198 A 
ATOM     68  C   UNL A   1      53.082  27.254  26.015  1.00  0.00     0.198 A 
ATOM     69  F   UNL A   1      51.406  27.105  27.656  1.00  0.00    -0.203 F 
ATOM     70  F   UNL A   1      52.882  28.131  22.506  1.00  0.00    -0.200 F 
ATOM     71  C   UNL A   1      53.466  27.511  24.708  1.00  0.00     0.200 A 
ATOM     72  F   UNL A   1      53.999  26.888  26.922  1.00  0.00    -0.200 F 
ATOM     73  F   UNL A   1      54.748  27.372  24.345  1.00  0.00    -0.200 F 
ENDBRANCH  49  63
BRANCH  50  74
ATOM     74  C   UNL A   1      41.202  28.333  28.217  1.00  0.00     0.064 A 
ATOM     75  C   UNL A   1      40.809  27.862  29.477  1.00  0.00     0.173 A 
ATOM     76  C   UNL A   1      40.213  28.899  27.396  1.00  0.00     0.173 A 
ATOM     77  F   UNL A   1      41.709  27.283  30.286  1.00  0.00    -0.203 F 
ATOM     78  C   UNL A   1      39.484  27.960  29.901  1.00  0.00     0.198 A 
ATOM     79  C   UNL A   1      38.899  29.031  27.836  1.00  0.00     0.198 A 
ATOM     80  F   UNL A   1      40.535  29.362  26.179  1.00  0.00    -0.203 F 
ATOM     81  F   UNL A   1      39.129  27.475  31.098  1.00  0.00    -0.200 F 
ATOM     82  C   UNL A   1      38.534  28.558  29.087  1.00  0.00     0.200 A 
ATOM     83  F   UNL A   1      37.990  29.630  27.053  1.00  0.00    -0.200 F 
ATOM     84  F   UNL A   1      37.267  28.677  29.506  1.00  0.00    -0.200 F 
ENDBRANCH  50  74
BRANCH  62  85
ATOM     85  C   UNL A   1      46.701  32.504  29.109  1.00  0.00     0.064 A 
ATOM     86  C   UNL A   1      46.517  33.718  28.430  1.00  0.00     0.173 A 
ATOM     87  C   UNL A   1      47.039  32.555  30.469  1.00  0.00     0.173 A 
ATOM     88  F   UNL A   1      46.215  33.721  27.123  1.00  0.00    -0.203 F 
ATOM     89  C   UNL A   1      46.694  34.935  29.081  1.00  0.00     0.198 A 
ATOM     90  C   UNL A   1      47.189  33.775  31.124  1.00  0.00     0.198 A 
ATOM     91  F   UNL A   1      47.225  31.422  31.163  1.00  0.00    -0.203 F 
ATOM     92  F   UNL A   1      46.564  36.083  28.401  1.00  0.00    -0.200 F 
ATOM     93  C   UNL A   1      47.025  34.963  30.429  1.00  0.00     0.200 A 
ATOM     94  F   UNL A   1      47.502  33.800  32.427  1.00  0.00    -0.200 F 
ATOM     95  F   UNL A   1      47.196  36.135  31.054  1.00  0.00    -0.200 F 
ENDBRANCH  62  85
ENDBRANCH  36  37
ENDBRANCH  29  31
ENDBRANCH  28  29
ENDBRANCH  27  28
ENDBRANCH  26  27
ENDBRANCH   1  26
TORSDOF 17
ENDMDL
