MODEL 1
REMARK VINA RESULT:     -10.7      0.000      0.000
REMARK SMILES C[C@@H](Nc1cccc(Cl)c1)[C@@H](C)C(=O)OCCOC(=O)c1ccc(-c2c3nc(c(-c4c(F)c(F)c(F)c(F)c4F)c4ccc([nH]4)c(-c4c(F)c(F)c(F)c(F)c4F)c4nc(c(-c5c(F)c(F)c(F)c(F)c5F)c5ccc2[nH]5)C=C4)C=C3)cc1
REMARK SMILES IDX 16 1 15 2 13 3 14 4 11 5 12 6 2 7 1 8 3 9 4 11 5 12 10 13
REMARK SMILES IDX 6 14 8 15 7 16 9 17 17 18 18 19 19 20 20 21 21 22 22 23
REMARK SMILES IDX 83 24 23 25 82 26 24 27 25 28 26 29 76 30 27 31 81 32 75 33
REMARK SMILES IDX 77 34 28 35 80 36 74 37 73 38 29 40 61 41 41 42 60 43 42 44
REMARK SMILES IDX 45 45 59 46 78 47 43 48 44 49 58 51 79 52 46 53 30 54 31 55
REMARK SMILES IDX 39 56 32 57 33 58 37 59 40 60 34 61 35 62 38 63 36 64 62 65
REMARK SMILES IDX 63 66 71 67 64 68 65 69 69 70 72 71 66 72 67 73 70 74 68 75
REMARK SMILES IDX 47 76 48 77 56 78 49 79 50 80 54 81 57 82 51 83 52 84 55 85
REMARK SMILES IDX 53 86
REMARK H PARENT 3 10 77 39 45 50
REMARK Flexibility Score: inf
ROOT
ATOM      1  C   UNL A   1      43.034  22.559  24.932  1.00  0.00     0.274 C 
ENDROOT
BRANCH   1   2
ATOM      2  O   UNL A   1      42.555  21.286  25.439  1.00  0.00    -0.462 OA
BRANCH   2   3
ATOM      3  C   UNL A   1      41.395  21.282  26.160  1.00  0.00     0.310 C 
ATOM      4  O   UNL A   1      40.647  20.312  26.228  1.00  0.00    -0.252 OA
BRANCH   3   5
ATOM      5  C   UNL A   1      41.255  22.514  27.081  1.00  0.00     0.118 C 
ATOM      6  C   UNL A   1      41.745  22.161  28.487  1.00  0.00     0.022 C 
BRANCH   5   7
ATOM      7  C   UNL A   1      39.864  23.164  26.997  1.00  0.00     0.090 C 
ATOM      8  C   UNL A   1      39.886  24.693  27.155  1.00  0.00     0.031 C 
BRANCH   7   9
ATOM      9  N   UNL A   1      39.120  22.888  25.756  1.00  0.00    -0.382 N 
ATOM     10  H   UNL A   1      39.649  22.943  24.928  1.00  0.00     0.160 HD
BRANCH   9  11
ATOM     11  C   UNL A   1      37.780  22.562  25.581  1.00  0.00     0.036 A 
ATOM     12  C   UNL A   1      37.222  20.890  25.245  1.00  0.00     0.026 A 
ATOM     13  C   UNL A   1      36.665  23.934  25.602  1.00  0.00     0.046 A 
ATOM     14  C   UNL A   1      35.578  20.426  24.923  1.00  0.00     0.004 A 
ATOM     15  C   UNL A   1      34.917  23.629  25.263  1.00  0.00     0.043 A 
ATOM     16  C   UNL A   1      34.364  21.715  24.896  1.00  0.00     0.020 A 
ATOM     17  Cl  UNL A   1      34.139  25.225  25.719  1.00  0.00    -0.084 Cl
ENDBRANCH   9  11
ENDBRANCH   7   9
ENDBRANCH   5   7
ENDBRANCH   3   5
ENDBRANCH   2   3
ENDBRANCH   1   2
BRANCH   1  18
ATOM     18  C   UNL A   1      44.580  22.556  24.862  1.00  0.00     0.275 C 
BRANCH  18  19
ATOM     19  O   UNL A   1      45.039  23.732  24.153  1.00  0.00    -0.458 OA
BRANCH  19  20
ATOM     20  C   UNL A   1      45.839  24.597  24.832  1.00  0.00     0.338 C 
ATOM     21  O   UNL A   1      47.005  24.845  24.560  1.00  0.00    -0.246 OA
BRANCH  20  22
ATOM     22  C   UNL A   1      45.109  25.239  26.060  1.00  0.00     0.060 A 
ATOM     23  C   UNL A   1      44.256  24.619  27.792  1.00  0.00     0.016 A 
ATOM     24  C   UNL A   1      44.843  26.987  25.625  1.00  0.00     0.016 A 
ATOM     25  C   UNL A   1      43.325  25.733  28.790  1.00  0.00     0.010 A 
ATOM     26  C   UNL A   1      43.897  28.011  26.754  1.00  0.00     0.010 A 
ATOM     27  C   UNL A   1      43.193  27.383  28.275  1.00  0.00    -0.014 A 
BRANCH  27  28
ATOM     28  C   UNL A   1      42.539  28.196  29.320  1.00  0.00     0.031 A 
ATOM     29  C   UNL A   1      43.361  28.628  30.471  1.00  0.00     0.074 A 
ATOM     30  C   UNL A   1      41.360  28.810  29.096  1.00  0.00     0.049 A 
ATOM     31  N   UNL A   1      43.014  29.004  31.665  1.00  0.00    -0.248 NA
ATOM     32  C   UNL A   1      44.805  28.599  30.247  1.00  0.00     0.031 C 
ATOM     33  C   UNL A   1      40.569  28.745  27.863  1.00  0.00     0.029 A 
ATOM     34  N   UNL A   1      40.652  29.674  29.891  1.00  0.00    -0.354 N 
ATOM     35  C   UNL A   1      44.206  29.058  32.373  1.00  0.00     0.074 A 
ATOM     36  C   UNL A   1      45.267  28.658  31.482  1.00  0.00     0.031 C 
ATOM     37  C   UNL A   1      39.491  29.540  27.987  1.00  0.00     0.029 A 
ATOM     38  C   UNL A   1      39.470  30.099  29.333  1.00  0.00     0.049 A 
ATOM     39  H   UNL A   1      40.961  29.963  30.780  1.00  0.00     0.167 HD
ATOM     40  C   UNL A   1      44.383  29.466  33.647  1.00  0.00     0.037 A 
ATOM     41  C   UNL A   1      38.474  30.816  29.888  1.00  0.00     0.037 A 
ATOM     42  C   UNL A   1      43.341  30.129  34.377  1.00  0.00     0.049 A 
ATOM     43  C   UNL A   1      38.650  31.245  31.326  1.00  0.00     0.074 A 
ATOM     44  C   UNL A   1      43.352  30.616  35.666  1.00  0.00     0.029 A 
ATOM     45  N   UNL A   1      42.114  30.475  33.819  1.00  0.00    -0.354 N 
ATOM     46  N   UNL A   1      39.684  31.075  32.120  1.00  0.00    -0.248 NA
ATOM     47  C   UNL A   1      37.524  31.944  31.954  1.00  0.00     0.031 C 
ATOM     48  C   UNL A   1      42.122  31.243  35.895  1.00  0.00     0.029 A 
ATOM     49  C   UNL A   1      41.363  31.186  34.733  1.00  0.00     0.049 A 
ATOM     50  H   UNL A   1      41.823  30.247  32.907  1.00  0.00     0.167 HD
ATOM     51  C   UNL A   1      39.344  31.662  33.331  1.00  0.00     0.074 A 
ATOM     52  C   UNL A   1      38.012  32.210  33.157  1.00  0.00     0.031 C 
ATOM     53  C   UNL A   1      40.053  31.739  34.486  1.00  0.00     0.037 A 
BRANCH  40  54
ATOM     54  C   UNL A   1      45.697  29.155  34.297  1.00  0.00     0.064 A 
ATOM     55  C   UNL A   1      46.802  30.018  34.259  1.00  0.00     0.173 A 
ATOM     56  C   UNL A   1      45.867  27.908  34.919  1.00  0.00     0.173 A 
ATOM     57  F   UNL A   1      46.706  31.217  33.663  1.00  0.00    -0.203 F 
ATOM     58  C   UNL A   1      48.040  29.622  34.760  1.00  0.00     0.198 A 
ATOM     59  C   UNL A   1      47.092  27.534  35.464  1.00  0.00     0.198 A 
ATOM     60  F   UNL A   1      44.846  27.040  34.985  1.00  0.00    -0.203 F 
ATOM     61  F   UNL A   1      49.104  30.425  34.622  1.00  0.00    -0.200 F 
ATOM     62  C   UNL A   1      48.183  28.384  35.367  1.00  0.00     0.200 A 
ATOM     63  F   UNL A   1      47.221  26.344  36.065  1.00  0.00    -0.200 F 
ATOM     64  F   UNL A   1      49.374  28.004  35.850  1.00  0.00    -0.200 F 
ENDBRANCH  40  54
BRANCH  41  65
ATOM     65  C   UNL A   1      37.214  31.092  29.138  1.00  0.00     0.064 A 
ATOM     66  C   UNL A   1      36.920  32.367  28.632  1.00  0.00     0.173 A 
ATOM     67  C   UNL A   1      36.251  30.087  28.940  1.00  0.00     0.173 A 
ATOM     68  F   UNL A   1      37.787  33.375  28.811  1.00  0.00    -0.203 F 
ATOM     69  C   UNL A   1      35.712  32.630  27.983  1.00  0.00     0.198 A 
ATOM     70  C   UNL A   1      35.061  30.342  28.262  1.00  0.00     0.198 A 
ATOM     71  F   UNL A   1      36.467  28.849  29.407  1.00  0.00    -0.203 F 
ATOM     72  F   UNL A   1      35.437  33.872  27.560  1.00  0.00    -0.200 F 
ATOM     73  C   UNL A   1      34.786  31.616  27.792  1.00  0.00     0.200 A 
ATOM     74  F   UNL A   1      34.176  29.354  28.070  1.00  0.00    -0.200 F 
ATOM     75  F   UNL A   1      33.628  31.869  27.168  1.00  0.00    -0.200 F 
ENDBRANCH  41  65
BRANCH  53  76
ATOM     76  C   UNL A   1      39.427  32.495  35.617  1.00  0.00     0.064 A 
ATOM     77  C   UNL A   1      38.605  31.861  36.558  1.00  0.00     0.173 A 
ATOM     78  C   UNL A   1      39.723  33.855  35.801  1.00  0.00     0.173 A 
ATOM     79  F   UNL A   1      38.286  30.566  36.414  1.00  0.00    -0.203 F 
ATOM     80  C   UNL A   1      38.081  32.570  37.635  1.00  0.00     0.198 A 
ATOM     81  C   UNL A   1      39.229  34.549  36.898  1.00  0.00     0.198 A 
ATOM     82  F   UNL A   1      40.517  34.498  34.932  1.00  0.00    -0.203 F 
ATOM     83  F   UNL A   1      37.261  31.958  38.499  1.00  0.00    -0.200 F 
ATOM     84  C   UNL A   1      38.404  33.908  37.810  1.00  0.00     0.200 A 
ATOM     85  F   UNL A   1      39.558  35.835  37.079  1.00  0.00    -0.200 F 
ATOM     86  F   UNL A   1      37.914  34.583  38.859  1.00  0.00    -0.200 F 
ENDBRANCH  53  76
ENDBRANCH  27  28
ENDBRANCH  20  22
ENDBRANCH  19  20
ENDBRANCH  18  19
ENDBRANCH   1  18
TORSDOF 14
ENDMDL
MODEL 2
REMARK VINA RESULT:     -10.7      1.353      2.086
REMARK SMILES C[C@@H](Nc1cccc(Cl)c1)[C@@H](C)C(=O)OCCOC(=O)c1ccc(-c2c3nc(c(-c4c(F)c(F)c(F)c(F)c4F)c4ccc([nH]4)c(-c4c(F)c(F)c(F)c(F)c4F)c4nc(c(-c5c(F)c(F)c(F)c(F)c5F)c5ccc2[nH]5)C=C4)C=C3)cc1
REMARK SMILES IDX 16 1 15 2 13 3 14 4 11 5 12 6 2 7 1 8 3 9 4 11 5 12 10 13
REMARK SMILES IDX 6 14 8 15 7 16 9 17 17 18 18 19 19 20 20 21 21 22 22 23
REMARK SMILES IDX 83 24 23 25 82 26 24 27 25 28 26 29 76 30 27 31 81 32 75 33
REMARK SMILES IDX 77 34 28 35 80 36 74 37 73 38 29 40 61 41 41 42 60 43 42 44
REMARK SMILES IDX 45 45 59 46 78 47 43 48 44 49 58 51 79 52 46 53 30 54 31 55
REMARK SMILES IDX 39 56 32 57 33 58 37 59 40 60 34 61 35 62 38 63 36 64 62 65
REMARK SMILES IDX 63 66 71 67 64 68 65 69 69 70 72 71 66 72 67 73 70 74 68 75
REMARK SMILES IDX 47 76 48 77 56 78 49 79 50 80 54 81 57 82 51 83 52 84 55 85
REMARK SMILES IDX 53 86
REMARK H PARENT 3 10 77 39 45 50
REMARK Flexibility Score: inf
ROOT
ATOM      1  C   UNL A   1      42.695  20.811  26.131  1.00  0.00     0.274 C 
ENDROOT
BRANCH   1   2
ATOM      2  O   UNL A   1      41.385  21.140  25.599  1.00  0.00    -0.462 OA
BRANCH   2   3
ATOM      3  C   UNL A   1      40.418  21.529  26.482  1.00  0.00     0.310 C 
ATOM      4  O   UNL A   1      40.407  21.191  27.661  1.00  0.00    -0.252 OA
BRANCH   3   5
ATOM      5  C   UNL A   1      39.501  22.637  25.919  1.00  0.00     0.118 C 
ATOM      6  C   UNL A   1      39.929  23.993  26.484  1.00  0.00     0.022 C 
BRANCH   5   7
ATOM      7  C   UNL A   1      38.007  22.295  26.051  1.00  0.00     0.090 C 
ATOM      8  C   UNL A   1      37.117  23.515  26.340  1.00  0.00     0.031 C 
BRANCH   7   9
ATOM      9  N   UNL A   1      37.416  21.620  24.883  1.00  0.00    -0.382 N 
ATOM     10  H   UNL A   1      38.023  21.023  24.391  1.00  0.00     0.160 HD
BRANCH   9  11
ATOM     11  C   UNL A   1      36.125  21.703  24.371  1.00  0.00     0.036 A 
ATOM     12  C   UNL A   1      35.592  23.030  23.288  1.00  0.00     0.026 A 
ATOM     13  C   UNL A   1      35.007  20.464  24.955  1.00  0.00     0.046 A 
ATOM     14  C   UNL A   1      33.975  23.248  22.689  1.00  0.00     0.004 A 
ATOM     15  C   UNL A   1      33.276  20.557  24.444  1.00  0.00     0.043 A 
ATOM     16  C   UNL A   1      32.752  22.082  23.218  1.00  0.00     0.020 A 
ATOM     17  Cl  UNL A   1      32.613  18.938  24.992  1.00  0.00    -0.084 Cl
ENDBRANCH   9  11
ENDBRANCH   7   9
ENDBRANCH   5   7
ENDBRANCH   3   5
ENDBRANCH   2   3
ENDBRANCH   1   2
BRANCH   1  18
ATOM     18  C   UNL A   1      43.793  21.176  25.102  1.00  0.00     0.275 C 
BRANCH  18  19
ATOM     19  O   UNL A   1      43.466  22.436  24.466  1.00  0.00    -0.458 OA
BRANCH  19  20
ATOM     20  C   UNL A   1      44.231  23.513  24.788  1.00  0.00     0.338 C 
ATOM     21  O   UNL A   1      45.243  23.865  24.197  1.00  0.00    -0.246 OA
BRANCH  20  22
ATOM     22  C   UNL A   1      43.695  24.264  26.053  1.00  0.00     0.060 A 
ATOM     23  C   UNL A   1      43.101  23.800  27.935  1.00  0.00     0.016 A 
ATOM     24  C   UNL A   1      43.382  25.977  25.521  1.00  0.00     0.016 A 
ATOM     25  C   UNL A   1      42.335  25.006  28.965  1.00  0.00     0.010 A 
ATOM     26  C   UNL A   1      42.620  27.105  26.690  1.00  0.00     0.010 A 
ATOM     27  C   UNL A   1      42.142  26.613  28.343  1.00  0.00    -0.014 A 
BRANCH  27  28
ATOM     28  C   UNL A   1      41.655  27.519  29.403  1.00  0.00     0.031 A 
ATOM     29  C   UNL A   1      42.543  27.763  30.561  1.00  0.00     0.074 A 
ATOM     30  C   UNL A   1      40.618  28.353  29.191  1.00  0.00     0.049 A 
ATOM     31  N   UNL A   1      42.271  28.177  31.762  1.00  0.00    -0.248 NA
ATOM     32  C   UNL A   1      43.954  27.459  30.335  1.00  0.00     0.031 C 
ATOM     33  C   UNL A   1      39.833  28.465  27.959  1.00  0.00     0.029 A 
ATOM     34  N   UNL A   1      40.088  29.323  30.003  1.00  0.00    -0.354 N 
ATOM     35  C   UNL A   1      43.449  27.987  32.470  1.00  0.00     0.074 A 
ATOM     36  C   UNL A   1      44.416  27.405  31.571  1.00  0.00     0.031 C 
ATOM     37  C   UNL A   1      38.928  29.451  28.098  1.00  0.00     0.029 A 
ATOM     38  C   UNL A   1      39.012  29.980  29.453  1.00  0.00     0.049 A 
ATOM     39  H   UNL A   1      40.445  29.531  30.896  1.00  0.00     0.167 HD
ATOM     40  C   UNL A   1      43.699  28.330  33.750  1.00  0.00     0.037 A 
ATOM     41  C   UNL A   1      38.173  30.866  30.022  1.00  0.00     0.037 A 
ATOM     42  C   UNL A   1      42.803  29.170  34.493  1.00  0.00     0.049 A 
ATOM     43  C   UNL A   1      38.425  31.227  31.467  1.00  0.00     0.074 A 
ATOM     44  C   UNL A   1      42.905  29.622  35.791  1.00  0.00     0.029 A 
ATOM     45  N   UNL A   1      41.668  29.757  33.943  1.00  0.00    -0.354 N 
ATOM     46  N   UNL A   1      39.404  30.846  32.257  1.00  0.00    -0.248 NA
ATOM     47  C   UNL A   1      37.454  32.119  32.109  1.00  0.00     0.031 C 
ATOM     48  C   UNL A   1      41.818  30.471  36.033  1.00  0.00     0.029 A 
ATOM     49  C   UNL A   1      41.066  30.582  34.870  1.00  0.00     0.049 A 
ATOM     50  H   UNL A   1      41.341  29.605  33.027  1.00  0.00     0.167 HD
ATOM     51  C   UNL A   1      39.182  31.466  33.479  1.00  0.00     0.074 A 
ATOM     52  C   UNL A   1      37.981  32.264  33.316  1.00  0.00     0.031 C 
ATOM     53  C   UNL A   1      39.888  31.383  34.635  1.00  0.00     0.037 A 
BRANCH  40  54
ATOM     54  C   UNL A   1      44.926  27.759  34.394  1.00  0.00     0.064 A 
ATOM     55  C   UNL A   1      46.181  28.385  34.356  1.00  0.00     0.173 A 
ATOM     56  C   UNL A   1      44.846  26.499  35.009  1.00  0.00     0.173 A 
ATOM     57  F   UNL A   1      46.325  29.582  33.767  1.00  0.00    -0.203 F 
ATOM     58  C   UNL A   1      47.316  27.746  34.850  1.00  0.00     0.198 A 
ATOM     59  C   UNL A   1      45.973  25.886  35.547  1.00  0.00     0.198 A 
ATOM     60  F   UNL A   1      43.672  25.853  35.074  1.00  0.00    -0.203 F 
ATOM     61  F   UNL A   1      48.519  28.321  34.712  1.00  0.00    -0.200 F 
ATOM     62  C   UNL A   1      47.211  26.501  35.450  1.00  0.00     0.200 A 
ATOM     63  F   UNL A   1      45.862  24.690  36.141  1.00  0.00    -0.200 F 
ATOM     64  F   UNL A   1      48.304  25.888  35.926  1.00  0.00    -0.200 F 
ENDBRANCH  40  54
BRANCH  41  65
ATOM     65  C   UNL A   1      36.992  31.394  29.278  1.00  0.00     0.064 A 
ATOM     66  C   UNL A   1      36.907  32.738  28.886  1.00  0.00     0.173 A 
ATOM     67  C   UNL A   1      35.897  30.568  28.973  1.00  0.00     0.173 A 
ATOM     68  F   UNL A   1      37.909  33.584  29.171  1.00  0.00    -0.203 F 
ATOM     69  C   UNL A   1      35.773  33.236  28.242  1.00  0.00     0.198 A 
ATOM     70  C   UNL A   1      34.779  31.058  28.299  1.00  0.00     0.198 A 
ATOM     71  F   UNL A   1      35.911  29.274  29.328  1.00  0.00    -0.203 F 
ATOM     72  F   UNL A   1      35.699  34.538  27.930  1.00  0.00    -0.200 F 
ATOM     73  C   UNL A   1      34.712  32.395  27.943  1.00  0.00     0.200 A 
ATOM     74  F   UNL A   1      33.764  30.235  28.002  1.00  0.00    -0.200 F 
ATOM     75  F   UNL A   1      33.625  32.873  27.324  1.00  0.00    -0.200 F 
ENDBRANCH  41  65
BRANCH  53  76
ATOM     76  C   UNL A   1      39.418  32.226  35.780  1.00  0.00     0.064 A 
ATOM     77  C   UNL A   1      39.836  33.554  35.935  1.00  0.00     0.173 A 
ATOM     78  C   UNL A   1      38.475  31.715  36.686  1.00  0.00     0.173 A 
ATOM     79  F   UNL A   1      40.745  34.079  35.100  1.00  0.00    -0.203 F 
ATOM     80  C   UNL A   1      39.341  34.337  36.973  1.00  0.00     0.198 A 
ATOM     81  C   UNL A   1      37.955  32.512  37.698  1.00  0.00     0.198 A 
ATOM     82  F   UNL A   1      38.038  30.452  36.567  1.00  0.00    -0.203 F 
ATOM     83  F   UNL A   1      39.786  35.591  37.132  1.00  0.00    -0.200 F 
ATOM     84  C   UNL A   1      38.393  33.819  37.845  1.00  0.00     0.200 A 
ATOM     85  F   UNL A   1      37.024  32.018  38.526  1.00  0.00    -0.200 F 
ATOM     86  F   UNL A   1      37.904  34.583  38.832  1.00  0.00    -0.200 F 
ENDBRANCH  53  76
ENDBRANCH  27  28
ENDBRANCH  20  22
ENDBRANCH  19  20
ENDBRANCH  18  19
ENDBRANCH   1  18
TORSDOF 14
ENDMDL
MODEL 3
REMARK VINA RESULT:     -10.5      3.947      8.810
REMARK SMILES C[C@@H](Nc1cccc(Cl)c1)[C@@H](C)C(=O)OCCOC(=O)c1ccc(-c2c3nc(c(-c4c(F)c(F)c(F)c(F)c4F)c4ccc([nH]4)c(-c4c(F)c(F)c(F)c(F)c4F)c4nc(c(-c5c(F)c(F)c(F)c(F)c5F)c5ccc2[nH]5)C=C4)C=C3)cc1
REMARK SMILES IDX 16 1 15 2 13 3 14 4 11 5 12 6 2 7 1 8 3 9 4 11 5 12 10 13
REMARK SMILES IDX 6 14 8 15 7 16 9 17 17 18 18 19 19 20 20 21 21 22 22 23
REMARK SMILES IDX 83 24 23 25 82 26 24 27 25 28 26 29 76 30 27 31 81 32 75 33
REMARK SMILES IDX 77 34 28 35 80 36 74 37 73 38 29 40 61 41 41 42 60 43 42 44
REMARK SMILES IDX 45 45 59 46 78 47 43 48 44 49 58 51 79 52 46 53 30 54 31 55
REMARK SMILES IDX 39 56 32 57 33 58 37 59 40 60 34 61 35 62 38 63 36 64 62 65
REMARK SMILES IDX 63 66 71 67 64 68 65 69 69 70 72 71 66 72 67 73 70 74 68 75
REMARK SMILES IDX 47 76 48 77 56 78 49 79 50 80 54 81 57 82 51 83 52 84 55 85
REMARK SMILES IDX 53 86
REMARK H PARENT 3 10 77 39 45 50
REMARK Flexibility Score: inf
ROOT
ATOM      1  C   UNL A   1      31.235  28.040  25.201  1.00  0.00     0.274 C 
ENDROOT
BRANCH   1   2
ATOM      2  O   UNL A   1      30.818  27.254  24.054  1.00  0.00    -0.462 OA
BRANCH   2   3
ATOM      3  C   UNL A   1      31.634  26.237  23.648  1.00  0.00     0.310 C 
ATOM      4  O   UNL A   1      31.215  25.163  23.228  1.00  0.00    -0.252 OA
BRANCH   3   5
ATOM      5  C   UNL A   1      33.113  26.667  23.520  1.00  0.00     0.118 C 
ATOM      6  C   UNL A   1      33.426  26.997  22.060  1.00  0.00     0.022 C 
BRANCH   5   7
ATOM      7  C   UNL A   1      34.077  25.688  24.211  1.00  0.00     0.090 C 
ATOM      8  C   UNL A   1      33.672  25.335  25.651  1.00  0.00     0.031 C 
BRANCH   7   9
ATOM      9  N   UNL A   1      34.274  24.406  23.511  1.00  0.00    -0.382 N 
ATOM     10  H   UNL A   1      33.953  24.383  22.581  1.00  0.00     0.160 HD
BRANCH   9  11
ATOM     11  C   UNL A   1      34.845  23.225  23.970  1.00  0.00     0.036 A 
ATOM     12  C   UNL A   1      36.619  22.964  24.036  1.00  0.00     0.026 A 
ATOM     13  C   UNL A   1      33.695  21.948  24.384  1.00  0.00     0.046 A 
ATOM     14  C   UNL A   1      37.399  21.484  24.509  1.00  0.00     0.004 A 
ATOM     15  C   UNL A   1      34.340  20.334  24.876  1.00  0.00     0.043 A 
ATOM     16  C   UNL A   1      36.354  20.118  24.928  1.00  0.00     0.020 A 
ATOM     17  Cl  UNL A   1      32.846  19.485  25.513  1.00  0.00    -0.084 Cl
ENDBRANCH   9  11
ENDBRANCH   7   9
ENDBRANCH   5   7
ENDBRANCH   3   5
ENDBRANCH   2   3
ENDBRANCH   1   2
BRANCH   1  18
ATOM     18  C   UNL A   1      31.270  29.543  24.832  1.00  0.00     0.275 C 
BRANCH  18  19
ATOM     19  O   UNL A   1      32.497  30.137  25.319  1.00  0.00    -0.458 OA
BRANCH  19  20
ATOM     20  C   UNL A   1      32.398  31.003  26.363  1.00  0.00     0.338 C 
ATOM     21  O   UNL A   1      31.440  31.729  26.592  1.00  0.00    -0.246 OA
BRANCH  20  22
ATOM     22  C   UNL A   1      33.687  31.008  27.253  1.00  0.00     0.060 A 
ATOM     23  C   UNL A   1      35.057  32.354  27.903  1.00  0.00     0.016 A 
ATOM     24  C   UNL A   1      34.070  29.259  27.586  1.00  0.00     0.016 A 
ATOM     25  C   UNL A   1      36.516  31.827  28.736  1.00  0.00     0.010 A 
ATOM     26  C   UNL A   1      35.582  28.874  28.472  1.00  0.00     0.010 A 
ATOM     27  C   UNL A   1      36.729  30.131  29.026  1.00  0.00    -0.014 A 
BRANCH  27  28
ATOM     28  C   UNL A   1      37.907  29.901  29.888  1.00  0.00     0.031 A 
ATOM     29  C   UNL A   1      39.084  29.241  29.282  1.00  0.00     0.074 A 
ATOM     30  C   UNL A   1      38.056  30.550  31.060  1.00  0.00     0.049 A 
ATOM     31  N   UNL A   1      40.067  28.595  29.833  1.00  0.00    -0.248 NA
ATOM     32  C   UNL A   1      39.141  29.291  27.824  1.00  0.00     0.031 C 
ATOM     33  C   UNL A   1      37.113  31.506  31.648  1.00  0.00     0.029 A 
ATOM     34  N   UNL A   1      39.107  30.547  31.940  1.00  0.00    -0.354 N 
ATOM     35  C   UNL A   1      40.734  28.004  28.770  1.00  0.00     0.074 A 
ATOM     36  C   UNL A   1      40.031  28.352  27.559  1.00  0.00     0.031 C 
ATOM     37  C   UNL A   1      37.633  31.998  32.786  1.00  0.00     0.029 A 
ATOM     38  C   UNL A   1      38.902  31.331  33.051  1.00  0.00     0.049 A 
ATOM     39  H   UNL A   1      39.932  30.032  31.791  1.00  0.00     0.167 HD
ATOM     40  C   UNL A   1      41.872  27.281  28.818  1.00  0.00     0.037 A 
ATOM     41  C   UNL A   1      39.646  31.438  34.169  1.00  0.00     0.037 A 
ATOM     42  C   UNL A   1      42.678  27.223  30.003  1.00  0.00     0.049 A 
ATOM     43  C   UNL A   1      40.903  30.602  34.243  1.00  0.00     0.074 A 
ATOM     44  C   UNL A   1      43.860  26.549  30.222  1.00  0.00     0.029 A 
ATOM     45  N   UNL A   1      42.406  27.958  31.153  1.00  0.00    -0.354 N 
ATOM     46  N   UNL A   1      41.429  29.813  33.333  1.00  0.00    -0.248 NA
ATOM     47  C   UNL A   1      41.660  30.651  35.499  1.00  0.00     0.031 C 
ATOM     48  C   UNL A   1      44.295  26.864  31.515  1.00  0.00     0.029 A 
ATOM     49  C   UNL A   1      43.407  27.769  32.083  1.00  0.00     0.049 A 
ATOM     50  H   UNL A   1      41.615  28.529  31.284  1.00  0.00     0.167 HD
ATOM     51  C   UNL A   1      42.585  29.289  33.894  1.00  0.00     0.074 A 
ATOM     52  C   UNL A   1      42.692  29.868  35.219  1.00  0.00     0.031 C 
ATOM     53  C   UNL A   1      43.476  28.406  33.376  1.00  0.00     0.037 A 
BRANCH  40  54
ATOM     54  C   UNL A   1      42.242  26.491  27.598  1.00  0.00     0.064 A 
ATOM     55  C   UNL A   1      41.717  25.222  27.310  1.00  0.00     0.173 A 
ATOM     56  C   UNL A   1      43.217  27.005  26.728  1.00  0.00     0.173 A 
ATOM     57  F   UNL A   1      40.795  24.671  28.115  1.00  0.00    -0.203 F 
ATOM     58  C   UNL A   1      42.198  24.473  26.239  1.00  0.00     0.198 A 
ATOM     59  C   UNL A   1      43.658  26.275  25.628  1.00  0.00     0.198 A 
ATOM     60  F   UNL A   1      43.755  28.212  26.953  1.00  0.00    -0.203 F 
ATOM     61  F   UNL A   1      41.752  23.225  26.043  1.00  0.00    -0.200 F 
ATOM     62  C   UNL A   1      43.162  25.002  25.395  1.00  0.00     0.200 A 
ATOM     63  F   UNL A   1      44.578  26.797  24.806  1.00  0.00    -0.200 F 
ATOM     64  F   UNL A   1      43.623  24.281  24.363  1.00  0.00    -0.200 F 
ENDBRANCH  40  54
BRANCH  41  65
ATOM     65  C   UNL A   1      39.195  32.277  35.316  1.00  0.00     0.064 A 
ATOM     66  C   UNL A   1      39.529  33.637  35.413  1.00  0.00     0.173 A 
ATOM     67  C   UNL A   1      38.445  31.726  36.369  1.00  0.00     0.173 A 
ATOM     68  F   UNL A   1      40.264  34.215  34.452  1.00  0.00    -0.203 F 
ATOM     69  C   UNL A   1      39.151  34.400  36.519  1.00  0.00     0.198 A 
ATOM     70  C   UNL A   1      38.040  32.497  37.457  1.00  0.00     0.198 A 
ATOM     71  F   UNL A   1      38.101  30.430  36.343  1.00  0.00    -0.203 F 
ATOM     72  F   UNL A   1      39.533  35.682  36.609  1.00  0.00    -0.200 F 
ATOM     73  C   UNL A   1      38.401  33.832  37.538  1.00  0.00     0.200 A 
ATOM     74  F   UNL A   1      37.304  31.944  38.432  1.00  0.00    -0.200 F 
ATOM     75  F   UNL A   1      38.039  34.565  38.599  1.00  0.00    -0.200 F 
ENDBRANCH  41  65
BRANCH  53  76
ATOM     76  C   UNL A   1      44.668  28.071  34.219  1.00  0.00     0.064 A 
ATOM     77  C   UNL A   1      44.686  26.945  35.052  1.00  0.00     0.173 A 
ATOM     78  C   UNL A   1      45.834  28.848  34.125  1.00  0.00     0.173 A 
ATOM     79  F   UNL A   1      43.590  26.182  35.181  1.00  0.00    -0.203 F 
ATOM     80  C   UNL A   1      45.825  26.620  35.782  1.00  0.00     0.198 A 
ATOM     81  C   UNL A   1      46.980  28.498  34.826  1.00  0.00     0.198 A 
ATOM     82  F   UNL A   1      45.865  29.928  33.329  1.00  0.00    -0.203 F 
ATOM     83  F   UNL A   1      45.808  25.565  36.607  1.00  0.00    -0.200 F 
ATOM     84  C   UNL A   1      46.973  27.389  35.659  1.00  0.00     0.200 A 
ATOM     85  F   UNL A   1      48.096  29.228  34.691  1.00  0.00    -0.200 F 
ATOM     86  F   UNL A   1      48.075  27.061  36.348  1.00  0.00    -0.200 F 
ENDBRANCH  53  76
ENDBRANCH  27  28
ENDBRANCH  20  22
ENDBRANCH  19  20
ENDBRANCH  18  19
ENDBRANCH   1  18
TORSDOF 14
ENDMDL
