MODEL 1
REMARK VINA RESULT:     -13.0      0.000      0.000
REMARK SMILES Cc1cc(Cl)cc2c1O[C@H](C(F)(F)F)C(C(=O)OCCOC(=O)c1ccc(-c3c4nc(c(-c5c(F)c(F)c(F)c(F)c5F)c5ccc([nH]5)c(-c5c(F)c(F)c(F)c(F)c5F)c5nc(c(-c6c(F)c(F)c(F)c(F)c6F)c6ccc3[nH]6)C=C5)C=C4)cc1)=C2
REMARK SMILES IDX 20 1 19 2 18 3 16 4 17 5 15 6 1 7 2 8 3 9 8 10 4 11 7 12
REMARK SMILES IDX 9 13 5 14 6 15 87 16 10 17 11 18 12 19 13 20 14 21 21 22
REMARK SMILES IDX 22 23 23 24 24 25 25 26 86 27 26 28 85 29 27 30 28 31 29 32
REMARK SMILES IDX 79 33 30 34 84 35 78 36 80 37 31 38 83 39 77 40 76 41 32 43
REMARK SMILES IDX 64 44 44 45 63 46 45 47 48 48 62 49 81 50 46 51 47 52 61 54
REMARK SMILES IDX 82 55 49 56 33 57 34 58 42 59 35 60 36 61 40 62 43 63 37 64
REMARK SMILES IDX 38 65 41 66 39 67 65 68 66 69 74 70 67 71 68 72 72 73 75 74
REMARK SMILES IDX 69 75 70 76 73 77 71 78 50 79 51 80 59 81 52 82 53 83 57 84
REMARK SMILES IDX 60 85 54 86 55 87 58 88 56 89
REMARK H PARENT 80 42 48 53
REMARK Flexibility Score: inf
ROOT
ATOM      1  C   UNL A   1      31.631  30.468  25.805  1.00  0.00     0.275 C 
ENDROOT
BRANCH   1   2
ATOM      2  C   UNL A   1      31.752  29.138  25.061  1.00  0.00     0.275 C 
BRANCH   2   3
ATOM      3  O   UNL A   1      32.552  28.185  25.796  1.00  0.00    -0.459 OA
BRANCH   3   4
ATOM      4  C   UNL A   1      31.857  27.236  26.463  1.00  0.00     0.338 C 
ATOM      5  O   UNL A   1      31.009  27.424  27.322  1.00  0.00    -0.246 OA
BRANCH   4   6
ATOM      6  C   UNL A   1      32.229  25.886  25.997  1.00  0.00     0.087 C 
ATOM      7  C   UNL A   1      32.422  21.331  23.598  1.00  0.00     0.048 C 
ATOM      8  C   UNL A   1      33.404  22.271  24.236  1.00  0.00    -0.007 A 
ATOM      9  C   UNL A   1      34.779  21.995  24.124  1.00  0.00     0.027 A 
ATOM     10  C   UNL A   1      32.990  23.453  24.869  1.00  0.00     0.131 A 
ATOM     11  C   UNL A   1      35.721  22.864  24.669  1.00  0.00     0.042 A 
ATOM     12  C   UNL A   1      33.946  24.322  25.400  1.00  0.00     0.019 A 
ATOM     13  O   UNL A   1      31.646  23.698  24.951  1.00  0.00    -0.475 OA
ATOM     14  Cl  UNL A   1      37.400  22.516  24.526  1.00  0.00    -0.084 Cl
ATOM     15  C   UNL A   1      35.311  24.023  25.314  1.00  0.00     0.032 A 
ATOM     16  C   UNL A   1      33.526  25.568  26.004  1.00  0.00     0.027 C 
ATOM     17  C   UNL A   1      31.177  25.003  25.395  1.00  0.00     0.316 C 
BRANCH  17  18
ATOM     18  C   UNL A   1      30.471  25.702  24.221  1.00  0.00     0.430 C 
ATOM     19  F   UNL A   1      31.352  26.385  23.451  1.00  0.00    -0.167 F 
ATOM     20  F   UNL A   1      29.859  24.809  23.406  1.00  0.00    -0.167 F 
ATOM     21  F   UNL A   1      29.531  26.578  24.640  1.00  0.00    -0.167 F 
ENDBRANCH  17  18
ENDBRANCH   4   6
ENDBRANCH   3   4
ENDBRANCH   2   3
ENDBRANCH   1   2
BRANCH   1  22
ATOM     22  O   UNL A   1      32.419  30.454  27.011  1.00  0.00    -0.458 OA
BRANCH  22  23
ATOM     23  C   UNL A   1      33.109  31.590  27.250  1.00  0.00     0.338 C 
ATOM     24  O   UNL A   1      32.683  32.732  27.264  1.00  0.00    -0.246 OA
BRANCH  23  25
ATOM     25  C   UNL A   1      34.502  31.285  27.608  1.00  0.00     0.060 A 
ATOM     26  C   UNL A   1      34.835  29.963  27.870  1.00  0.00     0.016 A 
ATOM     27  C   UNL A   1      35.392  32.305  27.932  1.00  0.00     0.016 A 
ATOM     28  C   UNL A   1      35.960  29.668  28.632  1.00  0.00     0.010 A 
ATOM     29  C   UNL A   1      36.609  31.985  28.546  1.00  0.00     0.010 A 
ATOM     30  C   UNL A   1      36.885  30.669  28.961  1.00  0.00    -0.014 A 
BRANCH  30  31
ATOM     31  C   UNL A   1      38.111  30.343  29.748  1.00  0.00     0.031 A 
ATOM     32  C   UNL A   1      39.192  29.475  29.154  1.00  0.00     0.074 A 
ATOM     33  C   UNL A   1      38.273  30.833  30.996  1.00  0.00     0.049 A 
ATOM     34  N   UNL A   1      40.205  28.889  29.743  1.00  0.00    -0.248 NA
ATOM     35  C   UNL A   1      39.122  29.221  27.706  1.00  0.00     0.031 C 
ATOM     36  C   UNL A   1      37.352  31.743  31.680  1.00  0.00     0.029 A 
ATOM     37  N   UNL A   1      39.279  30.642  31.913  1.00  0.00    -0.354 N 
ATOM     38  C   UNL A   1      40.850  28.153  28.756  1.00  0.00     0.074 A 
ATOM     39  C   UNL A   1      40.114  28.360  27.528  1.00  0.00     0.031 C 
ATOM     40  C   UNL A   1      37.857  32.073  32.875  1.00  0.00     0.029 A 
ATOM     41  C   UNL A   1      39.068  31.299  33.102  1.00  0.00     0.049 A 
ATOM     42  H   UNL A   1      40.073  30.087  31.736  1.00  0.00     0.167 HD
ATOM     43  C   UNL A   1      41.956  27.377  28.870  1.00  0.00     0.037 A 
ATOM     44  C   UNL A   1      39.732  31.242  34.271  1.00  0.00     0.037 A 
ATOM     45  C   UNL A   1      42.712  27.223  30.087  1.00  0.00     0.049 A 
ATOM     46  C   UNL A   1      40.910  30.322  34.394  1.00  0.00     0.074 A 
ATOM     47  C   UNL A   1      43.843  26.455  30.309  1.00  0.00     0.029 A 
ATOM     48  N   UNL A   1      42.429  27.869  31.282  1.00  0.00    -0.354 N 
ATOM     49  N   UNL A   1      41.458  29.556  33.482  1.00  0.00    -0.248 NA
ATOM     50  C   UNL A   1      41.549  30.238  35.714  1.00  0.00     0.031 C 
ATOM     51  C   UNL A   1      44.216  26.601  31.648  1.00  0.00     0.029 A 
ATOM     52  C   UNL A   1      43.355  27.505  32.248  1.00  0.00     0.049 A 
ATOM     53  H   UNL A   1      41.682  28.494  31.423  1.00  0.00     0.167 HD
ATOM     54  C   UNL A   1      42.513  28.912  34.110  1.00  0.00     0.074 A 
ATOM     55  C   UNL A   1      42.543  29.394  35.476  1.00  0.00     0.031 C 
ATOM     56  C   UNL A   1      43.376  27.999  33.601  1.00  0.00     0.037 A 
BRANCH  43  57
ATOM     57  C   UNL A   1      42.409  26.604  27.662  1.00  0.00     0.064 A 
ATOM     58  C   UNL A   1      43.366  27.111  26.770  1.00  0.00     0.173 A 
ATOM     59  C   UNL A   1      41.934  25.302  27.439  1.00  0.00     0.173 A 
ATOM     60  F   UNL A   1      43.844  28.353  26.928  1.00  0.00    -0.203 F 
ATOM     61  C   UNL A   1      43.818  26.348  25.695  1.00  0.00     0.198 A 
ATOM     62  C   UNL A   1      42.411  24.530  26.382  1.00  0.00     0.198 A 
ATOM     63  F   UNL A   1      41.023  24.764  28.264  1.00  0.00    -0.203 F 
ATOM     64  F   UNL A   1      44.708  26.866  24.836  1.00  0.00    -0.200 F 
ATOM     65  C   UNL A   1      43.350  25.056  25.508  1.00  0.00     0.200 A 
ATOM     66  F   UNL A   1      41.968  23.277  26.214  1.00  0.00    -0.200 F 
ATOM     67  F   UNL A   1      43.803  24.318  24.485  1.00  0.00    -0.200 F 
ENDBRANCH  43  57
BRANCH  44  68
ATOM     68  C   UNL A   1      39.260  32.051  35.428  1.00  0.00     0.064 A 
ATOM     69  C   UNL A   1      38.441  31.487  36.414  1.00  0.00     0.173 A 
ATOM     70  C   UNL A   1      39.643  33.394  35.590  1.00  0.00     0.173 A 
ATOM     71  F   UNL A   1      38.025  30.218  36.293  1.00  0.00    -0.203 F 
ATOM     72  C   UNL A   1      38.023  32.231  37.516  1.00  0.00     0.198 A 
ATOM     73  C   UNL A   1      39.255  34.124  36.709  1.00  0.00     0.198 A 
ATOM     74  F   UNL A   1      40.425  33.984  34.674  1.00  0.00    -0.203 F 
ATOM     75  F   UNL A   1      37.212  31.677  38.427  1.00  0.00    -0.200 F 
ATOM     76  C   UNL A   1      38.442  33.544  37.669  1.00  0.00     0.200 A 
ATOM     77  F   UNL A   1      39.680  35.386  36.862  1.00  0.00    -0.200 F 
ATOM     78  F   UNL A   1      38.057  34.252  38.740  1.00  0.00    -0.200 F 
ENDBRANCH  44  68
BRANCH  56  79
ATOM     79  C   UNL A   1      44.450  27.487  34.515  1.00  0.00     0.064 A 
ATOM     80  C   UNL A   1      45.666  28.166  34.674  1.00  0.00     0.173 A 
ATOM     81  C   UNL A   1      44.242  26.323  35.271  1.00  0.00     0.173 A 
ATOM     82  F   UNL A   1      45.920  29.275  33.962  1.00  0.00    -0.203 F 
ATOM     83  C   UNL A   1      46.646  27.683  35.538  1.00  0.00     0.198 A 
ATOM     84  C   UNL A   1      45.210  25.863  36.158  1.00  0.00     0.198 A 
ATOM     85  F   UNL A   1      43.091  25.641  35.161  1.00  0.00    -0.203 F 
ATOM     86  F   UNL A   1      47.821  28.321  35.637  1.00  0.00    -0.200 F 
ATOM     87  C   UNL A   1      46.414  26.538  36.285  1.00  0.00     0.200 A 
ATOM     88  F   UNL A   1      44.977  24.765  36.890  1.00  0.00    -0.200 F 
ATOM     89  F   UNL A   1      47.354  26.081  37.123  1.00  0.00    -0.200 F 
ENDBRANCH  56  79
ENDBRANCH  30  31
ENDBRANCH  23  25
ENDBRANCH  22  23
ENDBRANCH   1  22
TORSDOF 12
ENDMDL
MODEL 2
REMARK VINA RESULT:     -12.8      0.390      1.264
REMARK SMILES Cc1cc(Cl)cc2c1O[C@H](C(F)(F)F)C(C(=O)OCCOC(=O)c1ccc(-c3c4nc(c(-c5c(F)c(F)c(F)c(F)c5F)c5ccc([nH]5)c(-c5c(F)c(F)c(F)c(F)c5F)c5nc(c(-c6c(F)c(F)c(F)c(F)c6F)c6ccc3[nH]6)C=C5)C=C4)cc1)=C2
REMARK SMILES IDX 20 1 19 2 18 3 16 4 17 5 15 6 1 7 2 8 3 9 8 10 4 11 7 12
REMARK SMILES IDX 9 13 5 14 6 15 87 16 10 17 11 18 12 19 13 20 14 21 21 22
REMARK SMILES IDX 22 23 23 24 24 25 25 26 86 27 26 28 85 29 27 30 28 31 29 32
REMARK SMILES IDX 79 33 30 34 84 35 78 36 80 37 31 38 83 39 77 40 76 41 32 43
REMARK SMILES IDX 64 44 44 45 63 46 45 47 48 48 62 49 81 50 46 51 47 52 61 54
REMARK SMILES IDX 82 55 49 56 33 57 34 58 42 59 35 60 36 61 40 62 43 63 37 64
REMARK SMILES IDX 38 65 41 66 39 67 65 68 66 69 74 70 67 71 68 72 72 73 75 74
REMARK SMILES IDX 69 75 70 76 73 77 71 78 50 79 51 80 59 81 52 82 53 83 57 84
REMARK SMILES IDX 60 85 54 86 55 87 58 88 56 89
REMARK H PARENT 80 42 48 53
REMARK Flexibility Score: inf
ROOT
ATOM      1  C   UNL A   1      31.750  30.048  25.555  1.00  0.00     0.275 C 
ENDROOT
BRANCH   1   2
ATOM      2  C   UNL A   1      31.820  28.674  24.887  1.00  0.00     0.275 C 
BRANCH   2   3
ATOM      3  O   UNL A   1      32.479  27.702  25.730  1.00  0.00    -0.459 OA
BRANCH   3   4
ATOM      4  C   UNL A   1      31.675  26.751  26.255  1.00  0.00     0.338 C 
ATOM      5  O   UNL A   1      30.653  26.935  26.899  1.00  0.00    -0.246 OA
BRANCH   4   6
ATOM      6  C   UNL A   1      32.173  25.401  25.928  1.00  0.00     0.087 C 
ATOM      7  C   UNL A   1      32.903  20.732  23.875  1.00  0.00     0.048 C 
ATOM      8  C   UNL A   1      33.747  21.766  24.563  1.00  0.00    -0.007 A 
ATOM      9  C   UNL A   1      35.138  21.569  24.633  1.00  0.00     0.027 A 
ATOM     10  C   UNL A   1      33.196  22.956  25.062  1.00  0.00     0.131 A 
ATOM     11  C   UNL A   1      35.959  22.524  25.227  1.00  0.00     0.042 A 
ATOM     12  C   UNL A   1      34.032  23.912  25.644  1.00  0.00     0.019 A 
ATOM     13  O   UNL A   1      31.840  23.123  24.967  1.00  0.00    -0.475 OA
ATOM     14  Cl  UNL A   1      37.658  22.272  25.309  1.00  0.00    -0.084 Cl
ATOM     15  C   UNL A   1      35.411  23.692  25.741  1.00  0.00     0.032 A 
ATOM     16  C   UNL A   1      33.475  25.163  26.110  1.00  0.00     0.027 C 
ATOM     17  C   UNL A   1      31.251  24.421  25.265  1.00  0.00     0.316 C 
BRANCH  17  18
ATOM     18  C   UNL A   1      30.659  25.005  23.972  1.00  0.00     0.430 C 
ATOM     19  F   UNL A   1      30.241  24.026  23.134  1.00  0.00    -0.167 F 
ATOM     20  F   UNL A   1      29.578  25.782  24.226  1.00  0.00    -0.167 F 
ATOM     21  F   UNL A   1      31.553  25.763  23.299  1.00  0.00    -0.167 F 
ENDBRANCH  17  18
ENDBRANCH   4   6
ENDBRANCH   3   4
ENDBRANCH   2   3
ENDBRANCH   1   2
BRANCH   1  22
ATOM     22  O   UNL A   1      32.420  30.032  26.830  1.00  0.00    -0.458 OA
BRANCH  22  23
ATOM     23  C   UNL A   1      33.033  31.189  27.162  1.00  0.00     0.338 C 
ATOM     24  O   UNL A   1      32.534  32.297  27.252  1.00  0.00    -0.246 OA
BRANCH  23  25
ATOM     25  C   UNL A   1      34.439  30.947  27.519  1.00  0.00     0.060 A 
ATOM     26  C   UNL A   1      34.846  29.635  27.719  1.00  0.00     0.016 A 
ATOM     27  C   UNL A   1      35.265  31.999  27.903  1.00  0.00     0.016 A 
ATOM     28  C   UNL A   1      35.980  29.368  28.477  1.00  0.00     0.010 A 
ATOM     29  C   UNL A   1      36.494  31.720  28.513  1.00  0.00     0.010 A 
ATOM     30  C   UNL A   1      36.842  30.402  28.866  1.00  0.00    -0.014 A 
BRANCH  30  31
ATOM     31  C   UNL A   1      38.079  30.109  29.649  1.00  0.00     0.031 A 
ATOM     32  C   UNL A   1      39.168  29.245  29.062  1.00  0.00     0.074 A 
ATOM     33  C   UNL A   1      38.245  30.626  30.886  1.00  0.00     0.049 A 
ATOM     34  N   UNL A   1      40.193  28.684  29.655  1.00  0.00    -0.248 NA
ATOM     35  C   UNL A   1      39.090  28.962  27.620  1.00  0.00     0.031 C 
ATOM     36  C   UNL A   1      37.316  31.536  31.559  1.00  0.00     0.029 A 
ATOM     37  N   UNL A   1      39.260  30.466  31.797  1.00  0.00    -0.354 N 
ATOM     38  C   UNL A   1      40.841  27.938  28.677  1.00  0.00     0.074 A 
ATOM     39  C   UNL A   1      40.092  28.111  27.451  1.00  0.00     0.031 C 
ATOM     40  C   UNL A   1      37.826  31.896  32.743  1.00  0.00     0.029 A 
ATOM     41  C   UNL A   1      39.050  31.144  32.975  1.00  0.00     0.049 A 
ATOM     42  H   UNL A   1      40.060  29.919  31.625  1.00  0.00     0.167 HD
ATOM     43  C   UNL A   1      41.958  27.179  28.796  1.00  0.00     0.037 A 
ATOM     44  C   UNL A   1      39.724  31.119  34.140  1.00  0.00     0.037 A 
ATOM     45  C   UNL A   1      42.726  27.060  30.010  1.00  0.00     0.049 A 
ATOM     46  C   UNL A   1      40.916  30.218  34.271  1.00  0.00     0.074 A 
ATOM     47  C   UNL A   1      43.869  26.312  30.238  1.00  0.00     0.029 A 
ATOM     48  N   UNL A   1      42.444  27.725  31.194  1.00  0.00    -0.354 N 
ATOM     49  N   UNL A   1      41.467  29.442  33.370  1.00  0.00    -0.248 NA
ATOM     50  C   UNL A   1      41.566  30.168  35.586  1.00  0.00     0.031 C 
ATOM     51  C   UNL A   1      44.251  26.489  31.571  1.00  0.00     0.029 A 
ATOM     52  C   UNL A   1      43.383  27.393  32.160  1.00  0.00     0.049 A 
ATOM     53  H   UNL A   1      41.689  28.342  31.329  1.00  0.00     0.167 HD
ATOM     54  C   UNL A   1      42.536  28.824  34.001  1.00  0.00     0.074 A 
ATOM     55  C   UNL A   1      42.570  29.333  35.357  1.00  0.00     0.031 C 
ATOM     56  C   UNL A   1      43.408  27.914  33.503  1.00  0.00     0.037 A 
BRANCH  43  57
ATOM     57  C   UNL A   1      42.412  26.390  27.600  1.00  0.00     0.064 A 
ATOM     58  C   UNL A   1      43.421  26.853  26.742  1.00  0.00     0.173 A 
ATOM     59  C   UNL A   1      41.882  25.113  27.356  1.00  0.00     0.173 A 
ATOM     60  F   UNL A   1      43.953  28.070  26.922  1.00  0.00    -0.203 F 
ATOM     61  C   UNL A   1      43.871  26.072  25.678  1.00  0.00     0.198 A 
ATOM     62  C   UNL A   1      42.356  24.322  26.311  1.00  0.00     0.198 A 
ATOM     63  F   UNL A   1      40.920  24.617  28.148  1.00  0.00    -0.203 F 
ATOM     64  F   UNL A   1      44.812  26.549  24.851  1.00  0.00    -0.200 F 
ATOM     65  C   UNL A   1      43.347  24.805  25.470  1.00  0.00     0.200 A 
ATOM     66  F   UNL A   1      41.859  23.092  26.123  1.00  0.00    -0.200 F 
ATOM     67  F   UNL A   1      43.796  24.049  24.459  1.00  0.00    -0.200 F 
ENDBRANCH  43  57
BRANCH  44  68
ATOM     68  C   UNL A   1      39.250  31.944  35.284  1.00  0.00     0.064 A 
ATOM     69  C   UNL A   1      38.471  31.380  36.303  1.00  0.00     0.173 A 
ATOM     70  C   UNL A   1      39.591  33.302  35.401  1.00  0.00     0.173 A 
ATOM     71  F   UNL A   1      38.095  30.095  36.225  1.00  0.00    -0.203 F 
ATOM     72  C   UNL A   1      38.053  32.140  37.394  1.00  0.00     0.198 A 
ATOM     73  C   UNL A   1      39.204  34.050  36.509  1.00  0.00     0.198 A 
ATOM     74  F   UNL A   1      40.334  33.892  34.454  1.00  0.00    -0.203 F 
ATOM     75  F   UNL A   1      37.280  31.586  38.337  1.00  0.00    -0.200 F 
ATOM     76  C   UNL A   1      38.431  33.471  37.503  1.00  0.00     0.200 A 
ATOM     77  F   UNL A   1      39.589  35.329  36.619  1.00  0.00    -0.200 F 
ATOM     78  F   UNL A   1      38.046  34.194  38.562  1.00  0.00    -0.200 F 
ENDBRANCH  44  68
BRANCH  56  79
ATOM     79  C   UNL A   1      44.496  27.435  34.417  1.00  0.00     0.064 A 
ATOM     80  C   UNL A   1      44.347  26.279  35.196  1.00  0.00     0.173 A 
ATOM     81  C   UNL A   1      45.719  28.120  34.483  1.00  0.00     0.173 A 
ATOM     82  F   UNL A   1      43.191  25.597  35.180  1.00  0.00    -0.203 F 
ATOM     83  C   UNL A   1      45.374  25.841  36.029  1.00  0.00     0.198 A 
ATOM     84  C   UNL A   1      46.755  27.660  35.291  1.00  0.00     0.198 A 
ATOM     85  F   UNL A   1      45.914  29.228  33.752  1.00  0.00    -0.203 F 
ATOM     86  F   UNL A   1      45.192  24.761  36.801  1.00  0.00    -0.200 F 
ATOM     87  C   UNL A   1      46.579  26.526  36.068  1.00  0.00     0.200 A 
ATOM     88  F   UNL A   1      47.923  28.315  35.316  1.00  0.00    -0.200 F 
ATOM     89  F   UNL A   1      47.570  26.097  36.862  1.00  0.00    -0.200 F 
ENDBRANCH  56  79
ENDBRANCH  30  31
ENDBRANCH  23  25
ENDBRANCH  22  23
ENDBRANCH   1  22
TORSDOF 12
ENDMDL
MODEL 3
REMARK VINA RESULT:     -12.7      4.321      9.677
REMARK SMILES Cc1cc(Cl)cc2c1O[C@H](C(F)(F)F)C(C(=O)OCCOC(=O)c1ccc(-c3c4nc(c(-c5c(F)c(F)c(F)c(F)c5F)c5ccc([nH]5)c(-c5c(F)c(F)c(F)c(F)c5F)c5nc(c(-c6c(F)c(F)c(F)c(F)c6F)c6ccc3[nH]6)C=C5)C=C4)cc1)=C2
REMARK SMILES IDX 20 1 19 2 18 3 16 4 17 5 15 6 1 7 2 8 3 9 8 10 4 11 7 12
REMARK SMILES IDX 9 13 5 14 6 15 87 16 10 17 11 18 12 19 13 20 14 21 21 22
REMARK SMILES IDX 22 23 23 24 24 25 25 26 86 27 26 28 85 29 27 30 28 31 29 32
REMARK SMILES IDX 79 33 30 34 84 35 78 36 80 37 31 38 83 39 77 40 76 41 32 43
REMARK SMILES IDX 64 44 44 45 63 46 45 47 48 48 62 49 81 50 46 51 47 52 61 54
REMARK SMILES IDX 82 55 49 56 33 57 34 58 42 59 35 60 36 61 40 62 43 63 37 64
REMARK SMILES IDX 38 65 41 66 39 67 65 68 66 69 74 70 67 71 68 72 72 73 75 74
REMARK SMILES IDX 69 75 70 76 73 77 71 78 50 79 51 80 59 81 52 82 53 83 57 84
REMARK SMILES IDX 60 85 54 86 55 87 58 88 56 89
REMARK H PARENT 80 42 48 53
REMARK Flexibility Score: inf
ROOT
ATOM      1  C   UNL A   1      36.618  20.651  25.003  1.00  0.00     0.275 C 
ENDROOT
BRANCH   1   2
ATOM      2  C   UNL A   1      35.266  21.366  25.031  1.00  0.00     0.275 C 
BRANCH   2   3
ATOM      3  O   UNL A   1      35.419  22.801  24.952  1.00  0.00    -0.459 OA
BRANCH   3   4
ATOM      4  C   UNL A   1      35.198  23.341  23.732  1.00  0.00     0.338 C 
ATOM      5  O   UNL A   1      35.715  22.998  22.680  1.00  0.00    -0.246 OA
BRANCH   4   6
ATOM      6  C   UNL A   1      34.196  24.422  23.809  1.00  0.00     0.087 C 
ATOM      7  C   UNL A   1      29.852  27.191  23.725  1.00  0.00     0.048 C 
ATOM      8  C   UNL A   1      31.174  27.255  24.435  1.00  0.00    -0.007 A 
ATOM      9  C   UNL A   1      31.357  28.219  25.442  1.00  0.00     0.027 A 
ATOM     10  C   UNL A   1      32.196  26.330  24.176  1.00  0.00     0.131 A 
ATOM     11  C   UNL A   1      32.554  28.285  26.150  1.00  0.00     0.042 A 
ATOM     12  C   UNL A   1      33.388  26.398  24.902  1.00  0.00     0.019 A 
ATOM     13  O   UNL A   1      31.982  25.395  23.198  1.00  0.00    -0.475 OA
ATOM     14  Cl  UNL A   1      32.767  29.469  27.379  1.00  0.00    -0.084 Cl
ATOM     15  C   UNL A   1      33.574  27.383  25.879  1.00  0.00     0.032 A 
ATOM     16  C   UNL A   1      34.423  25.412  24.676  1.00  0.00     0.027 C 
ATOM     17  C   UNL A   1      32.913  24.286  23.045  1.00  0.00     0.316 C 
BRANCH  17  18
ATOM     18  C   UNL A   1      32.188  22.979  23.406  1.00  0.00     0.430 C 
ATOM     19  F   UNL A   1      32.267  22.720  24.733  1.00  0.00    -0.167 F 
ATOM     20  F   UNL A   1      30.868  23.042  23.103  1.00  0.00    -0.167 F 
ATOM     21  F   UNL A   1      32.702  21.914  22.752  1.00  0.00    -0.167 F 
ENDBRANCH  17  18
ENDBRANCH   4   6
ENDBRANCH   3   4
ENDBRANCH   2   3
ENDBRANCH   1   2
BRANCH   1  22
ATOM     22  O   UNL A   1      37.700  21.602  25.007  1.00  0.00    -0.458 OA
BRANCH  22  23
ATOM     23  C   UNL A   1      38.761  21.249  25.766  1.00  0.00     0.338 C 
ATOM     24  O   UNL A   1      39.323  20.169  25.803  1.00  0.00    -0.246 OA
BRANCH  23  25
ATOM     25  C   UNL A   1      39.262  22.403  26.526  1.00  0.00     0.060 A 
ATOM     26  C   UNL A   1      38.754  23.658  26.220  1.00  0.00     0.016 A 
ATOM     27  C   UNL A   1      40.389  22.287  27.334  1.00  0.00     0.016 A 
ATOM     28  C   UNL A   1      39.475  24.800  26.549  1.00  0.00     0.010 A 
ATOM     29  C   UNL A   1      41.016  23.445  27.810  1.00  0.00     0.010 A 
ATOM     30  C   UNL A   1      40.606  24.719  27.375  1.00  0.00    -0.014 A 
BRANCH  30  31
ATOM     31  C   UNL A   1      41.359  25.950  27.757  1.00  0.00     0.031 A 
ATOM     32  C   UNL A   1      40.707  27.010  28.611  1.00  0.00     0.074 A 
ATOM     33  C   UNL A   1      42.637  26.123  27.355  1.00  0.00     0.049 A 
ATOM     34  N   UNL A   1      41.096  28.238  28.851  1.00  0.00    -0.248 NA
ATOM     35  C   UNL A   1      39.444  26.648  29.274  1.00  0.00     0.031 C 
ATOM     36  C   UNL A   1      43.426  25.157  26.588  1.00  0.00     0.029 A 
ATOM     37  N   UNL A   1      43.503  27.172  27.544  1.00  0.00    -0.354 N 
ATOM     38  C   UNL A   1      40.102  28.808  29.637  1.00  0.00     0.074 A 
ATOM     39  C   UNL A   1      39.086  27.796  29.831  1.00  0.00     0.031 C 
ATOM     40  C   UNL A   1      44.667  25.630  26.420  1.00  0.00     0.029 A 
ATOM     41  C   UNL A   1      44.729  26.984  26.949  1.00  0.00     0.049 A 
ATOM     42  H   UNL A   1      43.270  27.981  28.055  1.00  0.00     0.167 HD
ATOM     43  C   UNL A   1      40.046  30.063  30.148  1.00  0.00     0.037 A 
ATOM     44  C   UNL A   1      45.768  27.824  26.784  1.00  0.00     0.037 A 
ATOM     45  C   UNL A   1      41.091  31.044  29.994  1.00  0.00     0.049 A 
ATOM     46  C   UNL A   1      45.655  29.229  27.296  1.00  0.00     0.074 A 
ATOM     47  C   UNL A   1      41.129  32.345  30.466  1.00  0.00     0.029 A 
ATOM     48  N   UNL A   1      42.293  30.824  29.337  1.00  0.00    -0.354 N 
ATOM     49  N   UNL A   1      44.671  29.791  27.955  1.00  0.00    -0.248 NA
ATOM     50  C   UNL A   1      46.784  30.126  27.020  1.00  0.00     0.031 C 
ATOM     51  C   UNL A   1      42.333  32.925  30.056  1.00  0.00     0.029 A 
ATOM     52  C   UNL A   1      43.072  31.970  29.379  1.00  0.00     0.049 A 
ATOM     53  H   UNL A   1      42.554  29.979  28.905  1.00  0.00     0.167 HD
ATOM     54  C   UNL A   1      45.067  31.099  28.188  1.00  0.00     0.074 A 
ATOM     55  C   UNL A   1      46.391  31.242  27.617  1.00  0.00     0.031 C 
ATOM     56  C   UNL A   1      44.392  32.094  28.813  1.00  0.00     0.037 A 
BRANCH  43  57
ATOM     57  C   UNL A   1      38.809  30.470  30.898  1.00  0.00     0.064 A 
ATOM     58  C   UNL A   1      38.729  30.401  32.297  1.00  0.00     0.173 A 
ATOM     59  C   UNL A   1      37.713  31.014  30.208  1.00  0.00     0.173 A 
ATOM     60  F   UNL A   1      39.741  29.880  33.005  1.00  0.00    -0.203 F 
ATOM     61  C   UNL A   1      37.595  30.848  32.973  1.00  0.00     0.198 A 
ATOM     62  C   UNL A   1      36.594  31.488  30.889  1.00  0.00     0.198 A 
ATOM     63  F   UNL A   1      37.736  31.110  28.870  1.00  0.00    -0.203 F 
ATOM     64  F   UNL A   1      37.528  30.740  34.308  1.00  0.00    -0.200 F 
ATOM     65  C   UNL A   1      36.534  31.400  32.271  1.00  0.00     0.200 A 
ATOM     66  F   UNL A   1      35.578  32.036  30.208  1.00  0.00    -0.200 F 
ATOM     67  F   UNL A   1      35.454  31.848  32.926  1.00  0.00    -0.200 F 
ENDBRANCH  43  57
BRANCH  44  68
ATOM     68  C   UNL A   1      46.983  27.360  26.061  1.00  0.00     0.064 A 
ATOM     69  C   UNL A   1      47.102  27.527  24.676  1.00  0.00     0.173 A 
ATOM     70  C   UNL A   1      48.062  26.772  26.741  1.00  0.00     0.173 A 
ATOM     71  F   UNL A   1      46.089  28.058  23.975  1.00  0.00    -0.203 F 
ATOM     72  C   UNL A   1      48.252  27.125  23.998  1.00  0.00     0.198 A 
ATOM     73  C   UNL A   1      49.225  26.404  26.069  1.00  0.00     0.198 A 
ATOM     74  F   UNL A   1      48.000  26.587  28.068  1.00  0.00    -0.203 F 
ATOM     75  F   UNL A   1      48.327  27.264  22.668  1.00  0.00    -0.200 F 
ATOM     76  C   UNL A   1      49.317  26.576  24.697  1.00  0.00     0.200 A 
ATOM     77  F   UNL A   1      50.258  25.894  26.753  1.00  0.00    -0.200 F 
ATOM     78  F   UNL A   1      50.430  26.210  24.048  1.00  0.00    -0.200 F 
ENDBRANCH  44  68
BRANCH  56  79
ATOM     79  C   UNL A   1      45.087  33.417  28.946  1.00  0.00     0.064 A 
ATOM     80  C   UNL A   1      45.957  33.687  30.011  1.00  0.00     0.173 A 
ATOM     81  C   UNL A   1      44.909  34.412  27.972  1.00  0.00     0.173 A 
ATOM     82  F   UNL A   1      46.148  32.775  30.976  1.00  0.00    -0.203 F 
ATOM     83  C   UNL A   1      46.605  34.916  30.111  1.00  0.00     0.198 A 
ATOM     84  C   UNL A   1      45.584  35.625  28.057  1.00  0.00     0.198 A 
ATOM     85  F   UNL A   1      44.092  34.199  26.928  1.00  0.00    -0.203 F 
ATOM     86  F   UNL A   1      47.394  35.171  31.163  1.00  0.00    -0.200 F 
ATOM     87  C   UNL A   1      46.425  35.880  29.129  1.00  0.00     0.200 A 
ATOM     88  F   UNL A   1      45.421  36.549  27.100  1.00  0.00    -0.200 F 
ATOM     89  F   UNL A   1      47.057  37.058  29.221  1.00  0.00    -0.200 F 
ENDBRANCH  56  79
ENDBRANCH  30  31
ENDBRANCH  23  25
ENDBRANCH  22  23
ENDBRANCH   1  22
TORSDOF 12
ENDMDL
