MODEL 1
REMARK VINA RESULT:     -12.0      0.000      0.000
REMARK SMILES CC(C)(C)OC(=O)c1c(F)ccc(C(=O)OCCOC(=O)c2ccc(-c3c4nc(c(-c5c(F)c(F)c(F)c(F)c5F)c5ccc([nH]5)c(-c5c(F)c(F)c(F)c(F)c5F)c5nc(c(-c6c(F)c(F)c(F)c(F)c6F)c6ccc3[nH]6)C=C5)C=C4)cc2)c1N
REMARK SMILES IDX 17 1 16 2 14 3 15 4 13 5 8 6 9 7 85 8 10 9 11 10 12 11 6 12
REMARK SMILES IDX 7 13 5 14 2 15 1 16 3 17 4 18 86 19 18 22 19 23 20 24 21 25
REMARK SMILES IDX 22 26 23 27 84 28 24 29 83 30 25 31 26 32 27 33 77 34 28 35
REMARK SMILES IDX 82 36 76 37 78 38 29 39 81 40 75 41 74 42 30 44 62 45 42 46
REMARK SMILES IDX 61 47 43 48 46 49 60 50 79 51 44 52 45 53 59 55 80 56 47 57
REMARK SMILES IDX 31 58 32 59 40 60 33 61 34 62 38 63 41 64 35 65 36 66 39 67
REMARK SMILES IDX 37 68 63 69 64 70 72 71 65 72 66 73 70 74 73 75 67 76 68 77
REMARK SMILES IDX 71 78 69 79 48 80 49 81 57 82 50 83 51 84 55 85 58 86 52 87
REMARK SMILES IDX 53 88 56 89 54 90
REMARK H PARENT 86 20 86 21 78 43 46 54
REMARK Flexibility Score: inf
ROOT
ATOM      1  C   UNL A   1      33.632  28.560  25.003  1.00  0.00     0.275 C 
ENDROOT
BRANCH   1   2
ATOM      2  O   UNL A   1      33.497  28.239  23.602  1.00  0.00    -0.458 OA
BRANCH   2   3
ATOM      3  C   UNL A   1      32.710  27.175  23.293  1.00  0.00     0.340 C 
ATOM      4  O   UNL A   1      33.075  26.012  23.222  1.00  0.00    -0.246 OA
BRANCH   3   5
ATOM      5  C   UNL A   1      31.276  27.568  23.174  1.00  0.00     0.084 A 
ATOM      6  C   UNL A   1      29.439  28.986  22.494  1.00  0.00     0.119 A 
ATOM      7  C   UNL A   1      28.537  28.101  23.098  1.00  0.00     0.139 A 
ATOM      8  C   UNL A   1      30.837  28.754  22.544  1.00  0.00     0.064 A 
ATOM      9  F   UNL A   1      27.215  28.320  23.064  1.00  0.00    -0.206 F 
ATOM     10  C   UNL A   1      28.981  26.938  23.703  1.00  0.00     0.041 A 
ATOM     11  C   UNL A   1      30.341  26.656  23.705  1.00  0.00     0.021 A 
BRANCH   6  12
ATOM     12  C   UNL A   1      28.835  30.158  21.832  1.00  0.00     0.343 C 
ATOM     13  O   UNL A   1      27.995  30.088  20.954  1.00  0.00    -0.246 OA
BRANCH  12  14
ATOM     14  O   UNL A   1      29.412  31.283  22.320  1.00  0.00    -0.456 OA
BRANCH  14  15
ATOM     15  C   UNL A   1      28.796  32.010  23.413  1.00  0.00     0.104 C 
ATOM     16  C   UNL A   1      29.718  31.759  24.615  1.00  0.00     0.056 C 
ATOM     17  C   UNL A   1      27.404  31.460  23.741  1.00  0.00     0.056 C 
ATOM     18  C   UNL A   1      28.772  33.512  23.115  1.00  0.00     0.056 C 
ENDBRANCH  14  15
ENDBRANCH  12  14
ENDBRANCH   6  12
BRANCH   8  19
ATOM     19  N   UNL A   1      31.743  29.603  21.907  1.00  0.00    -0.397 N 
ATOM     20  H   UNL A   1      32.711  29.437  21.985  1.00  0.00     0.156 HD
ATOM     21  H   UNL A   1      31.415  30.367  21.381  1.00  0.00     0.156 HD
ENDBRANCH   8  19
ENDBRANCH   3   5
ENDBRANCH   2   3
ENDBRANCH   1   2
BRANCH   1  22
ATOM     22  C   UNL A   1      32.896  29.855  25.349  1.00  0.00     0.275 C 
BRANCH  22  23
ATOM     23  O   UNL A   1      32.859  30.041  26.775  1.00  0.00    -0.458 OA
BRANCH  23  24
ATOM     24  C   UNL A   1      33.420  31.184  27.223  1.00  0.00     0.338 C 
ATOM     25  O   UNL A   1      32.906  32.286  27.318  1.00  0.00    -0.246 OA
BRANCH  24  26
ATOM     26  C   UNL A   1      34.774  30.906  27.720  1.00  0.00     0.060 A 
ATOM     27  C   UNL A   1      35.050  29.608  28.131  1.00  0.00     0.016 A 
ATOM     28  C   UNL A   1      35.693  31.924  27.949  1.00  0.00     0.016 A 
ATOM     29  C   UNL A   1      36.195  29.329  28.869  1.00  0.00     0.010 A 
ATOM     30  C   UNL A   1      36.899  31.622  28.599  1.00  0.00     0.010 A 
ATOM     31  C   UNL A   1      37.146  30.331  29.106  1.00  0.00    -0.014 A 
BRANCH  31  32
ATOM     32  C   UNL A   1      38.362  30.033  29.920  1.00  0.00     0.031 A 
ATOM     33  C   UNL A   1      39.454  29.158  29.359  1.00  0.00     0.074 A 
ATOM     34  C   UNL A   1      38.511  30.564  31.151  1.00  0.00     0.049 A 
ATOM     35  N   UNL A   1      40.495  28.639  29.962  1.00  0.00    -0.248 NA
ATOM     36  C   UNL A   1      39.355  28.809  27.934  1.00  0.00     0.031 C 
ATOM     37  C   UNL A   1      37.564  31.468  31.805  1.00  0.00     0.029 A 
ATOM     38  N   UNL A   1      39.521  30.424  32.073  1.00  0.00    -0.354 N 
ATOM     39  C   UNL A   1      41.136  27.856  29.009  1.00  0.00     0.074 A 
ATOM     40  C   UNL A   1      40.364  27.962  27.790  1.00  0.00     0.031 C 
ATOM     41  C   UNL A   1      38.052  31.830  33.000  1.00  0.00     0.029 A 
ATOM     42  C   UNL A   1      39.294  31.108  33.243  1.00  0.00     0.049 A 
ATOM     43  H   UNL A   1      40.330  29.885  31.910  1.00  0.00     0.167 HD
ATOM     44  C   UNL A   1      42.265  27.117  29.141  1.00  0.00     0.037 A 
ATOM     45  C   UNL A   1      39.977  31.115  34.405  1.00  0.00     0.037 A 
ATOM     46  C   UNL A   1      43.063  27.060  30.340  1.00  0.00     0.049 A 
ATOM     47  C   UNL A   1      41.207  30.264  34.538  1.00  0.00     0.074 A 
ATOM     48  C   UNL A   1      44.232  26.354  30.567  1.00  0.00     0.029 A 
ATOM     49  N   UNL A   1      42.781  27.750  31.510  1.00  0.00    -0.354 N 
ATOM     50  N   UNL A   1      41.772  29.482  33.650  1.00  0.00    -0.248 NA
ATOM     51  C   UNL A   1      41.885  30.281  35.842  1.00  0.00     0.031 C 
ATOM     52  C   UNL A   1      44.634  26.583  31.887  1.00  0.00     0.029 A 
ATOM     53  C   UNL A   1      43.745  27.474  32.466  1.00  0.00     0.049 A 
ATOM     54  H   UNL A   1      42.010  28.347  31.641  1.00  0.00     0.167 HD
ATOM     55  C   UNL A   1      42.876  28.925  34.280  1.00  0.00     0.074 A 
ATOM     56  C   UNL A   1      42.916  29.477  35.619  1.00  0.00     0.031 C 
ATOM     57  C   UNL A   1      43.772  28.032  33.795  1.00  0.00     0.037 A 
BRANCH  44  58
ATOM     58  C   UNL A   1      42.689  26.276  27.968  1.00  0.00     0.064 A 
ATOM     59  C   UNL A   1      43.606  26.735  27.011  1.00  0.00     0.173 A 
ATOM     60  C   UNL A   1      42.186  24.974  27.819  1.00  0.00     0.173 A 
ATOM     61  F   UNL A   1      44.108  27.977  27.100  1.00  0.00    -0.203 F 
ATOM     62  C   UNL A   1      43.978  25.937  25.933  1.00  0.00     0.198 A 
ATOM     63  C   UNL A   1      42.586  24.166  26.757  1.00  0.00     0.198 A 
ATOM     64  F   UNL A   1      41.313  24.478  28.709  1.00  0.00    -0.203 F 
ATOM     65  F   UNL A   1      44.814  26.417  25.001  1.00  0.00    -0.200 F 
ATOM     66  C   UNL A   1      43.473  24.650  25.809  1.00  0.00     0.200 A 
ATOM     67  F   UNL A   1      42.108  22.918  26.649  1.00  0.00    -0.200 F 
ATOM     68  F   UNL A   1      43.836  23.881  24.774  1.00  0.00    -0.200 F 
ENDBRANCH  44  58
BRANCH  45  69
ATOM     69  C   UNL A   1      39.473  31.921  35.550  1.00  0.00     0.064 A 
ATOM     70  C   UNL A   1      39.904  33.237  35.756  1.00  0.00     0.173 A 
ATOM     71  C   UNL A   1      38.541  31.392  36.456  1.00  0.00     0.173 A 
ATOM     72  F   UNL A   1      40.816  33.780  34.934  1.00  0.00    -0.203 F 
ATOM     73  C   UNL A   1      39.429  33.992  36.827  1.00  0.00     0.198 A 
ATOM     74  C   UNL A   1      38.039  32.158  37.506  1.00  0.00     0.198 A 
ATOM     75  F   UNL A   1      38.096  30.135  36.306  1.00  0.00    -0.203 F 
ATOM     76  F   UNL A   1      39.889  35.234  37.025  1.00  0.00    -0.200 F 
ATOM     77  C   UNL A   1      38.489  33.455  37.695  1.00  0.00     0.200 A 
ATOM     78  F   UNL A   1      37.118  31.639  38.329  1.00  0.00    -0.200 F 
ATOM     79  F   UNL A   1      38.021  34.185  38.716  1.00  0.00    -0.200 F 
ENDBRANCH  45  69
BRANCH  57  80
ATOM     80  C   UNL A   1      44.892  27.623  34.708  1.00  0.00     0.064 A 
ATOM     81  C   UNL A   1      44.790  26.501  35.541  1.00  0.00     0.173 A 
ATOM     82  C   UNL A   1      46.092  28.351  34.728  1.00  0.00     0.173 A 
ATOM     83  F   UNL A   1      43.657  25.783  35.571  1.00  0.00    -0.203 F 
ATOM     84  C   UNL A   1      45.839  26.137  36.383  1.00  0.00     0.198 A 
ATOM     85  C   UNL A   1      47.149  27.968  35.549  1.00  0.00     0.198 A 
ATOM     86  F   UNL A   1      46.242  29.430  33.945  1.00  0.00    -0.203 F 
ATOM     87  F   UNL A   1      45.699  25.092  37.209  1.00  0.00    -0.200 F 
ATOM     88  C   UNL A   1      47.017  26.867  36.382  1.00  0.00     0.200 A 
ATOM     89  F   UNL A   1      48.292  28.667  35.537  1.00  0.00    -0.200 F 
ATOM     90  F   UNL A   1      48.026  26.514  37.190  1.00  0.00    -0.200 F 
ENDBRANCH  57  80
ENDBRANCH  31  32
ENDBRANCH  24  26
ENDBRANCH  23  24
ENDBRANCH  22  23
ENDBRANCH   1  22
TORSDOF 15
ENDMDL
MODEL 2
REMARK VINA RESULT:     -11.5      4.257      8.986
REMARK SMILES CC(C)(C)OC(=O)c1c(F)ccc(C(=O)OCCOC(=O)c2ccc(-c3c4nc(c(-c5c(F)c(F)c(F)c(F)c5F)c5ccc([nH]5)c(-c5c(F)c(F)c(F)c(F)c5F)c5nc(c(-c6c(F)c(F)c(F)c(F)c6F)c6ccc3[nH]6)C=C5)C=C4)cc2)c1N
REMARK SMILES IDX 17 1 16 2 14 3 15 4 13 5 8 6 9 7 85 8 10 9 11 10 12 11 6 12
REMARK SMILES IDX 7 13 5 14 2 15 1 16 3 17 4 18 86 19 18 22 19 23 20 24 21 25
REMARK SMILES IDX 22 26 23 27 84 28 24 29 83 30 25 31 26 32 27 33 77 34 28 35
REMARK SMILES IDX 82 36 76 37 78 38 29 39 81 40 75 41 74 42 30 44 62 45 42 46
REMARK SMILES IDX 61 47 43 48 46 49 60 50 79 51 44 52 45 53 59 55 80 56 47 57
REMARK SMILES IDX 31 58 32 59 40 60 33 61 34 62 38 63 41 64 35 65 36 66 39 67
REMARK SMILES IDX 37 68 63 69 64 70 72 71 65 72 66 73 70 74 73 75 67 76 68 77
REMARK SMILES IDX 71 78 69 79 48 80 49 81 57 82 50 83 51 84 55 85 58 86 52 87
REMARK SMILES IDX 53 88 56 89 54 90
REMARK H PARENT 86 20 86 21 78 43 46 54
REMARK Flexibility Score: inf
ROOT
ATOM      1  C   UNL A   1      42.448  20.381  26.139  1.00  0.00     0.275 C 
ENDROOT
BRANCH   1   2
ATOM      2  O   UNL A   1      41.185  20.930  26.572  1.00  0.00    -0.458 OA
BRANCH   2   3
ATOM      3  C   UNL A   1      40.067  20.401  26.011  1.00  0.00     0.340 C 
ATOM      4  O   UNL A   1      39.882  19.220  25.758  1.00  0.00    -0.246 OA
BRANCH   3   5
ATOM      5  C   UNL A   1      38.995  21.427  25.848  1.00  0.00     0.084 A 
ATOM      6  C   UNL A   1      36.866  22.272  25.074  1.00  0.00     0.119 A 
ATOM      7  C   UNL A   1      37.149  23.511  25.663  1.00  0.00     0.139 A 
ATOM      8  C   UNL A   1      37.800  21.206  25.128  1.00  0.00     0.064 A 
ATOM      9  F   UNL A   1      36.275  24.526  25.605  1.00  0.00    -0.206 F 
ATOM     10  C   UNL A   1      38.319  23.709  26.374  1.00  0.00     0.041 A 
ATOM     11  C   UNL A   1      39.218  22.658  26.498  1.00  0.00     0.021 A 
BRANCH   6  12
ATOM     12  C   UNL A   1      35.560  22.171  24.395  1.00  0.00     0.343 C 
ATOM     13  O   UNL A   1      35.242  22.837  23.427  1.00  0.00    -0.246 OA
BRANCH  12  14
ATOM     14  O   UNL A   1      34.787  21.279  25.060  1.00  0.00    -0.456 OA
BRANCH  14  15
ATOM     15  C   UNL A   1      33.603  21.718  25.772  1.00  0.00     0.104 C 
ATOM     16  C   UNL A   1      33.914  21.446  27.250  1.00  0.00     0.056 C 
ATOM     17  C   UNL A   1      32.371  20.899  25.373  1.00  0.00     0.056 C 
ATOM     18  C   UNL A   1      33.387  23.222  25.581  1.00  0.00     0.056 C 
ENDBRANCH  14  15
ENDBRANCH  12  14
ENDBRANCH   6  12
BRANCH   8  19
ATOM     19  N   UNL A   1      37.513  19.953  24.585  1.00  0.00    -0.397 N 
ATOM     20  H   UNL A   1      37.418  19.849  23.611  1.00  0.00     0.156 HD
ATOM     21  H   UNL A   1      37.407  19.174  25.176  1.00  0.00     0.156 HD
ENDBRANCH   8  19
ENDBRANCH   3   5
ENDBRANCH   2   3
ENDBRANCH   1   2
BRANCH   1  22
ATOM     22  C   UNL A   1      43.415  21.486  25.710  1.00  0.00     0.275 C 
BRANCH  22  23
ATOM     23  O   UNL A   1      42.684  22.623  25.217  1.00  0.00    -0.458 OA
BRANCH  23  24
ATOM     24  C   UNL A   1      43.358  23.793  25.231  1.00  0.00     0.338 C 
ATOM     25  O   UNL A   1      44.298  24.127  24.530  1.00  0.00    -0.246 OA
BRANCH  24  26
ATOM     26  C   UNL A   1      42.715  24.719  26.173  1.00  0.00     0.060 A 
ATOM     27  C   UNL A   1      43.085  26.057  26.107  1.00  0.00     0.016 A 
ATOM     28  C   UNL A   1      41.909  24.266  27.211  1.00  0.00     0.016 A 
ATOM     29  C   UNL A   1      42.748  26.934  27.131  1.00  0.00     0.010 A 
ATOM     30  C   UNL A   1      41.478  25.175  28.188  1.00  0.00     0.010 A 
ATOM     31  C   UNL A   1      41.927  26.510  28.185  1.00  0.00    -0.014 A 
BRANCH  31  32
ATOM     32  C   UNL A   1      41.587  27.450  29.295  1.00  0.00     0.031 A 
ATOM     33  C   UNL A   1      42.404  27.454  30.562  1.00  0.00     0.074 A 
ATOM     34  C   UNL A   1      40.567  28.323  29.167  1.00  0.00     0.049 A 
ATOM     35  N   UNL A   1      42.169  28.058  31.701  1.00  0.00    -0.248 NA
ATOM     36  C   UNL A   1      43.643  26.662  30.552  1.00  0.00     0.031 C 
ATOM     37  C   UNL A   1      39.720  28.471  27.982  1.00  0.00     0.029 A 
ATOM     38  N   UNL A   1      40.070  29.258  30.044  1.00  0.00    -0.354 N 
ATOM     39  C   UNL A   1      43.194  27.669  32.557  1.00  0.00     0.074 A 
ATOM     40  C   UNL A   1      44.048  26.773  31.809  1.00  0.00     0.031 C 
ATOM     41  C   UNL A   1      38.838  29.458  28.191  1.00  0.00     0.029 A 
ATOM     42  C   UNL A   1      38.985  29.946  29.556  1.00  0.00     0.049 A 
ATOM     43  H   UNL A   1      40.454  29.419  30.937  1.00  0.00     0.167 HD
ATOM     44  C   UNL A   1      43.401  28.029  33.847  1.00  0.00     0.037 A 
ATOM     45  C   UNL A   1      38.164  30.832  30.152  1.00  0.00     0.037 A 
ATOM     46  C   UNL A   1      42.580  28.968  34.570  1.00  0.00     0.049 A 
ATOM     47  C   UNL A   1      38.394  31.191  31.592  1.00  0.00     0.074 A 
ATOM     48  C   UNL A   1      42.717  29.410  35.875  1.00  0.00     0.029 A 
ATOM     49  N   UNL A   1      41.476  29.622  34.042  1.00  0.00    -0.354 N 
ATOM     50  N   UNL A   1      39.330  30.775  32.410  1.00  0.00    -0.248 NA
ATOM     51  C   UNL A   1      37.441  32.131  32.199  1.00  0.00     0.031 C 
ATOM     52  C   UNL A   1      41.672  30.298  36.150  1.00  0.00     0.029 A 
ATOM     53  C   UNL A   1      40.915  30.451  35.001  1.00  0.00     0.049 A 
ATOM     54  H   UNL A   1      41.141  29.513  33.124  1.00  0.00     0.167 HD
ATOM     55  C   UNL A   1      39.089  31.408  33.621  1.00  0.00     0.074 A 
ATOM     56  C   UNL A   1      37.932  32.256  33.425  1.00  0.00     0.031 C 
ATOM     57  C   UNL A   1      39.763  31.292  34.791  1.00  0.00     0.037 A 
BRANCH  44  58
ATOM     58  C   UNL A   1      44.541  27.377  34.579  1.00  0.00     0.064 A 
ATOM     59  C   UNL A   1      45.818  27.954  34.639  1.00  0.00     0.173 A 
ATOM     60  C   UNL A   1      44.340  26.163  35.255  1.00  0.00     0.173 A 
ATOM     61  F   UNL A   1      46.068  29.107  34.000  1.00  0.00    -0.203 F 
ATOM     62  C   UNL A   1      46.858  27.326  35.321  1.00  0.00     0.198 A 
ATOM     63  C   UNL A   1      45.374  25.554  35.963  1.00  0.00     0.198 A 
ATOM     64  F   UNL A   1      43.137  25.570  35.239  1.00  0.00    -0.203 F 
ATOM     65  F   UNL A   1      48.083  27.869  35.319  1.00  0.00    -0.200 F 
ATOM     66  C   UNL A   1      46.634  26.130  35.988  1.00  0.00     0.200 A 
ATOM     67  F   UNL A   1      45.150  24.407  36.619  1.00  0.00    -0.200 F 
ATOM     68  F   UNL A   1      47.634  25.530  36.647  1.00  0.00    -0.200 F 
ENDBRANCH  44  58
BRANCH  45  69
ATOM     69  C   UNL A   1      37.015  31.397  29.394  1.00  0.00     0.064 A 
ATOM     70  C   UNL A   1      35.910  30.606  29.054  1.00  0.00     0.173 A 
ATOM     71  C   UNL A   1      36.995  32.745  29.004  1.00  0.00     0.173 A 
ATOM     72  F   UNL A   1      35.893  29.304  29.380  1.00  0.00    -0.203 F 
ATOM     73  C   UNL A   1      34.834  31.137  28.347  1.00  0.00     0.198 A 
ATOM     74  C   UNL A   1      35.903  33.285  28.328  1.00  0.00     0.198 A 
ATOM     75  F   UNL A   1      38.028  33.547  29.302  1.00  0.00    -0.203 F 
ATOM     76  F   UNL A   1      33.808  30.349  27.999  1.00  0.00    -0.200 F 
ATOM     77  C   UNL A   1      34.826  32.478  27.994  1.00  0.00     0.200 A 
ATOM     78  F   UNL A   1      35.894  34.585  28.006  1.00  0.00    -0.200 F 
ATOM     79  F   UNL A   1      33.784  32.993  27.327  1.00  0.00    -0.200 F 
ENDBRANCH  45  69
BRANCH  57  80
ATOM     80  C   UNL A   1      39.283  32.129  35.941  1.00  0.00     0.064 A 
ATOM     81  C   UNL A   1      38.324  31.655  36.847  1.00  0.00     0.173 A 
ATOM     82  C   UNL A   1      39.811  33.413  36.152  1.00  0.00     0.173 A 
ATOM     83  F   UNL A   1      37.778  30.442  36.679  1.00  0.00    -0.203 F 
ATOM     84  C   UNL A   1      37.890  32.447  37.908  1.00  0.00     0.198 A 
ATOM     85  C   UNL A   1      39.396  34.190  37.229  1.00  0.00     0.198 A 
ATOM     86  F   UNL A   1      40.734  33.910  35.316  1.00  0.00    -0.203 F 
ATOM     87  F   UNL A   1      36.935  31.994  38.731  1.00  0.00    -0.200 F 
ATOM     88  C   UNL A   1      38.430  33.710  38.101  1.00  0.00     0.200 A 
ATOM     89  F   UNL A   1      39.928  35.405  37.422  1.00  0.00    -0.200 F 
ATOM     90  F   UNL A   1      38.013  34.469  39.124  1.00  0.00    -0.200 F 
ENDBRANCH  57  80
ENDBRANCH  31  32
ENDBRANCH  24  26
ENDBRANCH  23  24
ENDBRANCH  22  23
ENDBRANCH   1  22
TORSDOF 15
ENDMDL
MODEL 3
REMARK VINA RESULT:     -11.5      1.563      3.376
REMARK SMILES CC(C)(C)OC(=O)c1c(F)ccc(C(=O)OCCOC(=O)c2ccc(-c3c4nc(c(-c5c(F)c(F)c(F)c(F)c5F)c5ccc([nH]5)c(-c5c(F)c(F)c(F)c(F)c5F)c5nc(c(-c6c(F)c(F)c(F)c(F)c6F)c6ccc3[nH]6)C=C5)C=C4)cc2)c1N
REMARK SMILES IDX 17 1 16 2 14 3 15 4 13 5 8 6 9 7 85 8 10 9 11 10 12 11 6 12
REMARK SMILES IDX 7 13 5 14 2 15 1 16 3 17 4 18 86 19 18 22 19 23 20 24 21 25
REMARK SMILES IDX 22 26 23 27 84 28 24 29 83 30 25 31 26 32 27 33 77 34 28 35
REMARK SMILES IDX 82 36 76 37 78 38 29 39 81 40 75 41 74 42 30 44 62 45 42 46
REMARK SMILES IDX 61 47 43 48 46 49 60 50 79 51 44 52 45 53 59 55 80 56 47 57
REMARK SMILES IDX 31 58 32 59 40 60 33 61 34 62 38 63 41 64 35 65 36 66 39 67
REMARK SMILES IDX 37 68 63 69 64 70 72 71 65 72 66 73 70 74 73 75 67 76 68 77
REMARK SMILES IDX 71 78 69 79 48 80 49 81 57 82 50 83 51 84 55 85 58 86 52 87
REMARK SMILES IDX 53 88 56 89 54 90
REMARK H PARENT 86 20 86 21 78 43 46 54
REMARK Flexibility Score: inf
ROOT
ATOM      1  C   UNL A   1      31.374  29.128  24.992  1.00  0.00     0.275 C 
ENDROOT
BRANCH   1   2
ATOM      2  O   UNL A   1      31.554  29.293  23.570  1.00  0.00    -0.458 OA
BRANCH   2   3
ATOM      3  C   UNL A   1      30.731  28.572  22.764  1.00  0.00     0.340 C 
ATOM      4  O   UNL A   1      29.961  29.030  21.934  1.00  0.00    -0.246 OA
BRANCH   3   5
ATOM      5  C   UNL A   1      30.966  27.106  22.908  1.00  0.00     0.084 A 
ATOM      6  C   UNL A   1      32.236  25.057  22.712  1.00  0.00     0.119 A 
ATOM      7  C   UNL A   1      31.163  24.344  23.260  1.00  0.00     0.139 A 
ATOM      8  C   UNL A   1      32.150  26.456  22.495  1.00  0.00     0.064 A 
ATOM      9  F   UNL A   1      31.233  23.020  23.457  1.00  0.00    -0.206 F 
ATOM     10  C   UNL A   1      30.013  24.995  23.670  1.00  0.00     0.041 A 
ATOM     11  C   UNL A   1      29.933  26.374  23.530  1.00  0.00     0.021 A 
BRANCH   6  12
ATOM     12  C   UNL A   1      33.427  24.255  22.370  1.00  0.00     0.343 C 
ATOM     13  O   UNL A   1      33.465  23.443  21.464  1.00  0.00    -0.246 OA
BRANCH  12  14
ATOM     14  O   UNL A   1      34.413  24.535  23.256  1.00  0.00    -0.456 OA
BRANCH  14  15
ATOM     15  C   UNL A   1      35.106  23.465  23.947  1.00  0.00     0.104 C 
ATOM     16  C   UNL A   1      35.559  24.088  25.275  1.00  0.00     0.056 C 
ATOM     17  C   UNL A   1      36.348  23.008  23.174  1.00  0.00     0.056 C 
ATOM     18  C   UNL A   1      34.149  22.308  24.245  1.00  0.00     0.056 C 
ENDBRANCH  14  15
ENDBRANCH  12  14
ENDBRANCH   6  12
BRANCH   8  19
ATOM     19  N   UNL A   1      33.228  27.186  21.992  1.00  0.00    -0.397 N 
ATOM     20  H   UNL A   1      33.883  27.585  22.609  1.00  0.00     0.156 HD
ATOM     21  H   UNL A   1      33.333  27.302  21.020  1.00  0.00     0.156 HD
ENDBRANCH   8  19
ENDBRANCH   3   5
ENDBRANCH   2   3
ENDBRANCH   1   2
BRANCH   1  22
ATOM     22  C   UNL A   1      31.745  30.404  25.750  1.00  0.00     0.275 C 
BRANCH  22  23
ATOM     23  O   UNL A   1      33.077  30.297  26.283  1.00  0.00    -0.458 OA
BRANCH  23  24
ATOM     24  C   UNL A   1      33.458  31.308  27.093  1.00  0.00     0.338 C 
ATOM     25  O   UNL A   1      32.795  32.260  27.468  1.00  0.00    -0.246 OA
BRANCH  24  26
ATOM     26  C   UNL A   1      34.816  31.054  27.592  1.00  0.00     0.060 A 
ATOM     27  C   UNL A   1      35.151  29.740  27.895  1.00  0.00     0.016 A 
ATOM     28  C   UNL A   1      35.679  32.091  27.927  1.00  0.00     0.016 A 
ATOM     29  C   UNL A   1      36.296  29.455  28.630  1.00  0.00     0.010 A 
ATOM     30  C   UNL A   1      36.887  31.794  28.574  1.00  0.00     0.010 A 
ATOM     31  C   UNL A   1      37.191  30.477  28.972  1.00  0.00    -0.014 A 
BRANCH  31  32
ATOM     32  C   UNL A   1      38.407  30.169  29.783  1.00  0.00     0.031 A 
ATOM     33  C   UNL A   1      39.498  29.298  29.213  1.00  0.00     0.074 A 
ATOM     34  C   UNL A   1      38.558  30.689  31.019  1.00  0.00     0.049 A 
ATOM     35  N   UNL A   1      40.538  28.771  29.811  1.00  0.00    -0.248 NA
ATOM     36  C   UNL A   1      39.397  28.963  27.785  1.00  0.00     0.031 C 
ATOM     37  C   UNL A   1      37.613  31.588  31.682  1.00  0.00     0.029 A 
ATOM     38  N   UNL A   1      39.568  30.538  31.939  1.00  0.00    -0.354 N 
ATOM     39  C   UNL A   1      41.177  27.996  28.849  1.00  0.00     0.074 A 
ATOM     40  C   UNL A   1      40.404  28.115  27.632  1.00  0.00     0.031 C 
ATOM     41  C   UNL A   1      38.102  31.938  32.880  1.00  0.00     0.029 A 
ATOM     42  C   UNL A   1      39.343  31.211  33.116  1.00  0.00     0.049 A 
ATOM     43  H   UNL A   1      40.376  29.999  31.770  1.00  0.00     0.167 HD
ATOM     44  C   UNL A   1      42.304  27.254  28.973  1.00  0.00     0.037 A 
ATOM     45  C   UNL A   1      40.027  31.206  34.277  1.00  0.00     0.037 A 
ATOM     46  C   UNL A   1      43.104  27.184  30.172  1.00  0.00     0.049 A 
ATOM     47  C   UNL A   1      41.255  30.351  34.401  1.00  0.00     0.074 A 
ATOM     48  C   UNL A   1      44.271  26.474  30.391  1.00  0.00     0.029 A 
ATOM     49  N   UNL A   1      42.823  27.864  31.348  1.00  0.00    -0.354 N 
ATOM     50  N   UNL A   1      41.819  29.577  33.506  1.00  0.00    -0.248 NA
ATOM     51  C   UNL A   1      41.934  30.356  35.704  1.00  0.00     0.031 C 
ATOM     52  C   UNL A   1      44.674  26.690  31.713  1.00  0.00     0.029 A 
ATOM     53  C   UNL A   1      43.788  27.577  32.302  1.00  0.00     0.049 A 
ATOM     54  H   UNL A   1      42.053  28.461  31.485  1.00  0.00     0.167 HD
ATOM     55  C   UNL A   1      42.922  29.012  34.129  1.00  0.00     0.074 A 
ATOM     56  C   UNL A   1      42.964  29.552  35.473  1.00  0.00     0.031 C 
ATOM     57  C   UNL A   1      43.817  28.123  33.635  1.00  0.00     0.037 A 
BRANCH  44  58
ATOM     58  C   UNL A   1      42.726  26.423  27.793  1.00  0.00     0.064 A 
ATOM     59  C   UNL A   1      42.215  25.137  27.563  1.00  0.00     0.173 A 
ATOM     60  C   UNL A   1      43.640  26.939  26.860  1.00  0.00     0.173 A 
ATOM     61  F   UNL A   1      41.348  24.591  28.430  1.00  0.00    -0.203 F 
ATOM     62  C   UNL A   1      42.626  24.387  26.464  1.00  0.00     0.198 A 
ATOM     63  C   UNL A   1      44.024  26.200  25.744  1.00  0.00     0.198 A 
ATOM     64  F   UNL A   1      44.155  28.167  27.025  1.00  0.00    -0.203 F 
ATOM     65  F   UNL A   1      42.165  23.140  26.294  1.00  0.00    -0.200 F 
ATOM     66  C   UNL A   1      43.525  24.922  25.551  1.00  0.00     0.200 A 
ATOM     67  F   UNL A   1      44.880  26.724  24.857  1.00  0.00    -0.200 F 
ATOM     68  F   UNL A   1      43.916  24.201  24.491  1.00  0.00    -0.200 F 
ENDBRANCH  44  58
BRANCH  45  69
ATOM     69  C   UNL A   1      39.525  32.002  35.430  1.00  0.00     0.064 A 
ATOM     70  C   UNL A   1      39.963  33.314  35.651  1.00  0.00     0.173 A 
ATOM     71  C   UNL A   1      38.589  31.468  36.328  1.00  0.00     0.173 A 
ATOM     72  F   UNL A   1      40.878  33.861  34.836  1.00  0.00    -0.203 F 
ATOM     73  C   UNL A   1      39.489  34.059  36.729  1.00  0.00     0.198 A 
ATOM     74  C   UNL A   1      38.090  32.225  37.386  1.00  0.00     0.198 A 
ATOM     75  F   UNL A   1      38.138  30.215  36.164  1.00  0.00    -0.203 F 
ATOM     76  F   UNL A   1      39.955  35.297  36.941  1.00  0.00    -0.200 F 
ATOM     77  C   UNL A   1      38.546  33.518  37.589  1.00  0.00     0.200 A 
ATOM     78  F   UNL A   1      37.165  31.702  38.202  1.00  0.00    -0.200 F 
ATOM     79  F   UNL A   1      38.080  34.239  38.617  1.00  0.00    -0.200 F 
ENDBRANCH  45  69
BRANCH  57  80
ATOM     80  C   UNL A   1      44.936  27.703  34.543  1.00  0.00     0.064 A 
ATOM     81  C   UNL A   1      44.812  26.606  35.407  1.00  0.00     0.173 A 
ATOM     82  C   UNL A   1      46.158  28.394  34.529  1.00  0.00     0.173 A 
ATOM     83  F   UNL A   1      43.659  25.923  35.469  1.00  0.00    -0.203 F 
ATOM     84  C   UNL A   1      45.861  26.232  36.244  1.00  0.00     0.198 A 
ATOM     85  C   UNL A   1      47.213  28.000  35.345  1.00  0.00     0.198 A 
ATOM     86  F   UNL A   1      46.329  29.449  33.717  1.00  0.00    -0.203 F 
ATOM     87  F   UNL A   1      45.701  25.212  37.098  1.00  0.00    -0.200 F 
ATOM     88  C   UNL A   1      47.061  26.925  36.208  1.00  0.00     0.200 A 
ATOM     89  F   UNL A   1      48.377  28.663  35.301  1.00  0.00    -0.200 F 
ATOM     90  F   UNL A   1      48.070  26.562  37.012  1.00  0.00    -0.200 F 
ENDBRANCH  57  80
ENDBRANCH  31  32
ENDBRANCH  24  26
ENDBRANCH  23  24
ENDBRANCH  22  23
ENDBRANCH   1  22
TORSDOF 15
ENDMDL
