MODEL 1
REMARK VINA RESULT:     -11.0      0.000      0.000
REMARK SMILES CS(=O)(=O)c1ccc(C(=O)OCCOC(=O)c2ccc(-c3c4nc(c(-c5c(F)c(F)c(F)c(F)c5F)c5ccc([nH]5)c(-c5c(F)c(F)c(F)c(F)c5F)c5nc(c(-c6c(F)c(F)c(F)c(F)c6F)c6ccc3[nH]6)C=C5)C=C4)cc2)o1
REMARK SMILES IDX 13 1 12 2 11 3 9 4 10 5 8 6 5 7 6 8 80 9 7 10 2 11 1 12 3 13
REMARK SMILES IDX 4 14 14 15 15 16 16 17 17 18 18 19 79 20 19 21 78 22 20 23
REMARK SMILES IDX 21 24 22 25 72 26 23 27 77 28 71 29 73 30 24 31 76 32 70 33
REMARK SMILES IDX 69 34 25 36 57 37 37 38 56 39 38 40 41 41 55 42 74 43 39 44
REMARK SMILES IDX 40 45 54 47 75 48 42 49 26 50 27 51 35 52 28 53 29 54 33 55
REMARK SMILES IDX 36 56 30 57 31 58 34 59 32 60 58 61 59 62 67 63 60 64 61 65
REMARK SMILES IDX 65 66 68 67 62 68 63 69 66 70 64 71 43 72 44 73 52 74 45 75
REMARK SMILES IDX 46 76 50 77 53 78 47 79 48 80 51 81 49 82
REMARK H PARENT 73 35 41 46
REMARK Flexibility Score: inf
ROOT
ATOM      1  C   UNL A   1      40.889  21.456  26.165  1.00  0.00     0.275 C 
ENDROOT
BRANCH   1   2
ATOM      2  C   UNL A   1      41.298  20.008  26.464  1.00  0.00     0.275 C 
BRANCH   2   3
ATOM      3  O   UNL A   1      42.060  19.440  25.383  1.00  0.00    -0.456 OA
BRANCH   3   4
ATOM      4  C   UNL A   1      43.168  18.729  25.750  1.00  0.00     0.374 C 
ATOM      5  O   UNL A   1      43.136  17.625  26.274  1.00  0.00    -0.242 OA
BRANCH   4   6
ATOM      6  C   UNL A   1      44.365  19.428  25.337  1.00  0.00     0.213 A 
ATOM      7  C   UNL A   1      45.577  21.284  25.044  1.00  0.00     0.218 A 
ATOM      8  C   UNL A   1      46.402  20.196  24.792  1.00  0.00     0.064 A 
ATOM      9  O   UNL A   1      44.320  20.794  25.318  1.00  0.00    -0.438 OA
ATOM     10  C   UNL A   1      45.637  19.018  24.995  1.00  0.00     0.059 A 
BRANCH   7  11
ATOM     11  S   UNL A   1      45.886  23.050  25.084  1.00  0.00     0.208 S 
ATOM     12  C   UNL A   1      44.274  23.769  24.945  1.00  0.00     0.167 C 
ATOM     13  O   UNL A   1      46.625  23.339  23.871  1.00  0.00    -0.221 OA
ATOM     14  O   UNL A   1      46.412  23.315  26.407  1.00  0.00    -0.221 OA
ENDBRANCH   7  11
ENDBRANCH   4   6
ENDBRANCH   3   4
ENDBRANCH   2   3
ENDBRANCH   1   2
BRANCH   1  15
ATOM     15  O   UNL A   1      39.701  21.847  26.884  1.00  0.00    -0.458 OA
BRANCH  15  16
ATOM     16  C   UNL A   1      38.960  22.816  26.295  1.00  0.00     0.338 C 
ATOM     17  O   UNL A   1      38.080  22.660  25.463  1.00  0.00    -0.246 OA
BRANCH  16  18
ATOM     18  C   UNL A   1      39.263  24.128  26.900  1.00  0.00     0.060 A 
ATOM     19  C   UNL A   1      39.978  25.045  26.126  1.00  0.00     0.016 A 
ATOM     20  C   UNL A   1      38.913  24.440  28.215  1.00  0.00     0.016 A 
ATOM     21  C   UNL A   1      40.345  26.278  26.657  1.00  0.00     0.010 A 
ATOM     22  C   UNL A   1      39.291  25.677  28.753  1.00  0.00     0.010 A 
ATOM     23  C   UNL A   1      40.017  26.598  27.979  1.00  0.00    -0.014 A 
BRANCH  23  24
ATOM     24  C   UNL A   1      40.486  27.886  28.544  1.00  0.00     0.031 A 
ATOM     25  C   UNL A   1      41.949  28.107  28.793  1.00  0.00     0.074 A 
ATOM     26  C   UNL A   1      39.605  28.875  28.778  1.00  0.00     0.049 A 
ATOM     27  N   UNL A   1      42.561  29.168  29.258  1.00  0.00    -0.248 NA
ATOM     28  C   UNL A   1      42.846  26.986  28.476  1.00  0.00     0.031 C 
ATOM     29  C   UNL A   1      38.165  28.791  28.540  1.00  0.00     0.029 A 
ATOM     30  N   UNL A   1      39.794  30.147  29.258  1.00  0.00    -0.354 N 
ATOM     31  C   UNL A   1      43.910  28.842  29.292  1.00  0.00     0.074 A 
ATOM     32  C   UNL A   1      44.027  27.476  28.827  1.00  0.00     0.031 C 
ATOM     33  C   UNL A   1      37.600  29.965  28.864  1.00  0.00     0.029 A 
ATOM     34  C   UNL A   1      38.635  30.873  29.358  1.00  0.00     0.049 A 
ATOM     35  H   UNL A   1      40.678  30.504  29.506  1.00  0.00     0.167 HD
ATOM     36  C   UNL A   1      44.954  29.617  29.670  1.00  0.00     0.037 A 
ATOM     37  C   UNL A   1      38.429  32.127  29.803  1.00  0.00     0.037 A 
ATOM     38  C   UNL A   1      44.838  30.979  30.122  1.00  0.00     0.049 A 
ATOM     39  C   UNL A   1      39.603  32.951  30.256  1.00  0.00     0.074 A 
ATOM     40  C   UNL A   1      45.842  31.849  30.513  1.00  0.00     0.029 A 
ATOM     41  N   UNL A   1      43.641  31.670  30.244  1.00  0.00    -0.354 N 
ATOM     42  N   UNL A   1      40.876  32.640  30.273  1.00  0.00    -0.248 NA
ATOM     43  C   UNL A   1      39.311  34.303  30.753  1.00  0.00     0.031 C 
ATOM     44  C   UNL A   1      45.250  33.053  30.907  1.00  0.00     0.029 A 
ATOM     45  C   UNL A   1      43.880  32.948  30.724  1.00  0.00     0.049 A 
ATOM     46  H   UNL A   1      42.754  31.307  30.022  1.00  0.00     0.167 HD
ATOM     47  C   UNL A   1      41.537  33.759  30.757  1.00  0.00     0.074 A 
ATOM     48  C   UNL A   1      40.526  34.764  31.013  1.00  0.00     0.031 C 
ATOM     49  C   UNL A   1      42.864  33.938  30.970  1.00  0.00     0.037 A 
BRANCH  36  50
ATOM     50  C   UNL A   1      46.320  28.999  29.631  1.00  0.00     0.064 A 
ATOM     51  C   UNL A   1      47.131  29.079  28.490  1.00  0.00     0.173 A 
ATOM     52  C   UNL A   1      46.835  28.347  30.761  1.00  0.00     0.173 A 
ATOM     53  F   UNL A   1      46.679  29.681  27.380  1.00  0.00    -0.203 F 
ATOM     54  C   UNL A   1      48.402  28.511  28.475  1.00  0.00     0.198 A 
ATOM     55  C   UNL A   1      48.115  27.800  30.751  1.00  0.00     0.198 A 
ATOM     56  F   UNL A   1      46.099  28.247  31.878  1.00  0.00    -0.203 F 
ATOM     57  F   UNL A   1      49.146  28.564  27.363  1.00  0.00    -0.200 F 
ATOM     58  C   UNL A   1      48.895  27.876  29.607  1.00  0.00     0.200 A 
ATOM     59  F   UNL A   1      48.593  27.195  31.847  1.00  0.00    -0.200 F 
ATOM     60  F   UNL A   1      50.119  27.332  29.592  1.00  0.00    -0.200 F 
ENDBRANCH  36  50
BRANCH  37  61
ATOM     61  C   UNL A   1      37.050  32.677  29.841  1.00  0.00     0.064 A 
ATOM     62  C   UNL A   1      36.244  32.532  30.978  1.00  0.00     0.173 A 
ATOM     63  C   UNL A   1      36.512  33.357  28.738  1.00  0.00     0.173 A 
ATOM     64  F   UNL A   1      36.706  31.863  32.045  1.00  0.00    -0.203 F 
ATOM     65  C   UNL A   1      34.947  33.038  31.007  1.00  0.00     0.198 A 
ATOM     66  C   UNL A   1      35.224  33.883  28.778  1.00  0.00     0.198 A 
ATOM     67  F   UNL A   1      37.243  33.515  27.625  1.00  0.00    -0.203 F 
ATOM     68  F   UNL A   1      34.180  32.852  32.090  1.00  0.00    -0.200 F 
ATOM     69  C   UNL A   1      34.440  33.719  29.909  1.00  0.00     0.200 A 
ATOM     70  F   UNL A   1      34.740  34.545  27.717  1.00  0.00    -0.200 F 
ATOM     71  F   UNL A   1      33.192  34.207  29.938  1.00  0.00    -0.200 F 
ENDBRANCH  37  61
BRANCH  49  72
ATOM     72  C   UNL A   1      43.301  35.277  31.486  1.00  0.00     0.064 A 
ATOM     73  C   UNL A   1      43.710  36.298  30.616  1.00  0.00     0.173 A 
ATOM     74  C   UNL A   1      43.271  35.553  32.861  1.00  0.00     0.173 A 
ATOM     75  F   UNL A   1      43.768  36.076  29.295  1.00  0.00    -0.203 F 
ATOM     76  C   UNL A   1      44.093  37.543  31.108  1.00  0.00     0.198 A 
ATOM     77  C   UNL A   1      43.633  36.807  33.346  1.00  0.00     0.198 A 
ATOM     78  F   UNL A   1      42.881  34.611  33.733  1.00  0.00    -0.203 F 
ATOM     79  F   UNL A   1      44.517  38.493  30.263  1.00  0.00    -0.200 F 
ATOM     80  C   UNL A   1      44.049  37.798  32.470  1.00  0.00     0.200 A 
ATOM     81  F   UNL A   1      43.579  37.056  34.662  1.00  0.00    -0.200 F 
ATOM     82  F   UNL A   1      44.413  39.000  32.941  1.00  0.00    -0.200 F 
ENDBRANCH  49  72
ENDBRANCH  23  24
ENDBRANCH  16  18
ENDBRANCH  15  16
ENDBRANCH   1  15
TORSDOF 12
ENDMDL
MODEL 2
REMARK VINA RESULT:     -10.9      6.219     11.487
REMARK SMILES CS(=O)(=O)c1ccc(C(=O)OCCOC(=O)c2ccc(-c3c4nc(c(-c5c(F)c(F)c(F)c(F)c5F)c5ccc([nH]5)c(-c5c(F)c(F)c(F)c(F)c5F)c5nc(c(-c6c(F)c(F)c(F)c(F)c6F)c6ccc3[nH]6)C=C5)C=C4)cc2)o1
REMARK SMILES IDX 13 1 12 2 11 3 9 4 10 5 8 6 5 7 6 8 80 9 7 10 2 11 1 12 3 13
REMARK SMILES IDX 4 14 14 15 15 16 16 17 17 18 18 19 79 20 19 21 78 22 20 23
REMARK SMILES IDX 21 24 22 25 72 26 23 27 77 28 71 29 73 30 24 31 76 32 70 33
REMARK SMILES IDX 69 34 25 36 57 37 37 38 56 39 38 40 41 41 55 42 74 43 39 44
REMARK SMILES IDX 40 45 54 47 75 48 42 49 26 50 27 51 35 52 28 53 29 54 33 55
REMARK SMILES IDX 36 56 30 57 31 58 34 59 32 60 58 61 59 62 67 63 60 64 61 65
REMARK SMILES IDX 65 66 68 67 62 68 63 69 66 70 64 71 43 72 44 73 52 74 45 75
REMARK SMILES IDX 46 76 50 77 53 78 47 79 48 80 51 81 49 82
REMARK H PARENT 73 35 41 46
REMARK Flexibility Score: inf
ROOT
ATOM      1  C   UNL A   1      31.761  32.555  27.022  1.00  0.00     0.275 C 
ENDROOT
BRANCH   1   2
ATOM      2  C   UNL A   1      31.940  31.036  26.906  1.00  0.00     0.275 C 
BRANCH   2   3
ATOM      3  O   UNL A   1      32.093  30.625  25.535  1.00  0.00    -0.456 OA
BRANCH   3   4
ATOM      4  C   UNL A   1      32.104  29.275  25.320  1.00  0.00     0.374 C 
ATOM      5  O   UNL A   1      32.799  28.484  25.941  1.00  0.00    -0.242 OA
BRANCH   4   6
ATOM      6  C   UNL A   1      31.108  28.922  24.332  1.00  0.00     0.213 A 
ATOM      7  C   UNL A   1      29.374  29.401  23.004  1.00  0.00     0.218 A 
ATOM      8  C   UNL A   1      29.820  28.127  22.675  1.00  0.00     0.064 A 
ATOM      9  O   UNL A   1      30.138  29.846  24.059  1.00  0.00    -0.438 OA
ATOM     10  C   UNL A   1      30.931  27.831  23.507  1.00  0.00     0.059 A 
BRANCH   7  11
ATOM     11  S   UNL A   1      28.097  30.450  22.308  1.00  0.00     0.208 S 
ATOM     12  C   UNL A   1      28.761  32.086  22.455  1.00  0.00     0.167 C 
ATOM     13  O   UNL A   1      26.968  30.329  23.208  1.00  0.00    -0.221 OA
ATOM     14  O   UNL A   1      28.028  30.090  20.907  1.00  0.00    -0.221 OA
ENDBRANCH   7  11
ENDBRANCH   4   6
ENDBRANCH   3   4
ENDBRANCH   2   3
ENDBRANCH   1   2
BRANCH   1  15
ATOM     15  O   UNL A   1      33.014  33.262  26.920  1.00  0.00    -0.458 OA
BRANCH  15  16
ATOM     16  C   UNL A   1      33.428  33.874  28.055  1.00  0.00     0.338 C 
ATOM     17  O   UNL A   1      32.853  34.767  28.656  1.00  0.00    -0.246 OA
BRANCH  16  18
ATOM     18  C   UNL A   1      34.644  33.216  28.575  1.00  0.00     0.060 A 
ATOM     19  C   UNL A   1      34.476  32.054  29.331  1.00  0.00     0.016 A 
ATOM     20  C   UNL A   1      35.920  33.751  28.382  1.00  0.00     0.016 A 
ATOM     21  C   UNL A   1      35.575  31.418  29.898  1.00  0.00     0.010 A 
ATOM     22  C   UNL A   1      37.027  33.116  28.961  1.00  0.00     0.010 A 
ATOM     23  C   UNL A   1      36.858  31.951  29.729  1.00  0.00    -0.014 A 
BRANCH  23  24
ATOM     24  C   UNL A   1      38.003  31.296  30.406  1.00  0.00     0.031 A 
ATOM     25  C   UNL A   1      38.302  31.607  31.843  1.00  0.00     0.074 A 
ATOM     26  C   UNL A   1      38.738  30.383  29.746  1.00  0.00     0.049 A 
ATOM     27  N   UNL A   1      39.240  31.124  32.619  1.00  0.00    -0.248 NA
ATOM     28  C   UNL A   1      37.427  32.591  32.497  1.00  0.00     0.031 C 
ATOM     29  C   UNL A   1      38.520  29.971  28.360  1.00  0.00     0.029 A 
ATOM     30  N   UNL A   1      39.808  29.629  30.158  1.00  0.00    -0.354 N 
ATOM     31  C   UNL A   1      39.071  31.746  33.848  1.00  0.00     0.074 A 
ATOM     32  C   UNL A   1      37.959  32.661  33.710  1.00  0.00     0.031 C 
ATOM     33  C   UNL A   1      39.421  29.030  28.038  1.00  0.00     0.029 A 
ATOM     34  C   UNL A   1      40.296  28.793  29.185  1.00  0.00     0.049 A 
ATOM     35  H   UNL A   1      40.187  29.682  31.065  1.00  0.00     0.167 HD
ATOM     36  C   UNL A   1      39.777  31.561  34.989  1.00  0.00     0.037 A 
ATOM     37  C   UNL A   1      41.335  27.938  29.215  1.00  0.00     0.037 A 
ATOM     38  C   UNL A   1      40.877  30.642  35.129  1.00  0.00     0.049 A 
ATOM     39  C   UNL A   1      42.128  27.783  30.484  1.00  0.00     0.074 A 
ATOM     40  C   UNL A   1      41.644  30.376  36.250  1.00  0.00     0.029 A 
ATOM     41  N   UNL A   1      41.366  29.838  34.110  1.00  0.00    -0.354 N 
ATOM     42  N   UNL A   1      41.954  28.365  31.645  1.00  0.00    -0.248 NA
ATOM     43  C   UNL A   1      43.264  26.851  30.446  1.00  0.00     0.031 C 
ATOM     44  C   UNL A   1      42.622  29.439  35.901  1.00  0.00     0.029 A 
ATOM     45  C   UNL A   1      42.439  29.091  34.572  1.00  0.00     0.049 A 
ATOM     46  H   UNL A   1      41.005  29.802  33.195  1.00  0.00     0.167 HD
ATOM     47  C   UNL A   1      42.938  27.856  32.480  1.00  0.00     0.074 A 
ATOM     48  C   UNL A   1      43.702  26.908  31.696  1.00  0.00     0.031 C 
ATOM     49  C   UNL A   1      43.187  28.148  33.780  1.00  0.00     0.037 A 
BRANCH  36  50
ATOM     50  C   UNL A   1      39.393  32.390  36.178  1.00  0.00     0.064 A 
ATOM     51  C   UNL A   1      39.996  33.630  36.435  1.00  0.00     0.173 A 
ATOM     52  C   UNL A   1      38.386  31.953  37.052  1.00  0.00     0.173 A 
ATOM     53  F   UNL A   1      40.972  34.086  35.636  1.00  0.00    -0.203 F 
ATOM     54  C   UNL A   1      39.618  34.393  37.537  1.00  0.00     0.198 A 
ATOM     55  C   UNL A   1      37.995  32.729  38.139  1.00  0.00     0.198 A 
ATOM     56  F   UNL A   1      37.777  30.776  36.846  1.00  0.00    -0.203 F 
ATOM     57  F   UNL A   1      40.234  35.557  37.787  1.00  0.00    -0.200 F 
ATOM     58  C   UNL A   1      38.615  33.945  38.384  1.00  0.00     0.200 A 
ATOM     59  F   UNL A   1      37.021  32.299  38.952  1.00  0.00    -0.200 F 
ATOM     60  F   UNL A   1      38.251  34.683  39.443  1.00  0.00    -0.200 F 
ENDBRANCH  36  50
BRANCH  37  61
ATOM     61  C   UNL A   1      41.683  27.160  27.999  1.00  0.00     0.064 A 
ATOM     62  C   UNL A   1      42.485  27.713  26.992  1.00  0.00     0.173 A 
ATOM     63  C   UNL A   1      41.216  25.850  27.820  1.00  0.00     0.173 A 
ATOM     64  F   UNL A   1      42.929  28.973  27.106  1.00  0.00    -0.203 F 
ATOM     65  C   UNL A   1      42.800  26.986  25.846  1.00  0.00     0.198 A 
ATOM     66  C   UNL A   1      41.551  25.116  26.685  1.00  0.00     0.198 A 
ATOM     67  F   UNL A   1      40.439  25.280  28.753  1.00  0.00    -0.203 F 
ATOM     68  F   UNL A   1      43.535  27.550  24.877  1.00  0.00    -0.200 F 
ATOM     69  C   UNL A   1      42.338  25.687  25.696  1.00  0.00     0.200 A 
ATOM     70  F   UNL A   1      41.107  23.859  26.546  1.00  0.00    -0.200 F 
ATOM     71  F   UNL A   1      42.642  24.988  24.593  1.00  0.00    -0.200 F 
ENDBRANCH  37  61
BRANCH  49  72
ATOM     72  C   UNL A   1      44.317  27.419  34.443  1.00  0.00     0.064 A 
ATOM     73  C   UNL A   1      45.609  27.961  34.493  1.00  0.00     0.173 A 
ATOM     74  C   UNL A   1      44.095  26.183  35.070  1.00  0.00     0.173 A 
ATOM     75  F   UNL A   1      45.873  29.133  33.896  1.00  0.00    -0.203 F 
ATOM     76  C   UNL A   1      46.644  27.282  35.131  1.00  0.00     0.198 A 
ATOM     77  C   UNL A   1      45.127  25.519  35.726  1.00  0.00     0.198 A 
ATOM     78  F   UNL A   1      42.874  25.627  35.055  1.00  0.00    -0.203 F 
ATOM     79  F   UNL A   1      47.880  27.800  35.135  1.00  0.00    -0.200 F 
ATOM     80  C   UNL A   1      46.401  26.066  35.751  1.00  0.00     0.200 A 
ATOM     81  F   UNL A   1      44.889  24.349  36.335  1.00  0.00    -0.200 F 
ATOM     82  F   UNL A   1      47.398  25.416  36.369  1.00  0.00    -0.200 F 
ENDBRANCH  49  72
ENDBRANCH  23  24
ENDBRANCH  16  18
ENDBRANCH  15  16
ENDBRANCH   1  15
TORSDOF 12
ENDMDL
MODEL 3
REMARK VINA RESULT:     -10.9      3.712      5.809
REMARK SMILES CS(=O)(=O)c1ccc(C(=O)OCCOC(=O)c2ccc(-c3c4nc(c(-c5c(F)c(F)c(F)c(F)c5F)c5ccc([nH]5)c(-c5c(F)c(F)c(F)c(F)c5F)c5nc(c(-c6c(F)c(F)c(F)c(F)c6F)c6ccc3[nH]6)C=C5)C=C4)cc2)o1
REMARK SMILES IDX 13 1 12 2 11 3 9 4 10 5 8 6 5 7 6 8 80 9 7 10 2 11 1 12 3 13
REMARK SMILES IDX 4 14 14 15 15 16 16 17 17 18 18 19 79 20 19 21 78 22 20 23
REMARK SMILES IDX 21 24 22 25 72 26 23 27 77 28 71 29 73 30 24 31 76 32 70 33
REMARK SMILES IDX 69 34 25 36 57 37 37 38 56 39 38 40 41 41 55 42 74 43 39 44
REMARK SMILES IDX 40 45 54 47 75 48 42 49 26 50 27 51 35 52 28 53 29 54 33 55
REMARK SMILES IDX 36 56 30 57 31 58 34 59 32 60 58 61 59 62 67 63 60 64 61 65
REMARK SMILES IDX 65 66 68 67 62 68 63 69 66 70 64 71 43 72 44 73 52 74 45 75
REMARK SMILES IDX 46 76 50 77 53 78 47 79 48 80 51 81 49 82
REMARK H PARENT 73 35 41 46
REMARK Flexibility Score: inf
ROOT
ATOM      1  C   UNL A   1      38.517  20.273  25.726  1.00  0.00     0.275 C 
ENDROOT
BRANCH   1   2
ATOM      2  C   UNL A   1      37.546  21.391  25.323  1.00  0.00     0.275 C 
BRANCH   2   3
ATOM      3  O   UNL A   1      36.205  21.111  25.765  1.00  0.00    -0.456 OA
BRANCH   3   4
ATOM      4  C   UNL A   1      35.219  21.354  24.851  1.00  0.00     0.374 C 
ATOM      5  O   UNL A   1      35.187  22.328  24.113  1.00  0.00    -0.242 OA
BRANCH   4   6
ATOM      6  C   UNL A   1      34.288  20.247  24.821  1.00  0.00     0.213 A 
ATOM      7  C   UNL A   1      33.798  18.070  24.681  1.00  0.00     0.218 A 
ATOM      8  C   UNL A   1      32.627  18.748  24.993  1.00  0.00     0.064 A 
ATOM      9  O   UNL A   1      34.790  19.011  24.523  1.00  0.00    -0.438 OA
ATOM     10  C   UNL A   1      32.942  20.128  25.099  1.00  0.00     0.059 A 
BRANCH   7  11
ATOM     11  S   UNL A   1      34.171  16.326  24.499  1.00  0.00     0.208 S 
ATOM     12  C   UNL A   1      32.806  15.513  25.281  1.00  0.00     0.167 C 
ATOM     13  O   UNL A   1      35.359  16.101  25.298  1.00  0.00    -0.221 OA
ATOM     14  O   UNL A   1      34.122  16.072  23.074  1.00  0.00    -0.221 OA
ENDBRANCH   7  11
ENDBRANCH   4   6
ENDBRANCH   3   4
ENDBRANCH   2   3
ENDBRANCH   1   2
BRANCH   1  15
ATOM     15  O   UNL A   1      39.885  20.727  25.768  1.00  0.00    -0.458 OA
BRANCH  15  16
ATOM     16  C   UNL A   1      40.456  20.734  26.996  1.00  0.00     0.338 C 
ATOM     17  O   UNL A   1      40.701  19.764  27.695  1.00  0.00    -0.246 OA
BRANCH  16  18
ATOM     18  C   UNL A   1      40.885  22.101  27.351  1.00  0.00     0.060 A 
ATOM     19  C   UNL A   1      40.462  23.145  26.525  1.00  0.00     0.016 A 
ATOM     20  C   UNL A   1      41.733  22.359  28.430  1.00  0.00     0.016 A 
ATOM     21  C   UNL A   1      40.878  24.450  26.770  1.00  0.00     0.010 A 
ATOM     22  C   UNL A   1      42.160  23.672  28.672  1.00  0.00     0.010 A 
ATOM     23  C   UNL A   1      41.742  24.722  27.837  1.00  0.00    -0.014 A 
BRANCH  23  24
ATOM     24  C   UNL A   1      42.230  26.108  28.031  1.00  0.00     0.031 A 
ATOM     25  C   UNL A   1      43.549  26.526  27.451  1.00  0.00     0.074 A 
ATOM     26  C   UNL A   1      41.464  27.004  28.678  1.00  0.00     0.049 A 
ATOM     27  N   UNL A   1      44.140  27.694  27.489  1.00  0.00    -0.248 NA
ATOM     28  C   UNL A   1      44.306  25.492  26.729  1.00  0.00     0.031 C 
ATOM     29  C   UNL A   1      40.148  26.725  29.252  1.00  0.00     0.029 A 
ATOM     30  N   UNL A   1      41.676  28.332  28.951  1.00  0.00    -0.354 N 
ATOM     31  C   UNL A   1      45.335  27.537  26.802  1.00  0.00     0.074 A 
ATOM     32  C   UNL A   1      45.401  26.154  26.379  1.00  0.00     0.031 C 
ATOM     33  C   UNL A   1      39.664  27.851  29.801  1.00  0.00     0.029 A 
ATOM     34  C   UNL A   1      40.647  28.921  29.641  1.00  0.00     0.049 A 
ATOM     35  H   UNL A   1      42.489  28.815  28.677  1.00  0.00     0.167 HD
ATOM     36  C   UNL A   1      46.286  28.465  26.541  1.00  0.00     0.037 A 
ATOM     37  C   UNL A   1      40.514  30.181  30.096  1.00  0.00     0.037 A 
ATOM     38  C   UNL A   1      46.215  29.843  26.952  1.00  0.00     0.049 A 
ATOM     39  C   UNL A   1      41.604  31.181  29.829  1.00  0.00     0.074 A 
ATOM     40  C   UNL A   1      47.123  30.862  26.722  1.00  0.00     0.029 A 
ATOM     41  N   UNL A   1      45.171  30.396  27.681  1.00  0.00    -0.354 N 
ATOM     42  N   UNL A   1      42.725  31.027  29.167  1.00  0.00    -0.248 NA
ATOM     43  C   UNL A   1      41.411  32.534  30.372  1.00  0.00     0.031 C 
ATOM     44  C   UNL A   1      46.649  32.022  27.344  1.00  0.00     0.029 A 
ATOM     45  C   UNL A   1      45.425  31.737  27.927  1.00  0.00     0.049 A 
ATOM     46  H   UNL A   1      44.370  29.909  27.979  1.00  0.00     0.167 HD
ATOM     47  C   UNL A   1      43.358  32.262  29.193  1.00  0.00     0.074 A 
ATOM     48  C   UNL A   1      42.492  33.160  29.928  1.00  0.00     0.031 C 
ATOM     49  C   UNL A   1      44.551  32.618  28.657  1.00  0.00     0.037 A 
BRANCH  36  50
ATOM     50  C   UNL A   1      47.502  28.014  25.790  1.00  0.00     0.064 A 
ATOM     51  C   UNL A   1      48.700  27.702  26.450  1.00  0.00     0.173 A 
ATOM     52  C   UNL A   1      47.458  27.858  24.396  1.00  0.00     0.173 A 
ATOM     53  F   UNL A   1      48.796  27.847  27.779  1.00  0.00    -0.203 F 
ATOM     54  C   UNL A   1      49.817  27.272  25.737  1.00  0.00     0.198 A 
ATOM     55  C   UNL A   1      48.568  27.406  23.690  1.00  0.00     0.198 A 
ATOM     56  F   UNL A   1      46.333  28.140  23.720  1.00  0.00    -0.203 F 
ATOM     57  F   UNL A   1      50.963  27.017  26.382  1.00  0.00    -0.200 F 
ATOM     58  C   UNL A   1      49.749  27.118  24.360  1.00  0.00     0.200 A 
ATOM     59  F   UNL A   1      48.499  27.250  22.361  1.00  0.00    -0.200 F 
ATOM     60  F   UNL A   1      50.824  26.701  23.677  1.00  0.00    -0.200 F 
ENDBRANCH  36  50
BRANCH  37  61
ATOM     61  C   UNL A   1      39.296  30.565  30.855  1.00  0.00     0.064 A 
ATOM     62  C   UNL A   1      39.219  30.377  32.242  1.00  0.00     0.173 A 
ATOM     63  C   UNL A   1      38.186  31.124  30.206  1.00  0.00     0.173 A 
ATOM     64  F   UNL A   1      40.245  29.817  32.900  1.00  0.00    -0.203 F 
ATOM     65  C   UNL A   1      38.071  30.725  32.949  1.00  0.00     0.198 A 
ATOM     66  C   UNL A   1      37.049  31.494  30.919  1.00  0.00     0.198 A 
ATOM     67  F   UNL A   1      38.210  31.317  28.879  1.00  0.00    -0.203 F 
ATOM     68  F   UNL A   1      38.004  30.498  34.268  1.00  0.00    -0.200 F 
ATOM     69  C   UNL A   1      36.990  31.290  32.289  1.00  0.00     0.200 A 
ATOM     70  F   UNL A   1      36.008  32.044  30.277  1.00  0.00    -0.200 F 
ATOM     71  F   UNL A   1      35.886  31.626  32.971  1.00  0.00    -0.200 F 
ENDBRANCH  37  61
BRANCH  49  72
ATOM     72  C   UNL A   1      44.979  34.046  28.825  1.00  0.00     0.064 A 
ATOM     73  C   UNL A   1      44.604  35.036  27.905  1.00  0.00     0.173 A 
ATOM     74  C   UNL A   1      45.738  34.434  29.940  1.00  0.00     0.173 A 
ATOM     75  F   UNL A   1      43.890  34.711  26.818  1.00  0.00    -0.203 F 
ATOM     76  C   UNL A   1      44.990  36.361  28.086  1.00  0.00     0.198 A 
ATOM     77  C   UNL A   1      46.103  35.764  30.128  1.00  0.00     0.198 A 
ATOM     78  F   UNL A   1      46.116  33.525  30.851  1.00  0.00    -0.203 F 
ATOM     79  F   UNL A   1      44.654  37.285  27.175  1.00  0.00    -0.200 F 
ATOM     80  C   UNL A   1      45.734  36.725  29.198  1.00  0.00     0.200 A 
ATOM     81  F   UNL A   1      46.812  36.116  31.209  1.00  0.00    -0.200 F 
ATOM     82  F   UNL A   1      46.101  38.003  29.373  1.00  0.00    -0.200 F 
ENDBRANCH  49  72
ENDBRANCH  23  24
ENDBRANCH  16  18
ENDBRANCH  15  16
ENDBRANCH   1  15
TORSDOF 12
ENDMDL
