MODEL 1
REMARK VINA RESULT:     -11.5      0.000      0.000
REMARK SMILES CCCCCCNC(=O)Oc1cccc(-c2ccc([C@@H](C)C(=O)OCCOC(=O)c3ccc(-c4c5nc(c(-c6c(F)c(F)c(F)c(F)c6F)c6ccc([nH]6)c(-c6c(F)c(F)c(F)c(F)c6F)c6nc(c(-c7c(F)c(F)c(F)c(F)c7F)c7ccc4[nH]7)C=C6)C=C5)cc3)cc2F)c1
REMARK SMILES IDX 20 1 21 2 19 3 16 4 17 5 94 6 18 7 93 8 95 9 15 10 11 11
REMARK SMILES IDX 12 12 96 13 13 14 14 15 10 16 8 17 7 18 9 20 6 21 5 22 4 23
REMARK SMILES IDX 3 24 2 25 1 26 22 27 23 28 24 29 25 30 26 31 27 32 28 33
REMARK SMILES IDX 29 34 30 35 31 36 92 37 32 38 91 39 33 40 34 41 35 42 85 43
REMARK SMILES IDX 36 44 90 45 84 46 86 47 37 48 89 49 83 50 82 51 38 53 70 54
REMARK SMILES IDX 50 55 69 56 51 57 54 58 68 59 87 60 52 61 53 62 67 64 88 65
REMARK SMILES IDX 55 66 39 67 40 68 48 69 41 70 42 71 46 72 49 73 43 74 44 75
REMARK SMILES IDX 47 76 45 77 71 78 72 79 80 80 73 81 74 82 78 83 81 84 75 85
REMARK SMILES IDX 76 86 79 87 77 88 56 89 57 90 65 91 58 92 59 93 63 94 66 95
REMARK SMILES IDX 60 96 61 97 64 98 62 99
REMARK H PARENT 7 19 86 52 54 63
REMARK Flexibility Score: inf
ROOT
ATOM      1  C   UNL A   1      40.664  21.899  26.760  1.00  0.00     0.126 C 
ATOM      2  C   UNL A   1      40.908  22.755  28.002  1.00  0.00     0.025 C 
ENDROOT
BRANCH   1   3
ATOM      3  C   UNL A   1      39.290  22.127  26.149  1.00  0.00    -0.031 A 
ATOM      4  C   UNL A   1      36.710  22.600  25.032  1.00  0.00     0.018 A 
ATOM      5  C   UNL A   1      37.386  21.387  24.820  1.00  0.00     0.012 A 
ATOM      6  C   UNL A   1      37.361  23.570  25.803  1.00  0.00     0.131 A 
ATOM      7  C   UNL A   1      38.652  21.153  25.370  1.00  0.00     0.005 A 
ATOM      8  C   UNL A   1      38.622  23.343  26.358  1.00  0.00     0.044 A 
ATOM      9  F   UNL A   1      36.767  24.747  26.057  1.00  0.00    -0.206 F 
BRANCH   4  10
ATOM     10  C   UNL A   1      35.362  22.815  24.481  1.00  0.00    -0.012 A 
ATOM     11  C   UNL A   1      33.671  24.237  23.478  1.00  0.00     0.133 A 
ATOM     12  C   UNL A   1      32.762  23.181  23.443  1.00  0.00     0.047 A 
ATOM     13  C   UNL A   1      34.953  24.072  24.005  1.00  0.00     0.056 A 
ATOM     14  C   UNL A   1      33.152  21.931  23.914  1.00  0.00     0.004 A 
ATOM     15  C   UNL A   1      34.439  21.752  24.426  1.00  0.00     0.009 A 
BRANCH  11  16
ATOM     16  O   UNL A   1      33.199  25.490  23.062  1.00  0.00    -0.410 OA
BRANCH  16  17
ATOM     17  C   UNL A   1      32.767  25.609  21.750  1.00  0.00     0.412 C 
ATOM     18  N   UNL A   1      31.649  26.388  21.619  1.00  0.00    -0.321 N 
ATOM     19  H   UNL A   1      31.321  26.535  20.703  1.00  0.00     0.167 HD
ATOM     20  O   UNL A   1      33.278  25.081  20.769  1.00  0.00    -0.224 OA
BRANCH  18  21
ATOM     21  C   UNL A   1      30.898  27.020  22.686  1.00  0.00     0.119 C 
BRANCH  21  22
ATOM     22  C   UNL A   1      31.250  28.499  22.842  1.00  0.00     0.021 C 
BRANCH  22  23
ATOM     23  C   UNL A   1      30.112  29.383  23.368  1.00  0.00     0.002 C 
BRANCH  23  24
ATOM     24  C   UNL A   1      28.785  29.284  22.605  1.00  0.00    -0.000 C 
BRANCH  24  25
ATOM     25  C   UNL A   1      27.653  30.169  23.131  1.00  0.00    -0.003 C 
ATOM     26  C   UNL A   1      28.097  31.586  23.459  1.00  0.00     0.004 C 
ENDBRANCH  24  25
ENDBRANCH  23  24
ENDBRANCH  22  23
ENDBRANCH  21  22
ENDBRANCH  18  21
ENDBRANCH  16  17
ENDBRANCH  11  16
ENDBRANCH   4  10
ENDBRANCH   1   3
BRANCH   1  27
ATOM     27  C   UNL A   1      41.027  20.447  27.048  1.00  0.00     0.313 C 
ATOM     28  O   UNL A   1      40.718  19.896  28.100  1.00  0.00    -0.252 OA
BRANCH  27  29
ATOM     29  O   UNL A   1      41.679  19.835  26.026  1.00  0.00    -0.462 OA
BRANCH  29  30
ATOM     30  C   UNL A   1      42.241  18.535  26.291  1.00  0.00     0.274 C 
BRANCH  30  31
ATOM     31  C   UNL A   1      43.597  18.367  25.603  1.00  0.00     0.275 C 
BRANCH  31  32
ATOM     32  O   UNL A   1      43.703  19.225  24.451  1.00  0.00    -0.458 OA
BRANCH  32  33
ATOM     33  C   UNL A   1      44.964  19.570  24.106  1.00  0.00     0.338 C 
ATOM     34  O   UNL A   1      45.781  18.905  23.497  1.00  0.00    -0.246 OA
BRANCH  33  35
ATOM     35  C   UNL A   1      45.195  20.973  24.472  1.00  0.00     0.060 A 
ATOM     36  C   UNL A   1      45.646  21.251  25.764  1.00  0.00     0.016 A 
ATOM     37  C   UNL A   1      44.900  22.006  23.583  1.00  0.00     0.016 A 
ATOM     38  C   UNL A   1      45.797  22.568  26.183  1.00  0.00     0.010 A 
ATOM     39  C   UNL A   1      45.063  23.330  24.000  1.00  0.00     0.010 A 
ATOM     40  C   UNL A   1      45.503  23.618  25.305  1.00  0.00    -0.014 A 
BRANCH  40  41
ATOM     41  C   UNL A   1      45.630  25.019  25.767  1.00  0.00     0.031 A 
ATOM     42  C   UNL A   1      46.951  25.721  25.674  1.00  0.00     0.074 A 
ATOM     43  C   UNL A   1      44.552  25.660  26.252  1.00  0.00     0.049 A 
ATOM     44  N   UNL A   1      47.290  26.911  26.101  1.00  0.00    -0.248 NA
ATOM     45  C   UNL A   1      48.040  24.984  25.014  1.00  0.00     0.031 C 
ATOM     46  C   UNL A   1      43.206  25.097  26.338  1.00  0.00     0.029 A 
ATOM     47  N   UNL A   1      44.422  26.926  26.763  1.00  0.00    -0.354 N 
ATOM     48  C   UNL A   1      48.633  27.056  25.787  1.00  0.00     0.074 A 
ATOM     49  C   UNL A   1      49.053  25.830  25.140  1.00  0.00     0.031 C 
ATOM     50  C   UNL A   1      42.380  26.018  26.864  1.00  0.00     0.029 A 
ATOM     51  C   UNL A   1      43.152  27.212  27.196  1.00  0.00     0.049 A 
ATOM     52  H   UNL A   1      45.167  27.567  26.814  1.00  0.00     0.167 HD
ATOM     53  C   UNL A   1      49.440  28.119  26.019  1.00  0.00     0.037 A 
ATOM     54  C   UNL A   1      42.673  28.306  27.819  1.00  0.00     0.037 A 
ATOM     55  C   UNL A   1      49.008  29.344  26.639  1.00  0.00     0.049 A 
ATOM     56  C   UNL A   1      43.608  29.440  28.133  1.00  0.00     0.074 A 
ATOM     57  C   UNL A   1      49.737  30.497  26.874  1.00  0.00     0.029 A 
ATOM     58  N   UNL A   1      47.730  29.573  27.128  1.00  0.00    -0.354 N 
ATOM     59  N   UNL A   1      44.877  29.573  27.834  1.00  0.00    -0.248 NA
ATOM     60  C   UNL A   1      43.047  30.568  28.890  1.00  0.00     0.031 C 
ATOM     61  C   UNL A   1      48.912  31.407  27.547  1.00  0.00     0.029 A 
ATOM     62  C   UNL A   1      47.659  30.835  27.696  1.00  0.00     0.049 A 
ATOM     63  H   UNL A   1      46.984  28.932  27.078  1.00  0.00     0.167 HD
ATOM     64  C   UNL A   1      45.264  30.800  28.352  1.00  0.00     0.074 A 
ATOM     65  C   UNL A   1      44.091  31.380  28.973  1.00  0.00     0.031 C 
ATOM     66  C   UNL A   1      46.484  31.391  28.320  1.00  0.00     0.037 A 
BRANCH  53  67
ATOM     67  C   UNL A   1      50.882  27.986  25.634  1.00  0.00     0.064 A 
ATOM     68  C   UNL A   1      51.322  28.193  24.319  1.00  0.00     0.173 A 
ATOM     69  C   UNL A   1      51.842  27.660  26.606  1.00  0.00     0.173 A 
ATOM     70  F   UNL A   1      50.442  28.493  23.353  1.00  0.00    -0.203 F 
ATOM     71  C   UNL A   1      52.667  28.053  23.985  1.00  0.00     0.198 A 
ATOM     72  C   UNL A   1      53.188  27.545  26.272  1.00  0.00     0.198 A 
ATOM     73  F   UNL A   1      51.472  27.455  27.879  1.00  0.00    -0.203 F 
ATOM     74  F   UNL A   1      53.060  28.212  22.713  1.00  0.00    -0.200 F 
ATOM     75  C   UNL A   1      53.598  27.734  24.962  1.00  0.00     0.200 A 
ATOM     76  F   UNL A   1      54.088  27.245  27.219  1.00  0.00    -0.200 F 
ATOM     77  F   UNL A   1      54.892  27.599  24.638  1.00  0.00    -0.200 F 
ENDBRANCH  53  67
BRANCH  54  78
ATOM     78  C   UNL A   1      41.241  28.365  28.205  1.00  0.00     0.064 A 
ATOM     79  C   UNL A   1      40.817  27.908  29.459  1.00  0.00     0.173 A 
ATOM     80  C   UNL A   1      40.272  28.890  27.337  1.00  0.00     0.173 A 
ATOM     81  F   UNL A   1      41.705  27.374  30.311  1.00  0.00    -0.203 F 
ATOM     82  C   UNL A   1      39.476  27.971  29.830  1.00  0.00     0.198 A 
ATOM     83  C   UNL A   1      38.936  28.974  27.718  1.00  0.00     0.198 A 
ATOM     84  F   UNL A   1      40.628  29.335  26.122  1.00  0.00    -0.203 F 
ATOM     85  F   UNL A   1      39.091  27.499  31.024  1.00  0.00    -0.200 F 
ATOM     86  C   UNL A   1      38.538  28.511  28.963  1.00  0.00     0.200 A 
ATOM     87  F   UNL A   1      38.034  29.504  26.881  1.00  0.00    -0.200 F 
ATOM     88  F   UNL A   1      37.249  28.579  29.325  1.00  0.00    -0.200 F 
ENDBRANCH  54  78
BRANCH  66  89
ATOM     89  C   UNL A   1      46.607  32.738  28.967  1.00  0.00     0.064 A 
ATOM     90  C   UNL A   1      47.003  32.870  30.305  1.00  0.00     0.173 A 
ATOM     91  C   UNL A   1      46.359  33.907  28.233  1.00  0.00     0.173 A 
ATOM     92  F   UNL A   1      47.232  31.779  31.052  1.00  0.00    -0.203 F 
ATOM     93  C   UNL A   1      47.129  34.126  30.893  1.00  0.00     0.198 A 
ATOM     94  C   UNL A   1      46.509  35.162  28.817  1.00  0.00     0.198 A 
ATOM     95  F   UNL A   1      45.981  33.832  26.949  1.00  0.00    -0.203 F 
ATOM     96  F   UNL A   1      47.471  34.229  32.184  1.00  0.00    -0.200 F 
ATOM     97  C   UNL A   1      46.890  35.270  30.146  1.00  0.00     0.200 A 
ATOM     98  F   UNL A   1      46.286  36.267  28.092  1.00  0.00    -0.200 F 
ATOM     99  F   UNL A   1      47.016  36.479  30.711  1.00  0.00    -0.200 F 
ENDBRANCH  66  89
ENDBRANCH  40  41
ENDBRANCH  33  35
ENDBRANCH  32  33
ENDBRANCH  31  32
ENDBRANCH  30  31
ENDBRANCH  29  30
ENDBRANCH  27  29
ENDBRANCH   1  27
TORSDOF 20
ENDMDL
MODEL 2
REMARK VINA RESULT:     -11.4      7.121     12.510
REMARK SMILES CCCCCCNC(=O)Oc1cccc(-c2ccc([C@@H](C)C(=O)OCCOC(=O)c3ccc(-c4c5nc(c(-c6c(F)c(F)c(F)c(F)c6F)c6ccc([nH]6)c(-c6c(F)c(F)c(F)c(F)c6F)c6nc(c(-c7c(F)c(F)c(F)c(F)c7F)c7ccc4[nH]7)C=C6)C=C5)cc3)cc2F)c1
REMARK SMILES IDX 20 1 21 2 19 3 16 4 17 5 94 6 18 7 93 8 95 9 15 10 11 11
REMARK SMILES IDX 12 12 96 13 13 14 14 15 10 16 8 17 7 18 9 20 6 21 5 22 4 23
REMARK SMILES IDX 3 24 2 25 1 26 22 27 23 28 24 29 25 30 26 31 27 32 28 33
REMARK SMILES IDX 29 34 30 35 31 36 92 37 32 38 91 39 33 40 34 41 35 42 85 43
REMARK SMILES IDX 36 44 90 45 84 46 86 47 37 48 89 49 83 50 82 51 38 53 70 54
REMARK SMILES IDX 50 55 69 56 51 57 54 58 68 59 87 60 52 61 53 62 67 64 88 65
REMARK SMILES IDX 55 66 39 67 40 68 48 69 41 70 42 71 46 72 49 73 43 74 44 75
REMARK SMILES IDX 47 76 45 77 71 78 72 79 80 80 73 81 74 82 78 83 81 84 75 85
REMARK SMILES IDX 76 86 79 87 77 88 56 89 57 90 65 91 58 92 59 93 63 94 66 95
REMARK SMILES IDX 60 96 61 97 64 98 62 99
REMARK H PARENT 7 19 86 52 54 63
REMARK Flexibility Score: inf
ROOT
ATOM      1  C   UNL A   1      35.094  32.806  28.392  1.00  0.00     0.126 C 
ATOM      2  C   UNL A   1      36.565  32.681  28.000  1.00  0.00     0.025 C 
ENDROOT
BRANCH   1   3
ATOM      3  C   UNL A   1      34.242  31.667  27.856  1.00  0.00    -0.031 A 
ATOM      4  C   UNL A   1      32.690  29.499  26.844  1.00  0.00     0.018 A 
ATOM      5  C   UNL A   1      32.114  30.757  27.092  1.00  0.00     0.012 A 
ATOM      6  C   UNL A   1      34.052  29.352  27.128  1.00  0.00     0.131 A 
ATOM      7  C   UNL A   1      32.876  31.822  27.586  1.00  0.00     0.005 A 
ATOM      8  C   UNL A   1      34.820  30.410  27.618  1.00  0.00     0.044 A 
ATOM      9  F   UNL A   1      34.670  28.181  26.902  1.00  0.00    -0.206 F 
BRANCH   4  10
ATOM     10  C   UNL A   1      31.884  28.402  26.286  1.00  0.00    -0.012 A 
ATOM     11  C   UNL A   1      30.544  27.430  24.512  1.00  0.00     0.133 A 
ATOM     12  C   UNL A   1      30.337  26.273  25.261  1.00  0.00     0.047 A 
ATOM     13  C   UNL A   1      31.292  28.495  25.015  1.00  0.00     0.056 A 
ATOM     14  C   UNL A   1      30.914  26.168  26.523  1.00  0.00     0.004 A 
ATOM     15  C   UNL A   1      31.680  27.221  27.027  1.00  0.00     0.009 A 
BRANCH  11  16
ATOM     16  O   UNL A   1      29.875  27.513  23.282  1.00  0.00    -0.410 OA
BRANCH  16  17
ATOM     17  C   UNL A   1      30.538  28.133  22.234  1.00  0.00     0.412 C 
ATOM     18  N   UNL A   1      31.486  27.336  21.650  1.00  0.00    -0.321 N 
ATOM     19  H   UNL A   1      31.963  27.715  20.877  1.00  0.00     0.167 HD
ATOM     20  O   UNL A   1      30.354  29.277  21.835  1.00  0.00    -0.224 OA
BRANCH  18  21
ATOM     21  C   UNL A   1      31.864  25.995  22.051  1.00  0.00     0.119 C 
BRANCH  21  22
ATOM     22  C   UNL A   1      33.365  25.869  22.302  1.00  0.00     0.021 C 
BRANCH  22  23
ATOM     23  C   UNL A   1      33.804  26.142  23.747  1.00  0.00     0.002 C 
BRANCH  23  24
ATOM     24  C   UNL A   1      34.520  24.984  24.455  1.00  0.00    -0.000 C 
BRANCH  24  25
ATOM     25  C   UNL A   1      34.035  24.677  25.873  1.00  0.00    -0.003 C 
ATOM     26  C   UNL A   1      33.332  23.334  25.995  1.00  0.00     0.004 C 
ENDBRANCH  24  25
ENDBRANCH  23  24
ENDBRANCH  22  23
ENDBRANCH  21  22
ENDBRANCH  18  21
ENDBRANCH  16  17
ENDBRANCH  11  16
ENDBRANCH   4  10
ENDBRANCH   1   3
BRANCH   1  27
ATOM     27  C   UNL A   1      34.590  34.211  28.083  1.00  0.00     0.313 C 
ATOM     28  O   UNL A   1      34.718  34.717  26.971  1.00  0.00    -0.252 OA
BRANCH  27  29
ATOM     29  O   UNL A   1      33.967  34.810  29.130  1.00  0.00    -0.462 OA
BRANCH  29  30
ATOM     30  C   UNL A   1      33.426  36.126  28.905  1.00  0.00     0.274 C 
BRANCH  30  31
ATOM     31  C   UNL A   1      32.887  36.733  30.202  1.00  0.00     0.275 C 
BRANCH  31  32
ATOM     32  O   UNL A   1      32.346  35.714  31.064  1.00  0.00    -0.458 OA
BRANCH  32  33
ATOM     33  C   UNL A   1      32.710  35.807  32.363  1.00  0.00     0.338 C 
ATOM     34  O   UNL A   1      32.103  36.338  33.274  1.00  0.00    -0.246 OA
BRANCH  33  35
ATOM     35  C   UNL A   1      33.944  35.038  32.571  1.00  0.00     0.060 A 
ATOM     36  C   UNL A   1      33.832  33.732  33.053  1.00  0.00     0.016 A 
ATOM     37  C   UNL A   1      35.195  35.618  32.370  1.00  0.00     0.016 A 
ATOM     38  C   UNL A   1      34.974  32.996  33.347  1.00  0.00     0.010 A 
ATOM     39  C   UNL A   1      36.344  34.875  32.653  1.00  0.00     0.010 A 
ATOM     40  C   UNL A   1      36.239  33.563  33.152  1.00  0.00    -0.014 A 
BRANCH  40  41
ATOM     41  C   UNL A   1      37.452  32.789  33.501  1.00  0.00     0.031 A 
ATOM     42  C   UNL A   1      38.159  33.049  34.797  1.00  0.00     0.074 A 
ATOM     43  C   UNL A   1      37.903  31.843  32.658  1.00  0.00     0.049 A 
ATOM     44  N   UNL A   1      39.279  32.543  35.247  1.00  0.00    -0.248 NA
ATOM     45  C   UNL A   1      37.521  34.010  35.710  1.00  0.00     0.031 C 
ATOM     46  C   UNL A   1      37.267  31.466  31.397  1.00  0.00     0.029 A 
ATOM     47  N   UNL A   1      39.004  31.028  32.738  1.00  0.00    -0.354 N 
ATOM     48  C   UNL A   1      39.495  33.140  36.480  1.00  0.00     0.074 A 
ATOM     49  C   UNL A   1      38.395  34.055  36.706  1.00  0.00     0.031 C 
ATOM     50  C   UNL A   1      37.984  30.485  30.823  1.00  0.00     0.029 A 
ATOM     51  C   UNL A   1      39.154  30.204  31.651  1.00  0.00     0.049 A 
ATOM     52  H   UNL A   1      39.626  31.034  33.501  1.00  0.00     0.167 HD
ATOM     53  C   UNL A   1      40.520  32.941  37.342  1.00  0.00     0.037 A 
ATOM     54  C   UNL A   1      40.141  29.342  31.346  1.00  0.00     0.037 A 
ATOM     55  C   UNL A   1      41.596  32.012  37.121  1.00  0.00     0.049 A 
ATOM     56  C   UNL A   1      41.306  29.197  32.284  1.00  0.00     0.074 A 
ATOM     57  C   UNL A   1      42.656  31.701  37.956  1.00  0.00     0.029 A 
ATOM     58  N   UNL A   1      41.752  31.244  35.976  1.00  0.00    -0.354 N 
ATOM     59  N   UNL A   1      41.505  29.764  33.448  1.00  0.00    -0.248 NA
ATOM     60  C   UNL A   1      42.392  28.306  31.855  1.00  0.00     0.031 C 
ATOM     61  C   UNL A   1      43.477  30.779  37.296  1.00  0.00     0.029 A 
ATOM     62  C   UNL A   1      42.909  30.486  36.067  1.00  0.00     0.049 A 
ATOM     63  H   UNL A   1      41.131  31.237  35.212  1.00  0.00     0.167 HD
ATOM     64  C   UNL A   1      42.730  29.292  33.898  1.00  0.00     0.074 A 
ATOM     65  C   UNL A   1      43.222  28.379  32.887  1.00  0.00     0.031 C 
ATOM     66  C   UNL A   1      43.389  29.591  35.045  1.00  0.00     0.037 A 
BRANCH  53  67
ATOM     67  C   UNL A   1      40.545  33.776  38.587  1.00  0.00     0.064 A 
ATOM     68  C   UNL A   1      39.833  33.412  39.739  1.00  0.00     0.173 A 
ATOM     69  C   UNL A   1      41.309  34.952  38.630  1.00  0.00     0.173 A 
ATOM     70  F   UNL A   1      39.078  32.303  39.743  1.00  0.00    -0.203 F 
ATOM     71  C   UNL A   1      39.864  34.210  40.880  1.00  0.00     0.198 A 
ATOM     72  C   UNL A   1      41.356  35.735  39.780  1.00  0.00     0.198 A 
ATOM     73  F   UNL A   1      42.010  35.342  37.554  1.00  0.00    -0.203 F 
ATOM     74  F   UNL A   1      39.141  33.867  41.955  1.00  0.00    -0.200 F 
ATOM     75  C   UNL A   1      40.629  35.366  40.901  1.00  0.00     0.200 A 
ATOM     76  F   UNL A   1      42.102  36.848  39.802  1.00  0.00    -0.200 F 
ATOM     77  F   UNL A   1      40.657  36.133  42.000  1.00  0.00    -0.200 F 
ENDBRANCH  53  67
BRANCH  54  78
ATOM     78  C   UNL A   1      40.076  28.567  30.080  1.00  0.00     0.064 A 
ATOM     79  C   UNL A   1      40.640  29.071  28.902  1.00  0.00     0.173 A 
ATOM     80  C   UNL A   1      39.464  27.307  30.027  1.00  0.00     0.173 A 
ATOM     81  F   UNL A   1      41.212  30.285  28.900  1.00  0.00    -0.203 F 
ATOM     82  C   UNL A   1      40.591  28.345  27.715  1.00  0.00     0.198 A 
ATOM     83  C   UNL A   1      39.436  26.570  28.846  1.00  0.00     0.198 A 
ATOM     84  F   UNL A   1      38.904  26.784  31.129  1.00  0.00    -0.203 F 
ATOM     85  F   UNL A   1      41.111  28.862  26.593  1.00  0.00    -0.200 F 
ATOM     86  C   UNL A   1      39.997  27.091  27.689  1.00  0.00     0.200 A 
ATOM     87  F   UNL A   1      38.869  25.357  28.827  1.00  0.00    -0.200 F 
ATOM     88  F   UNL A   1      39.958  26.389  26.548  1.00  0.00    -0.200 F 
ENDBRANCH  54  78
BRANCH  66  89
ATOM     89  C   UNL A   1      44.709  28.917  35.268  1.00  0.00     0.064 A 
ATOM     90  C   UNL A   1      44.793  27.666  35.894  1.00  0.00     0.173 A 
ATOM     91  C   UNL A   1      45.898  29.514  34.823  1.00  0.00     0.173 A 
ATOM     92  F   UNL A   1      43.684  27.066  36.354  1.00  0.00    -0.203 F 
ATOM     93  C   UNL A   1      46.023  27.041  36.083  1.00  0.00     0.198 A 
ATOM     94  C   UNL A   1      47.124  28.876  34.992  1.00  0.00     0.198 A 
ATOM     95  F   UNL A   1      45.869  30.709  34.216  1.00  0.00    -0.203 F 
ATOM     96  F   UNL A   1      46.084  25.864  36.719  1.00  0.00    -0.200 F 
ATOM     97  C   UNL A   1      47.185  27.643  35.626  1.00  0.00     0.200 A 
ATOM     98  F   UNL A   1      48.246  29.454  34.541  1.00  0.00    -0.200 F 
ATOM     99  F   UNL A   1      48.369  27.039  35.803  1.00  0.00    -0.200 F 
ENDBRANCH  66  89
ENDBRANCH  40  41
ENDBRANCH  33  35
ENDBRANCH  32  33
ENDBRANCH  31  32
ENDBRANCH  30  31
ENDBRANCH  29  30
ENDBRANCH  27  29
ENDBRANCH   1  27
TORSDOF 20
ENDMDL
MODEL 3
REMARK VINA RESULT:     -11.3      0.848      2.125
REMARK SMILES CCCCCCNC(=O)Oc1cccc(-c2ccc([C@@H](C)C(=O)OCCOC(=O)c3ccc(-c4c5nc(c(-c6c(F)c(F)c(F)c(F)c6F)c6ccc([nH]6)c(-c6c(F)c(F)c(F)c(F)c6F)c6nc(c(-c7c(F)c(F)c(F)c(F)c7F)c7ccc4[nH]7)C=C6)C=C5)cc3)cc2F)c1
REMARK SMILES IDX 20 1 21 2 19 3 16 4 17 5 94 6 18 7 93 8 95 9 15 10 11 11
REMARK SMILES IDX 12 12 96 13 13 14 14 15 10 16 8 17 7 18 9 20 6 21 5 22 4 23
REMARK SMILES IDX 3 24 2 25 1 26 22 27 23 28 24 29 25 30 26 31 27 32 28 33
REMARK SMILES IDX 29 34 30 35 31 36 92 37 32 38 91 39 33 40 34 41 35 42 85 43
REMARK SMILES IDX 36 44 90 45 84 46 86 47 37 48 89 49 83 50 82 51 38 53 70 54
REMARK SMILES IDX 50 55 69 56 51 57 54 58 68 59 87 60 52 61 53 62 67 64 88 65
REMARK SMILES IDX 55 66 39 67 40 68 48 69 41 70 42 71 46 72 49 73 43 74 44 75
REMARK SMILES IDX 47 76 45 77 71 78 72 79 80 80 73 81 74 82 78 83 81 84 75 85
REMARK SMILES IDX 76 86 79 87 77 88 56 89 57 90 65 91 58 92 59 93 63 94 66 95
REMARK SMILES IDX 60 96 61 97 64 98 62 99
REMARK H PARENT 7 19 86 52 54 63
REMARK Flexibility Score: inf
ROOT
ATOM      1  C   UNL A   1      40.826  21.298  25.919  1.00  0.00     0.126 C 
ATOM      2  C   UNL A   1      41.910  22.347  26.160  1.00  0.00     0.025 C 
ENDROOT
BRANCH   1   3
ATOM      3  C   UNL A   1      39.425  21.888  25.914  1.00  0.00    -0.031 A 
ATOM      4  C   UNL A   1      36.780  22.953  25.875  1.00  0.00     0.018 A 
ATOM      5  C   UNL A   1      37.853  23.681  26.416  1.00  0.00     0.012 A 
ATOM      6  C   UNL A   1      37.062  21.679  25.369  1.00  0.00     0.131 A 
ATOM      7  C   UNL A   1      39.152  23.161  26.433  1.00  0.00     0.005 A 
ATOM      8  C   UNL A   1      38.356  21.153  25.379  1.00  0.00     0.044 A 
ATOM      9  F   UNL A   1      36.086  20.933  24.825  1.00  0.00    -0.206 F 
BRANCH   4  10
ATOM     10  C   UNL A   1      35.428  23.531  25.827  1.00  0.00    -0.012 A 
ATOM     11  C   UNL A   1      33.801  25.075  24.901  1.00  0.00     0.133 A 
ATOM     12  C   UNL A   1      32.822  24.617  25.780  1.00  0.00     0.047 A 
ATOM     13  C   UNL A   1      35.097  24.558  24.927  1.00  0.00     0.056 A 
ATOM     14  C   UNL A   1      33.135  23.603  26.680  1.00  0.00     0.004 A 
ATOM     15  C   UNL A   1      34.424  23.066  26.701  1.00  0.00     0.009 A 
BRANCH  11  16
ATOM     16  O   UNL A   1      33.451  26.151  24.071  1.00  0.00    -0.410 OA
BRANCH  16  17
ATOM     17  C   UNL A   1      33.595  25.976  22.703  1.00  0.00     0.412 C 
ATOM     18  N   UNL A   1      33.180  27.060  21.976  1.00  0.00    -0.321 N 
ATOM     19  H   UNL A   1      33.293  27.003  21.001  1.00  0.00     0.167 HD
ATOM     20  O   UNL A   1      34.024  24.976  22.141  1.00  0.00    -0.224 OA
BRANCH  18  21
ATOM     21  C   UNL A   1      32.590  28.281  22.490  1.00  0.00     0.119 C 
BRANCH  21  22
ATOM     22  C   UNL A   1      31.066  28.275  22.383  1.00  0.00     0.021 C 
BRANCH  22  23
ATOM     23  C   UNL A   1      30.340  29.116  23.440  1.00  0.00     0.002 C 
BRANCH  23  24
ATOM     24  C   UNL A   1      28.854  29.385  23.172  1.00  0.00    -0.000 C 
BRANCH  24  25
ATOM     25  C   UNL A   1      28.526  30.764  22.595  1.00  0.00    -0.003 C 
ATOM     26  C   UNL A   1      27.652  31.608  23.509  1.00  0.00     0.004 C 
ENDBRANCH  24  25
ENDBRANCH  23  24
ENDBRANCH  22  23
ENDBRANCH  21  22
ENDBRANCH  18  21
ENDBRANCH  16  17
ENDBRANCH  11  16
ENDBRANCH   4  10
ENDBRANCH   1   3
BRANCH   1  27
ATOM     27  C   UNL A   1      41.038  20.106  26.846  1.00  0.00     0.313 C 
ATOM     28  O   UNL A   1      40.780  20.161  28.045  1.00  0.00    -0.252 OA
BRANCH  27  29
ATOM     29  O   UNL A   1      41.494  18.996  26.211  1.00  0.00    -0.462 OA
BRANCH  29  30
ATOM     30  C   UNL A   1      42.676  18.372  26.750  1.00  0.00     0.274 C 
BRANCH  30  31
ATOM     31  C   UNL A   1      43.734  18.160  25.665  1.00  0.00     0.275 C 
BRANCH  31  32
ATOM     32  O   UNL A   1      43.674  19.201  24.672  1.00  0.00    -0.458 OA
BRANCH  32  33
ATOM     33  C   UNL A   1      44.868  19.583  24.168  1.00  0.00     0.338 C 
ATOM     34  O   UNL A   1      45.611  18.950  23.440  1.00  0.00    -0.246 OA
BRANCH  33  35
ATOM     35  C   UNL A   1      45.116  20.985  24.529  1.00  0.00     0.060 A 
ATOM     36  C   UNL A   1      45.594  21.259  25.812  1.00  0.00     0.016 A 
ATOM     37  C   UNL A   1      44.809  22.020  23.647  1.00  0.00     0.016 A 
ATOM     38  C   UNL A   1      45.761  22.575  26.228  1.00  0.00     0.010 A 
ATOM     39  C   UNL A   1      44.989  23.342  24.060  1.00  0.00     0.010 A 
ATOM     40  C   UNL A   1      45.457  23.627  25.356  1.00  0.00    -0.014 A 
BRANCH  40  41
ATOM     41  C   UNL A   1      45.602  25.027  25.815  1.00  0.00     0.031 A 
ATOM     42  C   UNL A   1      46.929  25.716  25.711  1.00  0.00     0.074 A 
ATOM     43  C   UNL A   1      44.535  25.679  26.309  1.00  0.00     0.049 A 
ATOM     44  N   UNL A   1      47.283  26.902  26.134  1.00  0.00    -0.248 NA
ATOM     45  C   UNL A   1      48.005  24.967  25.042  1.00  0.00     0.031 C 
ATOM     46  C   UNL A   1      43.183  25.130  26.408  1.00  0.00     0.029 A 
ATOM     47  N   UNL A   1      44.421  26.947  26.820  1.00  0.00    -0.354 N 
ATOM     48  C   UNL A   1      48.625  27.034  25.808  1.00  0.00     0.074 A 
ATOM     49  C   UNL A   1      49.027  25.804  25.159  1.00  0.00     0.031 C 
ATOM     50  C   UNL A   1      42.372  26.059  26.939  1.00  0.00     0.029 A 
ATOM     51  C   UNL A   1      43.158  27.246  27.264  1.00  0.00     0.049 A 
ATOM     52  H   UNL A   1      45.174  27.581  26.864  1.00  0.00     0.167 HD
ATOM     53  C   UNL A   1      49.444  28.089  26.032  1.00  0.00     0.037 A 
ATOM     54  C   UNL A   1      42.696  28.345  27.889  1.00  0.00     0.037 A 
ATOM     55  C   UNL A   1      49.031  29.319  26.655  1.00  0.00     0.049 A 
ATOM     56  C   UNL A   1      43.644  29.470  28.195  1.00  0.00     0.074 A 
ATOM     57  C   UNL A   1      49.773  30.465  26.883  1.00  0.00     0.029 A 
ATOM     58  N   UNL A   1      47.759  29.561  27.155  1.00  0.00    -0.354 N 
ATOM     59  N   UNL A   1      44.912  29.590  27.885  1.00  0.00    -0.248 NA
ATOM     60  C   UNL A   1      43.102  30.604  28.955  1.00  0.00     0.031 C 
ATOM     61  C   UNL A   1      48.962  31.383  27.562  1.00  0.00     0.029 A 
ATOM     62  C   UNL A   1      47.705  30.824  27.722  1.00  0.00     0.049 A 
ATOM     63  H   UNL A   1      47.006  28.928  27.111  1.00  0.00     0.167 HD
ATOM     64  C   UNL A   1      45.316  30.814  28.399  1.00  0.00     0.074 A 
ATOM     65  C   UNL A   1      44.154  31.406  29.029  1.00  0.00     0.031 C 
ATOM     66  C   UNL A   1      46.542  31.393  28.355  1.00  0.00     0.037 A 
BRANCH  53  67
ATOM     67  C   UNL A   1      50.882  27.941  25.635  1.00  0.00     0.064 A 
ATOM     68  C   UNL A   1      51.877  27.596  26.562  1.00  0.00     0.173 A 
ATOM     69  C   UNL A   1      51.266  28.133  24.299  1.00  0.00     0.173 A 
ATOM     70  F   UNL A   1      51.562  27.415  27.853  1.00  0.00    -0.203 F 
ATOM     71  C   UNL A   1      53.207  27.475  26.170  1.00  0.00     0.198 A 
ATOM     72  C   UNL A   1      52.594  27.988  23.907  1.00  0.00     0.198 A 
ATOM     73  F   UNL A   1      50.352  28.461  23.374  1.00  0.00    -0.203 F 
ATOM     74  F   UNL A   1      54.149  27.188  27.081  1.00  0.00    -0.200 F 
ATOM     75  C   UNL A   1      53.563  27.666  24.844  1.00  0.00     0.200 A 
ATOM     76  F   UNL A   1      52.935  28.164  22.623  1.00  0.00    -0.200 F 
ATOM     77  F   UNL A   1      54.845  27.549  24.469  1.00  0.00    -0.200 F 
ENDBRANCH  53  67
BRANCH  54  78
ATOM     78  C   UNL A   1      41.267  28.419  28.287  1.00  0.00     0.064 A 
ATOM     79  C   UNL A   1      40.302  28.915  27.402  1.00  0.00     0.173 A 
ATOM     80  C   UNL A   1      40.838  27.987  29.550  1.00  0.00     0.173 A 
ATOM     81  F   UNL A   1      40.670  29.365  26.193  1.00  0.00    -0.203 F 
ATOM     82  C   UNL A   1      38.959  28.978  27.766  1.00  0.00     0.198 A 
ATOM     83  C   UNL A   1      39.492  28.028  29.905  1.00  0.00     0.198 A 
ATOM     84  F   UNL A   1      41.726  27.510  30.435  1.00  0.00    -0.203 F 
ATOM     85  F   UNL A   1      38.058  29.484  26.912  1.00  0.00    -0.200 F 
ATOM     86  C   UNL A   1      38.554  28.526  29.014  1.00  0.00     0.200 A 
ATOM     87  F   UNL A   1      39.104  27.584  31.107  1.00  0.00    -0.200 F 
ATOM     88  F   UNL A   1      37.260  28.579  29.360  1.00  0.00    -0.200 F 
ENDBRANCH  54  78
BRANCH  66  89
ATOM     89  C   UNL A   1      46.684  32.738  29.000  1.00  0.00     0.064 A 
ATOM     90  C   UNL A   1      46.390  33.917  28.300  1.00  0.00     0.173 A 
ATOM     91  C   UNL A   1      47.086  32.849  30.339  1.00  0.00     0.173 A 
ATOM     92  F   UNL A   1      46.020  33.863  27.011  1.00  0.00    -0.203 F 
ATOM     93  C   UNL A   1      46.510  35.162  28.913  1.00  0.00     0.198 A 
ATOM     94  C   UNL A   1      47.182  34.093  30.956  1.00  0.00     0.198 A 
ATOM     95  F   UNL A   1      47.376  31.750  31.051  1.00  0.00    -0.203 F 
ATOM     96  F   UNL A   1      46.262  36.278  28.214  1.00  0.00    -0.200 F 
ATOM     97  C   UNL A   1      46.899  35.247  30.241  1.00  0.00     0.200 A 
ATOM     98  F   UNL A   1      47.549  34.174  32.243  1.00  0.00    -0.200 F 
ATOM     99  F   UNL A   1      47.009  36.445  30.833  1.00  0.00    -0.200 F 
ENDBRANCH  66  89
ENDBRANCH  40  41
ENDBRANCH  33  35
ENDBRANCH  32  33
ENDBRANCH  31  32
ENDBRANCH  30  31
ENDBRANCH  29  30
ENDBRANCH  27  29
ENDBRANCH   1  27
TORSDOF 20
ENDMDL
