MODEL 1
REMARK VINA RESULT:     -13.1      0.000      0.000
REMARK SMILES O=C(OCCOC(=O)c1ccc([S@@](=O)[C@H]2CCOC3(CCCC3)C2)cc1)c1ccc(-c2c3nc(c(-c4c(F)c(F)c(F)c(F)c4F)c4ccc([nH]4)c(-c4c(F)c(F)c(F)c(F)c4F)c4nc(c(-c5c(F)c(F)c(F)c(F)c5F)c5ccc2[nH]5)C=C4)C=C3)cc1
REMARK SMILES IDX 4 1 3 2 2 3 1 4 27 5 28 6 89 7 29 8 88 9 30 10 31 11 32 12
REMARK SMILES IDX 82 13 33 14 87 15 81 16 83 17 34 18 86 19 80 20 79 21 35 23
REMARK SMILES IDX 67 24 47 25 66 26 48 27 51 28 65 29 84 30 49 31 50 32 64 34
REMARK SMILES IDX 85 35 52 36 36 37 37 38 45 39 38 40 39 41 43 42 46 43 40 44
REMARK SMILES IDX 41 45 44 46 42 47 68 48 69 49 77 50 70 51 71 52 75 53 78 54
REMARK SMILES IDX 72 55 73 56 76 57 74 58 53 59 54 60 62 61 55 62 56 63 60 64
REMARK SMILES IDX 63 65 57 66 58 67 61 68 59 69 5 70 6 71 7 72 8 73 9 74 10 75
REMARK SMILES IDX 26 76 11 77 25 78 12 79 13 80 14 81 15 82 16 83 24 84 17 85
REMARK SMILES IDX 19 86 18 87 20 88 23 89 21 90 22 91
REMARK H PARENT 83 22 51 33
REMARK Flexibility Score: inf
ROOT
ATOM      1  C   UNL A   1      32.058  32.719  27.458  1.00  0.00     0.275 C 
ENDROOT
BRANCH   1   2
ATOM      2  O   UNL A   1      32.365  34.111  27.663  1.00  0.00    -0.458 OA
BRANCH   2   3
ATOM      3  C   UNL A   1      32.996  34.727  28.690  1.00  0.00     0.338 C 
ATOM      4  O   UNL A   1      32.562  35.802  29.101  1.00  0.00    -0.246 OA
BRANCH   3   5
ATOM      5  C   UNL A   1      34.277  34.239  29.283  1.00  0.00     0.060 A 
ATOM      6  C   UNL A   1      35.553  34.493  28.779  1.00  0.00     0.016 A 
ATOM      7  C   UNL A   1      34.166  33.410  30.418  1.00  0.00     0.016 A 
ATOM      8  C   UNL A   1      36.688  33.988  29.416  1.00  0.00     0.010 A 
ATOM      9  C   UNL A   1      35.298  32.896  31.057  1.00  0.00     0.010 A 
ATOM     10  C   UNL A   1      36.568  33.175  30.546  1.00  0.00    -0.014 A 
BRANCH  10  11
ATOM     11  C   UNL A   1      37.773  32.480  31.045  1.00  0.00     0.031 A 
ATOM     12  C   UNL A   1      38.270  32.826  32.416  1.00  0.00     0.074 A 
ATOM     13  C   UNL A   1      38.339  31.486  30.339  1.00  0.00     0.049 A 
ATOM     14  N   UNL A   1      39.184  32.232  33.137  1.00  0.00    -0.248 NA
ATOM     15  C   UNL A   1      37.625  33.972  33.077  1.00  0.00     0.031 C 
ATOM     16  C   UNL A   1      37.883  31.022  29.033  1.00  0.00     0.029 A 
ATOM     17  N   UNL A   1      39.403  30.670  30.628  1.00  0.00    -0.354 N 
ATOM     18  C   UNL A   1      39.192  32.905  34.350  1.00  0.00     0.074 A 
ATOM     19  C   UNL A   1      38.241  33.988  34.248  1.00  0.00     0.031 C 
ATOM     20  C   UNL A   1      38.674  30.020  28.615  1.00  0.00     0.029 A 
ATOM     21  C   UNL A   1      39.678  29.756  29.641  1.00  0.00     0.049 A 
ATOM     22  H   UNL A   1      39.918  30.735  31.463  1.00  0.00     0.167 HD
ATOM     23  C   UNL A   1      39.910  32.622  35.461  1.00  0.00     0.037 A 
ATOM     24  C   UNL A   1      40.622  28.797  29.589  1.00  0.00     0.037 A 
ATOM     25  C   UNL A   1      40.879  31.564  35.540  1.00  0.00     0.049 A 
ATOM     26  C   UNL A   1      41.488  28.574  30.800  1.00  0.00     0.074 A 
ATOM     27  C   UNL A   1      41.686  31.207  36.602  1.00  0.00     0.029 A 
ATOM     28  N   UNL A   1      41.180  30.703  34.494  1.00  0.00    -0.354 N 
ATOM     29  N   UNL A   1      41.452  29.181  31.963  1.00  0.00    -0.248 NA
ATOM     30  C   UNL A   1      42.499  27.514  30.706  1.00  0.00     0.031 C 
ATOM     31  C   UNL A   1      42.513  30.158  36.183  1.00  0.00     0.029 A 
ATOM     32  C   UNL A   1      42.183  29.829  34.876  1.00  0.00     0.049 A 
ATOM     33  H   UNL A   1      40.746  30.712  33.610  1.00  0.00     0.167 HD
ATOM     34  C   UNL A   1      42.400  28.548  32.755  1.00  0.00     0.074 A 
ATOM     35  C   UNL A   1      42.994  27.508  31.937  1.00  0.00     0.031 C 
ATOM     36  C   UNL A   1      42.743  28.795  34.042  1.00  0.00     0.037 A 
BRANCH  23  37
ATOM     37  C   UNL A   1      39.678  33.499  36.654  1.00  0.00     0.064 A 
ATOM     38  C   UNL A   1      38.785  33.130  37.672  1.00  0.00     0.173 A 
ATOM     39  C   UNL A   1      40.327  34.737  36.763  1.00  0.00     0.173 A 
ATOM     40  F   UNL A   1      38.121  31.966  37.600  1.00  0.00    -0.203 F 
ATOM     41  C   UNL A   1      38.525  33.986  38.741  1.00  0.00     0.198 A 
ATOM     42  C   UNL A   1      40.083  35.579  37.845  1.00  0.00     0.198 A 
ATOM     43  F   UNL A   1      41.185  35.136  35.813  1.00  0.00    -0.203 F 
ATOM     44  F   UNL A   1      37.625  33.640  39.671  1.00  0.00    -0.200 F 
ATOM     45  C   UNL A   1      39.176  35.207  38.827  1.00  0.00     0.200 A 
ATOM     46  F   UNL A   1      40.714  36.758  37.929  1.00  0.00    -0.200 F 
ATOM     47  F   UNL A   1      38.918  36.035  39.849  1.00  0.00    -0.200 F 
ENDBRANCH  23  37
BRANCH  24  48
ATOM     48  C   UNL A   1      40.767  27.953  28.373  1.00  0.00     0.064 A 
ATOM     49  C   UNL A   1      40.122  26.714  28.261  1.00  0.00     0.173 A 
ATOM     50  C   UNL A   1      41.574  28.365  27.302  1.00  0.00     0.173 A 
ATOM     51  F   UNL A   1      39.351  26.269  29.264  1.00  0.00    -0.203 F 
ATOM     52  C   UNL A   1      40.296  25.909  27.137  1.00  0.00     0.198 A 
ATOM     53  C   UNL A   1      41.729  27.571  26.167  1.00  0.00     0.198 A 
ATOM     54  F   UNL A   1      42.208  29.546  27.354  1.00  0.00    -0.203 F 
ATOM     55  F   UNL A   1      39.700  24.710  27.075  1.00  0.00    -0.200 F 
ATOM     56  C   UNL A   1      41.096  26.339  26.089  1.00  0.00     0.200 A 
ATOM     57  F   UNL A   1      42.493  27.997  25.153  1.00  0.00    -0.200 F 
ATOM     58  F   UNL A   1      41.264  25.565  25.009  1.00  0.00    -0.200 F 
ENDBRANCH  24  48
BRANCH  36  59
ATOM     59  C   UNL A   1      43.775  27.897  34.658  1.00  0.00     0.064 A 
ATOM     60  C   UNL A   1      45.133  28.245  34.685  1.00  0.00     0.173 A 
ATOM     61  C   UNL A   1      43.388  26.693  35.265  1.00  0.00     0.173 A 
ATOM     62  F   UNL A   1      45.550  29.378  34.102  1.00  0.00    -0.203 F 
ATOM     63  C   UNL A   1      46.072  27.405  35.275  1.00  0.00     0.198 A 
ATOM     64  C   UNL A   1      44.327  25.870  35.881  1.00  0.00     0.198 A 
ATOM     65  F   UNL A   1      42.100  26.320  35.271  1.00  0.00    -0.203 F 
ATOM     66  F   UNL A   1      47.371  27.732  35.247  1.00  0.00    -0.200 F 
ATOM     67  C   UNL A   1      45.667  26.223  35.879  1.00  0.00     0.200 A 
ATOM     68  F   UNL A   1      43.933  24.735  36.475  1.00  0.00    -0.200 F 
ATOM     69  F   UNL A   1      46.573  25.419  36.452  1.00  0.00    -0.200 F 
ENDBRANCH  36  59
ENDBRANCH  10  11
ENDBRANCH   3   5
ENDBRANCH   2   3
ENDBRANCH   1   2
BRANCH   1  70
ATOM     70  C   UNL A   1      33.258  31.829  27.122  1.00  0.00     0.275 C 
BRANCH  70  71
ATOM     71  O   UNL A   1      33.233  30.555  27.784  1.00  0.00    -0.458 OA
BRANCH  71  72
ATOM     72  C   UNL A   1      34.016  29.606  27.205  1.00  0.00     0.338 C 
ATOM     73  O   UNL A   1      35.159  29.320  27.521  1.00  0.00    -0.246 OA
BRANCH  72  74
ATOM     74  C   UNL A   1      33.252  28.858  26.181  1.00  0.00     0.060 A 
ATOM     75  C   UNL A   1      33.701  28.906  24.857  1.00  0.00     0.017 A 
ATOM     76  C   UNL A   1      32.089  28.150  26.491  1.00  0.00     0.017 A 
ATOM     77  C   UNL A   1      32.985  28.256  23.844  1.00  0.00     0.018 A 
ATOM     78  C   UNL A   1      31.376  27.501  25.471  1.00  0.00     0.018 A 
ATOM     79  C   UNL A   1      31.818  27.544  24.140  1.00  0.00     0.039 A 
BRANCH  79  80
ATOM     80  S   UNL A   1      30.693  26.990  22.847  1.00  0.00     0.056 S 
ATOM     81  O   UNL A   1      30.146  25.688  23.355  1.00  0.00    -0.254 OA
BRANCH  80  82
ATOM     82  C   UNL A   1      29.311  28.159  22.822  1.00  0.00     0.089 C 
ATOM     83  C   UNL A   1      28.026  27.700  23.490  1.00  0.00     0.046 C 
ATOM     84  C   UNL A   1      29.664  29.572  23.278  1.00  0.00     0.053 C 
ATOM     85  C   UNL A   1      26.918  28.692  23.154  1.00  0.00     0.162 C 
ATOM     86  C   UNL A   1      28.501  30.527  22.926  1.00  0.00     0.069 C 
ATOM     87  O   UNL A   1      27.282  30.027  23.503  1.00  0.00    -0.375 OA
ATOM     88  C   UNL A   1      28.714  31.942  23.515  1.00  0.00     0.035 C 
ATOM     89  C   UNL A   1      28.363  30.759  21.400  1.00  0.00     0.035 C 
ATOM     90  C   UNL A   1      28.830  32.890  22.324  1.00  0.00     0.003 C 
ATOM     91  C   UNL A   1      27.994  32.227  21.248  1.00  0.00     0.003 C 
ENDBRANCH  80  82
ENDBRANCH  79  80
ENDBRANCH  72  74
ENDBRANCH  71  72
ENDBRANCH  70  71
ENDBRANCH   1  70
TORSDOF 13
ENDMDL
MODEL 2
REMARK VINA RESULT:     -12.9      0.893      1.922
REMARK SMILES O=C(OCCOC(=O)c1ccc([S@@](=O)[C@H]2CCOC3(CCCC3)C2)cc1)c1ccc(-c2c3nc(c(-c4c(F)c(F)c(F)c(F)c4F)c4ccc([nH]4)c(-c4c(F)c(F)c(F)c(F)c4F)c4nc(c(-c5c(F)c(F)c(F)c(F)c5F)c5ccc2[nH]5)C=C4)C=C3)cc1
REMARK SMILES IDX 4 1 3 2 2 3 1 4 27 5 28 6 89 7 29 8 88 9 30 10 31 11 32 12
REMARK SMILES IDX 82 13 33 14 87 15 81 16 83 17 34 18 86 19 80 20 79 21 35 23
REMARK SMILES IDX 67 24 47 25 66 26 48 27 51 28 65 29 84 30 49 31 50 32 64 34
REMARK SMILES IDX 85 35 52 36 36 37 37 38 45 39 38 40 39 41 43 42 46 43 40 44
REMARK SMILES IDX 41 45 44 46 42 47 68 48 69 49 77 50 70 51 71 52 75 53 78 54
REMARK SMILES IDX 72 55 73 56 76 57 74 58 53 59 54 60 62 61 55 62 56 63 60 64
REMARK SMILES IDX 63 65 57 66 58 67 61 68 59 69 5 70 6 71 7 72 8 73 9 74 10 75
REMARK SMILES IDX 26 76 11 77 25 78 12 79 13 80 14 81 15 82 16 83 24 84 17 85
REMARK SMILES IDX 19 86 18 87 20 88 23 89 21 90 22 91
REMARK H PARENT 83 22 51 33
REMARK Flexibility Score: inf
ROOT
ATOM      1  C   UNL A   1      32.302  32.989  26.909  1.00  0.00     0.275 C 
ENDROOT
BRANCH   1   2
ATOM      2  O   UNL A   1      32.422  33.895  28.023  1.00  0.00    -0.458 OA
BRANCH   2   3
ATOM      3  C   UNL A   1      33.523  34.409  28.620  1.00  0.00     0.338 C 
ATOM      4  O   UNL A   1      33.638  35.630  28.715  1.00  0.00    -0.246 OA
BRANCH   3   5
ATOM      5  C   UNL A   1      34.682  33.580  29.069  1.00  0.00     0.060 A 
ATOM      6  C   UNL A   1      34.599  32.433  29.860  1.00  0.00     0.016 A 
ATOM      7  C   UNL A   1      35.962  34.038  28.698  1.00  0.00     0.016 A 
ATOM      8  C   UNL A   1      35.749  31.729  30.223  1.00  0.00     0.010 A 
ATOM      9  C   UNL A   1      37.118  33.342  29.062  1.00  0.00     0.010 A 
ATOM     10  C   UNL A   1      37.013  32.186  29.841  1.00  0.00    -0.014 A 
BRANCH  10  11
ATOM     11  C   UNL A   1      38.204  31.544  30.436  1.00  0.00     0.031 A 
ATOM     12  C   UNL A   1      38.554  31.882  31.853  1.00  0.00     0.074 A 
ATOM     13  C   UNL A   1      38.884  30.597  29.767  1.00  0.00     0.049 A 
ATOM     14  N   UNL A   1      39.429  31.319  32.644  1.00  0.00    -0.248 NA
ATOM     15  C   UNL A   1      37.789  32.976  32.474  1.00  0.00     0.031 C 
ATOM     16  C   UNL A   1      38.575  30.142  28.416  1.00  0.00     0.029 A 
ATOM     17  N   UNL A   1      39.960  29.831  30.137  1.00  0.00    -0.354 N 
ATOM     18  C   UNL A   1      39.289  31.962  33.866  1.00  0.00     0.074 A 
ATOM     19  C   UNL A   1      38.295  32.997  33.697  1.00  0.00     0.031 C 
ATOM     20  C   UNL A   1      39.454  29.193  28.054  1.00  0.00     0.029 A 
ATOM     21  C   UNL A   1      40.373  28.956  29.162  1.00  0.00     0.049 A 
ATOM     22  H   UNL A   1      40.392  29.902  31.018  1.00  0.00     0.167 HD
ATOM     23  C   UNL A   1      39.917  31.690  35.033  1.00  0.00     0.037 A 
ATOM     24  C   UNL A   1      41.368  28.049  29.180  1.00  0.00     0.037 A 
ATOM     25  C   UNL A   1      40.930  30.683  35.180  1.00  0.00     0.049 A 
ATOM     26  C   UNL A   1      42.130  27.843  30.461  1.00  0.00     0.074 A 
ATOM     27  C   UNL A   1      41.656  30.342  36.306  1.00  0.00     0.029 A 
ATOM     28  N   UNL A   1      41.372  29.864  34.150  1.00  0.00    -0.354 N 
ATOM     29  N   UNL A   1      41.956  28.419  31.627  1.00  0.00    -0.248 NA
ATOM     30  C   UNL A   1      43.202  26.839  30.441  1.00  0.00     0.031 C 
ATOM     31  C   UNL A   1      42.572  29.348  35.945  1.00  0.00     0.029 A 
ATOM     32  C   UNL A   1      42.382  29.034  34.607  1.00  0.00     0.049 A 
ATOM     33  H   UNL A   1      41.020  29.872  33.231  1.00  0.00     0.167 HD
ATOM     34  C   UNL A   1      42.860  27.817  32.491  1.00  0.00     0.074 A 
ATOM     35  C   UNL A   1      43.581  26.830  31.712  1.00  0.00     0.031 C 
ATOM     36  C   UNL A   1      43.070  28.051  33.809  1.00  0.00     0.037 A 
BRANCH  23  37
ATOM     37  C   UNL A   1      39.530  32.525  36.216  1.00  0.00     0.064 A 
ATOM     38  C   UNL A   1      40.227  33.698  36.545  1.00  0.00     0.173 A 
ATOM     39  C   UNL A   1      38.476  32.128  37.052  1.00  0.00     0.173 A 
ATOM     40  F   UNL A   1      41.259  34.105  35.790  1.00  0.00    -0.203 F 
ATOM     41  C   UNL A   1      39.903  34.426  37.688  1.00  0.00     0.198 A 
ATOM     42  C   UNL A   1      38.140  32.872  38.180  1.00  0.00     0.198 A 
ATOM     43  F   UNL A   1      37.784  31.012  36.782  1.00  0.00    -0.203 F 
ATOM     44  F   UNL A   1      40.619  35.510  38.015  1.00  0.00    -0.200 F 
ATOM     45  C   UNL A   1      38.859  34.014  38.502  1.00  0.00     0.200 A 
ATOM     46  F   UNL A   1      37.129  32.475  38.964  1.00  0.00    -0.200 F 
ATOM     47  F   UNL A   1      38.554  34.708  39.606  1.00  0.00    -0.200 F 
ENDBRANCH  23  37
BRANCH  24  48
ATOM     48  C   UNL A   1      41.669  27.244  27.966  1.00  0.00     0.064 A 
ATOM     49  C   UNL A   1      40.999  26.042  27.702  1.00  0.00     0.173 A 
ATOM     50  C   UNL A   1      42.652  27.656  27.053  1.00  0.00     0.173 A 
ATOM     51  F   UNL A   1      40.062  25.598  28.552  1.00  0.00    -0.203 F 
ATOM     52  C   UNL A   1      41.315  25.271  26.585  1.00  0.00     0.198 A 
ATOM     53  C   UNL A   1      42.951  26.896  25.924  1.00  0.00     0.198 A 
ATOM     54  F   UNL A   1      43.317  28.803  27.254  1.00  0.00    -0.203 F 
ATOM     55  F   UNL A   1      40.688  24.104  26.379  1.00  0.00    -0.200 F 
ATOM     56  C   UNL A   1      42.288  25.699  25.695  1.00  0.00     0.200 A 
ATOM     57  F   UNL A   1      43.883  27.322  25.060  1.00  0.00    -0.200 F 
ATOM     58  F   UNL A   1      42.593  24.957  24.622  1.00  0.00    -0.200 F 
ENDBRANCH  24  48
BRANCH  36  59
ATOM     59  C   UNL A   1      44.088  27.193  34.500  1.00  0.00     0.064 A 
ATOM     60  C   UNL A   1      43.751  25.949  35.052  1.00  0.00     0.173 A 
ATOM     61  C   UNL A   1      45.427  27.608  34.573  1.00  0.00     0.173 A 
ATOM     62  F   UNL A   1      42.482  25.519  35.021  1.00  0.00    -0.203 F 
ATOM     63  C   UNL A   1      44.715  25.161  35.675  1.00  0.00     0.198 A 
ATOM     64  C   UNL A   1      46.392  26.804  35.170  1.00  0.00     0.198 A 
ATOM     65  F   UNL A   1      45.799  28.787  34.054  1.00  0.00    -0.203 F 
ATOM     66  F   UNL A   1      44.362  23.998  36.238  1.00  0.00    -0.200 F 
ATOM     67  C   UNL A   1      46.034  25.586  35.726  1.00  0.00     0.200 A 
ATOM     68  F   UNL A   1      47.670  27.209  35.207  1.00  0.00    -0.200 F 
ATOM     69  F   UNL A   1      46.961  24.822  36.321  1.00  0.00    -0.200 F 
ENDBRANCH  36  59
ENDBRANCH  10  11
ENDBRANCH   3   5
ENDBRANCH   2   3
ENDBRANCH   1   2
BRANCH   1  70
ATOM     70  C   UNL A   1      32.542  31.514  27.238  1.00  0.00     0.275 C 
BRANCH  70  71
ATOM     71  O   UNL A   1      33.854  31.051  26.883  1.00  0.00    -0.458 OA
BRANCH  71  72
ATOM     72  C   UNL A   1      34.055  29.723  27.086  1.00  0.00     0.338 C 
ATOM     73  O   UNL A   1      34.686  29.217  27.999  1.00  0.00    -0.246 OA
BRANCH  72  74
ATOM     74  C   UNL A   1      33.298  28.926  26.093  1.00  0.00     0.060 A 
ATOM     75  C   UNL A   1      33.542  29.158  24.735  1.00  0.00     0.017 A 
ATOM     76  C   UNL A   1      32.330  27.993  26.471  1.00  0.00     0.017 A 
ATOM     77  C   UNL A   1      32.816  28.466  23.758  1.00  0.00     0.018 A 
ATOM     78  C   UNL A   1      31.605  27.303  25.487  1.00  0.00     0.018 A 
ATOM     79  C   UNL A   1      31.842  27.529  24.124  1.00  0.00     0.039 A 
BRANCH  79  80
ATOM     80  S   UNL A   1      30.662  26.877  22.930  1.00  0.00     0.056 S 
ATOM     81  O   UNL A   1      30.135  25.624  23.567  1.00  0.00    -0.254 OA
BRANCH  80  82
ATOM     82  C   UNL A   1      29.282  28.047  22.867  1.00  0.00     0.089 C 
ATOM     83  C   UNL A   1      27.979  27.590  23.499  1.00  0.00     0.046 C 
ATOM     84  C   UNL A   1      29.625  29.460  23.334  1.00  0.00     0.053 C 
ATOM     85  C   UNL A   1      26.882  28.583  23.134  1.00  0.00     0.162 C 
ATOM     86  C   UNL A   1      28.473  30.416  22.952  1.00  0.00     0.069 C 
ATOM     87  O   UNL A   1      27.238  29.917  23.495  1.00  0.00    -0.375 OA
ATOM     88  C   UNL A   1      28.671  31.831  23.547  1.00  0.00     0.035 C 
ATOM     89  C   UNL A   1      28.377  30.650  21.422  1.00  0.00     0.035 C 
ATOM     90  C   UNL A   1      28.821  32.780  22.361  1.00  0.00     0.003 C 
ATOM     91  C   UNL A   1      28.015  32.119  21.262  1.00  0.00     0.003 C 
ENDBRANCH  80  82
ENDBRANCH  79  80
ENDBRANCH  72  74
ENDBRANCH  71  72
ENDBRANCH  70  71
ENDBRANCH   1  70
TORSDOF 13
ENDMDL
MODEL 3
REMARK VINA RESULT:     -12.9      1.854      3.845
REMARK SMILES O=C(OCCOC(=O)c1ccc([S@@](=O)[C@H]2CCOC3(CCCC3)C2)cc1)c1ccc(-c2c3nc(c(-c4c(F)c(F)c(F)c(F)c4F)c4ccc([nH]4)c(-c4c(F)c(F)c(F)c(F)c4F)c4nc(c(-c5c(F)c(F)c(F)c(F)c5F)c5ccc2[nH]5)C=C4)C=C3)cc1
REMARK SMILES IDX 4 1 3 2 2 3 1 4 27 5 28 6 89 7 29 8 88 9 30 10 31 11 32 12
REMARK SMILES IDX 82 13 33 14 87 15 81 16 83 17 34 18 86 19 80 20 79 21 35 23
REMARK SMILES IDX 67 24 47 25 66 26 48 27 51 28 65 29 84 30 49 31 50 32 64 34
REMARK SMILES IDX 85 35 52 36 36 37 37 38 45 39 38 40 39 41 43 42 46 43 40 44
REMARK SMILES IDX 41 45 44 46 42 47 68 48 69 49 77 50 70 51 71 52 75 53 78 54
REMARK SMILES IDX 72 55 73 56 76 57 74 58 53 59 54 60 62 61 55 62 56 63 60 64
REMARK SMILES IDX 63 65 57 66 58 67 61 68 59 69 5 70 6 71 7 72 8 73 9 74 10 75
REMARK SMILES IDX 26 76 11 77 25 78 12 79 13 80 14 81 15 82 16 83 24 84 17 85
REMARK SMILES IDX 19 86 18 87 20 88 23 89 21 90 22 91
REMARK H PARENT 83 22 51 33
REMARK Flexibility Score: inf
ROOT
ATOM      1  C   UNL A   1      32.497  32.986  27.061  1.00  0.00     0.275 C 
ENDROOT
BRANCH   1   2
ATOM      2  O   UNL A   1      32.161  34.160  27.826  1.00  0.00    -0.458 OA
BRANCH   2   3
ATOM      3  C   UNL A   1      32.903  34.878  28.701  1.00  0.00     0.338 C 
ATOM      4  O   UNL A   1      32.575  36.035  28.956  1.00  0.00    -0.246 OA
BRANCH   3   5
ATOM      5  C   UNL A   1      34.183  34.387  29.295  1.00  0.00     0.060 A 
ATOM      6  C   UNL A   1      35.454  34.577  28.751  1.00  0.00     0.016 A 
ATOM      7  C   UNL A   1      34.075  33.626  30.476  1.00  0.00     0.016 A 
ATOM      8  C   UNL A   1      36.589  34.076  29.392  1.00  0.00     0.010 A 
ATOM      9  C   UNL A   1      35.206  33.117  31.120  1.00  0.00     0.010 A 
ATOM     10  C   UNL A   1      36.472  33.331  30.568  1.00  0.00    -0.014 A 
BRANCH  10  11
ATOM     11  C   UNL A   1      37.669  32.632  31.080  1.00  0.00     0.031 A 
ATOM     12  C   UNL A   1      38.176  33.004  32.440  1.00  0.00     0.074 A 
ATOM     13  C   UNL A   1      38.218  31.612  30.397  1.00  0.00     0.049 A 
ATOM     14  N   UNL A   1      39.084  32.416  33.173  1.00  0.00    -0.248 NA
ATOM     15  C   UNL A   1      37.549  34.176  33.075  1.00  0.00     0.031 C 
ATOM     16  C   UNL A   1      37.750  31.122  29.105  1.00  0.00     0.029 A 
ATOM     17  N   UNL A   1      39.271  30.789  30.703  1.00  0.00    -0.354 N 
ATOM     18  C   UNL A   1      39.106  33.119  34.368  1.00  0.00     0.074 A 
ATOM     19  C   UNL A   1      38.170  34.213  34.243  1.00  0.00     0.031 C 
ATOM     20  C   UNL A   1      38.525  30.099  28.710  1.00  0.00     0.029 A 
ATOM     21  C   UNL A   1      39.529  29.846  29.739  1.00  0.00     0.049 A 
ATOM     22  H   UNL A   1      39.790  30.866  31.535  1.00  0.00     0.167 HD
ATOM     23  C   UNL A   1      39.823  32.854  35.484  1.00  0.00     0.037 A 
ATOM     24  C   UNL A   1      40.459  28.872  29.708  1.00  0.00     0.037 A 
ATOM     25  C   UNL A   1      40.777  31.784  35.586  1.00  0.00     0.049 A 
ATOM     26  C   UNL A   1      41.326  28.667  30.921  1.00  0.00     0.074 A 
ATOM     27  C   UNL A   1      41.584  31.441  36.654  1.00  0.00     0.029 A 
ATOM     28  N   UNL A   1      41.063  30.893  34.561  1.00  0.00    -0.354 N 
ATOM     29  N   UNL A   1      41.303  29.304  32.068  1.00  0.00    -0.248 NA
ATOM     30  C   UNL A   1      42.321  27.591  30.851  1.00  0.00     0.031 C 
ATOM     31  C   UNL A   1      42.394  30.371  36.258  1.00  0.00     0.029 A 
ATOM     32  C   UNL A   1      42.054  30.014  34.961  1.00  0.00     0.049 A 
ATOM     33  H   UNL A   1      40.625  30.886  33.679  1.00  0.00     0.167 HD
ATOM     34  C   UNL A   1      42.245  28.677  32.872  1.00  0.00     0.074 A 
ATOM     35  C   UNL A   1      42.820  27.609  32.079  1.00  0.00     0.031 C 
ATOM     36  C   UNL A   1      42.596  28.952  34.152  1.00  0.00     0.037 A 
BRANCH  23  37
ATOM     37  C   UNL A   1      39.609  33.763  36.656  1.00  0.00     0.064 A 
ATOM     38  C   UNL A   1      40.282  34.990  36.764  1.00  0.00     0.173 A 
ATOM     39  C   UNL A   1      38.750  33.388  37.699  1.00  0.00     0.173 A 
ATOM     40  F   UNL A   1      41.133  35.381  35.804  1.00  0.00    -0.203 F 
ATOM     41  C   UNL A   1      40.128  35.793  37.892  1.00  0.00     0.198 A 
ATOM     42  C   UNL A   1      38.580  34.205  38.813  1.00  0.00     0.198 A 
ATOM     43  F   UNL A   1      38.088  32.223  37.643  1.00  0.00    -0.203 F 
ATOM     44  F   UNL A   1      40.825  36.932  38.002  1.00  0.00    -0.200 F 
ATOM     45  C   UNL A   1      39.276  35.401  38.913  1.00  0.00     0.200 A 
ATOM     46  F   UNL A   1      37.755  33.827  39.799  1.00  0.00    -0.200 F 
ATOM     47  F   UNL A   1      39.136  36.169  40.003  1.00  0.00    -0.200 F 
ENDBRANCH  23  37
BRANCH  24  48
ATOM     48  C   UNL A   1      40.588  27.997  28.513  1.00  0.00     0.064 A 
ATOM     49  C   UNL A   1      41.342  28.387  27.398  1.00  0.00     0.173 A 
ATOM     50  C   UNL A   1      39.939  26.754  28.455  1.00  0.00     0.173 A 
ATOM     51  F   UNL A   1      41.969  29.573  27.398  1.00  0.00    -0.203 F 
ATOM     52  C   UNL A   1      41.424  27.582  26.264  1.00  0.00     0.198 A 
ATOM     53  C   UNL A   1      40.040  25.938  27.330  1.00  0.00     0.198 A 
ATOM     54  F   UNL A   1      39.211  26.328  29.498  1.00  0.00    -0.203 F 
ATOM     55  F   UNL A   1      42.118  28.000  25.196  1.00  0.00    -0.200 F 
ATOM     56  C   UNL A   1      40.776  26.356  26.231  1.00  0.00     0.200 A 
ATOM     57  F   UNL A   1      39.423  24.749  27.310  1.00  0.00    -0.200 F 
ATOM     58  F   UNL A   1      40.854  25.582  25.141  1.00  0.00    -0.200 F 
ENDBRANCH  24  48
BRANCH  36  59
ATOM     59  C   UNL A   1      43.617  28.055  34.787  1.00  0.00     0.064 A 
ATOM     60  C   UNL A   1      44.984  28.364  34.766  1.00  0.00     0.173 A 
ATOM     61  C   UNL A   1      43.212  26.892  35.460  1.00  0.00     0.173 A 
ATOM     62  F   UNL A   1      45.419  29.456  34.121  1.00  0.00    -0.203 F 
ATOM     63  C   UNL A   1      45.914  27.526  35.375  1.00  0.00     0.198 A 
ATOM     64  C   UNL A   1      44.142  26.073  36.093  1.00  0.00     0.198 A 
ATOM     65  F   UNL A   1      41.915  26.556  35.513  1.00  0.00    -0.203 F 
ATOM     66  F   UNL A   1      47.220  27.814  35.301  1.00  0.00    -0.200 F 
ATOM     67  C   UNL A   1      45.491  26.386  36.043  1.00  0.00     0.200 A 
ATOM     68  F   UNL A   1      43.731  24.979  36.750  1.00  0.00    -0.200 F 
ATOM     69  F   UNL A   1      46.388  25.585  36.634  1.00  0.00    -0.200 F 
ENDBRANCH  36  59
ENDBRANCH  10  11
ENDBRANCH   3   5
ENDBRANCH   2   3
ENDBRANCH   1   2
BRANCH   1  70
ATOM     70  C   UNL A   1      31.335  32.025  26.796  1.00  0.00     0.275 C 
BRANCH  70  71
ATOM     71  O   UNL A   1      31.600  31.076  25.751  1.00  0.00    -0.458 OA
BRANCH  71  72
ATOM     72  C   UNL A   1      32.045  29.869  26.189  1.00  0.00     0.338 C 
ATOM     73  O   UNL A   1      32.281  29.561  27.346  1.00  0.00    -0.246 OA
BRANCH  72  74
ATOM     74  C   UNL A   1      32.108  28.902  25.070  1.00  0.00     0.060 A 
ATOM     75  C   UNL A   1      30.917  28.299  24.651  1.00  0.00     0.017 A 
ATOM     76  C   UNL A   1      33.313  28.549  24.459  1.00  0.00     0.017 A 
ATOM     77  C   UNL A   1      30.931  27.341  23.629  1.00  0.00     0.018 A 
ATOM     78  C   UNL A   1      33.321  27.587  23.437  1.00  0.00     0.018 A 
ATOM     79  C   UNL A   1      32.132  26.977  23.010  1.00  0.00     0.039 A 
BRANCH  79  80
ATOM     80  S   UNL A   1      32.248  25.525  21.950  1.00  0.00     0.056 S 
ATOM     81  O   UNL A   1      33.278  25.891  20.922  1.00  0.00    -0.254 OA
BRANCH  80  82
ATOM     82  C   UNL A   1      32.966  24.202  22.955  1.00  0.00     0.089 C 
ATOM     83  C   UNL A   1      32.319  22.832  22.831  1.00  0.00     0.046 C 
ATOM     84  C   UNL A   1      34.484  24.076  22.852  1.00  0.00     0.053 C 
ATOM     85  C   UNL A   1      32.883  21.924  23.918  1.00  0.00     0.162 C 
ATOM     86  C   UNL A   1      34.993  23.134  23.966  1.00  0.00     0.069 C 
ATOM     87  O   UNL A   1      34.308  21.873  23.875  1.00  0.00    -0.375 OA
ATOM     88  C   UNL A   1      36.502  22.822  23.816  1.00  0.00     0.035 C 
ATOM     89  C   UNL A   1      34.866  23.760  25.378  1.00  0.00     0.035 C 
ATOM     90  C   UNL A   1      37.185  23.394  25.055  1.00  0.00     0.003 C 
ATOM     91  C   UNL A   1      36.117  23.321  26.126  1.00  0.00     0.003 C 
ENDBRANCH  80  82
ENDBRANCH  79  80
ENDBRANCH  72  74
ENDBRANCH  71  72
ENDBRANCH  70  71
ENDBRANCH   1  70
TORSDOF 13
ENDMDL
