MODEL 1
REMARK VINA RESULT:     -10.8      0.000      0.000
REMARK SMILES CCCC[C@H](C(=O)OCCOC(=O)c1ccc(-c2c3nc(c(-c4c(F)c(F)c(F)c(F)c4F)c4ccc([nH]4)c(-c4c(F)c(F)c(F)c(F)c4F)c4nc(c(-c5c(F)c(F)c(F)c(F)c5F)c5ccc2[nH]5)C=C4)C=C3)cc1)[C@H](O)c1cccc(C2CC2)c1
REMARK SMILES IDX 9 1 8 2 6 3 7 4 5 5 4 6 3 7 2 8 1 9 77 10 79 11 80 12 87 13
REMARK SMILES IDX 81 14 83 15 82 16 84 17 85 18 86 19 78 20 10 22 11 23 12 24
REMARK SMILES IDX 13 25 14 26 15 27 76 28 16 29 75 30 17 31 18 32 19 33 69 34
REMARK SMILES IDX 20 35 74 36 68 37 70 38 21 39 73 40 67 41 66 42 22 44 54 45
REMARK SMILES IDX 34 46 53 47 35 48 38 49 52 50 71 51 36 52 37 53 51 55 72 56
REMARK SMILES IDX 39 57 23 58 24 59 32 60 25 61 26 62 30 63 33 64 27 65 28 66
REMARK SMILES IDX 31 67 29 68 55 69 56 70 64 71 57 72 58 73 62 74 65 75 59 76
REMARK SMILES IDX 60 77 63 78 61 79 40 80 41 81 49 82 42 83 43 84 47 85 50 86
REMARK SMILES IDX 44 87 45 88 48 89 46 90
REMARK H PARENT 78 21 70 43 38 54
REMARK Flexibility Score: inf
ROOT
ATOM      1  C   UNL A   1      31.416  28.776  25.060  1.00  0.00     0.274 C 
ENDROOT
BRANCH   1   2
ATOM      2  O   UNL A   1      31.972  27.564  25.610  1.00  0.00    -0.462 OA
BRANCH   2   3
ATOM      3  C   UNL A   1      31.280  26.415  25.368  1.00  0.00     0.312 C 
ATOM      4  O   UNL A   1      30.069  26.366  25.207  1.00  0.00    -0.252 OA
BRANCH   3   5
ATOM      5  C   UNL A   1      32.197  25.208  25.409  1.00  0.00     0.132 C 
BRANCH   5   6
ATOM      6  C   UNL A   1      31.488  23.886  25.024  1.00  0.00     0.018 C 
BRANCH   6   7
ATOM      7  C   UNL A   1      31.622  22.721  26.014  1.00  0.00     0.001 C 
BRANCH   7   8
ATOM      8  C   UNL A   1      32.547  22.924  27.218  1.00  0.00    -0.003 C 
ATOM      9  C   UNL A   1      33.641  21.874  27.366  1.00  0.00     0.004 C 
ENDBRANCH   7   8
ENDBRANCH   6   7
ENDBRANCH   5   6
BRANCH   5  10
ATOM     10  C   UNL A   1      33.492  25.482  24.597  1.00  0.00     0.158 C 
BRANCH  10  11
ATOM     11  C   UNL A   1      34.671  24.516  24.563  1.00  0.00    -0.018 A 
ATOM     12  C   UNL A   1      34.884  23.743  23.411  1.00  0.00     0.006 A 
ATOM     13  C   UNL A   1      35.625  24.405  25.586  1.00  0.00     0.010 A 
ATOM     14  C   UNL A   1      36.002  22.912  23.298  1.00  0.00     0.001 A 
ATOM     15  C   UNL A   1      36.785  23.610  25.501  1.00  0.00    -0.045 A 
ATOM     16  C   UNL A   1      36.944  22.860  24.327  1.00  0.00     0.004 A 
BRANCH  15  17
ATOM     17  C   UNL A   1      37.802  23.513  26.630  1.00  0.00     0.019 C 
ATOM     18  C   UNL A   1      39.236  23.090  26.400  1.00  0.00     0.009 C 
ATOM     19  C   UNL A   1      38.929  24.520  26.724  1.00  0.00     0.009 C 
ENDBRANCH  15  17
ENDBRANCH  10  11
BRANCH  10  20
ATOM     20  O   UNL A   1      33.109  25.838  23.261  1.00  0.00    -0.388 OA
ATOM     21  H   UNL A   1      33.314  26.772  23.105  1.00  0.00     0.211 HD
ENDBRANCH  10  20
ENDBRANCH   5  10
ENDBRANCH   3   5
ENDBRANCH   2   3
ENDBRANCH   1   2
BRANCH   1  22
ATOM     22  C   UNL A   1      31.678  29.979  25.960  1.00  0.00     0.275 C 
BRANCH  22  23
ATOM     23  O   UNL A   1      33.089  30.123  26.206  1.00  0.00    -0.458 OA
BRANCH  23  24
ATOM     24  C   UNL A   1      33.451  31.123  27.040  1.00  0.00     0.338 C 
ATOM     25  O   UNL A   1      32.785  32.077  27.402  1.00  0.00    -0.246 OA
BRANCH  24  26
ATOM     26  C   UNL A   1      34.804  30.863  27.554  1.00  0.00     0.060 A 
ATOM     27  C   UNL A   1      35.148  29.549  27.829  1.00  0.00     0.016 A 
ATOM     28  C   UNL A   1      35.662  31.902  27.923  1.00  0.00     0.016 A 
ATOM     29  C   UNL A   1      36.307  29.278  28.542  1.00  0.00     0.010 A 
ATOM     30  C   UNL A   1      36.869  31.609  28.582  1.00  0.00     0.010 A 
ATOM     31  C   UNL A   1      37.187  30.289  28.937  1.00  0.00    -0.014 A 
BRANCH  31  32
ATOM     32  C   UNL A   1      38.333  29.924  29.824  1.00  0.00     0.031 A 
ATOM     33  C   UNL A   1      39.521  29.203  29.248  1.00  0.00     0.074 A 
ATOM     34  C   UNL A   1      38.411  30.375  31.094  1.00  0.00     0.049 A 
ATOM     35  N   UNL A   1      40.539  28.660  29.868  1.00  0.00    -0.248 NA
ATOM     36  C   UNL A   1      39.580  29.079  27.784  1.00  0.00     0.031 C 
ATOM     37  C   UNL A   1      37.415  31.215  31.757  1.00  0.00     0.029 A 
ATOM     38  N   UNL A   1      39.407  30.248  32.035  1.00  0.00    -0.354 N 
ATOM     39  C   UNL A   1      41.296  28.041  28.883  1.00  0.00     0.074 A 
ATOM     40  C   UNL A   1      40.659  28.328  27.616  1.00  0.00     0.031 C 
ATOM     41  C   UNL A   1      37.898  31.626  32.938  1.00  0.00     0.029 A 
ATOM     42  C   UNL A   1      39.178  30.971  33.183  1.00  0.00     0.049 A 
ATOM     43  H   UNL A   1      40.208  29.692  31.900  1.00  0.00     0.167 HD
ATOM     44  C   UNL A   1      42.402  27.274  29.036  1.00  0.00     0.037 A 
ATOM     45  C   UNL A   1      39.898  31.066  34.319  1.00  0.00     0.037 A 
ATOM     46  C   UNL A   1      43.074  27.062  30.291  1.00  0.00     0.049 A 
ATOM     47  C   UNL A   1      41.116  30.196  34.478  1.00  0.00     0.074 A 
ATOM     48  C   UNL A   1      44.139  26.225  30.577  1.00  0.00     0.029 A 
ATOM     49  N   UNL A   1      42.764  27.730  31.465  1.00  0.00    -0.354 N 
ATOM     50  N   UNL A   1      41.710  29.433  33.594  1.00  0.00    -0.248 NA
ATOM     51  C   UNL A   1      41.724  30.149  35.817  1.00  0.00     0.031 C 
ATOM     52  C   UNL A   1      44.460  26.374  31.932  1.00  0.00     0.029 A 
ATOM     53  C   UNL A   1      43.617  27.326  32.479  1.00  0.00     0.049 A 
ATOM     54  H   UNL A   1      42.043  28.393  31.564  1.00  0.00     0.167 HD
ATOM     55  C   UNL A   1      42.735  28.791  34.274  1.00  0.00     0.074 A 
ATOM     56  C   UNL A   1      42.724  29.298  35.629  1.00  0.00     0.031 C 
ATOM     57  C   UNL A   1      43.586  27.837  33.824  1.00  0.00     0.037 A 
BRANCH  44  58
ATOM     58  C   UNL A   1      42.885  26.523  27.833  1.00  0.00     0.064 A 
ATOM     59  C   UNL A   1      43.746  27.089  26.884  1.00  0.00     0.173 A 
ATOM     60  C   UNL A   1      42.471  25.195  27.640  1.00  0.00     0.173 A 
ATOM     61  F   UNL A   1      44.149  28.361  27.013  1.00  0.00    -0.203 F 
ATOM     62  C   UNL A   1      44.158  26.358  25.772  1.00  0.00     0.198 A 
ATOM     63  C   UNL A   1      42.904  24.460  26.541  1.00  0.00     0.198 A 
ATOM     64  F   UNL A   1      41.646  24.609  28.521  1.00  0.00    -0.203 F 
ATOM     65  F   UNL A   1      44.947  26.928  24.851  1.00  0.00    -0.200 F 
ATOM     66  C   UNL A   1      43.741  25.043  25.604  1.00  0.00     0.200 A 
ATOM     67  F   UNL A   1      42.504  23.190  26.387  1.00  0.00    -0.200 F 
ATOM     68  F   UNL A   1      44.141  24.343  24.534  1.00  0.00    -0.200 F 
ENDBRANCH  44  58
BRANCH  45  69
ATOM     69  C   UNL A   1      39.454  31.952  35.431  1.00  0.00     0.064 A 
ATOM     70  C   UNL A   1      39.967  33.251  35.561  1.00  0.00     0.173 A 
ATOM     71  C   UNL A   1      38.534  31.520  36.398  1.00  0.00     0.173 A 
ATOM     72  F   UNL A   1      40.878  33.703  34.687  1.00  0.00    -0.203 F 
ATOM     73  C   UNL A   1      39.580  34.079  36.615  1.00  0.00     0.198 A 
ATOM     74  C   UNL A   1      38.119  32.360  37.429  1.00  0.00     0.198 A 
ATOM     75  F   UNL A   1      38.026  30.281  36.336  1.00  0.00    -0.203 F 
ATOM     76  F   UNL A   1      40.122  35.296  36.744  1.00  0.00    -0.200 F 
ATOM     77  C   UNL A   1      38.647  33.636  37.542  1.00  0.00     0.200 A 
ATOM     78  F   UNL A   1      37.209  31.931  38.313  1.00  0.00    -0.200 F 
ATOM     79  F   UNL A   1      38.268  34.434  38.549  1.00  0.00    -0.200 F 
ENDBRANCH  45  69
BRANCH  57  80
ATOM     80  C   UNL A   1      44.557  27.267  34.813  1.00  0.00     0.064 A 
ATOM     81  C   UNL A   1      44.214  26.164  35.608  1.00  0.00     0.173 A 
ATOM     82  C   UNL A   1      45.850  27.795  34.936  1.00  0.00     0.173 A 
ATOM     83  F   UNL A   1      42.984  25.634  35.535  1.00  0.00    -0.203 F 
ATOM     84  C   UNL A   1      45.127  25.620  36.507  1.00  0.00     0.198 A 
ATOM     85  C   UNL A   1      46.767  27.236  35.822  1.00  0.00     0.198 A 
ATOM     86  F   UNL A   1      46.223  28.848  34.195  1.00  0.00    -0.203 F 
ATOM     87  F   UNL A   1      44.769  24.588  37.283  1.00  0.00    -0.200 F 
ATOM     88  C   UNL A   1      46.404  26.152  36.608  1.00  0.00     0.200 A 
ATOM     89  F   UNL A   1      48.002  27.746  35.914  1.00  0.00    -0.200 F 
ATOM     90  F   UNL A   1      47.285  25.625  37.470  1.00  0.00    -0.200 F 
ENDBRANCH  57  80
ENDBRANCH  31  32
ENDBRANCH  24  26
ENDBRANCH  23  24
ENDBRANCH  22  23
ENDBRANCH   1  22
TORSDOF 18
ENDMDL
MODEL 2
REMARK VINA RESULT:     -10.8      4.152      9.642
REMARK SMILES CCCC[C@H](C(=O)OCCOC(=O)c1ccc(-c2c3nc(c(-c4c(F)c(F)c(F)c(F)c4F)c4ccc([nH]4)c(-c4c(F)c(F)c(F)c(F)c4F)c4nc(c(-c5c(F)c(F)c(F)c(F)c5F)c5ccc2[nH]5)C=C4)C=C3)cc1)[C@H](O)c1cccc(C2CC2)c1
REMARK SMILES IDX 9 1 8 2 6 3 7 4 5 5 4 6 3 7 2 8 1 9 77 10 79 11 80 12 87 13
REMARK SMILES IDX 81 14 83 15 82 16 84 17 85 18 86 19 78 20 10 22 11 23 12 24
REMARK SMILES IDX 13 25 14 26 15 27 76 28 16 29 75 30 17 31 18 32 19 33 69 34
REMARK SMILES IDX 20 35 74 36 68 37 70 38 21 39 73 40 67 41 66 42 22 44 54 45
REMARK SMILES IDX 34 46 53 47 35 48 38 49 52 50 71 51 36 52 37 53 51 55 72 56
REMARK SMILES IDX 39 57 23 58 24 59 32 60 25 61 26 62 30 63 33 64 27 65 28 66
REMARK SMILES IDX 31 67 29 68 55 69 56 70 64 71 57 72 58 73 62 74 65 75 59 76
REMARK SMILES IDX 60 77 63 78 61 79 40 80 41 81 49 82 42 83 43 84 47 85 50 86
REMARK SMILES IDX 44 87 45 88 48 89 46 90
REMARK H PARENT 78 21 70 43 38 54
REMARK Flexibility Score: inf
ROOT
ATOM      1  C   UNL A   1      36.176  22.947  23.606  1.00  0.00     0.274 C 
ENDROOT
BRANCH   1   2
ATOM      2  O   UNL A   1      34.859  23.350  24.033  1.00  0.00    -0.462 OA
BRANCH   2   3
ATOM      3  C   UNL A   1      34.005  23.765  23.057  1.00  0.00     0.312 C 
ATOM      4  O   UNL A   1      33.926  23.250  21.951  1.00  0.00    -0.252 OA
BRANCH   3   5
ATOM      5  C   UNL A   1      33.231  24.994  23.495  1.00  0.00     0.132 C 
BRANCH   5   6
ATOM      6  C   UNL A   1      31.840  25.113  22.827  1.00  0.00     0.018 C 
BRANCH   6   7
ATOM      7  C   UNL A   1      31.551  26.417  22.069  1.00  0.00     0.001 C 
BRANCH   7   8
ATOM      8  C   UNL A   1      31.038  27.606  22.886  1.00  0.00    -0.003 C 
ATOM      9  C   UNL A   1      29.630  27.438  23.441  1.00  0.00     0.004 C 
ENDBRANCH   7   8
ENDBRANCH   6   7
ENDBRANCH   5   6
BRANCH   5  10
ATOM     10  C   UNL A   1      33.190  25.085  25.045  1.00  0.00     0.158 C 
BRANCH  10  11
ATOM     11  C   UNL A   1      32.962  26.393  25.794  1.00  0.00    -0.018 A 
ATOM     12  C   UNL A   1      31.735  26.600  26.444  1.00  0.00     0.006 A 
ATOM     13  C   UNL A   1      33.940  27.386  25.956  1.00  0.00     0.010 A 
ATOM     14  C   UNL A   1      31.514  27.742  27.218  1.00  0.00     0.001 A 
ATOM     15  C   UNL A   1      33.776  28.533  26.756  1.00  0.00    -0.045 A 
ATOM     16  C   UNL A   1      32.530  28.687  27.380  1.00  0.00     0.004 A 
BRANCH  15  17
ATOM     17  C   UNL A   1      34.859  29.593  26.911  1.00  0.00     0.019 C 
ATOM     18  C   UNL A   1      34.839  30.622  28.019  1.00  0.00     0.009 C 
ATOM     19  C   UNL A   1      35.841  29.509  28.061  1.00  0.00     0.009 C 
ENDBRANCH  15  17
ENDBRANCH  10  11
BRANCH  10  20
ATOM     20  O   UNL A   1      32.284  24.080  25.522  1.00  0.00    -0.388 OA
ATOM     21  H   UNL A   1      31.372  24.368  25.368  1.00  0.00     0.211 HD
ENDBRANCH  10  20
ENDBRANCH   5  10
ENDBRANCH   3   5
ENDBRANCH   2   3
ENDBRANCH   1   2
BRANCH   1  22
ATOM     22  C   UNL A   1      36.651  21.694  24.336  1.00  0.00     0.275 C 
BRANCH  22  23
ATOM     23  O   UNL A   1      37.131  22.032  25.650  1.00  0.00    -0.458 OA
BRANCH  23  24
ATOM     24  C   UNL A   1      38.426  21.743  25.905  1.00  0.00     0.338 C 
ATOM     25  O   UNL A   1      39.048  20.742  25.594  1.00  0.00    -0.246 OA
BRANCH  24  26
ATOM     26  C   UNL A   1      39.059  22.889  26.574  1.00  0.00     0.060 A 
ATOM     27  C   UNL A   1      38.578  24.155  26.278  1.00  0.00     0.016 A 
ATOM     28  C   UNL A   1      40.214  22.744  27.348  1.00  0.00     0.016 A 
ATOM     29  C   UNL A   1      39.293  25.274  26.684  1.00  0.00     0.010 A 
ATOM     30  C   UNL A   1      40.890  23.885  27.813  1.00  0.00     0.010 A 
ATOM     31  C   UNL A   1      40.456  25.170  27.450  1.00  0.00    -0.014 A 
BRANCH  31  32
ATOM     32  C   UNL A   1      41.240  26.413  27.719  1.00  0.00     0.031 A 
ATOM     33  C   UNL A   1      40.705  27.439  28.682  1.00  0.00     0.074 A 
ATOM     34  C   UNL A   1      42.499  26.567  27.255  1.00  0.00     0.049 A 
ATOM     35  N   UNL A   1      41.146  28.646  28.933  1.00  0.00    -0.248 NA
ATOM     36  C   UNL A   1      39.524  27.058  29.471  1.00  0.00     0.031 C 
ATOM     37  C   UNL A   1      43.222  25.596  26.435  1.00  0.00     0.029 A 
ATOM     38  N   UNL A   1      43.421  27.566  27.464  1.00  0.00    -0.354 N 
ATOM     39  C   UNL A   1      40.237  29.202  29.824  1.00  0.00     0.074 A 
ATOM     40  C   UNL A   1      39.255  28.183  30.120  1.00  0.00     0.031 C 
ATOM     41  C   UNL A   1      44.500  25.985  26.314  1.00  0.00     0.029 A 
ATOM     42  C   UNL A   1      44.659  27.298  26.929  1.00  0.00     0.049 A 
ATOM     43  H   UNL A   1      43.214  28.396  27.953  1.00  0.00     0.167 HD
ATOM     44  C   UNL A   1      40.212  30.464  30.314  1.00  0.00     0.037 A 
ATOM     45  C   UNL A   1      45.784  28.042  26.901  1.00  0.00     0.037 A 
ATOM     46  C   UNL A   1      41.238  31.446  30.077  1.00  0.00     0.049 A 
ATOM     47  C   UNL A   1      45.735  29.447  27.438  1.00  0.00     0.074 A 
ATOM     48  C   UNL A   1      41.265  32.782  30.441  1.00  0.00     0.029 A 
ATOM     49  N   UNL A   1      42.442  31.180  29.445  1.00  0.00    -0.354 N 
ATOM     50  N   UNL A   1      44.776  30.049  28.097  1.00  0.00    -0.248 NA
ATOM     51  C   UNL A   1      46.903  30.299  27.165  1.00  0.00     0.031 C 
ATOM     52  C   UNL A   1      42.480  33.328  30.009  1.00  0.00     0.029 A 
ATOM     53  C   UNL A   1      43.221  32.325  29.407  1.00  0.00     0.049 A 
ATOM     54  H   UNL A   1      42.705  30.306  29.075  1.00  0.00     0.167 HD
ATOM     55  C   UNL A   1      45.207  31.354  28.287  1.00  0.00     0.074 A 
ATOM     56  C   UNL A   1      46.540  31.443  27.729  1.00  0.00     0.031 C 
ATOM     57  C   UNL A   1      44.542  32.397  28.841  1.00  0.00     0.037 A 
BRANCH  44  58
ATOM     58  C   UNL A   1      38.985  30.883  31.065  1.00  0.00     0.064 A 
ATOM     59  C   UNL A   1      37.896  31.508  30.445  1.00  0.00     0.173 A 
ATOM     60  C   UNL A   1      38.907  30.639  32.446  1.00  0.00     0.173 A 
ATOM     61  F   UNL A   1      37.934  31.783  29.132  1.00  0.00    -0.203 F 
ATOM     62  C   UNL A   1      36.781  31.894  31.185  1.00  0.00     0.198 A 
ATOM     63  C   UNL A   1      37.783  31.005  33.178  1.00  0.00     0.198 A 
ATOM     64  F   UNL A   1      39.926  30.044  33.085  1.00  0.00    -0.203 F 
ATOM     65  F   UNL A   1      35.766  32.530  30.584  1.00  0.00    -0.200 F 
ATOM     66  C   UNL A   1      36.723  31.638  32.549  1.00  0.00     0.200 A 
ATOM     67  F   UNL A   1      37.729  30.749  34.492  1.00  0.00    -0.200 F 
ATOM     68  F   UNL A   1      35.648  32.010  33.258  1.00  0.00    -0.200 F 
ENDBRANCH  44  58
BRANCH  45  69
ATOM     69  C   UNL A   1      47.030  27.515  26.277  1.00  0.00     0.064 A 
ATOM     70  C   UNL A   1      47.256  27.656  24.900  1.00  0.00     0.173 A 
ATOM     71  C   UNL A   1      48.004  26.840  27.027  1.00  0.00     0.173 A 
ATOM     72  F   UNL A   1      46.340  28.259  24.128  1.00  0.00    -0.203 F 
ATOM     73  C   UNL A   1      48.405  27.140  24.300  1.00  0.00     0.198 A 
ATOM     74  C   UNL A   1      49.169  26.358  26.434  1.00  0.00     0.198 A 
ATOM     75  F   UNL A   1      47.831  26.657  28.344  1.00  0.00    -0.203 F 
ATOM     76  F   UNL A   1      48.573  27.245  22.975  1.00  0.00    -0.200 F 
ATOM     77  C   UNL A   1      49.366  26.501  25.070  1.00  0.00     0.200 A 
ATOM     78  F   UNL A   1      50.099  25.754  27.186  1.00  0.00    -0.200 F 
ATOM     79  F   UNL A   1      50.474  26.014  24.496  1.00  0.00    -0.200 F 
ENDBRANCH  45  69
BRANCH  57  80
ATOM     80  C   UNL A   1      45.237  33.724  28.849  1.00  0.00     0.064 A 
ATOM     81  C   UNL A   1      45.059  34.639  27.801  1.00  0.00     0.173 A 
ATOM     82  C   UNL A   1      46.050  34.102  29.926  1.00  0.00     0.173 A 
ATOM     83  F   UNL A   1      44.301  34.315  26.743  1.00  0.00    -0.203 F 
ATOM     84  C   UNL A   1      45.685  35.882  27.824  1.00  0.00     0.198 A 
ATOM     85  C   UNL A   1      46.659  35.354  29.955  1.00  0.00     0.198 A 
ATOM     86  F   UNL A   1      46.249  33.261  30.952  1.00  0.00    -0.203 F 
ATOM     87  F   UNL A   1      45.529  36.728  26.797  1.00  0.00    -0.200 F 
ATOM     88  C   UNL A   1      46.479  36.240  28.904  1.00  0.00     0.200 A 
ATOM     89  F   UNL A   1      47.420  35.703  31.001  1.00  0.00    -0.200 F 
ATOM     90  F   UNL A   1      47.078  37.439  28.927  1.00  0.00    -0.200 F 
ENDBRANCH  57  80
ENDBRANCH  31  32
ENDBRANCH  24  26
ENDBRANCH  23  24
ENDBRANCH  22  23
ENDBRANCH   1  22
TORSDOF 18
ENDMDL
MODEL 3
REMARK VINA RESULT:     -10.7      1.359      2.536
REMARK SMILES CCCC[C@H](C(=O)OCCOC(=O)c1ccc(-c2c3nc(c(-c4c(F)c(F)c(F)c(F)c4F)c4ccc([nH]4)c(-c4c(F)c(F)c(F)c(F)c4F)c4nc(c(-c5c(F)c(F)c(F)c(F)c5F)c5ccc2[nH]5)C=C4)C=C3)cc1)[C@H](O)c1cccc(C2CC2)c1
REMARK SMILES IDX 9 1 8 2 6 3 7 4 5 5 4 6 3 7 2 8 1 9 77 10 79 11 80 12 87 13
REMARK SMILES IDX 81 14 83 15 82 16 84 17 85 18 86 19 78 20 10 22 11 23 12 24
REMARK SMILES IDX 13 25 14 26 15 27 76 28 16 29 75 30 17 31 18 32 19 33 69 34
REMARK SMILES IDX 20 35 74 36 68 37 70 38 21 39 73 40 67 41 66 42 22 44 54 45
REMARK SMILES IDX 34 46 53 47 35 48 38 49 52 50 71 51 36 52 37 53 51 55 72 56
REMARK SMILES IDX 39 57 23 58 24 59 32 60 25 61 26 62 30 63 33 64 27 65 28 66
REMARK SMILES IDX 31 67 29 68 55 69 56 70 64 71 57 72 58 73 62 74 65 75 59 76
REMARK SMILES IDX 60 77 63 78 61 79 40 80 41 81 49 82 42 83 43 84 47 85 50 86
REMARK SMILES IDX 44 87 45 88 48 89 46 90
REMARK H PARENT 78 21 70 43 38 54
REMARK Flexibility Score: inf
ROOT
ATOM      1  C   UNL A   1      31.431  27.986  26.623  1.00  0.00     0.274 C 
ENDROOT
BRANCH   1   2
ATOM      2  O   UNL A   1      30.971  26.880  25.820  1.00  0.00    -0.462 OA
BRANCH   2   3
ATOM      3  C   UNL A   1      31.723  25.745  25.863  1.00  0.00     0.312 C 
ATOM      4  O   UNL A   1      32.894  25.712  26.214  1.00  0.00    -0.252 OA
BRANCH   3   5
ATOM      5  C   UNL A   1      30.942  24.554  25.342  1.00  0.00     0.132 C 
BRANCH   5   6
ATOM      6  C   UNL A   1      31.033  24.386  23.806  1.00  0.00     0.018 C 
BRANCH   6   7
ATOM      7  C   UNL A   1      32.150  25.163  23.095  1.00  0.00     0.001 C 
BRANCH   7   8
ATOM      8  C   UNL A   1      33.369  24.366  22.621  1.00  0.00    -0.003 C 
ATOM      9  C   UNL A   1      33.056  22.964  22.114  1.00  0.00     0.004 C 
ENDBRANCH   7   8
ENDBRANCH   6   7
ENDBRANCH   5   6
BRANCH   5  10
ATOM     10  C   UNL A   1      31.316  23.271  26.134  1.00  0.00     0.158 C 
BRANCH  10  11
ATOM     11  C   UNL A   1      32.358  22.271  25.649  1.00  0.00    -0.018 A 
ATOM     12  C   UNL A   1      33.715  22.523  25.904  1.00  0.00     0.006 A 
ATOM     13  C   UNL A   1      32.047  21.050  25.030  1.00  0.00     0.010 A 
ATOM     14  C   UNL A   1      34.698  21.592  25.560  1.00  0.00     0.001 A 
ATOM     15  C   UNL A   1      32.999  20.067  24.700  1.00  0.00    -0.045 A 
ATOM     16  C   UNL A   1      34.338  20.375  24.978  1.00  0.00     0.004 A 
BRANCH  15  17
ATOM     17  C   UNL A   1      32.627  18.750  24.029  1.00  0.00     0.019 C 
ATOM     18  C   UNL A   1      33.598  17.597  23.904  1.00  0.00     0.009 C 
ATOM     19  C   UNL A   1      32.451  17.499  24.862  1.00  0.00     0.009 C 
ENDBRANCH  15  17
ENDBRANCH  10  11
BRANCH  10  20
ATOM     20  O   UNL A   1      31.594  23.654  27.488  1.00  0.00    -0.388 OA
ATOM     21  H   UNL A   1      32.550  23.764  27.603  1.00  0.00     0.211 HD
ENDBRANCH  10  20
ENDBRANCH   5  10
ENDBRANCH   3   5
ENDBRANCH   2   3
ENDBRANCH   1   2
BRANCH   1  22
ATOM     22  C   UNL A   1      31.590  29.260  25.798  1.00  0.00     0.275 C 
BRANCH  22  23
ATOM     23  O   UNL A   1      32.950  29.727  25.856  1.00  0.00    -0.458 OA
BRANCH  23  24
ATOM     24  C   UNL A   1      33.198  30.739  26.717  1.00  0.00     0.338 C 
ATOM     25  O   UNL A   1      32.438  31.620  27.078  1.00  0.00    -0.246 OA
BRANCH  24  26
ATOM     26  C   UNL A   1      34.555  30.593  27.263  1.00  0.00     0.060 A 
ATOM     27  C   UNL A   1      35.065  29.311  27.389  1.00  0.00     0.016 A 
ATOM     28  C   UNL A   1      35.251  31.679  27.802  1.00  0.00     0.016 A 
ATOM     29  C   UNL A   1      36.226  29.103  28.121  1.00  0.00     0.010 A 
ATOM     30  C   UNL A   1      36.463  31.462  28.480  1.00  0.00     0.010 A 
ATOM     31  C   UNL A   1      36.946  30.160  28.683  1.00  0.00    -0.014 A 
BRANCH  31  32
ATOM     32  C   UNL A   1      38.100  29.836  29.575  1.00  0.00     0.031 A 
ATOM     33  C   UNL A   1      39.304  29.130  29.011  1.00  0.00     0.074 A 
ATOM     34  C   UNL A   1      38.170  30.310  30.837  1.00  0.00     0.049 A 
ATOM     35  N   UNL A   1      40.333  28.620  29.639  1.00  0.00    -0.248 NA
ATOM     36  C   UNL A   1      39.363  28.982  27.549  1.00  0.00     0.031 C 
ATOM     37  C   UNL A   1      37.156  31.141  31.485  1.00  0.00     0.029 A 
ATOM     38  N   UNL A   1      39.169  30.222  31.779  1.00  0.00    -0.354 N 
ATOM     39  C   UNL A   1      41.103  28.001  28.664  1.00  0.00     0.074 A 
ATOM     40  C   UNL A   1      40.458  28.251  27.393  1.00  0.00     0.031 C 
ATOM     41  C   UNL A   1      37.632  31.583  32.659  1.00  0.00     0.029 A 
ATOM     42  C   UNL A   1      38.926  30.961  32.914  1.00  0.00     0.049 A 
ATOM     43  H   UNL A   1      39.981  29.681  31.652  1.00  0.00     0.167 HD
ATOM     44  C   UNL A   1      42.224  27.260  28.829  1.00  0.00     0.037 A 
ATOM     45  C   UNL A   1      39.645  31.091  34.047  1.00  0.00     0.037 A 
ATOM     46  C   UNL A   1      42.902  27.085  30.086  1.00  0.00     0.049 A 
ATOM     47  C   UNL A   1      40.881  30.250  34.220  1.00  0.00     0.074 A 
ATOM     48  C   UNL A   1      43.985  26.277  30.386  1.00  0.00     0.029 A 
ATOM     49  N   UNL A   1      42.579  27.767  31.249  1.00  0.00    -0.354 N 
ATOM     50  N   UNL A   1      41.491  29.484  33.349  1.00  0.00    -0.248 NA
ATOM     51  C   UNL A   1      41.492  30.240  35.558  1.00  0.00     0.031 C 
ATOM     52  C   UNL A   1      44.304  26.456  31.738  1.00  0.00     0.029 A 
ATOM     53  C   UNL A   1      43.441  27.400  32.269  1.00  0.00     0.049 A 
ATOM     54  H   UNL A   1      41.844  28.416  31.338  1.00  0.00     0.167 HD
ATOM     55  C   UNL A   1      42.530  28.877  34.039  1.00  0.00     0.074 A 
ATOM     56  C   UNL A   1      42.509  29.408  35.385  1.00  0.00     0.031 C 
ATOM     57  C   UNL A   1      43.401  27.933  33.605  1.00  0.00     0.037 A 
BRANCH  44  58
ATOM     58  C   UNL A   1      42.723  26.498  27.639  1.00  0.00     0.064 A 
ATOM     59  C   UNL A   1      42.243  25.227  27.300  1.00  0.00     0.173 A 
ATOM     60  C   UNL A   1      43.706  27.073  26.817  1.00  0.00     0.173 A 
ATOM     61  F   UNL A   1      41.321  24.627  28.068  1.00  0.00    -0.203 F 
ATOM     62  C   UNL A   1      42.746  24.548  26.193  1.00  0.00     0.198 A 
ATOM     63  C   UNL A   1      44.190  26.403  25.699  1.00  0.00     0.198 A 
ATOM     64  F   UNL A   1      44.198  28.289  27.101  1.00  0.00    -0.203 F 
ATOM     65  F   UNL A   1      42.307  23.315  25.907  1.00  0.00    -0.200 F 
ATOM     66  C   UNL A   1      43.715  25.138  25.390  1.00  0.00     0.200 A 
ATOM     67  F   UNL A   1      45.119  26.978  24.924  1.00  0.00    -0.200 F 
ATOM     68  F   UNL A   1      44.196  24.482  24.325  1.00  0.00    -0.200 F 
ENDBRANCH  44  58
BRANCH  45  69
ATOM     69  C   UNL A   1      39.182  31.987  35.144  1.00  0.00     0.064 A 
ATOM     70  C   UNL A   1      39.523  33.348  35.149  1.00  0.00     0.173 A 
ATOM     71  C   UNL A   1      38.418  31.507  36.218  1.00  0.00     0.173 A 
ATOM     72  F   UNL A   1      40.284  33.852  34.167  1.00  0.00    -0.203 F 
ATOM     73  C   UNL A   1      39.121  34.189  36.186  1.00  0.00     0.198 A 
ATOM     74  C   UNL A   1      37.984  32.356  37.234  1.00  0.00     0.198 A 
ATOM     75  F   UNL A   1      38.080  30.211  36.276  1.00  0.00    -0.203 F 
ATOM     76  F   UNL A   1      39.501  35.473  36.192  1.00  0.00    -0.200 F 
ATOM     77  C   UNL A   1      38.341  33.694  37.222  1.00  0.00     0.200 A 
ATOM     78  F   UNL A   1      37.221  31.874  38.224  1.00  0.00    -0.200 F 
ATOM     79  F   UNL A   1      37.946  34.504  38.213  1.00  0.00    -0.200 F 
ENDBRANCH  45  69
BRANCH  57  80
ATOM     80  C   UNL A   1      44.385  27.402  34.602  1.00  0.00     0.064 A 
ATOM     81  C   UNL A   1      44.100  26.254  35.357  1.00  0.00     0.173 A 
ATOM     82  C   UNL A   1      45.634  28.014  34.775  1.00  0.00     0.173 A 
ATOM     83  F   UNL A   1      42.912  25.643  35.236  1.00  0.00    -0.203 F 
ATOM     84  C   UNL A   1      45.027  25.748  36.263  1.00  0.00     0.198 A 
ATOM     85  C   UNL A   1      46.566  27.493  35.668  1.00  0.00     0.198 A 
ATOM     86  F   UNL A   1      45.951  29.112  34.074  1.00  0.00    -0.203 F 
ATOM     87  F   UNL A   1      44.722  24.670  37.000  1.00  0.00    -0.200 F 
ATOM     88  C   UNL A   1      46.261  26.364  36.413  1.00  0.00     0.200 A 
ATOM     89  F   UNL A   1      47.760  28.084  35.808  1.00  0.00    -0.200 F 
ATOM     90  F   UNL A   1      47.154  25.872  37.283  1.00  0.00    -0.200 F 
ENDBRANCH  57  80
ENDBRANCH  31  32
ENDBRANCH  24  26
ENDBRANCH  23  24
ENDBRANCH  22  23
ENDBRANCH   1  22
TORSDOF 18
ENDMDL
