MODEL 1
REMARK VINA RESULT:     -12.4      0.000      0.000
REMARK SMILES O=C(OCCOC(=O)C1(NC(=O)c2ccncc2Cl)CCCCC1)c1ccc(-c2c3nc(c(-c4c(F)c(F)c(F)c(F)c4F)c4ccc([nH]4)c(-c4c(F)c(F)c(F)c(F)c4F)c4nc(c(-c5c(F)c(F)c(F)c(F)c5F)c5ccc2[nH]5)C=C4)C=C3)cc1
REMARK SMILES IDX 4 1 3 2 2 3 1 4 25 5 26 6 87 7 27 8 86 9 28 10 29 11 30 12
REMARK SMILES IDX 80 13 31 14 85 15 79 16 81 17 32 18 84 19 78 20 77 21 33 23
REMARK SMILES IDX 65 24 45 25 64 26 46 27 49 28 63 29 82 30 47 31 48 32 62 34
REMARK SMILES IDX 83 35 50 36 34 37 35 38 43 39 36 40 37 41 41 42 44 43 38 44
REMARK SMILES IDX 39 45 42 46 40 47 66 48 67 49 75 50 68 51 69 52 73 53 76 54
REMARK SMILES IDX 70 55 71 56 74 57 72 58 51 59 52 60 60 61 53 62 54 63 58 64
REMARK SMILES IDX 61 65 55 66 56 67 59 68 57 69 5 70 6 71 7 72 8 73 9 74 20 75
REMARK SMILES IDX 24 76 21 77 23 78 22 79 10 80 11 81 12 83 13 84 14 85 18 86
REMARK SMILES IDX 15 87 17 88 19 89 16 90
REMARK H PARENT 81 22 49 33 10 82
REMARK Flexibility Score: inf
ROOT
ATOM      1  C   UNL A   1      32.015  33.069  26.873  1.00  0.00     0.275 C 
ENDROOT
BRANCH   1   2
ATOM      2  O   UNL A   1      32.818  33.509  27.975  1.00  0.00    -0.458 OA
BRANCH   2   3
ATOM      3  C   UNL A   1      34.096  33.940  27.914  1.00  0.00     0.338 C 
ATOM      4  O   UNL A   1      34.413  34.919  27.240  1.00  0.00    -0.246 OA
BRANCH   3   5
ATOM      5  C   UNL A   1      35.168  33.098  28.488  1.00  0.00     0.060 A 
ATOM      6  C   UNL A   1      34.959  31.840  29.063  1.00  0.00     0.016 A 
ATOM      7  C   UNL A   1      36.461  33.623  28.440  1.00  0.00     0.016 A 
ATOM      8  C   UNL A   1      36.040  31.056  29.460  1.00  0.00     0.010 A 
ATOM      9  C   UNL A   1      37.544  32.851  28.852  1.00  0.00     0.010 A 
ATOM     10  C   UNL A   1      37.338  31.555  29.355  1.00  0.00    -0.014 A 
BRANCH  10  11
ATOM     11  C   UNL A   1      38.452  30.849  30.018  1.00  0.00     0.031 A 
ATOM     12  C   UNL A   1      38.783  31.291  31.412  1.00  0.00     0.074 A 
ATOM     13  C   UNL A   1      39.133  29.851  29.425  1.00  0.00     0.049 A 
ATOM     14  N   UNL A   1      39.676  30.820  32.239  1.00  0.00    -0.248 NA
ATOM     15  C   UNL A   1      37.979  32.401  31.958  1.00  0.00     0.031 C 
ATOM     16  C   UNL A   1      38.857  29.286  28.106  1.00  0.00     0.029 A 
ATOM     17  N   UNL A   1      40.235  29.154  29.852  1.00  0.00    -0.354 N 
ATOM     18  C   UNL A   1      39.485  31.527  33.415  1.00  0.00     0.074 A 
ATOM     19  C   UNL A   1      38.505  32.554  33.158  1.00  0.00     0.031 C 
ATOM     20  C   UNL A   1      39.830  28.416  27.781  1.00  0.00     0.029 A 
ATOM     21  C   UNL A   1      40.762  28.316  28.897  1.00  0.00     0.049 A 
ATOM     22  H   UNL A   1      40.612  29.244  30.757  1.00  0.00     0.167 HD
ATOM     23  C   UNL A   1      40.014  31.279  34.632  1.00  0.00     0.037 A 
ATOM     24  C   UNL A   1      41.868  27.550  28.940  1.00  0.00     0.037 A 
ATOM     25  C   UNL A   1      41.006  30.274  34.868  1.00  0.00     0.049 A 
ATOM     26  C   UNL A   1      42.589  27.424  30.256  1.00  0.00     0.074 A 
ATOM     27  C   UNL A   1      41.618  29.920  36.052  1.00  0.00     0.029 A 
ATOM     28  N   UNL A   1      41.545  29.471  33.872  1.00  0.00    -0.354 N 
ATOM     29  N   UNL A   1      42.326  28.010  31.401  1.00  0.00    -0.248 NA
ATOM     30  C   UNL A   1      43.710  26.477  30.312  1.00  0.00     0.031 C 
ATOM     31  C   UNL A   1      42.567  28.931  35.763  1.00  0.00     0.029 A 
ATOM     32  C   UNL A   1      42.510  28.640  34.408  1.00  0.00     0.049 A 
ATOM     33  H   UNL A   1      41.280  29.490  32.924  1.00  0.00     0.167 HD
ATOM     34  C   UNL A   1      43.192  27.448  32.328  1.00  0.00     0.074 A 
ATOM     35  C   UNL A   1      44.006  26.492  31.605  1.00  0.00     0.031 C 
ATOM     36  C   UNL A   1      43.285  27.680  33.660  1.00  0.00     0.037 A 
BRANCH  23  37
ATOM     37  C   UNL A   1      39.487  32.110  35.760  1.00  0.00     0.064 A 
ATOM     38  C   UNL A   1      40.070  33.351  36.077  1.00  0.00     0.173 A 
ATOM     39  C   UNL A   1      38.465  31.634  36.589  1.00  0.00     0.173 A 
ATOM     40  F   UNL A   1      41.078  33.833  35.332  1.00  0.00    -0.203 F 
ATOM     41  C   UNL A   1      39.685  34.055  37.214  1.00  0.00     0.198 A 
ATOM     42  C   UNL A   1      38.061  32.356  37.709  1.00  0.00     0.198 A 
ATOM     43  F   UNL A   1      37.886  30.451  36.336  1.00  0.00    -0.203 F 
ATOM     44  F   UNL A   1      40.316  35.190  37.543  1.00  0.00    -0.200 F 
ATOM     45  C   UNL A   1      38.681  33.556  38.028  1.00  0.00     0.200 A 
ATOM     46  F   UNL A   1      37.093  31.874  38.499  1.00  0.00    -0.200 F 
ATOM     47  F   UNL A   1      38.325  34.221  39.136  1.00  0.00    -0.200 F 
ENDBRANCH  23  37
BRANCH  24  48
ATOM     48  C   UNL A   1      42.324  26.800  27.739  1.00  0.00     0.064 A 
ATOM     49  C   UNL A   1      41.895  25.490  27.491  1.00  0.00     0.173 A 
ATOM     50  C   UNL A   1      43.237  27.367  26.836  1.00  0.00     0.173 A 
ATOM     51  F   UNL A   1      41.036  24.897  28.332  1.00  0.00    -0.203 F 
ATOM     52  C   UNL A   1      42.385  24.761  26.407  1.00  0.00     0.198 A 
ATOM     53  C   UNL A   1      43.714  26.644  25.743  1.00  0.00     0.198 A 
ATOM     54  F   UNL A   1      43.678  28.619  27.025  1.00  0.00    -0.203 F 
ATOM     55  F   UNL A   1      41.994  23.493  26.222  1.00  0.00    -0.200 F 
ATOM     56  C   UNL A   1      43.295  25.338  25.533  1.00  0.00     0.200 A 
ATOM     57  F   UNL A   1      44.591  27.206  24.899  1.00  0.00    -0.200 F 
ATOM     58  F   UNL A   1      43.776  24.633  24.500  1.00  0.00    -0.200 F 
ENDBRANCH  24  48
BRANCH  36  59
ATOM     59  C   UNL A   1      44.254  26.842  34.436  1.00  0.00     0.064 A 
ATOM     60  C   UNL A   1      43.896  25.591  34.956  1.00  0.00     0.173 A 
ATOM     61  C   UNL A   1      45.582  27.270  34.594  1.00  0.00     0.173 A 
ATOM     62  F   UNL A   1      42.634  25.149  34.844  1.00  0.00    -0.203 F 
ATOM     63  C   UNL A   1      44.831  24.804  35.621  1.00  0.00     0.198 A 
ATOM     64  C   UNL A   1      46.521  26.466  35.229  1.00  0.00     0.198 A 
ATOM     65  F   UNL A   1      45.971  28.458  34.107  1.00  0.00    -0.203 F 
ATOM     66  F   UNL A   1      44.460  23.628  36.146  1.00  0.00    -0.200 F 
ATOM     67  C   UNL A   1      46.143  25.236  35.746  1.00  0.00     0.200 A 
ATOM     68  F   UNL A   1      47.791  26.877  35.333  1.00  0.00    -0.200 F 
ATOM     69  F   UNL A   1      47.046  24.466  36.368  1.00  0.00    -0.200 F 
ENDBRANCH  36  59
ENDBRANCH  10  11
ENDBRANCH   3   5
ENDBRANCH   2   3
ENDBRANCH   1   2
BRANCH   1  70
ATOM     70  C   UNL A   1      31.640  31.582  26.786  1.00  0.00     0.274 C 
BRANCH  70  71
ATOM     71  O   UNL A   1      32.196  30.739  25.761  1.00  0.00    -0.460 OA
BRANCH  71  72
ATOM     72  C   UNL A   1      31.711  29.465  25.703  1.00  0.00     0.331 C 
ATOM     73  O   UNL A   1      31.780  28.690  26.652  1.00  0.00    -0.249 OA
BRANCH  72  74
ATOM     74  C   UNL A   1      31.152  29.061  24.294  1.00  0.00     0.138 C 
ATOM     75  C   UNL A   1      30.582  27.631  24.510  1.00  0.00     0.040 C 
ATOM     76  C   UNL A   1      30.039  30.012  23.807  1.00  0.00     0.040 C 
ATOM     77  C   UNL A   1      29.651  27.108  23.419  1.00  0.00     0.003 C 
ATOM     78  C   UNL A   1      29.165  29.449  22.680  1.00  0.00     0.003 C 
ATOM     79  C   UNL A   1      28.565  28.102  23.049  1.00  0.00     0.000 C 
BRANCH  74  80
ATOM     80  N   UNL A   1      32.185  28.955  23.219  1.00  0.00    -0.336 N 
ATOM     81  C   UNL A   1      33.393  28.308  23.229  1.00  0.00     0.253 C 
ATOM     82  H   UNL A   1      31.964  29.419  22.379  1.00  0.00     0.165 HD
ATOM     83  O   UNL A   1      34.399  28.850  22.776  1.00  0.00    -0.269 OA
BRANCH  81  84
ATOM     84  C   UNL A   1      33.487  26.922  23.707  1.00  0.00     0.061 A 
ATOM     85  C   UNL A   1      33.988  26.705  24.994  1.00  0.00     0.035 A 
ATOM     86  C   UNL A   1      33.137  25.840  22.897  1.00  0.00     0.072 A 
ATOM     87  C   UNL A   1      34.028  25.403  25.460  1.00  0.00     0.112 A 
ATOM     88  C   UNL A   1      33.159  24.584  23.482  1.00  0.00     0.132 A 
ATOM     89  Cl  UNL A   1      32.694  25.989  21.237  1.00  0.00    -0.082 Cl
ATOM     90  N   UNL A   1      33.585  24.343  24.750  1.00  0.00    -0.263 NA
ENDBRANCH  81  84
ENDBRANCH  74  80
ENDBRANCH  72  74
ENDBRANCH  71  72
ENDBRANCH  70  71
ENDBRANCH   1  70
TORSDOF 13
ENDMDL
MODEL 2
REMARK VINA RESULT:     -12.3      1.081      2.245
REMARK SMILES O=C(OCCOC(=O)C1(NC(=O)c2ccncc2Cl)CCCCC1)c1ccc(-c2c3nc(c(-c4c(F)c(F)c(F)c(F)c4F)c4ccc([nH]4)c(-c4c(F)c(F)c(F)c(F)c4F)c4nc(c(-c5c(F)c(F)c(F)c(F)c5F)c5ccc2[nH]5)C=C4)C=C3)cc1
REMARK SMILES IDX 4 1 3 2 2 3 1 4 25 5 26 6 87 7 27 8 86 9 28 10 29 11 30 12
REMARK SMILES IDX 80 13 31 14 85 15 79 16 81 17 32 18 84 19 78 20 77 21 33 23
REMARK SMILES IDX 65 24 45 25 64 26 46 27 49 28 63 29 82 30 47 31 48 32 62 34
REMARK SMILES IDX 83 35 50 36 34 37 35 38 43 39 36 40 37 41 41 42 44 43 38 44
REMARK SMILES IDX 39 45 42 46 40 47 66 48 67 49 75 50 68 51 69 52 73 53 76 54
REMARK SMILES IDX 70 55 71 56 74 57 72 58 51 59 52 60 60 61 53 62 54 63 58 64
REMARK SMILES IDX 61 65 55 66 56 67 59 68 57 69 5 70 6 71 7 72 8 73 9 74 20 75
REMARK SMILES IDX 24 76 21 77 23 78 22 79 10 80 11 81 12 83 13 84 14 85 18 86
REMARK SMILES IDX 15 87 17 88 19 89 16 90
REMARK H PARENT 81 22 49 33 10 82
REMARK Flexibility Score: inf
ROOT
ATOM      1  C   UNL A   1      32.290  32.561  26.864  1.00  0.00     0.275 C 
ENDROOT
BRANCH   1   2
ATOM      2  O   UNL A   1      32.715  33.422  27.927  1.00  0.00    -0.458 OA
BRANCH   2   3
ATOM      3  C   UNL A   1      33.946  33.956  28.083  1.00  0.00     0.338 C 
ATOM      4  O   UNL A   1      34.243  35.042  27.587  1.00  0.00    -0.246 OA
BRANCH   3   5
ATOM      5  C   UNL A   1      35.020  33.128  28.672  1.00  0.00     0.060 A 
ATOM      6  C   UNL A   1      34.799  32.034  29.515  1.00  0.00     0.016 A 
ATOM      7  C   UNL A   1      36.330  33.490  28.348  1.00  0.00     0.016 A 
ATOM      8  C   UNL A   1      35.860  31.227  29.920  1.00  0.00     0.010 A 
ATOM      9  C   UNL A   1      37.396  32.698  28.765  1.00  0.00     0.010 A 
ATOM     10  C   UNL A   1      37.164  31.553  29.546  1.00  0.00    -0.014 A 
BRANCH  10  11
ATOM     11  C   UNL A   1      38.304  30.870  30.188  1.00  0.00     0.031 A 
ATOM     12  C   UNL A   1      38.649  31.316  31.578  1.00  0.00     0.074 A 
ATOM     13  C   UNL A   1      38.997  29.889  29.581  1.00  0.00     0.049 A 
ATOM     14  N   UNL A   1      39.566  30.863  32.388  1.00  0.00    -0.248 NA
ATOM     15  C   UNL A   1      37.830  32.406  32.140  1.00  0.00     0.031 C 
ATOM     16  C   UNL A   1      38.711  29.321  28.266  1.00  0.00     0.029 A 
ATOM     17  N   UNL A   1      40.121  29.215  29.988  1.00  0.00    -0.354 N 
ATOM     18  C   UNL A   1      39.380  31.562  33.569  1.00  0.00     0.074 A 
ATOM     19  C   UNL A   1      38.373  32.568  33.332  1.00  0.00     0.031 C 
ATOM     20  C   UNL A   1      39.698  28.473  27.922  1.00  0.00     0.029 A 
ATOM     21  C   UNL A   1      40.651  28.392  29.022  1.00  0.00     0.049 A 
ATOM     22  H   UNL A   1      40.512  29.312  30.886  1.00  0.00     0.167 HD
ATOM     23  C   UNL A   1      39.934  31.323  34.777  1.00  0.00     0.037 A 
ATOM     24  C   UNL A   1      41.774  27.650  29.044  1.00  0.00     0.037 A 
ATOM     25  C   UNL A   1      40.951  30.340  34.994  1.00  0.00     0.049 A 
ATOM     26  C   UNL A   1      42.519  27.536  30.348  1.00  0.00     0.074 A 
ATOM     27  C   UNL A   1      41.591  29.996  36.166  1.00  0.00     0.029 A 
ATOM     28  N   UNL A   1      41.491  29.551  33.986  1.00  0.00    -0.354 N 
ATOM     29  N   UNL A   1      42.262  28.114  31.498  1.00  0.00    -0.248 NA
ATOM     30  C   UNL A   1      43.662  26.615  30.382  1.00  0.00     0.031 C 
ATOM     31  C   UNL A   1      42.556  29.030  35.859  1.00  0.00     0.029 A 
ATOM     32  C   UNL A   1      42.483  28.740  34.503  1.00  0.00     0.049 A 
ATOM     33  H   UNL A   1      41.210  29.567  33.043  1.00  0.00     0.167 HD
ATOM     34  C   UNL A   1      43.156  27.569  32.409  1.00  0.00     0.074 A 
ATOM     35  C   UNL A   1      43.979  26.633  31.670  1.00  0.00     0.031 C 
ATOM     36  C   UNL A   1      43.266  27.800  33.740  1.00  0.00     0.037 A 
BRANCH  23  37
ATOM     37  C   UNL A   1      39.407  32.140  35.916  1.00  0.00     0.064 A 
ATOM     38  C   UNL A   1      39.986  33.379  36.244  1.00  0.00     0.173 A 
ATOM     39  C   UNL A   1      38.391  31.649  36.744  1.00  0.00     0.173 A 
ATOM     40  F   UNL A   1      40.988  33.875  35.499  1.00  0.00    -0.203 F 
ATOM     41  C   UNL A   1      39.602  34.069  37.389  1.00  0.00     0.198 A 
ATOM     42  C   UNL A   1      37.989  32.358  37.873  1.00  0.00     0.198 A 
ATOM     43  F   UNL A   1      37.817  30.467  36.480  1.00  0.00    -0.203 F 
ATOM     44  F   UNL A   1      40.230  35.204  37.728  1.00  0.00    -0.200 F 
ATOM     45  C   UNL A   1      38.604  33.558  38.203  1.00  0.00     0.200 A 
ATOM     46  F   UNL A   1      37.026  31.863  38.662  1.00  0.00    -0.200 F 
ATOM     47  F   UNL A   1      38.250  34.209  39.318  1.00  0.00    -0.200 F 
ENDBRANCH  23  37
BRANCH  24  48
ATOM     48  C   UNL A   1      42.226  26.913  27.833  1.00  0.00     0.064 A 
ATOM     49  C   UNL A   1      41.855  25.581  27.610  1.00  0.00     0.173 A 
ATOM     50  C   UNL A   1      43.078  27.517  26.896  1.00  0.00     0.173 A 
ATOM     51  F   UNL A   1      41.056  24.953  28.484  1.00  0.00    -0.203 F 
ATOM     52  C   UNL A   1      42.344  24.868  26.515  1.00  0.00     0.198 A 
ATOM     53  C   UNL A   1      43.554  26.809  25.792  1.00  0.00     0.198 A 
ATOM     54  F   UNL A   1      43.462  28.791  27.060  1.00  0.00    -0.203 F 
ATOM     55  F   UNL A   1      42.011  23.581  26.353  1.00  0.00    -0.200 F 
ATOM     56  C   UNL A   1      43.194  25.482  25.606  1.00  0.00     0.200 A 
ATOM     57  F   UNL A   1      44.372  27.407  24.915  1.00  0.00    -0.200 F 
ATOM     58  F   UNL A   1      43.674  24.793  24.563  1.00  0.00    -0.200 F 
ENDBRANCH  24  48
BRANCH  36  59
ATOM     59  C   UNL A   1      44.267  26.981  34.497  1.00  0.00     0.064 A 
ATOM     60  C   UNL A   1      43.946  25.720  35.017  1.00  0.00     0.173 A 
ATOM     61  C   UNL A   1      45.586  27.440  34.638  1.00  0.00     0.173 A 
ATOM     62  F   UNL A   1      42.694  25.249  34.922  1.00  0.00    -0.203 F 
ATOM     63  C   UNL A   1      44.910  24.952  35.663  1.00  0.00     0.198 A 
ATOM     64  C   UNL A   1      46.553  26.655  35.255  1.00  0.00     0.198 A 
ATOM     65  F   UNL A   1      45.940  28.639  34.151  1.00  0.00    -0.203 F 
ATOM     66  F   UNL A   1      44.574  23.766  36.188  1.00  0.00    -0.200 F 
ATOM     67  C   UNL A   1      46.213  25.415  35.771  1.00  0.00     0.200 A 
ATOM     68  F   UNL A   1      47.815  27.096  35.341  1.00  0.00    -0.200 F 
ATOM     69  F   UNL A   1      47.143  24.664  36.376  1.00  0.00    -0.200 F 
ENDBRANCH  36  59
ENDBRANCH  10  11
ENDBRANCH   3   5
ENDBRANCH   2   3
ENDBRANCH   1   2
BRANCH   1  70
ATOM     70  C   UNL A   1      32.557  31.053  26.989  1.00  0.00     0.274 C 
BRANCH  70  71
ATOM     71  O   UNL A   1      32.873  30.260  25.831  1.00  0.00    -0.460 OA
BRANCH  71  72
ATOM     72  C   UNL A   1      31.817  29.663  25.206  1.00  0.00     0.331 C 
ATOM     73  O   UNL A   1      30.748  30.237  25.025  1.00  0.00    -0.249 OA
BRANCH  72  74
ATOM     74  C   UNL A   1      32.067  28.160  24.834  1.00  0.00     0.138 C 
ATOM     75  C   UNL A   1      33.500  27.873  25.364  1.00  0.00     0.040 C 
ATOM     76  C   UNL A   1      31.051  27.210  25.502  1.00  0.00     0.040 C 
ATOM     77  C   UNL A   1      33.893  26.403  25.473  1.00  0.00     0.003 C 
ATOM     78  C   UNL A   1      31.482  25.739  25.543  1.00  0.00     0.003 C 
ATOM     79  C   UNL A   1      32.846  25.568  26.188  1.00  0.00     0.000 C 
BRANCH  74  80
ATOM     80  N   UNL A   1      32.085  27.874  23.367  1.00  0.00    -0.336 N 
ATOM     81  C   UNL A   1      31.042  27.643  22.509  1.00  0.00     0.253 C 
ATOM     82  H   UNL A   1      32.979  27.848  22.956  1.00  0.00     0.165 HD
ATOM     83  O   UNL A   1      31.096  26.732  21.686  1.00  0.00    -0.269 OA
BRANCH  81  84
ATOM     84  C   UNL A   1      29.874  28.535  22.504  1.00  0.00     0.061 A 
ATOM     85  C   UNL A   1      30.040  29.828  22.001  1.00  0.00     0.035 A 
ATOM     86  C   UNL A   1      28.643  28.137  23.026  1.00  0.00     0.072 A 
ATOM     87  C   UNL A   1      28.927  30.650  21.951  1.00  0.00     0.112 A 
ATOM     88  C   UNL A   1      27.581  29.014  22.871  1.00  0.00     0.132 A 
ATOM     89  Cl  UNL A   1      28.387  26.639  23.841  1.00  0.00    -0.082 Cl
ATOM     90  N   UNL A   1      27.693  30.257  22.333  1.00  0.00    -0.263 NA
ENDBRANCH  81  84
ENDBRANCH  74  80
ENDBRANCH  72  74
ENDBRANCH  71  72
ENDBRANCH  70  71
ENDBRANCH   1  70
TORSDOF 13
ENDMDL
MODEL 3
REMARK VINA RESULT:     -12.1      5.177     10.726
REMARK SMILES O=C(OCCOC(=O)C1(NC(=O)c2ccncc2Cl)CCCCC1)c1ccc(-c2c3nc(c(-c4c(F)c(F)c(F)c(F)c4F)c4ccc([nH]4)c(-c4c(F)c(F)c(F)c(F)c4F)c4nc(c(-c5c(F)c(F)c(F)c(F)c5F)c5ccc2[nH]5)C=C4)C=C3)cc1
REMARK SMILES IDX 4 1 3 2 2 3 1 4 25 5 26 6 87 7 27 8 86 9 28 10 29 11 30 12
REMARK SMILES IDX 80 13 31 14 85 15 79 16 81 17 32 18 84 19 78 20 77 21 33 23
REMARK SMILES IDX 65 24 45 25 64 26 46 27 49 28 63 29 82 30 47 31 48 32 62 34
REMARK SMILES IDX 83 35 50 36 34 37 35 38 43 39 36 40 37 41 41 42 44 43 38 44
REMARK SMILES IDX 39 45 42 46 40 47 66 48 67 49 75 50 68 51 69 52 73 53 76 54
REMARK SMILES IDX 70 55 71 56 74 57 72 58 51 59 52 60 60 61 53 62 54 63 58 64
REMARK SMILES IDX 61 65 55 66 56 67 59 68 57 69 5 70 6 71 7 72 8 73 9 74 20 75
REMARK SMILES IDX 24 76 21 77 23 78 22 79 10 80 11 81 12 83 13 84 14 85 18 86
REMARK SMILES IDX 15 87 17 88 19 89 16 90
REMARK H PARENT 81 22 49 33 10 82
REMARK Flexibility Score: inf
ROOT
ATOM      1  C   UNL A   1      39.047  19.629  25.758  1.00  0.00     0.275 C 
ENDROOT
BRANCH   1   2
ATOM      2  O   UNL A   1      40.413  19.989  25.996  1.00  0.00    -0.458 OA
BRANCH   2   3
ATOM      3  C   UNL A   1      40.938  20.418  27.164  1.00  0.00     0.338 C 
ATOM      4  O   UNL A   1      41.053  19.666  28.131  1.00  0.00    -0.246 OA
BRANCH   3   5
ATOM      5  C   UNL A   1      41.179  21.863  27.358  1.00  0.00     0.060 A 
ATOM      6  C   UNL A   1      40.668  22.866  26.527  1.00  0.00     0.016 A 
ATOM      7  C   UNL A   1      41.976  22.218  28.449  1.00  0.00     0.016 A 
ATOM      8  C   UNL A   1      40.832  24.210  26.857  1.00  0.00     0.010 A 
ATOM      9  C   UNL A   1      42.159  23.559  28.773  1.00  0.00     0.010 A 
ATOM     10  C   UNL A   1      41.576  24.564  27.982  1.00  0.00    -0.014 A 
BRANCH  10  11
ATOM     11  C   UNL A   1      41.980  25.970  28.182  1.00  0.00     0.031 A 
ATOM     12  C   UNL A   1      43.370  26.330  27.751  1.00  0.00     0.074 A 
ATOM     13  C   UNL A   1      41.154  26.894  28.706  1.00  0.00     0.049 A 
ATOM     14  N   UNL A   1      43.968  27.490  27.768  1.00  0.00    -0.248 NA
ATOM     15  C   UNL A   1      44.192  25.235  27.201  1.00  0.00     0.031 C 
ATOM     16  C   UNL A   1      39.761  26.683  29.092  1.00  0.00     0.029 A 
ATOM     17  N   UNL A   1      41.387  28.205  29.038  1.00  0.00    -0.354 N 
ATOM     18  C   UNL A   1      45.197  27.271  27.167  1.00  0.00     0.074 A 
ATOM     19  C   UNL A   1      45.326  25.853  26.933  1.00  0.00     0.031 C 
ATOM     20  C   UNL A   1      39.299  27.782  29.716  1.00  0.00     0.029 A 
ATOM     21  C   UNL A   1      40.345  28.796  29.714  1.00  0.00     0.049 A 
ATOM     22  H   UNL A   1      42.221  28.678  28.814  1.00  0.00     0.167 HD
ATOM     23  C   UNL A   1      46.101  28.187  26.760  1.00  0.00     0.037 A 
ATOM     24  C   UNL A   1      40.257  30.027  30.253  1.00  0.00     0.037 A 
ATOM     25  C   UNL A   1      45.973  29.588  27.022  1.00  0.00     0.049 A 
ATOM     26  C   UNL A   1      41.367  31.004  29.968  1.00  0.00     0.074 A 
ATOM     27  C   UNL A   1      46.815  30.620  26.660  1.00  0.00     0.029 A 
ATOM     28  N   UNL A   1      44.926  30.148  27.742  1.00  0.00    -0.354 N 
ATOM     29  N   UNL A   1      42.477  30.817  29.293  1.00  0.00    -0.248 NA
ATOM     30  C   UNL A   1      41.184  32.378  30.452  1.00  0.00     0.031 C 
ATOM     31  C   UNL A   1      46.300  31.802  27.205  1.00  0.00     0.029 A 
ATOM     32  C   UNL A   1      45.114  31.510  27.866  1.00  0.00     0.049 A 
ATOM     33  H   UNL A   1      44.162  29.647  28.111  1.00  0.00     0.167 HD
ATOM     34  C   UNL A   1      43.084  32.062  29.202  1.00  0.00     0.074 A 
ATOM     35  C   UNL A   1      42.230  32.991  29.914  1.00  0.00     0.031 C 
ATOM     36  C   UNL A   1      44.228  32.410  28.562  1.00  0.00     0.037 A 
BRANCH  23  37
ATOM     37  C   UNL A   1      47.265  27.660  25.979  1.00  0.00     0.064 A 
ATOM     38  C   UNL A   1      48.463  27.300  26.624  1.00  0.00     0.173 A 
ATOM     39  C   UNL A   1      47.228  27.603  24.582  1.00  0.00     0.173 A 
ATOM     40  F   UNL A   1      48.558  27.372  27.962  1.00  0.00    -0.203 F 
ATOM     41  C   UNL A   1      49.595  26.955  25.893  1.00  0.00     0.198 A 
ATOM     42  C   UNL A   1      48.355  27.227  23.854  1.00  0.00     0.198 A 
ATOM     43  F   UNL A   1      46.114  27.948  23.920  1.00  0.00    -0.203 F 
ATOM     44  F   UNL A   1      50.748  26.702  26.526  1.00  0.00    -0.200 F 
ATOM     45  C   UNL A   1      49.540  26.919  24.508  1.00  0.00     0.200 A 
ATOM     46  F   UNL A   1      48.304  27.195  22.516  1.00  0.00    -0.200 F 
ATOM     47  F   UNL A   1      50.635  26.609  23.803  1.00  0.00    -0.200 F 
ENDBRANCH  23  37
BRANCH  24  48
ATOM     48  C   UNL A   1      39.066  30.427  31.050  1.00  0.00     0.064 A 
ATOM     49  C   UNL A   1      37.957  31.035  30.449  1.00  0.00     0.173 A 
ATOM     50  C   UNL A   1      39.035  30.249  32.442  1.00  0.00     0.173 A 
ATOM     51  F   UNL A   1      37.945  31.244  29.124  1.00  0.00    -0.203 F 
ATOM     52  C   UNL A   1      36.876  31.481  31.209  1.00  0.00     0.198 A 
ATOM     53  C   UNL A   1      37.946  30.679  33.200  1.00  0.00     0.198 A 
ATOM     54  F   UNL A   1      40.069  29.669  33.068  1.00  0.00    -0.203 F 
ATOM     55  F   UNL A   1      35.850  32.103  30.613  1.00  0.00    -0.200 F 
ATOM     56  C   UNL A   1      36.871  31.303  32.585  1.00  0.00     0.200 A 
ATOM     57  F   UNL A   1      37.944  30.502  34.529  1.00  0.00    -0.200 F 
ATOM     58  F   UNL A   1      35.838  31.744  33.316  1.00  0.00    -0.200 F 
ENDBRANCH  24  48
BRANCH  36  59
ATOM     59  C   UNL A   1      44.588  33.864  28.546  1.00  0.00     0.064 A 
ATOM     60  C   UNL A   1      44.113  34.730  27.552  1.00  0.00     0.173 A 
ATOM     61  C   UNL A   1      45.362  34.406  29.584  1.00  0.00     0.173 A 
ATOM     62  F   UNL A   1      43.386  34.253  26.531  1.00  0.00    -0.203 F 
ATOM     63  C   UNL A   1      44.412  36.088  27.591  1.00  0.00     0.198 A 
ATOM     64  C   UNL A   1      45.629  35.769  29.637  1.00  0.00     0.198 A 
ATOM     65  F   UNL A   1      45.833  33.616  30.560  1.00  0.00    -0.203 F 
ATOM     66  F   UNL A   1      43.982  36.894  26.611  1.00  0.00    -0.200 F 
ATOM     67  C   UNL A   1      45.159  36.608  28.639  1.00  0.00     0.200 A 
ATOM     68  F   UNL A   1      46.335  36.271  30.659  1.00  0.00    -0.200 F 
ATOM     69  F   UNL A   1      45.428  37.919  28.685  1.00  0.00    -0.200 F 
ENDBRANCH  36  59
ENDBRANCH  10  11
ENDBRANCH   3   5
ENDBRANCH   2   3
ENDBRANCH   1   2
BRANCH   1  70
ATOM     70  C   UNL A   1      38.222  20.481  24.782  1.00  0.00     0.274 C 
BRANCH  70  71
ATOM     71  O   UNL A   1      37.141  21.306  25.253  1.00  0.00    -0.460 OA
BRANCH  71  72
ATOM     72  C   UNL A   1      35.887  20.785  25.120  1.00  0.00     0.331 C 
ATOM     73  O   UNL A   1      35.685  19.586  24.964  1.00  0.00    -0.249 OA
BRANCH  72  74
ATOM     74  C   UNL A   1      34.751  21.867  25.089  1.00  0.00     0.138 C 
ATOM     75  C   UNL A   1      35.315  23.031  25.950  1.00  0.00     0.040 C 
ATOM     76  C   UNL A   1      34.445  22.360  23.659  1.00  0.00     0.040 C 
ATOM     77  C   UNL A   1      34.599  24.372  25.817  1.00  0.00     0.003 C 
ATOM     78  C   UNL A   1      33.685  23.689  23.590  1.00  0.00     0.003 C 
ATOM     79  C   UNL A   1      34.391  24.785  24.371  1.00  0.00     0.000 C 
BRANCH  74  80
ATOM     80  N   UNL A   1      33.467  21.443  25.726  1.00  0.00    -0.336 N 
ATOM     81  C   UNL A   1      32.389  20.802  25.175  1.00  0.00     0.253 C 
ATOM     82  H   UNL A   1      33.385  21.655  26.684  1.00  0.00     0.165 HD
ATOM     83  O   UNL A   1      31.244  21.175  25.422  1.00  0.00    -0.269 OA
BRANCH  81  84
ATOM     84  C   UNL A   1      32.582  19.604  24.346  1.00  0.00     0.061 A 
ATOM     85  C   UNL A   1      33.072  18.451  24.964  1.00  0.00     0.035 A 
ATOM     86  C   UNL A   1      32.335  19.614  22.972  1.00  0.00     0.072 A 
ATOM     87  C   UNL A   1      33.205  17.310  24.191  1.00  0.00     0.112 A 
ATOM     88  C   UNL A   1      32.443  18.404  22.305  1.00  0.00     0.132 A 
ATOM     89  Cl  UNL A   1      31.915  21.032  22.084  1.00  0.00    -0.082 Cl
ATOM     90  N   UNL A   1      32.860  17.250  22.887  1.00  0.00    -0.263 NA
ENDBRANCH  81  84
ENDBRANCH  74  80
ENDBRANCH  72  74
ENDBRANCH  71  72
ENDBRANCH  70  71
ENDBRANCH   1  70
TORSDOF 13
ENDMDL
