MODEL 1
REMARK VINA RESULT:     -12.2      0.000      0.000
REMARK SMILES C[C@H](O)[C@H](C)[N@H+]1Cc2ccccc2C[C@@H]1C(=O)OCCOC(=O)c1ccc(-c2c3nc(c(-c4c(F)c(F)c(F)c(F)c4F)c4ccc([nH]4)c(-c4c(F)c(F)c(F)c(F)c4F)c4nc(c(-c5c(F)c(F)c(F)c(F)c5F)c5ccc2[nH]5)C=C4)C=C3)cc1
REMARK SMILES IDX 19 1 18 2 16 3 17 4 15 5 6 6 7 7 8 9 14 10 9 11 13 12 10 13
REMARK SMILES IDX 12 14 11 15 4 16 5 17 2 18 1 19 3 20 20 22 21 23 22 24 23 25
REMARK SMILES IDX 24 26 25 27 86 28 26 29 85 30 27 31 28 32 29 33 79 34 30 35
REMARK SMILES IDX 84 36 78 37 80 38 31 39 83 40 77 41 76 42 32 44 64 45 44 46
REMARK SMILES IDX 63 47 45 48 48 49 62 50 81 51 46 52 47 53 61 55 82 56 49 57
REMARK SMILES IDX 33 58 34 59 42 60 35 61 36 62 40 63 43 64 37 65 38 66 41 67
REMARK SMILES IDX 39 68 65 69 66 70 74 71 67 72 68 73 72 74 75 75 69 76 70 77
REMARK SMILES IDX 73 78 71 79 50 80 51 81 59 82 52 83 53 84 57 85 60 86 54 87
REMARK SMILES IDX 55 88 58 89 56 90
REMARK H PARENT 6 8 3 21 80 43 48 54
REMARK Flexibility Score: inf
ROOT
ATOM      1  C   UNL A   1      32.850  28.998  24.884  1.00  0.00     0.274 C 
ENDROOT
BRANCH   1   2
ATOM      2  O   UNL A   1      32.556  28.876  23.478  1.00  0.00    -0.458 OA
BRANCH   2   3
ATOM      3  C   UNL A   1      32.608  27.597  22.996  1.00  0.00     0.365 C 
ATOM      4  O   UNL A   1      33.627  26.915  23.020  1.00  0.00    -0.245 OA
BRANCH   3   5
ATOM      5  C   UNL A   1      31.247  27.151  22.400  1.00  0.00     0.300 C 
ATOM      6  N   UNL A   1      30.144  27.784  23.194  1.00  0.00    -0.315 N 
ATOM      7  C   UNL A   1      29.526  26.844  24.164  1.00  0.00     0.300 C 
ATOM      8  H   UNL A   1      30.623  28.510  23.729  1.00  0.00     0.349 HD
ATOM      9  C   UNL A   1      30.420  25.742  24.677  1.00  0.00     0.010 A 
ATOM     10  C   UNL A   1      31.240  25.606  22.352  1.00  0.00     0.113 C 
ATOM     11  C   UNL A   1      30.447  25.361  26.022  1.00  0.00     0.010 A 
ATOM     12  C   UNL A   1      31.220  25.058  23.751  1.00  0.00    -0.033 A 
ATOM     13  C   UNL A   1      31.276  24.316  26.434  1.00  0.00     0.001 A 
ATOM     14  C   UNL A   1      32.026  23.994  24.157  1.00  0.00     0.004 A 
ATOM     15  C   UNL A   1      32.056  23.630  25.503  1.00  0.00     0.000 A 
BRANCH   6  16
ATOM     16  C   UNL A   1      29.120  28.548  22.401  1.00  0.00     0.210 C 
ATOM     17  C   UNL A   1      27.752  28.535  23.131  1.00  0.00     0.078 C 
BRANCH  16  18
ATOM     18  C   UNL A   1      29.486  30.053  22.098  1.00  0.00     0.169 C 
ATOM     19  C   UNL A   1      28.412  30.800  21.300  1.00  0.00     0.045 C 
BRANCH  18  20
ATOM     20  O   UNL A   1      30.671  30.155  21.304  1.00  0.00    -0.387 OA
ATOM     21  H   UNL A   1      31.357  30.621  21.807  1.00  0.00     0.211 HD
ENDBRANCH  18  20
ENDBRANCH  16  18
ENDBRANCH   6  16
ENDBRANCH   3   5
ENDBRANCH   2   3
ENDBRANCH   1   2
BRANCH   1  22
ATOM     22  C   UNL A   1      31.988  30.066  25.559  1.00  0.00     0.275 C 
BRANCH  22  23
ATOM     23  O   UNL A   1      32.378  30.244  26.933  1.00  0.00    -0.458 OA
BRANCH  23  24
ATOM     24  C   UNL A   1      33.037  31.388  27.219  1.00  0.00     0.338 C 
ATOM     25  O   UNL A   1      32.616  32.530  27.143  1.00  0.00    -0.246 OA
BRANCH  24  26
ATOM     26  C   UNL A   1      34.405  31.085  27.674  1.00  0.00     0.060 A 
ATOM     27  C   UNL A   1      34.764  29.766  27.939  1.00  0.00     0.016 A 
ATOM     28  C   UNL A   1      35.281  32.120  27.998  1.00  0.00     0.016 A 
ATOM     29  C   UNL A   1      35.950  29.480  28.610  1.00  0.00     0.010 A 
ATOM     30  C   UNL A   1      36.512  31.826  28.601  1.00  0.00     0.010 A 
ATOM     31  C   UNL A   1      36.839  30.505  28.958  1.00  0.00    -0.014 A 
BRANCH  31  32
ATOM     32  C   UNL A   1      38.047  30.196  29.775  1.00  0.00     0.031 A 
ATOM     33  C   UNL A   1      39.171  29.387  29.178  1.00  0.00     0.074 A 
ATOM     34  C   UNL A   1      38.182  30.682  31.025  1.00  0.00     0.049 A 
ATOM     35  N   UNL A   1      40.227  28.876  29.761  1.00  0.00    -0.248 NA
ATOM     36  C   UNL A   1      39.092  29.112  27.735  1.00  0.00     0.031 C 
ATOM     37  C   UNL A   1      37.215  31.539  31.711  1.00  0.00     0.029 A 
ATOM     38  N   UNL A   1      39.204  30.542  31.933  1.00  0.00    -0.354 N 
ATOM     39  C   UNL A   1      40.896  28.162  28.775  1.00  0.00     0.074 A 
ATOM     40  C   UNL A   1      40.138  28.317  27.552  1.00  0.00     0.031 C 
ATOM     41  C   UNL A   1      37.711  31.889  32.908  1.00  0.00     0.029 A 
ATOM     42  C   UNL A   1      38.992  31.217  33.109  1.00  0.00     0.049 A 
ATOM     43  H   UNL A   1      40.012  30.008  31.757  1.00  0.00     0.167 HD
ATOM     44  C   UNL A   1      42.034  27.435  28.882  1.00  0.00     0.037 A 
ATOM     45  C   UNL A   1      39.727  31.266  34.237  1.00  0.00     0.037 A 
ATOM     46  C   UNL A   1      42.831  27.339  30.078  1.00  0.00     0.049 A 
ATOM     47  C   UNL A   1      40.991  30.458  34.331  1.00  0.00     0.074 A 
ATOM     48  C   UNL A   1      43.992  26.614  30.288  1.00  0.00     0.029 A 
ATOM     49  N   UNL A   1      42.563  28.016  31.257  1.00  0.00    -0.354 N 
ATOM     50  N   UNL A   1      41.556  29.697  33.427  1.00  0.00    -0.248 NA
ATOM     51  C   UNL A   1      41.704  30.494  35.616  1.00  0.00     0.031 C 
ATOM     52  C   UNL A   1      44.418  26.841  31.602  1.00  0.00     0.029 A 
ATOM     53  C   UNL A   1      43.539  27.730  32.198  1.00  0.00     0.049 A 
ATOM     54  H   UNL A   1      41.794  28.612  31.405  1.00  0.00     0.167 HD
ATOM     55  C   UNL A   1      42.684  29.161  34.031  1.00  0.00     0.074 A 
ATOM     56  C   UNL A   1      42.744  29.708  35.371  1.00  0.00     0.031 C 
ATOM     57  C   UNL A   1      43.583  28.282  33.526  1.00  0.00     0.037 A 
BRANCH  44  58
ATOM     58  C   UNL A   1      42.469  26.649  27.682  1.00  0.00     0.064 A 
ATOM     59  C   UNL A   1      43.443  27.125  26.794  1.00  0.00     0.173 A 
ATOM     60  C   UNL A   1      41.919  25.380  27.441  1.00  0.00     0.173 A 
ATOM     61  F   UNL A   1      43.983  28.340  26.974  1.00  0.00    -0.203 F 
ATOM     62  C   UNL A   1      43.838  26.366  25.696  1.00  0.00     0.198 A 
ATOM     63  C   UNL A   1      42.334  24.615  26.355  1.00  0.00     0.198 A 
ATOM     64  F   UNL A   1      40.986  24.880  28.264  1.00  0.00    -0.203 F 
ATOM     65  F   UNL A   1      44.744  26.855  24.837  1.00  0.00    -0.200 F 
ATOM     66  C   UNL A   1      43.289  25.111  25.480  1.00  0.00     0.200 A 
ATOM     67  F   UNL A   1      41.808  23.399  26.153  1.00  0.00    -0.200 F 
ATOM     68  F   UNL A   1      43.676  24.379  24.425  1.00  0.00    -0.200 F 
ENDBRANCH  44  58
BRANCH  45  69
ATOM     69  C   UNL A   1      39.264  32.086  35.386  1.00  0.00     0.064 A 
ATOM     70  C   UNL A   1      38.471  31.525  36.396  1.00  0.00     0.173 A 
ATOM     71  C   UNL A   1      39.605  33.443  35.497  1.00  0.00     0.173 A 
ATOM     72  F   UNL A   1      38.095  30.240  36.316  1.00  0.00    -0.203 F 
ATOM     73  C   UNL A   1      38.033  32.293  37.473  1.00  0.00     0.198 A 
ATOM     74  C   UNL A   1      39.188  34.201  36.588  1.00  0.00     0.198 A 
ATOM     75  F   UNL A   1      40.357  34.026  34.552  1.00  0.00    -0.203 F 
ATOM     76  F   UNL A   1      37.245  31.744  38.407  1.00  0.00    -0.200 F 
ATOM     77  C   UNL A   1      38.398  33.627  37.572  1.00  0.00     0.200 A 
ATOM     78  F   UNL A   1      39.552  35.487  36.685  1.00  0.00    -0.200 F 
ATOM     79  F   UNL A   1      37.983  34.362  38.613  1.00  0.00    -0.200 F 
ENDBRANCH  45  69
BRANCH  57  80
ATOM     80  C   UNL A   1      44.708  27.866  34.423  1.00  0.00     0.064 A 
ATOM     81  C   UNL A   1      44.603  26.734  35.244  1.00  0.00     0.173 A 
ATOM     82  C   UNL A   1      45.908  28.590  34.443  1.00  0.00     0.173 A 
ATOM     83  F   UNL A   1      43.468  26.022  35.269  1.00  0.00    -0.203 F 
ATOM     84  C   UNL A   1      45.657  26.353  36.071  1.00  0.00     0.198 A 
ATOM     85  C   UNL A   1      46.967  28.195  35.257  1.00  0.00     0.198 A 
ATOM     86  F   UNL A   1      46.055  29.678  33.673  1.00  0.00    -0.203 F 
ATOM     87  F   UNL A   1      45.522  25.291  36.877  1.00  0.00    -0.200 F 
ATOM     88  C   UNL A   1      46.838  27.080  36.074  1.00  0.00     0.200 A 
ATOM     89  F   UNL A   1      48.109  28.894  35.255  1.00  0.00    -0.200 F 
ATOM     90  F   UNL A   1      47.850  26.713  36.871  1.00  0.00    -0.200 F 
ENDBRANCH  57  80
ENDBRANCH  31  32
ENDBRANCH  24  26
ENDBRANCH  23  24
ENDBRANCH  22  23
ENDBRANCH   1  22
TORSDOF 14
ENDMDL
MODEL 2
REMARK VINA RESULT:     -12.1      1.039      2.690
REMARK SMILES C[C@H](O)[C@H](C)[N@H+]1Cc2ccccc2C[C@@H]1C(=O)OCCOC(=O)c1ccc(-c2c3nc(c(-c4c(F)c(F)c(F)c(F)c4F)c4ccc([nH]4)c(-c4c(F)c(F)c(F)c(F)c4F)c4nc(c(-c5c(F)c(F)c(F)c(F)c5F)c5ccc2[nH]5)C=C4)C=C3)cc1
REMARK SMILES IDX 19 1 18 2 16 3 17 4 15 5 6 6 7 7 8 9 14 10 9 11 13 12 10 13
REMARK SMILES IDX 12 14 11 15 4 16 5 17 2 18 1 19 3 20 20 22 21 23 22 24 23 25
REMARK SMILES IDX 24 26 25 27 86 28 26 29 85 30 27 31 28 32 29 33 79 34 30 35
REMARK SMILES IDX 84 36 78 37 80 38 31 39 83 40 77 41 76 42 32 44 64 45 44 46
REMARK SMILES IDX 63 47 45 48 48 49 62 50 81 51 46 52 47 53 61 55 82 56 49 57
REMARK SMILES IDX 33 58 34 59 42 60 35 61 36 62 40 63 43 64 37 65 38 66 41 67
REMARK SMILES IDX 39 68 65 69 66 70 74 71 67 72 68 73 72 74 75 75 69 76 70 77
REMARK SMILES IDX 73 78 71 79 50 80 51 81 59 82 52 83 53 84 57 85 60 86 54 87
REMARK SMILES IDX 55 88 58 89 56 90
REMARK H PARENT 6 8 3 21 80 43 48 54
REMARK Flexibility Score: inf
ROOT
ATOM      1  C   UNL A   1      31.417  29.045  25.688  1.00  0.00     0.274 C 
ENDROOT
BRANCH   1   2
ATOM      2  O   UNL A   1      32.051  27.750  25.688  1.00  0.00    -0.458 OA
BRANCH   2   3
ATOM      3  C   UNL A   1      31.183  26.694  25.741  1.00  0.00     0.365 C 
ATOM      4  O   UNL A   1      30.438  26.488  26.694  1.00  0.00    -0.245 OA
BRANCH   3   5
ATOM      5  C   UNL A   1      31.291  25.796  24.480  1.00  0.00     0.300 C 
ATOM      6  N   UNL A   1      32.299  26.397  23.547  1.00  0.00    -0.315 N 
ATOM      7  C   UNL A   1      31.667  27.137  22.424  1.00  0.00     0.300 C 
ATOM      8  H   UNL A   1      32.786  27.078  24.131  1.00  0.00     0.349 HD
ATOM      9  C   UNL A   1      30.306  27.727  22.705  1.00  0.00     0.010 A 
ATOM     10  C   UNL A   1      29.866  25.617  23.908  1.00  0.00     0.113 C 
ATOM     11  C   UNL A   1      29.945  29.012  22.289  1.00  0.00     0.010 A 
ATOM     12  C   UNL A   1      29.368  26.931  23.376  1.00  0.00    -0.033 A 
ATOM     13  C   UNL A   1      28.662  29.495  22.554  1.00  0.00     0.001 A 
ATOM     14  C   UNL A   1      28.077  27.402  23.615  1.00  0.00     0.004 A 
ATOM     15  C   UNL A   1      27.729  28.690  23.208  1.00  0.00     0.000 A 
BRANCH   6  16
ATOM     16  C   UNL A   1      33.395  25.480  23.086  1.00  0.00     0.210 C 
ATOM     17  C   UNL A   1      34.295  25.069  24.280  1.00  0.00     0.078 C 
BRANCH  16  18
ATOM     18  C   UNL A   1      32.913  24.156  22.373  1.00  0.00     0.169 C 
ATOM     19  C   UNL A   1      33.698  22.909  22.793  1.00  0.00     0.045 C 
BRANCH  18  20
ATOM     20  O   UNL A   1      33.078  24.233  20.955  1.00  0.00    -0.387 OA
ATOM     21  H   UNL A   1      34.023  24.201  20.739  1.00  0.00     0.211 HD
ENDBRANCH  18  20
ENDBRANCH  16  18
ENDBRANCH   6  16
ENDBRANCH   3   5
ENDBRANCH   2   3
ENDBRANCH   1   2
BRANCH   1  22
ATOM     22  C   UNL A   1      31.946  29.941  26.809  1.00  0.00     0.275 C 
BRANCH  22  23
ATOM     23  O   UNL A   1      32.883  30.905  26.293  1.00  0.00    -0.458 OA
BRANCH  23  24
ATOM     24  C   UNL A   1      33.354  31.808  27.180  1.00  0.00     0.338 C 
ATOM     25  O   UNL A   1      32.805  32.824  27.573  1.00  0.00    -0.246 OA
BRANCH  24  26
ATOM     26  C   UNL A   1      34.686  31.399  27.661  1.00  0.00     0.060 A 
ATOM     27  C   UNL A   1      34.920  30.065  27.981  1.00  0.00     0.016 A 
ATOM     28  C   UNL A   1      35.651  32.362  27.953  1.00  0.00     0.016 A 
ATOM     29  C   UNL A   1      36.070  29.698  28.675  1.00  0.00     0.010 A 
ATOM     30  C   UNL A   1      36.845  31.980  28.580  1.00  0.00     0.010 A 
ATOM     31  C   UNL A   1      37.047  30.650  28.992  1.00  0.00    -0.014 A 
BRANCH  31  32
ATOM     32  C   UNL A   1      38.216  30.265  29.833  1.00  0.00     0.031 A 
ATOM     33  C   UNL A   1      39.309  29.405  29.251  1.00  0.00     0.074 A 
ATOM     34  C   UNL A   1      38.345  30.725  31.093  1.00  0.00     0.049 A 
ATOM     35  N   UNL A   1      40.321  28.829  29.852  1.00  0.00    -0.248 NA
ATOM     36  C   UNL A   1      39.252  29.154  27.803  1.00  0.00     0.031 C 
ATOM     37  C   UNL A   1      37.409  31.624  31.769  1.00  0.00     0.029 A 
ATOM     38  N   UNL A   1      39.335  30.516  32.024  1.00  0.00    -0.354 N 
ATOM     39  C   UNL A   1      40.975  28.094  28.871  1.00  0.00     0.074 A 
ATOM     40  C   UNL A   1      40.258  28.307  27.633  1.00  0.00     0.031 C 
ATOM     41  C   UNL A   1      37.893  31.929  32.983  1.00  0.00     0.029 A 
ATOM     42  C   UNL A   1      39.130  31.186  33.205  1.00  0.00     0.049 A 
ATOM     43  H   UNL A   1      40.117  29.942  31.859  1.00  0.00     0.167 HD
ATOM     44  C   UNL A   1      42.069  27.304  28.995  1.00  0.00     0.037 A 
ATOM     45  C   UNL A   1      39.838  31.179  34.351  1.00  0.00     0.037 A 
ATOM     46  C   UNL A   1      42.829  27.148  30.208  1.00  0.00     0.049 A 
ATOM     47  C   UNL A   1      41.054  30.302  34.463  1.00  0.00     0.074 A 
ATOM     48  C   UNL A   1      43.944  26.359  30.435  1.00  0.00     0.029 A 
ATOM     49  N   UNL A   1      42.569  27.822  31.391  1.00  0.00    -0.354 N 
ATOM     50  N   UNL A   1      41.600  29.525  33.561  1.00  0.00    -0.248 NA
ATOM     51  C   UNL A   1      41.736  30.281  35.765  1.00  0.00     0.031 C 
ATOM     52  C   UNL A   1      44.349  26.543  31.762  1.00  0.00     0.029 A 
ATOM     53  C   UNL A   1      43.504  27.470  32.350  1.00  0.00     0.049 A 
ATOM     54  H   UNL A   1      41.829  28.457  31.529  1.00  0.00     0.167 HD
ATOM     55  C   UNL A   1      42.682  28.920  34.184  1.00  0.00     0.074 A 
ATOM     56  C   UNL A   1      42.737  29.444  35.533  1.00  0.00     0.031 C 
ATOM     57  C   UNL A   1      43.544  28.001  33.687  1.00  0.00     0.037 A 
BRANCH  44  58
ATOM     58  C   UNL A   1      42.491  26.513  27.794  1.00  0.00     0.064 A 
ATOM     59  C   UNL A   1      43.432  26.999  26.876  1.00  0.00     0.173 A 
ATOM     60  C   UNL A   1      41.963  25.230  27.581  1.00  0.00     0.173 A 
ATOM     61  F   UNL A   1      43.950  28.227  27.027  1.00  0.00    -0.203 F 
ATOM     62  C   UNL A   1      43.816  26.235  25.777  1.00  0.00     0.198 A 
ATOM     63  C   UNL A   1      42.367  24.461  26.494  1.00  0.00     0.198 A 
ATOM     64  F   UNL A   1      41.061  24.720  28.433  1.00  0.00    -0.203 F 
ATOM     65  F   UNL A   1      44.690  26.732  24.890  1.00  0.00    -0.200 F 
ATOM     66  C   UNL A   1      43.289  24.965  25.590  1.00  0.00     0.200 A 
ATOM     67  F   UNL A   1      41.863  23.231  26.320  1.00  0.00    -0.200 F 
ATOM     68  F   UNL A   1      43.666  24.229  24.534  1.00  0.00    -0.200 F 
ENDBRANCH  44  58
BRANCH  45  69
ATOM     69  C   UNL A   1      39.392  32.006  35.500  1.00  0.00     0.064 A 
ATOM     70  C   UNL A   1      39.825  33.331  35.642  1.00  0.00     0.173 A 
ATOM     71  C   UNL A   1      38.525  31.492  36.476  1.00  0.00     0.173 A 
ATOM     72  F   UNL A   1      40.678  33.857  34.750  1.00  0.00    -0.203 F 
ATOM     73  C   UNL A   1      39.411  34.110  36.722  1.00  0.00     0.198 A 
ATOM     74  C   UNL A   1      38.092  32.280  37.540  1.00  0.00     0.198 A 
ATOM     75  F   UNL A   1      38.089  30.227  36.387  1.00  0.00    -0.203 F 
ATOM     76  F   UNL A   1      39.868  35.362  36.855  1.00  0.00    -0.200 F 
ATOM     77  C   UNL A   1      38.539  33.586  37.664  1.00  0.00     0.200 A 
ATOM     78  F   UNL A   1      37.241  31.774  38.442  1.00  0.00    -0.200 F 
ATOM     79  F   UNL A   1      38.134  34.339  38.696  1.00  0.00    -0.200 F 
ENDBRANCH  45  69
BRANCH  57  80
ATOM     80  C   UNL A   1      44.623  27.511  34.605  1.00  0.00     0.064 A 
ATOM     81  C   UNL A   1      44.445  26.362  35.389  1.00  0.00     0.173 A 
ATOM     82  C   UNL A   1      45.851  28.182  34.682  1.00  0.00     0.173 A 
ATOM     83  F   UNL A   1      43.281  25.699  35.359  1.00  0.00    -0.203 F 
ATOM     84  C   UNL A   1      45.456  25.913  36.235  1.00  0.00     0.198 A 
ATOM     85  C   UNL A   1      46.866  27.719  35.515  1.00  0.00     0.198 A 
ATOM     86  F   UNL A   1      46.068  29.285  33.949  1.00  0.00    -0.203 F 
ATOM     87  F   UNL A   1      45.252  24.835  37.005  1.00  0.00    -0.200 F 
ATOM     88  C   UNL A   1      46.666  26.589  36.295  1.00  0.00     0.200 A 
ATOM     89  F   UNL A   1      48.037  28.369  35.568  1.00  0.00    -0.200 F 
ATOM     90  F   UNL A   1      47.636  26.156  37.111  1.00  0.00    -0.200 F 
ENDBRANCH  57  80
ENDBRANCH  31  32
ENDBRANCH  24  26
ENDBRANCH  23  24
ENDBRANCH  22  23
ENDBRANCH   1  22
TORSDOF 14
ENDMDL
MODEL 3
REMARK VINA RESULT:     -12.0      4.885     10.136
REMARK SMILES C[C@H](O)[C@H](C)[N@H+]1Cc2ccccc2C[C@@H]1C(=O)OCCOC(=O)c1ccc(-c2c3nc(c(-c4c(F)c(F)c(F)c(F)c4F)c4ccc([nH]4)c(-c4c(F)c(F)c(F)c(F)c4F)c4nc(c(-c5c(F)c(F)c(F)c(F)c5F)c5ccc2[nH]5)C=C4)C=C3)cc1
REMARK SMILES IDX 19 1 18 2 16 3 17 4 15 5 6 6 7 7 8 9 14 10 9 11 13 12 10 13
REMARK SMILES IDX 12 14 11 15 4 16 5 17 2 18 1 19 3 20 20 22 21 23 22 24 23 25
REMARK SMILES IDX 24 26 25 27 86 28 26 29 85 30 27 31 28 32 29 33 79 34 30 35
REMARK SMILES IDX 84 36 78 37 80 38 31 39 83 40 77 41 76 42 32 44 64 45 44 46
REMARK SMILES IDX 63 47 45 48 48 49 62 50 81 51 46 52 47 53 61 55 82 56 49 57
REMARK SMILES IDX 33 58 34 59 42 60 35 61 36 62 40 63 43 64 37 65 38 66 41 67
REMARK SMILES IDX 39 68 65 69 66 70 74 71 67 72 68 73 72 74 75 75 69 76 70 77
REMARK SMILES IDX 73 78 71 79 50 80 51 81 59 82 52 83 53 84 57 85 60 86 54 87
REMARK SMILES IDX 55 88 58 89 56 90
REMARK H PARENT 6 8 3 21 80 43 48 54
REMARK Flexibility Score: inf
ROOT
ATOM      1  C   UNL A   1      35.891  21.836  24.327  1.00  0.00     0.274 C 
ENDROOT
BRANCH   1   2
ATOM      2  O   UNL A   1      35.151  20.834  25.053  1.00  0.00    -0.458 OA
BRANCH   2   3
ATOM      3  C   UNL A   1      34.130  21.326  25.818  1.00  0.00     0.365 C 
ATOM      4  O   UNL A   1      34.301  22.142  26.718  1.00  0.00    -0.245 OA
BRANCH   3   5
ATOM      5  C   UNL A   1      32.764  20.702  25.425  1.00  0.00     0.300 C 
ATOM      6  N   UNL A   1      32.939  19.924  24.155  1.00  0.00    -0.315 N 
ATOM      7  C   UNL A   1      32.446  20.659  22.963  1.00  0.00     0.300 C 
ATOM      8  H   UNL A   1      33.952  19.837  24.068  1.00  0.00     0.349 HD
ATOM      9  C   UNL A   1      32.488  22.166  23.051  1.00  0.00     0.010 A 
ATOM     10  C   UNL A   1      31.724  21.844  25.377  1.00  0.00     0.113 C 
ATOM     11  C   UNL A   1      32.916  22.969  21.990  1.00  0.00     0.010 A 
ATOM     12  C   UNL A   1      32.042  22.769  24.236  1.00  0.00    -0.033 A 
ATOM     13  C   UNL A   1      32.907  24.359  22.121  1.00  0.00     0.001 A 
ATOM     14  C   UNL A   1      32.005  24.158  24.356  1.00  0.00     0.004 A 
ATOM     15  C   UNL A   1      32.446  24.951  23.297  1.00  0.00     0.000 A 
BRANCH   6  16
ATOM     16  C   UNL A   1      32.464  18.499  24.189  1.00  0.00     0.210 C 
ATOM     17  C   UNL A   1      32.376  17.924  22.751  1.00  0.00     0.078 C 
BRANCH  16  18
ATOM     18  C   UNL A   1      33.349  17.512  25.045  1.00  0.00     0.169 C 
ATOM     19  C   UNL A   1      33.309  16.061  24.551  1.00  0.00     0.045 C 
BRANCH  18  20
ATOM     20  O   UNL A   1      32.903  17.449  26.402  1.00  0.00    -0.387 OA
ATOM     21  H   UNL A   1      32.105  16.900  26.454  1.00  0.00     0.211 HD
ENDBRANCH  18  20
ENDBRANCH  16  18
ENDBRANCH   6  16
ENDBRANCH   3   5
ENDBRANCH   2   3
ENDBRANCH   1   2
BRANCH   1  22
ATOM     22  C   UNL A   1      37.402  21.658  24.481  1.00  0.00     0.275 C 
BRANCH  22  23
ATOM     23  O   UNL A   1      37.756  21.475  25.864  1.00  0.00    -0.458 OA
BRANCH  23  24
ATOM     24  C   UNL A   1      39.075  21.358  26.129  1.00  0.00     0.338 C 
ATOM     25  O   UNL A   1      39.792  20.391  25.933  1.00  0.00    -0.246 OA
BRANCH  24  26
ATOM     26  C   UNL A   1      39.589  22.612  26.707  1.00  0.00     0.060 A 
ATOM     27  C   UNL A   1      39.109  23.831  26.239  1.00  0.00     0.016 A 
ATOM     28  C   UNL A   1      40.666  22.585  27.593  1.00  0.00     0.016 A 
ATOM     29  C   UNL A   1      39.754  25.019  26.575  1.00  0.00     0.010 A 
ATOM     30  C   UNL A   1      41.265  23.786  27.995  1.00  0.00     0.010 A 
ATOM     31  C   UNL A   1      40.846  25.015  27.452  1.00  0.00    -0.014 A 
BRANCH  31  32
ATOM     32  C   UNL A   1      41.595  26.277  27.711  1.00  0.00     0.031 A 
ATOM     33  C   UNL A   1      40.978  27.355  28.566  1.00  0.00     0.074 A 
ATOM     34  C   UNL A   1      42.848  26.448  27.246  1.00  0.00     0.049 A 
ATOM     35  N   UNL A   1      41.388  28.581  28.782  1.00  0.00    -0.248 NA
ATOM     36  C   UNL A   1      39.731  27.010  29.266  1.00  0.00     0.031 C 
ATOM     37  C   UNL A   1      43.606  25.467  26.468  1.00  0.00     0.029 A 
ATOM     38  N   UNL A   1      43.716  27.505  27.381  1.00  0.00    -0.354 N 
ATOM     39  C   UNL A   1      40.415  29.171  29.579  1.00  0.00     0.074 A 
ATOM     40  C   UNL A   1      39.403  28.167  29.824  1.00  0.00     0.031 C 
ATOM     41  C   UNL A   1      44.839  25.946  26.239  1.00  0.00     0.029 A 
ATOM     42  C   UNL A   1      44.934  27.298  26.782  1.00  0.00     0.049 A 
ATOM     43  H   UNL A   1      43.487  28.332  27.863  1.00  0.00     0.167 HD
ATOM     44  C   UNL A   1      40.368  30.438  30.055  1.00  0.00     0.037 A 
ATOM     45  C   UNL A   1      45.998  28.115  26.653  1.00  0.00     0.037 A 
ATOM     46  C   UNL A   1      41.408  31.417  29.875  1.00  0.00     0.049 A 
ATOM     47  C   UNL A   1      45.925  29.514  27.197  1.00  0.00     0.074 A 
ATOM     48  C   UNL A   1      41.443  32.732  30.308  1.00  0.00     0.029 A 
ATOM     49  N   UNL A   1      42.614  31.174  29.235  1.00  0.00    -0.354 N 
ATOM     50  N   UNL A   1      44.954  30.097  27.854  1.00  0.00    -0.248 NA
ATOM     51  C   UNL A   1      47.090  30.378  26.954  1.00  0.00     0.031 C 
ATOM     52  C   UNL A   1      42.665  33.291  29.915  1.00  0.00     0.029 A 
ATOM     53  C   UNL A   1      43.401  32.313  29.265  1.00  0.00     0.049 A 
ATOM     54  H   UNL A   1      42.871  30.319  28.822  1.00  0.00     0.167 HD
ATOM     55  C   UNL A   1      45.385  31.393  28.098  1.00  0.00     0.074 A 
ATOM     56  C   UNL A   1      46.720  31.504  27.548  1.00  0.00     0.031 C 
ATOM     57  C   UNL A   1      44.726  32.406  28.712  1.00  0.00     0.037 A 
BRANCH  44  58
ATOM     58  C   UNL A   1      39.127  30.856  30.786  1.00  0.00     0.064 A 
ATOM     59  C   UNL A   1      38.018  31.395  30.120  1.00  0.00     0.173 A 
ATOM     60  C   UNL A   1      39.041  30.680  32.176  1.00  0.00     0.173 A 
ATOM     61  F   UNL A   1      38.060  31.599  28.795  1.00  0.00    -0.203 F 
ATOM     62  C   UNL A   1      36.872  31.760  30.823  1.00  0.00     0.198 A 
ATOM     63  C   UNL A   1      37.886  31.024  32.871  1.00  0.00     0.198 A 
ATOM     64  F   UNL A   1      40.076  30.165  32.857  1.00  0.00    -0.203 F 
ATOM     65  F   UNL A   1      35.836  32.308  30.173  1.00  0.00    -0.200 F 
ATOM     66  C   UNL A   1      36.805  31.569  32.195  1.00  0.00     0.200 A 
ATOM     67  F   UNL A   1      37.820  30.831  34.196  1.00  0.00    -0.200 F 
ATOM     68  F   UNL A   1      35.699  31.916  32.869  1.00  0.00    -0.200 F 
ENDBRANCH  44  58
BRANCH  45  69
ATOM     69  C   UNL A   1      47.213  27.638  25.945  1.00  0.00     0.064 A 
ATOM     70  C   UNL A   1      47.311  27.720  24.550  1.00  0.00     0.173 A 
ATOM     71  C   UNL A   1      48.299  27.093  26.648  1.00  0.00     0.173 A 
ATOM     72  F   UNL A   1      46.286  28.205  23.834  1.00  0.00    -0.203 F 
ATOM     73  C   UNL A   1      48.450  27.270  23.883  1.00  0.00     0.198 A 
ATOM     74  C   UNL A   1      49.446  26.669  25.982  1.00  0.00     0.198 A 
ATOM     75  F   UNL A   1      48.250  26.988  27.984  1.00  0.00    -0.203 F 
ATOM     76  F   UNL A   1      48.505  27.326  22.546  1.00  0.00    -0.200 F 
ATOM     77  C   UNL A   1      49.518  26.753  24.600  1.00  0.00     0.200 A 
ATOM     78  F   UNL A   1      50.480  26.180  26.678  1.00  0.00    -0.200 F 
ATOM     79  F   UNL A   1      50.615  26.329  23.958  1.00  0.00    -0.200 F 
ENDBRANCH  45  69
BRANCH  57  80
ATOM     80  C   UNL A   1      45.444  33.716  28.825  1.00  0.00     0.064 A 
ATOM     81  C   UNL A   1      46.246  34.014  29.936  1.00  0.00     0.173 A 
ATOM     82  C   UNL A   1      45.351  34.671  27.802  1.00  0.00     0.173 A 
ATOM     83  F   UNL A   1      46.352  33.137  30.945  1.00  0.00    -0.203 F 
ATOM     84  C   UNL A   1      46.913  35.232  30.029  1.00  0.00     0.198 A 
ATOM     85  C   UNL A   1      46.034  35.881  27.890  1.00  0.00     0.198 A 
ATOM     86  F   UNL A   1      44.597  34.430  26.719  1.00  0.00    -0.203 F 
ATOM     87  F   UNL A   1      47.643  35.513  31.118  1.00  0.00    -0.200 F 
ATOM     88  C   UNL A   1      46.810  36.162  29.005  1.00  0.00     0.200 A 
ATOM     89  F   UNL A   1      45.939  36.776  26.898  1.00  0.00    -0.200 F 
ATOM     90  F   UNL A   1      47.452  37.335  29.097  1.00  0.00    -0.200 F 
ENDBRANCH  57  80
ENDBRANCH  31  32
ENDBRANCH  24  26
ENDBRANCH  23  24
ENDBRANCH  22  23
ENDBRANCH   1  22
TORSDOF 14
ENDMDL
