MODEL 1
REMARK VINA RESULT:     -10.7      0.000      0.000
REMARK SMILES [NH3+]C1CC[NH+](CC(=O)N2CCO[C@H](CC(=O)OCCOC(=O)c3ccc(-c4c5nc(c(-c6c(F)c(F)c(F)c(F)c6F)c6ccc([nH]6)c(-c6c(F)c(F)c(F)c(F)c6F)c6nc(c(-c7c(F)c(F)c(F)c(F)c7F)c7ccc4[nH]7)C=C6)C=C5)cc3)C2)CC1
REMARK SMILES IDX 17 1 15 2 16 3 14 4 13 5 9 6 10 7 86 8 11 9 12 10 7 11 8 12
REMARK SMILES IDX 6 13 5 14 2 15 3 16 88 17 4 18 87 19 1 21 18 25 19 26 20 27
REMARK SMILES IDX 21 28 22 29 23 30 24 31 85 32 25 33 84 34 26 35 27 36 28 37
REMARK SMILES IDX 78 38 29 39 83 40 77 41 79 42 30 43 82 44 76 45 75 46 31 48
REMARK SMILES IDX 63 49 43 50 62 51 44 52 47 53 61 54 80 55 45 56 46 57 60 59
REMARK SMILES IDX 81 60 48 61 32 62 33 63 41 64 34 65 35 66 39 67 42 68 36 69
REMARK SMILES IDX 37 70 40 71 38 72 64 73 65 74 73 75 66 76 67 77 71 78 74 79
REMARK SMILES IDX 68 80 69 81 72 82 70 83 49 84 50 85 58 86 51 87 52 88 56 89
REMARK SMILES IDX 59 90 53 91 54 92 57 93 55 94
REMARK H PARENT 5 20 1 22 1 23 1 24 79 47 47 58
REMARK Flexibility Score: inf
ROOT
ATOM      1  O   UNL A   1      34.700  35.035  28.488  1.00  0.00    -0.462 OA
ENDROOT
BRANCH   1   2
ATOM      2  C   UNL A   1      35.389  34.043  29.105  1.00  0.00     0.308 C 
ATOM      3  O   UNL A   1      36.556  34.122  29.469  1.00  0.00    -0.252 OA
BRANCH   2   4
ATOM      4  C   UNL A   1      34.607  32.761  29.173  1.00  0.00     0.156 C 
BRANCH   4   5
ATOM      5  C   UNL A   1      34.867  31.745  28.057  1.00  0.00     0.148 C 
ATOM      6  N   UNL A   1      33.610  30.002  26.678  1.00  0.00    -0.333 N 
ATOM      7  C   UNL A   1      34.436  28.983  27.321  1.00  0.00     0.148 C 
ATOM      8  C   UNL A   1      33.548  31.287  27.388  1.00  0.00     0.152 C 
ATOM      9  C   UNL A   1      35.764  29.564  27.792  1.00  0.00     0.182 C 
ATOM     10  O   UNL A   1      35.533  30.640  28.706  1.00  0.00    -0.374 OA
BRANCH   6  11
ATOM     11  C   UNL A   1      32.636  29.557  25.777  1.00  0.00     0.277 C 
ATOM     12  O   UNL A   1      31.647  30.251  25.518  1.00  0.00    -0.268 OA
BRANCH  11  13
ATOM     13  C   UNL A   1      32.743  28.136  25.211  1.00  0.00     0.363 C 
BRANCH  13  14
ATOM     14  N   UNL A   1      32.122  27.895  23.905  1.00  0.00    -0.327 N 
ATOM     15  C   UNL A   1      32.851  25.917  21.803  1.00  0.00     0.192 C 
ATOM     16  C   UNL A   1      33.614  27.238  21.964  1.00  0.00     0.126 C 
ATOM     17  C   UNL A   1      32.267  25.518  23.152  1.00  0.00     0.126 C 
ATOM     18  C   UNL A   1      32.825  28.327  22.702  1.00  0.00     0.268 C 
ATOM     19  C   UNL A   1      31.420  26.639  23.745  1.00  0.00     0.268 C 
ATOM     20  H   UNL A   1      31.391  28.601  23.981  1.00  0.00     0.348 HD
BRANCH  15  21
ATOM     21  N   UNL A   1      31.786  25.997  20.798  1.00  0.00    -0.355 N 
ATOM     22  H   UNL A   1      30.892  25.769  21.231  1.00  0.00     0.344 HD
ATOM     23  H   UNL A   1      31.979  25.333  20.046  1.00  0.00     0.344 HD
ATOM     24  H   UNL A   1      31.749  26.941  20.416  1.00  0.00     0.344 HD
ENDBRANCH  15  21
ENDBRANCH  13  14
ENDBRANCH  11  13
ENDBRANCH   6  11
ENDBRANCH   4   5
ENDBRANCH   2   4
ENDBRANCH   1   2
BRANCH   1  25
ATOM     25  C   UNL A   1      33.279  35.073  28.732  1.00  0.00     0.274 C 
BRANCH  25  26
ATOM     26  C   UNL A   1      32.909  36.025  29.873  1.00  0.00     0.275 C 
BRANCH  26  27
ATOM     27  O   UNL A   1      32.383  35.320  31.014  1.00  0.00    -0.458 OA
BRANCH  27  28
ATOM     28  C   UNL A   1      32.742  35.833  32.211  1.00  0.00     0.338 C 
ATOM     29  O   UNL A   1      32.176  36.717  32.831  1.00  0.00    -0.246 OA
BRANCH  28  30
ATOM     30  C   UNL A   1      33.917  35.121  32.735  1.00  0.00     0.060 A 
ATOM     31  C   UNL A   1      35.178  35.701  32.580  1.00  0.00     0.016 A 
ATOM     32  C   UNL A   1      33.791  33.825  33.237  1.00  0.00     0.016 A 
ATOM     33  C   UNL A   1      36.322  34.965  32.885  1.00  0.00     0.010 A 
ATOM     34  C   UNL A   1      34.941  33.104  33.581  1.00  0.00     0.010 A 
ATOM     35  C   UNL A   1      36.218  33.659  33.391  1.00  0.00    -0.014 A 
BRANCH  35  36
ATOM     36  C   UNL A   1      37.444  32.906  33.765  1.00  0.00     0.031 A 
ATOM     37  C   UNL A   1      38.172  33.171  35.054  1.00  0.00     0.074 A 
ATOM     38  C   UNL A   1      37.913  31.971  32.916  1.00  0.00     0.049 A 
ATOM     39  N   UNL A   1      39.311  32.673  35.474  1.00  0.00    -0.248 NA
ATOM     40  C   UNL A   1      37.551  34.118  35.990  1.00  0.00     0.031 C 
ATOM     41  C   UNL A   1      37.292  31.604  31.642  1.00  0.00     0.029 A 
ATOM     42  N   UNL A   1      39.020  31.162  32.993  1.00  0.00    -0.354 N 
ATOM     43  C   UNL A   1      39.550  33.259  36.710  1.00  0.00     0.074 A 
ATOM     44  C   UNL A   1      38.445  34.160  36.969  1.00  0.00     0.031 C 
ATOM     45  C   UNL A   1      38.016  30.634  31.065  1.00  0.00     0.029 A 
ATOM     46  C   UNL A   1      39.184  30.356  31.894  1.00  0.00     0.049 A 
ATOM     47  H   UNL A   1      39.635  31.161  33.762  1.00  0.00     0.167 HD
ATOM     48  C   UNL A   1      40.594  33.059  37.552  1.00  0.00     0.037 A 
ATOM     49  C   UNL A   1      40.181  29.514  31.565  1.00  0.00     0.037 A 
ATOM     50  C   UNL A   1      41.679  32.141  37.312  1.00  0.00     0.049 A 
ATOM     51  C   UNL A   1      41.352  29.356  32.490  1.00  0.00     0.074 A 
ATOM     52  C   UNL A   1      42.751  31.836  38.137  1.00  0.00     0.029 A 
ATOM     53  N   UNL A   1      41.834  31.382  36.163  1.00  0.00    -0.354 N 
ATOM     54  N   UNL A   1      41.566  29.916  33.653  1.00  0.00    -0.248 NA
ATOM     55  C   UNL A   1      42.427  28.458  32.044  1.00  0.00     0.031 C 
ATOM     56  C   UNL A   1      43.575  30.924  37.468  1.00  0.00     0.029 A 
ATOM     57  C   UNL A   1      42.998  30.631  36.244  1.00  0.00     0.049 A 
ATOM     58  H   UNL A   1      41.210  31.376  35.402  1.00  0.00     0.167 HD
ATOM     59  C   UNL A   1      42.796  29.441  34.082  1.00  0.00     0.074 A 
ATOM     60  C   UNL A   1      43.272  28.527  33.064  1.00  0.00     0.031 C 
ATOM     61  C   UNL A   1      43.473  29.741  35.217  1.00  0.00     0.037 A 
BRANCH  48  62
ATOM     62  C   UNL A   1      40.634  33.862  38.819  1.00  0.00     0.064 A 
ATOM     63  C   UNL A   1      41.332  35.075  38.901  1.00  0.00     0.173 A 
ATOM     64  C   UNL A   1      39.899  33.448  39.941  1.00  0.00     0.173 A 
ATOM     65  F   UNL A   1      42.049  35.514  37.856  1.00  0.00    -0.203 F 
ATOM     66  C   UNL A   1      41.303  35.838  40.066  1.00  0.00     0.198 A 
ATOM     67  C   UNL A   1      39.856  34.225  41.096  1.00  0.00     0.198 A 
ATOM     68  F   UNL A   1      39.203  32.301  39.908  1.00  0.00    -0.203 F 
ATOM     69  F   UNL A   1      41.993  36.985  40.131  1.00  0.00    -0.200 F 
ATOM     70  C   UNL A   1      40.560  35.416  41.159  1.00  0.00     0.200 A 
ATOM     71  F   UNL A   1      39.123  33.823  42.144  1.00  0.00    -0.200 F 
ATOM     72  F   UNL A   1      40.521  36.161  42.273  1.00  0.00    -0.200 F 
ENDBRANCH  48  62
BRANCH  49  73
ATOM     73  C   UNL A   1      40.119  28.783  30.277  1.00  0.00     0.064 A 
ATOM     74  C   UNL A   1      40.691  29.321  29.118  1.00  0.00     0.173 A 
ATOM     75  C   UNL A   1      39.510  27.522  30.187  1.00  0.00     0.173 A 
ATOM     76  F   UNL A   1      41.263  30.534  29.153  1.00  0.00    -0.203 F 
ATOM     77  C   UNL A   1      40.656  28.624  27.912  1.00  0.00     0.198 A 
ATOM     78  C   UNL A   1      39.498  26.816  28.988  1.00  0.00     0.198 A 
ATOM     79  F   UNL A   1      38.950  26.968  31.272  1.00  0.00    -0.203 F 
ATOM     80  F   UNL A   1      41.185  29.170  26.810  1.00  0.00    -0.200 F 
ATOM     81  C   UNL A   1      40.067  27.369  27.851  1.00  0.00     0.200 A 
ATOM     82  F   UNL A   1      38.941  25.599  28.935  1.00  0.00    -0.200 F 
ATOM     83  F   UNL A   1      40.045  26.694  26.694  1.00  0.00    -0.200 F 
ENDBRANCH  49  73
BRANCH  61  84
ATOM     84  C   UNL A   1      44.801  29.075  35.413  1.00  0.00     0.064 A 
ATOM     85  C   UNL A   1      45.989  29.682  34.980  1.00  0.00     0.173 A 
ATOM     86  C   UNL A   1      44.890  27.828  36.048  1.00  0.00     0.173 A 
ATOM     87  F   UNL A   1      45.951  30.864  34.348  1.00  0.00    -0.203 F 
ATOM     88  C   UNL A   1      47.219  29.053  35.158  1.00  0.00     0.198 A 
ATOM     89  C   UNL A   1      46.123  27.213  36.245  1.00  0.00     0.198 A 
ATOM     90  F   UNL A   1      43.782  27.209  36.479  1.00  0.00    -0.203 F 
ATOM     91  F   UNL A   1      48.337  29.630  34.697  1.00  0.00    -0.200 F 
ATOM     92  C   UNL A   1      47.285  27.822  35.795  1.00  0.00     0.200 A 
ATOM     93  F   UNL A   1      46.187  26.026  36.864  1.00  0.00    -0.200 F 
ATOM     94  F   UNL A   1      48.469  27.218  35.963  1.00  0.00    -0.200 F 
ENDBRANCH  61  84
ENDBRANCH  35  36
ENDBRANCH  28  30
ENDBRANCH  27  28
ENDBRANCH  26  27
ENDBRANCH  25  26
ENDBRANCH   1  25
TORSDOF 16
ENDMDL
MODEL 2
REMARK VINA RESULT:     -10.5      7.479     12.839
REMARK SMILES [NH3+]C1CC[NH+](CC(=O)N2CCO[C@H](CC(=O)OCCOC(=O)c3ccc(-c4c5nc(c(-c6c(F)c(F)c(F)c(F)c6F)c6ccc([nH]6)c(-c6c(F)c(F)c(F)c(F)c6F)c6nc(c(-c7c(F)c(F)c(F)c(F)c7F)c7ccc4[nH]7)C=C6)C=C5)cc3)C2)CC1
REMARK SMILES IDX 17 1 15 2 16 3 14 4 13 5 9 6 10 7 86 8 11 9 12 10 7 11 8 12
REMARK SMILES IDX 6 13 5 14 2 15 3 16 88 17 4 18 87 19 1 21 18 25 19 26 20 27
REMARK SMILES IDX 21 28 22 29 23 30 24 31 85 32 25 33 84 34 26 35 27 36 28 37
REMARK SMILES IDX 78 38 29 39 83 40 77 41 79 42 30 43 82 44 76 45 75 46 31 48
REMARK SMILES IDX 63 49 43 50 62 51 44 52 47 53 61 54 80 55 45 56 46 57 60 59
REMARK SMILES IDX 81 60 48 61 32 62 33 63 41 64 34 65 35 66 39 67 42 68 36 69
REMARK SMILES IDX 37 70 40 71 38 72 64 73 65 74 73 75 66 76 67 77 71 78 74 79
REMARK SMILES IDX 68 80 69 81 72 82 70 83 49 84 50 85 58 86 51 87 52 88 56 89
REMARK SMILES IDX 59 90 53 91 54 92 57 93 55 94
REMARK H PARENT 5 20 1 22 1 23 1 24 79 47 47 58
REMARK Flexibility Score: inf
ROOT
ATOM      1  O   UNL A   1      42.311  20.178  27.307  1.00  0.00    -0.462 OA
ENDROOT
BRANCH   1   2
ATOM      2  C   UNL A   1      42.013  21.497  27.414  1.00  0.00     0.308 C 
ATOM      3  O   UNL A   1      42.295  22.203  28.375  1.00  0.00    -0.252 OA
BRANCH   2   4
ATOM      4  C   UNL A   1      41.159  21.984  26.277  1.00  0.00     0.156 C 
BRANCH   4   5
ATOM      5  C   UNL A   1      39.691  22.272  26.604  1.00  0.00     0.148 C 
ATOM      6  N   UNL A   1      37.367  21.922  25.603  1.00  0.00    -0.333 N 
ATOM      7  C   UNL A   1      37.264  23.374  25.485  1.00  0.00     0.148 C 
ATOM      8  C   UNL A   1      38.737  21.409  25.742  1.00  0.00     0.152 C 
ATOM      9  C   UNL A   1      38.154  24.078  26.504  1.00  0.00     0.182 C 
ATOM     10  O   UNL A   1      39.515  23.679  26.324  1.00  0.00    -0.374 OA
BRANCH   6  11
ATOM     11  C   UNL A   1      36.292  21.166  25.124  1.00  0.00     0.277 C 
ATOM     12  O   UNL A   1      36.384  19.939  25.002  1.00  0.00    -0.268 OA
BRANCH  11  13
ATOM     13  C   UNL A   1      35.037  21.893  24.627  1.00  0.00     0.363 C 
BRANCH  13  14
ATOM     14  N   UNL A   1      33.757  21.476  25.205  1.00  0.00    -0.327 N 
ATOM     15  C   UNL A   1      31.501  23.142  26.200  1.00  0.00     0.192 C 
ATOM     16  C   UNL A   1      32.751  22.890  27.052  1.00  0.00     0.126 C 
ATOM     17  C   UNL A   1      31.881  23.054  24.728  1.00  0.00     0.126 C 
ATOM     18  C   UNL A   1      33.545  21.644  26.639  1.00  0.00     0.268 C 
ATOM     19  C   UNL A   1      32.573  21.733  24.411  1.00  0.00     0.268 C 
ATOM     20  H   UNL A   1      33.910  20.470  25.137  1.00  0.00     0.348 HD
BRANCH  15  21
ATOM     21  N   UNL A   1      30.414  22.203  26.496  1.00  0.00    -0.355 N 
ATOM     22  H   UNL A   1      29.679  22.304  25.797  1.00  0.00     0.344 HD
ATOM     23  H   UNL A   1      30.033  22.405  27.422  1.00  0.00     0.344 HD
ATOM     24  H   UNL A   1      30.774  21.250  26.477  1.00  0.00     0.344 HD
ENDBRANCH  15  21
ENDBRANCH  13  14
ENDBRANCH  11  13
ENDBRANCH   6  11
ENDBRANCH   4   5
ENDBRANCH   2   4
ENDBRANCH   1   2
BRANCH   1  25
ATOM     25  C   UNL A   1      42.107  19.581  26.009  1.00  0.00     0.274 C 
BRANCH  25  26
ATOM     26  C   UNL A   1      43.058  18.410  25.750  1.00  0.00     0.275 C 
BRANCH  26  27
ATOM     27  O   UNL A   1      44.412  18.853  25.530  1.00  0.00    -0.458 OA
BRANCH  27  28
ATOM     28  C   UNL A   1      44.598  19.560  24.394  1.00  0.00     0.338 C 
ATOM     29  O   UNL A   1      44.479  19.157  23.250  1.00  0.00    -0.246 OA
BRANCH  28  30
ATOM     30  C   UNL A   1      44.916  20.959  24.716  1.00  0.00     0.060 A 
ATOM     31  C   UNL A   1      45.471  21.252  25.963  1.00  0.00     0.016 A 
ATOM     32  C   UNL A   1      44.528  21.986  23.854  1.00  0.00     0.016 A 
ATOM     33  C   UNL A   1      45.596  22.579  26.371  1.00  0.00     0.010 A 
ATOM     34  C   UNL A   1      44.694  23.319  24.251  1.00  0.00     0.010 A 
ATOM     35  C   UNL A   1      45.212  23.629  25.520  1.00  0.00    -0.014 A 
BRANCH  35  36
ATOM     36  C   UNL A   1      45.404  25.040  25.946  1.00  0.00     0.031 A 
ATOM     37  C   UNL A   1      46.740  25.722  25.844  1.00  0.00     0.074 A 
ATOM     38  C   UNL A   1      44.349  25.715  26.443  1.00  0.00     0.049 A 
ATOM     39  N   UNL A   1      47.093  26.912  26.270  1.00  0.00    -0.248 NA
ATOM     40  C   UNL A   1      47.823  24.975  25.189  1.00  0.00     0.031 C 
ATOM     41  C   UNL A   1      42.994  25.177  26.579  1.00  0.00     0.029 A 
ATOM     42  N   UNL A   1      44.250  26.995  26.930  1.00  0.00    -0.354 N 
ATOM     43  C   UNL A   1      48.438  27.048  25.951  1.00  0.00     0.074 A 
ATOM     44  C   UNL A   1      48.843  25.815  25.308  1.00  0.00     0.031 C 
ATOM     45  C   UNL A   1      42.198  26.122  27.097  1.00  0.00     0.029 A 
ATOM     46  C   UNL A   1      42.996  27.308  27.390  1.00  0.00     0.049 A 
ATOM     47  H   UNL A   1      45.005  27.626  26.946  1.00  0.00     0.167 HD
ATOM     48  C   UNL A   1      49.255  28.106  26.172  1.00  0.00     0.037 A 
ATOM     49  C   UNL A   1      42.540  28.410  28.015  1.00  0.00     0.037 A 
ATOM     50  C   UNL A   1      48.848  29.346  26.785  1.00  0.00     0.049 A 
ATOM     51  C   UNL A   1      43.482  29.543  28.298  1.00  0.00     0.074 A 
ATOM     52  C   UNL A   1      49.598  30.492  26.998  1.00  0.00     0.029 A 
ATOM     53  N   UNL A   1      47.581  29.603  27.283  1.00  0.00    -0.354 N 
ATOM     54  N   UNL A   1      44.749  29.658  27.993  1.00  0.00    -0.248 NA
ATOM     55  C   UNL A   1      42.929  30.693  29.027  1.00  0.00     0.031 C 
ATOM     56  C   UNL A   1      48.796  31.426  27.664  1.00  0.00     0.029 A 
ATOM     57  C   UNL A   1      47.535  30.877  27.830  1.00  0.00     0.049 A 
ATOM     58  H   UNL A   1      46.824  28.974  27.254  1.00  0.00     0.167 HD
ATOM     59  C   UNL A   1      45.149  30.890  28.489  1.00  0.00     0.074 A 
ATOM     60  C   UNL A   1      43.981  31.497  29.096  1.00  0.00     0.031 C 
ATOM     61  C   UNL A   1      46.375  31.463  28.450  1.00  0.00     0.037 A 
BRANCH  48  62
ATOM     62  C   UNL A   1      50.694  27.976  25.766  1.00  0.00     0.064 A 
ATOM     63  C   UNL A   1      51.699  27.687  26.699  1.00  0.00     0.173 A 
ATOM     64  C   UNL A   1      51.057  28.065  24.413  1.00  0.00     0.173 A 
ATOM     65  F   UNL A   1      51.403  27.591  28.004  1.00  0.00    -0.203 F 
ATOM     66  C   UNL A   1      53.019  27.504  26.292  1.00  0.00     0.198 A 
ATOM     67  C   UNL A   1      52.374  27.861  24.009  1.00  0.00     0.198 A 
ATOM     68  F   UNL A   1      50.128  28.326  23.479  1.00  0.00    -0.203 F 
ATOM     69  F   UNL A   1      53.970  27.247  27.202  1.00  0.00    -0.200 F 
ATOM     70  C   UNL A   1      53.354  27.584  24.948  1.00  0.00     0.200 A 
ATOM     71  F   UNL A   1      52.690  27.923  22.708  1.00  0.00    -0.200 F 
ATOM     72  F   UNL A   1      54.622  27.392  24.558  1.00  0.00    -0.200 F 
ENDBRANCH  48  62
BRANCH  49  73
ATOM     73  C   UNL A   1      41.122  28.468  28.443  1.00  0.00     0.064 A 
ATOM     74  C   UNL A   1      40.744  28.075  29.732  1.00  0.00     0.173 A 
ATOM     75  C   UNL A   1      40.123  28.943  27.579  1.00  0.00     0.173 A 
ATOM     76  F   UNL A   1      41.663  27.594  30.583  1.00  0.00    -0.203 F 
ATOM     77  C   UNL A   1      39.416  28.154  30.144  1.00  0.00     0.198 A 
ATOM     78  C   UNL A   1      38.800  29.044  28.000  1.00  0.00     0.198 A 
ATOM     79  F   UNL A   1      40.439  29.331  26.336  1.00  0.00    -0.203 F 
ATOM     80  F   UNL A   1      39.073  27.746  31.373  1.00  0.00    -0.200 F 
ATOM     81  C   UNL A   1      38.448  28.646  29.281  1.00  0.00     0.200 A 
ATOM     82  F   UNL A   1      37.870  29.532  27.169  1.00  0.00    -0.200 F 
ATOM     83  F   UNL A   1      37.172  28.733  29.682  1.00  0.00    -0.200 F 
ENDBRANCH  49  73
BRANCH  61  84
ATOM     84  C   UNL A   1      46.515  32.815  29.083  1.00  0.00     0.064 A 
ATOM     85  C   UNL A   1      46.266  33.987  28.355  1.00  0.00     0.173 A 
ATOM     86  C   UNL A   1      46.890  32.940  30.428  1.00  0.00     0.173 A 
ATOM     87  F   UNL A   1      45.926  33.918  27.060  1.00  0.00    -0.203 F 
ATOM     88  C   UNL A   1      46.406  35.240  28.948  1.00  0.00     0.198 A 
ATOM     89  C   UNL A   1      47.007  34.193  31.024  1.00  0.00     0.198 A 
ATOM     90  F   UNL A   1      47.139  31.848  31.165  1.00  0.00    -0.203 F 
ATOM     91  F   UNL A   1      46.205  36.348  28.222  1.00  0.00    -0.200 F 
ATOM     92  C   UNL A   1      46.771  35.341  30.282  1.00  0.00     0.200 A 
ATOM     93  F   UNL A   1      47.355  34.290  32.314  1.00  0.00    -0.200 F 
ATOM     94  F   UNL A   1      46.907  36.547  30.850  1.00  0.00    -0.200 F 
ENDBRANCH  61  84
ENDBRANCH  35  36
ENDBRANCH  28  30
ENDBRANCH  27  28
ENDBRANCH  26  27
ENDBRANCH  25  26
ENDBRANCH   1  25
TORSDOF 16
ENDMDL
MODEL 3
REMARK VINA RESULT:     -10.5      0.635      7.450
REMARK SMILES [NH3+]C1CC[NH+](CC(=O)N2CCO[C@H](CC(=O)OCCOC(=O)c3ccc(-c4c5nc(c(-c6c(F)c(F)c(F)c(F)c6F)c6ccc([nH]6)c(-c6c(F)c(F)c(F)c(F)c6F)c6nc(c(-c7c(F)c(F)c(F)c(F)c7F)c7ccc4[nH]7)C=C6)C=C5)cc3)C2)CC1
REMARK SMILES IDX 17 1 15 2 16 3 14 4 13 5 9 6 10 7 86 8 11 9 12 10 7 11 8 12
REMARK SMILES IDX 6 13 5 14 2 15 3 16 88 17 4 18 87 19 1 21 18 25 19 26 20 27
REMARK SMILES IDX 21 28 22 29 23 30 24 31 85 32 25 33 84 34 26 35 27 36 28 37
REMARK SMILES IDX 78 38 29 39 83 40 77 41 79 42 30 43 82 44 76 45 75 46 31 48
REMARK SMILES IDX 63 49 43 50 62 51 44 52 47 53 61 54 80 55 45 56 46 57 60 59
REMARK SMILES IDX 81 60 48 61 32 62 33 63 41 64 34 65 35 66 39 67 42 68 36 69
REMARK SMILES IDX 37 70 40 71 38 72 64 73 65 74 73 75 66 76 67 77 71 78 74 79
REMARK SMILES IDX 68 80 69 81 72 82 70 83 49 84 50 85 58 86 51 87 52 88 56 89
REMARK SMILES IDX 59 90 53 91 54 92 57 93 55 94
REMARK H PARENT 5 20 1 22 1 23 1 24 79 47 47 58
REMARK Flexibility Score: inf
ROOT
ATOM      1  O   UNL A   1      34.707  34.936  28.361  1.00  0.00    -0.462 OA
ENDROOT
BRANCH   1   2
ATOM      2  C   UNL A   1      35.437  34.020  29.046  1.00  0.00     0.308 C 
ATOM      3  O   UNL A   1      36.588  34.188  29.429  1.00  0.00    -0.252 OA
BRANCH   2   4
ATOM      4  C   UNL A   1      34.729  32.700  29.167  1.00  0.00     0.156 C 
BRANCH   4   5
ATOM      5  C   UNL A   1      34.937  31.709  28.018  1.00  0.00     0.148 C 
ATOM      6  N   UNL A   1      33.589  30.090  26.574  1.00  0.00    -0.333 N 
ATOM      7  C   UNL A   1      34.349  29.004  27.186  1.00  0.00     0.148 C 
ATOM      8  C   UNL A   1      33.598  31.352  27.328  1.00  0.00     0.152 C 
ATOM      9  C   UNL A   1      35.707  29.489  27.682  1.00  0.00     0.182 C 
ATOM     10  O   UNL A   1      35.533  30.545  28.631  1.00  0.00    -0.374 OA
BRANCH   6  11
ATOM     11  C   UNL A   1      32.596  29.734  25.655  1.00  0.00     0.277 C 
ATOM     12  O   UNL A   1      31.406  29.980  25.879  1.00  0.00    -0.268 OA
BRANCH  11  13
ATOM     13  C   UNL A   1      32.988  28.914  24.420  1.00  0.00     0.363 C 
BRANCH  13  14
ATOM     14  N   UNL A   1      32.417  27.569  24.308  1.00  0.00    -0.327 N 
ATOM     15  C   UNL A   1      31.952  25.909  21.882  1.00  0.00     0.192 C 
ATOM     16  C   UNL A   1      30.987  27.031  22.286  1.00  0.00     0.126 C 
ATOM     17  C   UNL A   1      33.343  26.243  22.405  1.00  0.00     0.126 C 
ATOM     18  C   UNL A   1      31.070  27.420  23.767  1.00  0.00     0.268 C 
ATOM     19  C   UNL A   1      33.322  26.513  23.906  1.00  0.00     0.268 C 
ATOM     20  H   UNL A   1      32.257  27.418  25.303  1.00  0.00     0.348 HD
BRANCH  15  21
ATOM     21  N   UNL A   1      31.531  24.594  22.375  1.00  0.00    -0.355 N 
ATOM     22  H   UNL A   1      30.520  24.587  22.502  1.00  0.00     0.344 HD
ATOM     23  H   UNL A   1      31.988  24.404  23.268  1.00  0.00     0.344 HD
ATOM     24  H   UNL A   1      31.795  23.878  21.699  1.00  0.00     0.344 HD
ENDBRANCH  15  21
ENDBRANCH  13  14
ENDBRANCH  11  13
ENDBRANCH   6  11
ENDBRANCH   4   5
ENDBRANCH   2   4
ENDBRANCH   1   2
BRANCH   1  25
ATOM     25  C   UNL A   1      33.287  34.941  28.618  1.00  0.00     0.274 C 
BRANCH  25  26
ATOM     26  C   UNL A   1      32.907  35.875  29.770  1.00  0.00     0.275 C 
BRANCH  26  27
ATOM     27  O   UNL A   1      32.429  35.148  30.918  1.00  0.00    -0.458 OA
BRANCH  27  28
ATOM     28  C   UNL A   1      32.802  35.662  32.110  1.00  0.00     0.338 C 
ATOM     29  O   UNL A   1      32.217  36.514  32.757  1.00  0.00    -0.246 OA
BRANCH  28  30
ATOM     30  C   UNL A   1      34.022  34.997  32.590  1.00  0.00     0.060 A 
ATOM     31  C   UNL A   1      35.243  35.660  32.463  1.00  0.00     0.016 A 
ATOM     32  C   UNL A   1      33.978  33.670  33.021  1.00  0.00     0.016 A 
ATOM     33  C   UNL A   1      36.432  34.980  32.722  1.00  0.00     0.010 A 
ATOM     34  C   UNL A   1      35.172  33.002  33.321  1.00  0.00     0.010 A 
ATOM     35  C   UNL A   1      36.412  33.645  33.157  1.00  0.00    -0.014 A 
BRANCH  35  36
ATOM     36  C   UNL A   1      37.684  32.949  33.484  1.00  0.00     0.031 A 
ATOM     37  C   UNL A   1      38.283  31.922  32.563  1.00  0.00     0.074 A 
ATOM     38  C   UNL A   1      38.305  33.245  34.643  1.00  0.00     0.049 A 
ATOM     39  N   UNL A   1      39.328  31.153  32.755  1.00  0.00    -0.248 NA
ATOM     40  C   UNL A   1      37.624  31.725  31.265  1.00  0.00     0.031 C 
ATOM     41  C   UNL A   1      37.840  34.235  35.617  1.00  0.00     0.029 A 
ATOM     42  N   UNL A   1      39.455  32.743  35.200  1.00  0.00    -0.354 N 
ATOM     43  C   UNL A   1      39.441  30.371  31.612  1.00  0.00     0.074 A 
ATOM     44  C   UNL A   1      38.350  30.748  30.737  1.00  0.00     0.031 C 
ATOM     45  C   UNL A   1      38.703  34.278  36.642  1.00  0.00     0.029 A 
ATOM     46  C   UNL A   1      39.744  33.278  36.430  1.00  0.00     0.049 A 
ATOM     47  H   UNL A   1      40.017  32.066  34.759  1.00  0.00     0.167 HD
ATOM     48  C   UNL A   1      40.372  29.429  31.322  1.00  0.00     0.037 A 
ATOM     49  C   UNL A   1      40.714  32.975  37.312  1.00  0.00     0.037 A 
ATOM     50  C   UNL A   1      41.476  29.073  32.178  1.00  0.00     0.049 A 
ATOM     51  C   UNL A   1      41.696  31.889  36.989  1.00  0.00     0.074 A 
ATOM     52  C   UNL A   1      42.498  28.168  31.938  1.00  0.00     0.029 A 
ATOM     53  N   UNL A   1      41.703  29.603  33.438  1.00  0.00    -0.354 N 
ATOM     54  N   UNL A   1      41.791  31.157  35.908  1.00  0.00    -0.248 NA
ATOM     55  C   UNL A   1      42.698  31.577  38.018  1.00  0.00     0.031 C 
ATOM     56  C   UNL A   1      43.318  28.120  33.071  1.00  0.00     0.029 A 
ATOM     57  C   UNL A   1      42.831  29.023  34.000  1.00  0.00     0.049 A 
ATOM     58  H   UNL A   1      41.146  30.290  33.871  1.00  0.00     0.167 HD
ATOM     59  C   UNL A   1      42.859  30.299  36.122  1.00  0.00     0.074 A 
ATOM     60  C   UNL A   1      43.397  30.617  37.429  1.00  0.00     0.031 C 
ATOM     61  C   UNL A   1      43.345  29.331  35.309  1.00  0.00     0.037 A 
BRANCH  48  62
ATOM     62  C   UNL A   1      40.237  28.690  30.023  1.00  0.00     0.064 A 
ATOM     63  C   UNL A   1      40.848  29.148  28.848  1.00  0.00     0.173 A 
ATOM     64  C   UNL A   1      39.554  27.465  29.975  1.00  0.00     0.173 A 
ATOM     65  F   UNL A   1      41.514  30.313  28.842  1.00  0.00    -0.203 F 
ATOM     66  C   UNL A   1      40.768  28.413  27.667  1.00  0.00     0.198 A 
ATOM     67  C   UNL A   1      39.493  26.723  28.798  1.00  0.00     0.198 A 
ATOM     68  F   UNL A   1      38.964  26.976  31.077  1.00  0.00    -0.203 F 
ATOM     69  F   UNL A   1      41.342  28.878  26.549  1.00  0.00    -0.200 F 
ATOM     70  C   UNL A   1      40.097  27.198  27.645  1.00  0.00     0.200 A 
ATOM     71  F   UNL A   1      38.859  25.542  28.785  1.00  0.00    -0.200 F 
ATOM     72  F   UNL A   1      40.035  26.485  26.512  1.00  0.00    -0.200 F 
ENDBRANCH  48  62
BRANCH  49  73
ATOM     73  C   UNL A   1      40.772  33.699  38.605  1.00  0.00     0.064 A 
ATOM     74  C   UNL A   1      39.951  33.326  39.675  1.00  0.00     0.173 A 
ATOM     75  C   UNL A   1      41.669  34.760  38.802  1.00  0.00     0.173 A 
ATOM     76  F   UNL A   1      39.062  32.333  39.524  1.00  0.00    -0.203 F 
ATOM     77  C   UNL A   1      40.023  33.989  40.898  1.00  0.00     0.198 A 
ATOM     78  C   UNL A   1      41.758  35.405  40.032  1.00  0.00     0.198 A 
ATOM     79  F   UNL A   1      42.476  35.151  37.805  1.00  0.00    -0.203 F 
ATOM     80  F   UNL A   1      39.207  33.634  41.899  1.00  0.00    -0.200 F 
ATOM     81  C   UNL A   1      40.931  35.022  41.077  1.00  0.00     0.200 A 
ATOM     82  F   UNL A   1      42.646  36.393  40.206  1.00  0.00    -0.200 F 
ATOM     83  F   UNL A   1      41.009  35.651  42.258  1.00  0.00    -0.200 F 
ENDBRANCH  49  73
BRANCH  61  84
ATOM     84  C   UNL A   1      44.518  28.545  35.814  1.00  0.00     0.064 A 
ATOM     85  C   UNL A   1      44.339  27.351  36.527  1.00  0.00     0.173 A 
ATOM     86  C   UNL A   1      45.828  28.981  35.573  1.00  0.00     0.173 A 
ATOM     87  F   UNL A   1      43.104  26.906  36.800  1.00  0.00    -0.203 F 
ATOM     88  C   UNL A   1      45.433  26.631  37.000  1.00  0.00     0.198 A 
ATOM     89  C   UNL A   1      46.920  28.246  36.028  1.00  0.00     0.198 A 
ATOM     90  F   UNL A   1      46.050  30.117  34.896  1.00  0.00    -0.203 F 
ATOM     91  F   UNL A   1      45.239  25.516  37.718  1.00  0.00    -0.200 F 
ATOM     92  C   UNL A   1      46.722  27.076  36.746  1.00  0.00     0.200 A 
ATOM     93  F   UNL A   1      48.166  28.674  35.778  1.00  0.00    -0.200 F 
ATOM     94  F   UNL A   1      47.773  26.382  37.204  1.00  0.00    -0.200 F 
ENDBRANCH  61  84
ENDBRANCH  35  36
ENDBRANCH  28  30
ENDBRANCH  27  28
ENDBRANCH  26  27
ENDBRANCH  25  26
ENDBRANCH   1  25
TORSDOF 16
ENDMDL
