MODEL 1
REMARK VINA RESULT:     -11.6      0.000      0.000
REMARK SMILES C[C@H](Oc1ccc(C(=O)NCc2ccccc2)cc1)C(=O)OCCOC(=O)c1ccc(-c2c3nc(c(-c4c(F)c(F)c(F)c(F)c4F)c4ccc([nH]4)c(-c4c(F)c(F)c(F)c(F)c4F)c4nc(c(-c5c(F)c(F)c(F)c(F)c5F)c5ccc2[nH]5)C=C4)C=C3)cc1
REMARK SMILES IDX 22 1 20 2 21 3 2 4 1 5 3 6 4 7 5 8 19 9 6 10 18 11 7 12 8 13
REMARK SMILES IDX 9 14 10 15 11 17 12 18 13 19 17 20 14 21 16 22 15 23 23 24
REMARK SMILES IDX 24 25 25 26 26 27 27 28 28 29 29 30 90 31 30 32 89 33 31 34
REMARK SMILES IDX 32 35 33 36 83 37 34 38 88 39 82 40 84 41 35 42 87 43 81 44
REMARK SMILES IDX 80 45 36 47 68 48 48 49 67 50 49 51 52 52 66 53 85 54 50 55
REMARK SMILES IDX 51 56 65 58 86 59 53 60 37 61 38 62 46 63 39 64 40 65 44 66
REMARK SMILES IDX 47 67 41 68 42 69 45 70 43 71 69 72 70 73 78 74 71 75 72 76
REMARK SMILES IDX 76 77 79 78 73 79 74 80 77 81 75 82 54 83 55 84 63 85 56 86
REMARK SMILES IDX 57 87 61 88 64 89 58 90 59 91 62 92 60 93
REMARK H PARENT 10 16 84 46 52 57
REMARK Flexibility Score: inf
ROOT
ATOM      1  O   UNL A   1      34.349  35.054  28.069  1.00  0.00    -0.459 OA
ENDROOT
BRANCH   1   2
ATOM      2  C   UNL A   1      35.140  34.078  28.597  1.00  0.00     0.347 C 
ATOM      3  O   UNL A   1      36.325  34.219  28.883  1.00  0.00    -0.248 OA
BRANCH   2   4
ATOM      4  C   UNL A   1      34.400  32.748  28.748  1.00  0.00     0.279 C 
ATOM      5  C   UNL A   1      34.754  32.174  30.119  1.00  0.00     0.066 C 
BRANCH   4   6
ATOM      6  O   UNL A   1      34.761  31.894  27.663  1.00  0.00    -0.479 OA
BRANCH   6   7
ATOM      7  C   UNL A   1      34.026  30.777  27.399  1.00  0.00     0.120 A 
ATOM      8  C   UNL A   1      34.515  29.487  27.235  1.00  0.00     0.047 A 
ATOM      9  C   UNL A   1      32.656  31.009  27.260  1.00  0.00     0.047 A 
ATOM     10  C   UNL A   1      33.644  28.457  26.857  1.00  0.00     0.017 A 
ATOM     11  C   UNL A   1      31.786  29.982  26.871  1.00  0.00     0.017 A 
ATOM     12  C   UNL A   1      32.271  28.692  26.658  1.00  0.00     0.040 A 
BRANCH  12  13
ATOM     13  C   UNL A   1      31.467  27.559  26.117  1.00  0.00     0.251 C 
ATOM     14  O   UNL A   1      31.157  26.642  26.880  1.00  0.00    -0.269 OA
ATOM     15  N   UNL A   1      31.049  27.457  24.818  1.00  0.00    -0.348 N 
ATOM     16  H   UNL A   1      30.606  26.602  24.615  1.00  0.00     0.164 HD
BRANCH  15  17
ATOM     17  C   UNL A   1      31.127  28.352  23.684  1.00  0.00     0.152 C 
BRANCH  17  18
ATOM     18  C   UNL A   1      29.892  29.204  23.489  1.00  0.00    -0.029 A 
ATOM     19  C   UNL A   1      28.700  28.711  22.933  1.00  0.00     0.005 A 
ATOM     20  C   UNL A   1      29.936  30.554  23.873  1.00  0.00     0.005 A 
ATOM     21  C   UNL A   1      27.590  29.542  22.766  1.00  0.00     0.000 A 
ATOM     22  C   UNL A   1      28.825  31.384  23.708  1.00  0.00     0.000 A 
ATOM     23  C   UNL A   1      27.651  30.878  23.154  1.00  0.00     0.000 A 
ENDBRANCH  17  18
ENDBRANCH  15  17
ENDBRANCH  12  13
ENDBRANCH   6   7
ENDBRANCH   4   6
ENDBRANCH   2   4
ENDBRANCH   1   2
BRANCH   1  24
ATOM     24  C   UNL A   1      33.002  35.141  28.567  1.00  0.00     0.274 C 
BRANCH  24  25
ATOM     25  C   UNL A   1      32.914  36.030  29.810  1.00  0.00     0.275 C 
BRANCH  25  26
ATOM     26  O   UNL A   1      32.417  35.299  30.945  1.00  0.00    -0.458 OA
BRANCH  26  27
ATOM     27  C   UNL A   1      32.786  35.786  32.151  1.00  0.00     0.338 C 
ATOM     28  O   UNL A   1      32.199  36.621  32.827  1.00  0.00    -0.246 OA
BRANCH  27  29
ATOM     29  C   UNL A   1      33.969  35.061  32.635  1.00  0.00     0.060 A 
ATOM     30  C   UNL A   1      35.227  35.631  32.408  1.00  0.00     0.016 A 
ATOM     31  C   UNL A   1      33.855  33.813  33.252  1.00  0.00     0.016 A 
ATOM     32  C   UNL A   1      36.379  34.953  32.799  1.00  0.00     0.010 A 
ATOM     33  C   UNL A   1      35.013  33.129  33.633  1.00  0.00     0.010 A 
ATOM     34  C   UNL A   1      36.280  33.691  33.399  1.00  0.00    -0.014 A 
BRANCH  34  35
ATOM     35  C   UNL A   1      37.511  32.934  33.724  1.00  0.00     0.031 A 
ATOM     36  C   UNL A   1      38.225  33.197  35.018  1.00  0.00     0.074 A 
ATOM     37  C   UNL A   1      37.969  31.997  32.875  1.00  0.00     0.049 A 
ATOM     38  N   UNL A   1      39.341  32.682  35.469  1.00  0.00    -0.248 NA
ATOM     39  C   UNL A   1      37.598  34.169  35.926  1.00  0.00     0.031 C 
ATOM     40  C   UNL A   1      37.336  31.624  31.611  1.00  0.00     0.029 A 
ATOM     41  N   UNL A   1      39.076  31.191  32.949  1.00  0.00    -0.354 N 
ATOM     42  C   UNL A   1      39.554  33.271  36.707  1.00  0.00     0.074 A 
ATOM     43  C   UNL A   1      38.464  34.199  36.928  1.00  0.00     0.031 C 
ATOM     44  C   UNL A   1      38.064  30.658  31.028  1.00  0.00     0.029 A 
ATOM     45  C   UNL A   1      39.233  30.374  31.857  1.00  0.00     0.049 A 
ATOM     46  H   UNL A   1      39.698  31.196  33.712  1.00  0.00     0.167 HD
ATOM     47  C   UNL A   1      40.565  33.053  37.582  1.00  0.00     0.037 A 
ATOM     48  C   UNL A   1      40.221  29.510  31.554  1.00  0.00     0.037 A 
ATOM     49  C   UNL A   1      41.645  32.127  37.360  1.00  0.00     0.049 A 
ATOM     50  C   UNL A   1      41.368  29.336  32.512  1.00  0.00     0.074 A 
ATOM     51  C   UNL A   1      42.715  31.835  38.187  1.00  0.00     0.029 A 
ATOM     52  N   UNL A   1      41.791  31.344  36.225  1.00  0.00    -0.354 N 
ATOM     53  N   UNL A   1      41.564  29.899  33.680  1.00  0.00    -0.248 NA
ATOM     54  C   UNL A   1      42.435  28.410  32.107  1.00  0.00     0.031 C 
ATOM     55  C   UNL A   1      43.531  30.902  37.534  1.00  0.00     0.029 A 
ATOM     56  C   UNL A   1      42.944  30.583  36.320  1.00  0.00     0.049 A 
ATOM     57  H   UNL A   1      41.167  31.332  35.463  1.00  0.00     0.167 HD
ATOM     58  C   UNL A   1      42.760  29.380  34.158  1.00  0.00     0.074 A 
ATOM     59  C   UNL A   1      43.239  28.447  33.160  1.00  0.00     0.031 C 
ATOM     60  C   UNL A   1      43.403  29.653  35.319  1.00  0.00     0.037 A 
BRANCH  47  61
ATOM     61  C   UNL A   1      40.562  33.848  38.853  1.00  0.00     0.064 A 
ATOM     62  C   UNL A   1      41.312  35.026  38.984  1.00  0.00     0.173 A 
ATOM     63  C   UNL A   1      39.775  33.445  39.941  1.00  0.00     0.173 A 
ATOM     64  F   UNL A   1      42.093  35.446  37.978  1.00  0.00    -0.203 F 
ATOM     65  C   UNL A   1      41.289  35.761  40.168  1.00  0.00     0.198 A 
ATOM     66  C   UNL A   1      39.735  34.194  41.114  1.00  0.00     0.198 A 
ATOM     67  F   UNL A   1      39.037  32.327  39.864  1.00  0.00    -0.203 F 
ATOM     68  F   UNL A   1      42.044  36.861  40.286  1.00  0.00    -0.200 F 
ATOM     69  C   UNL A   1      40.496  35.347  41.229  1.00  0.00     0.200 A 
ATOM     70  F   UNL A   1      38.961  33.800  42.134  1.00  0.00    -0.200 F 
ATOM     71  F   UNL A   1      40.471  36.058  42.364  1.00  0.00    -0.200 F 
ENDBRANCH  47  61
BRANCH  48  72
ATOM     72  C   UNL A   1      40.175  28.751  30.279  1.00  0.00     0.064 A 
ATOM     73  C   UNL A   1      39.503  27.524  30.194  1.00  0.00     0.173 A 
ATOM     74  C   UNL A   1      40.806  29.233  29.122  1.00  0.00     0.173 A 
ATOM     75  F   UNL A   1      38.907  27.011  31.280  1.00  0.00    -0.203 F 
ATOM     76  C   UNL A   1      39.476  26.801  29.003  1.00  0.00     0.198 A 
ATOM     77  C   UNL A   1      40.756  28.520  27.926  1.00  0.00     0.198 A 
ATOM     78  F   UNL A   1      41.466  30.399  29.153  1.00  0.00    -0.203 F 
ATOM     79  F   UNL A   1      38.862  25.610  28.959  1.00  0.00    -0.200 F 
ATOM     80  C   UNL A   1      40.097  27.302  27.869  1.00  0.00     0.200 A 
ATOM     81  F   UNL A   1      41.350  29.013  26.830  1.00  0.00    -0.200 F 
ATOM     82  F   UNL A   1      40.067  26.607  26.723  1.00  0.00    -0.200 F 
ENDBRANCH  48  72
BRANCH  60  83
ATOM     83  C   UNL A   1      44.679  28.912  35.589  1.00  0.00     0.064 A 
ATOM     84  C   UNL A   1      44.680  27.658  36.218  1.00  0.00     0.173 A 
ATOM     85  C   UNL A   1      45.910  29.445  35.179  1.00  0.00     0.173 A 
ATOM     86  F   UNL A   1      43.529  27.114  36.642  1.00  0.00    -0.203 F 
ATOM     87  C   UNL A   1      45.871  26.974  36.445  1.00  0.00     0.198 A 
ATOM     88  C   UNL A   1      47.096  28.747  35.385  1.00  0.00     0.198 A 
ATOM     89  F   UNL A   1      45.960  30.638  34.569  1.00  0.00    -0.203 F 
ATOM     90  F   UNL A   1      45.855  25.797  37.084  1.00  0.00    -0.200 F 
ATOM     91  C   UNL A   1      47.077  27.515  36.023  1.00  0.00     0.200 A 
ATOM     92  F   UNL A   1      48.259  29.266  34.968  1.00  0.00    -0.200 F 
ATOM     93  F   UNL A   1      48.223  26.853  36.238  1.00  0.00    -0.200 F 
ENDBRANCH  60  83
ENDBRANCH  34  35
ENDBRANCH  27  29
ENDBRANCH  26  27
ENDBRANCH  25  26
ENDBRANCH  24  25
ENDBRANCH   1  24
TORSDOF 16
ENDMDL
MODEL 2
REMARK VINA RESULT:     -11.6      3.397      9.253
REMARK SMILES C[C@H](Oc1ccc(C(=O)NCc2ccccc2)cc1)C(=O)OCCOC(=O)c1ccc(-c2c3nc(c(-c4c(F)c(F)c(F)c(F)c4F)c4ccc([nH]4)c(-c4c(F)c(F)c(F)c(F)c4F)c4nc(c(-c5c(F)c(F)c(F)c(F)c5F)c5ccc2[nH]5)C=C4)C=C3)cc1
REMARK SMILES IDX 22 1 20 2 21 3 2 4 1 5 3 6 4 7 5 8 19 9 6 10 18 11 7 12 8 13
REMARK SMILES IDX 9 14 10 15 11 17 12 18 13 19 17 20 14 21 16 22 15 23 23 24
REMARK SMILES IDX 24 25 25 26 26 27 27 28 28 29 29 30 90 31 30 32 89 33 31 34
REMARK SMILES IDX 32 35 33 36 83 37 34 38 88 39 82 40 84 41 35 42 87 43 81 44
REMARK SMILES IDX 80 45 36 47 68 48 48 49 67 50 49 51 52 52 66 53 85 54 50 55
REMARK SMILES IDX 51 56 65 58 86 59 53 60 37 61 38 62 46 63 39 64 40 65 44 66
REMARK SMILES IDX 47 67 41 68 42 69 45 70 43 71 69 72 70 73 78 74 71 75 72 76
REMARK SMILES IDX 76 77 79 78 73 79 74 80 77 81 75 82 54 83 55 84 63 85 56 86
REMARK SMILES IDX 57 87 61 88 64 89 58 90 59 91 62 92 60 93
REMARK H PARENT 10 16 84 46 52 57
REMARK Flexibility Score: inf
ROOT
ATOM      1  O   UNL A   1      30.728  27.656  24.462  1.00  0.00    -0.459 OA
ENDROOT
BRANCH   1   2
ATOM      2  C   UNL A   1      31.096  27.331  23.191  1.00  0.00     0.347 C 
ATOM      3  O   UNL A   1      30.588  27.797  22.176  1.00  0.00    -0.248 OA
BRANCH   2   4
ATOM      4  C   UNL A   1      32.192  26.263  23.158  1.00  0.00     0.279 C 
ATOM      5  C   UNL A   1      33.367  26.830  22.363  1.00  0.00     0.066 C 
BRANCH   4   6
ATOM      6  O   UNL A   1      31.652  25.066  22.600  1.00  0.00    -0.479 OA
BRANCH   6   7
ATOM      7  C   UNL A   1      31.725  23.896  23.295  1.00  0.00     0.120 A 
ATOM      8  C   UNL A   1      31.052  23.593  24.472  1.00  0.00     0.047 A 
ATOM      9  C   UNL A   1      32.596  22.953  22.747  1.00  0.00     0.047 A 
ATOM     10  C   UNL A   1      31.314  22.384  25.131  1.00  0.00     0.017 A 
ATOM     11  C   UNL A   1      32.868  21.749  23.410  1.00  0.00     0.017 A 
ATOM     12  C   UNL A   1      32.234  21.452  24.616  1.00  0.00     0.040 A 
BRANCH  12  13
ATOM     13  C   UNL A   1      32.543  20.270  25.472  1.00  0.00     0.251 C 
ATOM     14  O   UNL A   1      32.094  19.171  25.140  1.00  0.00    -0.269 OA
ATOM     15  N   UNL A   1      33.292  20.317  26.615  1.00  0.00    -0.348 N 
ATOM     16  H   UNL A   1      33.321  19.462  27.100  1.00  0.00     0.164 HD
BRANCH  15  17
ATOM     17  C   UNL A   1      34.050  21.371  27.255  1.00  0.00     0.152 C 
BRANCH  17  18
ATOM     18  C   UNL A   1      34.984  22.108  26.320  1.00  0.00    -0.029 A 
ATOM     19  C   UNL A   1      36.042  21.482  25.640  1.00  0.00     0.005 A 
ATOM     20  C   UNL A   1      34.792  23.486  26.124  1.00  0.00     0.005 A 
ATOM     21  C   UNL A   1      36.882  22.211  24.795  1.00  0.00     0.000 A 
ATOM     22  C   UNL A   1      35.631  24.214  25.276  1.00  0.00     0.000 A 
ATOM     23  C   UNL A   1      36.676  23.576  24.612  1.00  0.00     0.000 A 
ENDBRANCH  17  18
ENDBRANCH  15  17
ENDBRANCH  12  13
ENDBRANCH   6   7
ENDBRANCH   4   6
ENDBRANCH   2   4
ENDBRANCH   1   2
BRANCH   1  24
ATOM     24  C   UNL A   1      31.752  28.191  25.320  1.00  0.00     0.274 C 
BRANCH  24  25
ATOM     25  C   UNL A   1      32.086  29.643  24.966  1.00  0.00     0.275 C 
BRANCH  25  26
ATOM     26  O   UNL A   1      33.339  30.049  25.545  1.00  0.00    -0.458 OA
BRANCH  26  27
ATOM     27  C   UNL A   1      33.240  30.851  26.629  1.00  0.00     0.338 C 
ATOM     28  O   UNL A   1      32.322  31.610  26.911  1.00  0.00    -0.246 OA
BRANCH  27  29
ATOM     29  C   UNL A   1      34.365  30.593  27.538  1.00  0.00     0.060 A 
ATOM     30  C   UNL A   1      35.264  31.636  27.783  1.00  0.00     0.016 A 
ATOM     31  C   UNL A   1      34.571  29.330  28.099  1.00  0.00     0.016 A 
ATOM     32  C   UNL A   1      36.377  31.421  28.592  1.00  0.00     0.010 A 
ATOM     33  C   UNL A   1      35.694  29.114  28.903  1.00  0.00     0.010 A 
ATOM     34  C   UNL A   1      36.607  30.155  29.145  1.00  0.00    -0.014 A 
BRANCH  34  35
ATOM     35  C   UNL A   1      37.842  29.907  29.925  1.00  0.00     0.031 A 
ATOM     36  C   UNL A   1      38.915  29.025  29.356  1.00  0.00     0.074 A 
ATOM     37  C   UNL A   1      38.010  30.492  31.124  1.00  0.00     0.049 A 
ATOM     38  N   UNL A   1      40.045  28.640  29.894  1.00  0.00    -0.248 NA
ATOM     39  C   UNL A   1      38.686  28.507  27.999  1.00  0.00     0.031 C 
ATOM     40  C   UNL A   1      37.057  31.403  31.758  1.00  0.00     0.029 A 
ATOM     41  N   UNL A   1      39.042  30.405  32.022  1.00  0.00    -0.354 N 
ATOM     42  C   UNL A   1      40.657  27.832  28.947  1.00  0.00     0.074 A 
ATOM     43  C   UNL A   1      39.765  27.761  27.809  1.00  0.00     0.031 C 
ATOM     44  C   UNL A   1      37.552  31.793  32.944  1.00  0.00     0.029 A 
ATOM     45  C   UNL A   1      38.834  31.131  33.169  1.00  0.00     0.049 A 
ATOM     46  H   UNL A   1      39.855  29.874  31.861  1.00  0.00     0.167 HD
ATOM     47  C   UNL A   1      41.857  27.209  29.021  1.00  0.00     0.037 A 
ATOM     48  C   UNL A   1      39.586  31.230  34.282  1.00  0.00     0.037 A 
ATOM     49  C   UNL A   1      42.744  27.284  30.153  1.00  0.00     0.049 A 
ATOM     50  C   UNL A   1      40.884  30.473  34.365  1.00  0.00     0.074 A 
ATOM     51  C   UNL A   1      43.982  26.690  30.322  1.00  0.00     0.029 A 
ATOM     52  N   UNL A   1      42.482  27.999  31.312  1.00  0.00    -0.354 N 
ATOM     53  N   UNL A   1      41.455  29.708  33.467  1.00  0.00    -0.248 NA
ATOM     54  C   UNL A   1      41.640  30.591  35.620  1.00  0.00     0.031 C 
ATOM     55  C   UNL A   1      44.453  27.013  31.600  1.00  0.00     0.029 A 
ATOM     56  C   UNL A   1      43.527  27.844  32.209  1.00  0.00     0.049 A 
ATOM     57  H   UNL A   1      41.673  28.535  31.474  1.00  0.00     0.167 HD
ATOM     58  C   UNL A   1      42.645  29.272  34.036  1.00  0.00     0.074 A 
ATOM     59  C   UNL A   1      42.720  29.869  35.353  1.00  0.00     0.031 C 
ATOM     60  C   UNL A   1      43.588  28.451  33.514  1.00  0.00     0.037 A 
BRANCH  47  61
ATOM     61  C   UNL A   1      42.273  26.371  27.849  1.00  0.00     0.064 A 
ATOM     62  C   UNL A   1      41.795  25.064  27.674  1.00  0.00     0.173 A 
ATOM     63  C   UNL A   1      43.135  26.893  26.873  1.00  0.00     0.173 A 
ATOM     64  F   UNL A   1      40.982  24.514  28.587  1.00  0.00    -0.203 F 
ATOM     65  C   UNL A   1      42.182  24.303  26.573  1.00  0.00     0.198 A 
ATOM     66  C   UNL A   1      43.500  26.139  25.762  1.00  0.00     0.198 A 
ATOM     67  F   UNL A   1      43.617  28.139  26.993  1.00  0.00    -0.203 F 
ATOM     68  F   UNL A   1      41.745  23.043  26.445  1.00  0.00    -0.200 F 
ATOM     69  C   UNL A   1      43.028  24.843  25.615  1.00  0.00     0.200 A 
ATOM     70  F   UNL A   1      44.309  26.664  24.832  1.00  0.00    -0.200 F 
ATOM     71  F   UNL A   1      43.394  24.111  24.554  1.00  0.00    -0.200 F 
ENDBRANCH  47  61
BRANCH  48  72
ATOM     72  C   UNL A   1      39.124  32.072  35.414  1.00  0.00     0.064 A 
ATOM     73  C   UNL A   1      39.430  33.438  35.469  1.00  0.00     0.173 A 
ATOM     74  C   UNL A   1      38.373  31.526  36.467  1.00  0.00     0.173 A 
ATOM     75  F   UNL A   1      40.168  33.998  34.499  1.00  0.00    -0.203 F 
ATOM     76  C   UNL A   1      39.014  34.225  36.541  1.00  0.00     0.198 A 
ATOM     77  C   UNL A   1      37.937  32.320  37.525  1.00  0.00     0.198 A 
ATOM     78  F   UNL A   1      38.059  30.223  36.463  1.00  0.00    -0.203 F 
ATOM     79  F   UNL A   1      39.355  35.520  36.592  1.00  0.00    -0.200 F 
ATOM     80  C   UNL A   1      38.262  33.667  37.565  1.00  0.00     0.200 A 
ATOM     81  F   UNL A   1      37.203  31.778  38.507  1.00  0.00    -0.200 F 
ATOM     82  F   UNL A   1      37.860  34.426  38.594  1.00  0.00    -0.200 F 
ENDBRANCH  48  72
BRANCH  60  83
ATOM     83  C   UNL A   1      44.798  28.174  34.356  1.00  0.00     0.064 A 
ATOM     84  C   UNL A   1      44.855  27.069  35.218  1.00  0.00     0.173 A 
ATOM     85  C   UNL A   1      45.928  29.003  34.271  1.00  0.00     0.173 A 
ATOM     86  F   UNL A   1      43.795  26.257  35.345  1.00  0.00    -0.203 F 
ATOM     87  C   UNL A   1      45.993  26.815  35.980  1.00  0.00     0.198 A 
ATOM     88  C   UNL A   1      47.071  28.731  35.015  1.00  0.00     0.198 A 
ATOM     89  F   UNL A   1      45.923  30.070  33.458  1.00  0.00    -0.203 F 
ATOM     90  F   UNL A   1      46.012  25.778  36.827  1.00  0.00    -0.200 F 
ATOM     91  C   UNL A   1      47.102  27.642  35.873  1.00  0.00     0.200 A 
ATOM     92  F   UNL A   1      48.146  29.525  34.903  1.00  0.00    -0.200 F 
ATOM     93  F   UNL A   1      48.198  27.393  36.603  1.00  0.00    -0.200 F 
ENDBRANCH  60  83
ENDBRANCH  34  35
ENDBRANCH  27  29
ENDBRANCH  26  27
ENDBRANCH  25  26
ENDBRANCH  24  25
ENDBRANCH   1  24
TORSDOF 16
ENDMDL
MODEL 3
REMARK VINA RESULT:     -11.5      7.826     13.178
REMARK SMILES C[C@H](Oc1ccc(C(=O)NCc2ccccc2)cc1)C(=O)OCCOC(=O)c1ccc(-c2c3nc(c(-c4c(F)c(F)c(F)c(F)c4F)c4ccc([nH]4)c(-c4c(F)c(F)c(F)c(F)c4F)c4nc(c(-c5c(F)c(F)c(F)c(F)c5F)c5ccc2[nH]5)C=C4)C=C3)cc1
REMARK SMILES IDX 22 1 20 2 21 3 2 4 1 5 3 6 4 7 5 8 19 9 6 10 18 11 7 12 8 13
REMARK SMILES IDX 9 14 10 15 11 17 12 18 13 19 17 20 14 21 16 22 15 23 23 24
REMARK SMILES IDX 24 25 25 26 26 27 27 28 28 29 29 30 90 31 30 32 89 33 31 34
REMARK SMILES IDX 32 35 33 36 83 37 34 38 88 39 82 40 84 41 35 42 87 43 81 44
REMARK SMILES IDX 80 45 36 47 68 48 48 49 67 50 49 51 52 52 66 53 85 54 50 55
REMARK SMILES IDX 51 56 65 58 86 59 53 60 37 61 38 62 46 63 39 64 40 65 44 66
REMARK SMILES IDX 47 67 41 68 42 69 45 70 43 71 69 72 70 73 78 74 71 75 72 76
REMARK SMILES IDX 76 77 79 78 73 79 74 80 77 81 75 82 54 83 55 84 63 85 56 86
REMARK SMILES IDX 57 87 61 88 64 89 58 90 59 91 62 92 60 93
REMARK H PARENT 10 16 84 46 52 57
REMARK Flexibility Score: inf
ROOT
ATOM      1  O   UNL A   1      41.497  19.284  26.073  1.00  0.00    -0.459 OA
ENDROOT
BRANCH   1   2
ATOM      2  C   UNL A   1      40.974  20.316  26.793  1.00  0.00     0.347 C 
ATOM      3  O   UNL A   1      40.776  20.293  28.004  1.00  0.00    -0.248 OA
BRANCH   2   4
ATOM      4  C   UNL A   1      40.599  21.509  25.911  1.00  0.00     0.279 C 
ATOM      5  C   UNL A   1      41.847  22.377  25.751  1.00  0.00     0.066 C 
BRANCH   4   6
ATOM      6  O   UNL A   1      39.501  22.197  26.508  1.00  0.00    -0.479 OA
BRANCH   6   7
ATOM      7  C   UNL A   1      38.300  22.252  25.867  1.00  0.00     0.120 A 
ATOM      8  C   UNL A   1      37.778  21.291  25.010  1.00  0.00     0.047 A 
ATOM      9  C   UNL A   1      37.573  23.420  26.103  1.00  0.00     0.047 A 
ATOM     10  C   UNL A   1      36.574  21.541  24.338  1.00  0.00     0.017 A 
ATOM     11  C   UNL A   1      36.375  23.677  25.423  1.00  0.00     0.017 A 
ATOM     12  C   UNL A   1      35.863  22.740  24.525  1.00  0.00     0.040 A 
BRANCH  12  13
ATOM     13  C   UNL A   1      34.675  22.960  23.651  1.00  0.00     0.251 C 
ATOM     14  O   UNL A   1      34.776  23.753  22.713  1.00  0.00    -0.269 OA
ATOM     15  N   UNL A   1      33.465  22.345  23.819  1.00  0.00    -0.348 N 
ATOM     16  H   UNL A   1      32.769  22.674  23.206  1.00  0.00     0.164 HD
BRANCH  15  17
ATOM     17  C   UNL A   1      33.002  21.309  24.717  1.00  0.00     0.152 C 
BRANCH  17  18
ATOM     18  C   UNL A   1      33.162  19.907  24.170  1.00  0.00    -0.029 A 
ATOM     19  C   UNL A   1      32.348  19.383  23.152  1.00  0.00     0.005 A 
ATOM     20  C   UNL A   1      34.166  19.085  24.706  1.00  0.00     0.005 A 
ATOM     21  C   UNL A   1      32.532  18.078  22.689  1.00  0.00     0.000 A 
ATOM     22  C   UNL A   1      34.351  17.781  24.241  1.00  0.00     0.000 A 
ATOM     23  C   UNL A   1      33.533  17.278  23.231  1.00  0.00     0.000 A 
ENDBRANCH  17  18
ENDBRANCH  15  17
ENDBRANCH  12  13
ENDBRANCH   6   7
ENDBRANCH   4   6
ENDBRANCH   2   4
ENDBRANCH   1   2
BRANCH   1  24
ATOM     24  C   UNL A   1      42.691  18.670  26.588  1.00  0.00     0.274 C 
BRANCH  24  25
ATOM     25  C   UNL A   1      43.587  18.142  25.465  1.00  0.00     0.275 C 
BRANCH  25  26
ATOM     26  O   UNL A   1      44.771  18.945  25.315  1.00  0.00    -0.458 OA
BRANCH  26  27
ATOM     27  C   UNL A   1      44.795  19.738  24.221  1.00  0.00     0.338 C 
ATOM     28  O   UNL A   1      44.529  19.423  23.068  1.00  0.00    -0.246 OA
BRANCH  27  29
ATOM     29  C   UNL A   1      45.068  21.125  24.622  1.00  0.00     0.060 A 
ATOM     30  C   UNL A   1      45.443  21.364  25.948  1.00  0.00     0.016 A 
ATOM     31  C   UNL A   1      44.902  22.186  23.728  1.00  0.00     0.016 A 
ATOM     32  C   UNL A   1      45.655  22.668  26.388  1.00  0.00     0.010 A 
ATOM     33  C   UNL A   1      45.105  23.495  24.174  1.00  0.00     0.010 A 
ATOM     34  C   UNL A   1      45.473  23.743  25.508  1.00  0.00    -0.014 A 
BRANCH  34  35
ATOM     35  C   UNL A   1      45.606  25.132  26.006  1.00  0.00     0.031 A 
ATOM     36  C   UNL A   1      46.934  25.824  25.925  1.00  0.00     0.074 A 
ATOM     37  C   UNL A   1      44.534  25.774  26.502  1.00  0.00     0.049 A 
ATOM     38  N   UNL A   1      47.276  27.016  26.350  1.00  0.00    -0.248 NA
ATOM     39  C   UNL A   1      48.025  25.078  25.280  1.00  0.00     0.031 C 
ATOM     40  C   UNL A   1      43.184  25.219  26.590  1.00  0.00     0.029 A 
ATOM     41  N   UNL A   1      44.415  27.036  27.029  1.00  0.00    -0.354 N 
ATOM     42  C   UNL A   1      48.619  27.158  26.030  1.00  0.00     0.074 A 
ATOM     43  C   UNL A   1      49.037  25.925  25.396  1.00  0.00     0.031 C 
ATOM     44  C   UNL A   1      42.371  26.138  27.136  1.00  0.00     0.029 A 
ATOM     45  C   UNL A   1      43.149  27.327  27.471  1.00  0.00     0.049 A 
ATOM     46  H   UNL A   1      45.165  27.671  27.083  1.00  0.00     0.167 HD
ATOM     47  C   UNL A   1      49.426  28.224  26.242  1.00  0.00     0.037 A 
ATOM     48  C   UNL A   1      42.678  28.425  28.095  1.00  0.00     0.037 A 
ATOM     49  C   UNL A   1      49.006  29.450  26.870  1.00  0.00     0.049 A 
ATOM     50  C   UNL A   1      43.614  29.569  28.379  1.00  0.00     0.074 A 
ATOM     51  C   UNL A   1      49.750  30.587  27.128  1.00  0.00     0.029 A 
ATOM     52  N   UNL A   1      47.725  29.695  27.339  1.00  0.00    -0.354 N 
ATOM     53  N   UNL A   1      44.883  29.696  28.077  1.00  0.00    -0.248 NA
ATOM     54  C   UNL A   1      43.052  30.722  29.098  1.00  0.00     0.031 C 
ATOM     55  C   UNL A   1      48.928  31.508  27.789  1.00  0.00     0.029 A 
ATOM     56  C   UNL A   1      47.661  30.959  27.904  1.00  0.00     0.049 A 
ATOM     57  H   UNL A   1      46.971  29.064  27.281  1.00  0.00     0.167 HD
ATOM     58  C   UNL A   1      45.265  30.946  28.545  1.00  0.00     0.074 A 
ATOM     59  C   UNL A   1      44.089  31.545  29.141  1.00  0.00     0.031 C 
ATOM     60  C   UNL A   1      46.480  31.542  28.487  1.00  0.00     0.037 A 
BRANCH  47  61
ATOM     61  C   UNL A   1      50.857  28.103  25.811  1.00  0.00     0.064 A 
ATOM     62  C   UNL A   1      51.880  27.820  26.728  1.00  0.00     0.173 A 
ATOM     63  C   UNL A   1      51.206  28.238  24.459  1.00  0.00     0.173 A 
ATOM     64  F   UNL A   1      51.601  27.697  28.034  1.00  0.00    -0.203 F 
ATOM     65  C   UNL A   1      53.203  27.698  26.310  1.00  0.00     0.198 A 
ATOM     66  C   UNL A   1      52.525  28.092  24.041  1.00  0.00     0.198 A 
ATOM     67  F   UNL A   1      50.264  28.506  23.542  1.00  0.00    -0.203 F 
ATOM     68  F   UNL A   1      54.170  27.467  27.208  1.00  0.00    -0.200 F 
ATOM     69  C   UNL A   1      53.523  27.828  24.966  1.00  0.00     0.200 A 
ATOM     70  F   UNL A   1      52.832  28.208  22.741  1.00  0.00    -0.200 F 
ATOM     71  F   UNL A   1      54.796  27.704  24.564  1.00  0.00    -0.200 F 
ENDBRANCH  47  61
BRANCH  48  72
ATOM     72  C   UNL A   1      41.253  28.490  28.503  1.00  0.00     0.064 A 
ATOM     73  C   UNL A   1      40.267  28.937  27.613  1.00  0.00     0.173 A 
ATOM     74  C   UNL A   1      40.848  28.113  29.792  1.00  0.00     0.173 A 
ATOM     75  F   UNL A   1      40.611  29.333  26.378  1.00  0.00    -0.203 F 
ATOM     76  C   UNL A   1      38.932  29.018  28.001  1.00  0.00     0.198 A 
ATOM     77  C   UNL A   1      39.508  28.170  30.171  1.00  0.00     0.198 A 
ATOM     78  F   UNL A   1      41.754  27.683  30.682  1.00  0.00    -0.203 F 
ATOM     79  F   UNL A   1      38.014  29.488  27.145  1.00  0.00    -0.200 F 
ATOM     80  C   UNL A   1      38.552  28.628  29.277  1.00  0.00     0.200 A 
ATOM     81  F   UNL A   1      39.145  27.784  31.402  1.00  0.00    -0.200 F 
ATOM     82  F   UNL A   1      37.267  28.703  29.649  1.00  0.00    -0.200 F 
ENDBRANCH  48  72
BRANCH  60  83
ATOM     83  C   UNL A   1      46.594  32.926  29.055  1.00  0.00     0.064 A 
ATOM     84  C   UNL A   1      46.971  33.143  30.388  1.00  0.00     0.173 A 
ATOM     85  C   UNL A   1      46.358  34.048  28.245  1.00  0.00     0.173 A 
ATOM     86  F   UNL A   1      47.192  32.102  31.206  1.00  0.00    -0.203 F 
ATOM     87  C   UNL A   1      47.089  34.434  30.896  1.00  0.00     0.198 A 
ATOM     88  C   UNL A   1      46.502  35.337  28.750  1.00  0.00     0.198 A 
ATOM     89  F   UNL A   1      45.999  33.892  26.962  1.00  0.00    -0.203 F 
ATOM     90  F   UNL A   1      47.411  34.619  32.183  1.00  0.00    -0.200 F 
ATOM     91  C   UNL A   1      46.861  35.530  30.075  1.00  0.00     0.200 A 
ATOM     92  F   UNL A   1      46.291  36.394  27.953  1.00  0.00    -0.200 F 
ATOM     93  F   UNL A   1      46.981  36.772  30.564  1.00  0.00    -0.200 F 
ENDBRANCH  60  83
ENDBRANCH  34  35
ENDBRANCH  27  29
ENDBRANCH  26  27
ENDBRANCH  25  26
ENDBRANCH  24  25
ENDBRANCH   1  24
TORSDOF 16
ENDMDL
