MODEL 1
REMARK VINA RESULT:     -13.0      0.000      0.000
REMARK SMILES NS(=O)(=O)c1ccc(-n2nc(C(=O)OCCOC(=O)c3ccc(-c4c5nc(c(-c6c(F)c(F)c(F)c(F)c6F)c6ccc([nH]6)c(-c6c(F)c(F)c(F)c(F)c6F)c6nc(c(-c7c(F)c(F)c(F)c(F)c7F)c7ccc4[nH]7)C=C6)C=C5)cc3)cc2-c2cc3ccccc3s2)cc1
REMARK SMILES IDX 15 1 14 2 12 3 13 4 11 5 9 6 10 7 84 8 83 9 8 10 5 11 6 12
REMARK SMILES IDX 95 13 7 14 94 15 2 16 3 17 4 18 1 19 85 22 86 23 93 24 87 25
REMARK SMILES IDX 92 26 88 27 91 28 89 29 90 30 16 31 17 32 18 33 19 34 20 35
REMARK SMILES IDX 21 36 82 37 22 38 81 39 23 40 24 41 25 42 75 43 26 44 80 45
REMARK SMILES IDX 74 46 76 47 27 48 79 49 73 50 72 51 28 53 60 54 40 55 59 56
REMARK SMILES IDX 41 57 44 58 58 59 77 60 42 61 43 62 57 64 78 65 45 66 29 67
REMARK SMILES IDX 30 68 38 69 31 70 32 71 36 72 39 73 33 74 34 75 37 76 35 77
REMARK SMILES IDX 61 78 62 79 70 80 63 81 64 82 68 83 71 84 65 85 66 86 69 87
REMARK SMILES IDX 67 88 46 89 47 90 55 91 48 92 49 93 53 94 56 95 50 96 51 97
REMARK SMILES IDX 54 98 52 99
REMARK H PARENT 1 20 1 21 76 52 44 63
REMARK Flexibility Score: inf
ROOT
ATOM      1  C   UNL A   1      40.677  19.942  26.694  1.00  0.00     0.275 C 
ENDROOT
BRANCH   1   2
ATOM      2  O   UNL A   1      39.664  20.524  25.855  1.00  0.00    -0.457 OA
BRANCH   2   3
ATOM      3  C   UNL A   1      39.284  21.824  26.106  1.00  0.00     0.358 C 
ATOM      4  O   UNL A   1      39.986  22.645  26.684  1.00  0.00    -0.244 OA
BRANCH   3   5
ATOM      5  C   UNL A   1      37.945  22.092  25.554  1.00  0.00     0.171 A 
ATOM      6  N   UNL A   1      36.067  23.050  25.235  1.00  0.00    -0.231 N 
ATOM      7  N   UNL A   1      37.407  23.306  25.313  1.00  0.00    -0.160 NA
ATOM      8  C   UNL A   1      35.799  21.717  25.436  1.00  0.00     0.085 A 
ATOM      9  C   UNL A   1      37.011  21.088  25.235  1.00  0.00     0.068 A 
BRANCH   6  10
ATOM     10  C   UNL A   1      35.155  24.050  24.854  1.00  0.00     0.065 A 
ATOM     11  C   UNL A   1      33.439  26.105  24.134  1.00  0.00     0.082 A 
ATOM     12  C   UNL A   1      33.913  25.219  23.156  1.00  0.00     0.024 A 
ATOM     13  C   UNL A   1      33.828  25.975  25.470  1.00  0.00     0.024 A 
ATOM     14  C   UNL A   1      34.792  24.195  23.514  1.00  0.00     0.030 A 
ATOM     15  C   UNL A   1      34.672  24.926  25.837  1.00  0.00     0.030 A 
BRANCH  11  16
ATOM     16  S   UNL A   1      32.344  27.399  23.628  1.00  0.00     0.238 S 
ATOM     17  O   UNL A   1      32.757  28.623  24.289  1.00  0.00    -0.207 OA
ATOM     18  O   UNL A   1      30.995  26.907  23.670  1.00  0.00    -0.207 OA
BRANCH  16  19
ATOM     19  N   UNL A   1      32.682  27.625  21.997  1.00  0.00    -0.225 NA
ATOM     20  H   UNL A   1      32.405  28.567  21.720  1.00  0.00     0.137 HD
ATOM     21  H   UNL A   1      32.163  26.943  21.444  1.00  0.00     0.137 HD
ENDBRANCH  16  19
ENDBRANCH  11  16
ENDBRANCH   6  10
BRANCH   8  22
ATOM     22  C   UNL A   1      34.641  21.064  25.992  1.00  0.00     0.054 A 
ATOM     23  C   UNL A   1      33.514  21.696  26.508  1.00  0.00     0.031 A 
ATOM     24  S   UNL A   1      33.970  19.790  24.981  1.00  0.00    -0.134 S 
ATOM     25  C   UNL A   1      32.617  21.912  25.377  1.00  0.00    -0.007 A 
ATOM     26  C   UNL A   1      32.905  21.011  24.340  1.00  0.00     0.035 A 
ATOM     27  C   UNL A   1      31.687  22.943  25.122  1.00  0.00     0.009 A 
ATOM     28  C   UNL A   1      32.421  21.182  23.034  1.00  0.00     0.019 A 
ATOM     29  C   UNL A   1      31.228  23.144  23.814  1.00  0.00     0.001 A 
ATOM     30  C   UNL A   1      31.622  22.299  22.780  1.00  0.00     0.001 A 
ENDBRANCH   8  22
ENDBRANCH   3   5
ENDBRANCH   2   3
ENDBRANCH   1   2
BRANCH   1  31
ATOM     31  C   UNL A   1      41.939  19.647  25.892  1.00  0.00     0.275 C 
BRANCH  31  32
ATOM     32  O   UNL A   1      42.476  20.864  25.392  1.00  0.00    -0.458 OA
BRANCH  32  33
ATOM     33  C   UNL A   1      43.823  20.917  25.323  1.00  0.00     0.338 C 
ATOM     34  O   UNL A   1      44.599  19.977  25.374  1.00  0.00    -0.246 OA
BRANCH  33  35
ATOM     35  C   UNL A   1      44.244  22.318  25.330  1.00  0.00     0.060 A 
ATOM     36  C   UNL A   1      45.184  22.667  26.303  1.00  0.00     0.016 A 
ATOM     37  C   UNL A   1      43.403  23.256  24.719  1.00  0.00     0.016 A 
ATOM     38  C   UNL A   1      45.047  23.895  26.899  1.00  0.00     0.010 A 
ATOM     39  C   UNL A   1      43.247  24.466  25.333  1.00  0.00     0.010 A 
ATOM     40  C   UNL A   1      43.995  24.716  26.480  1.00  0.00    -0.014 A 
BRANCH  40  41
ATOM     41  C   UNL A   1      43.725  25.912  27.233  1.00  0.00     0.031 A 
ATOM     42  C   UNL A   1      44.700  26.981  26.945  1.00  0.00     0.074 A 
ATOM     43  C   UNL A   1      42.624  26.029  27.998  1.00  0.00     0.049 A 
ATOM     44  N   UNL A   1      45.561  27.504  27.751  1.00  0.00    -0.248 NA
ATOM     45  C   UNL A   1      44.866  27.378  25.536  1.00  0.00     0.031 C 
ATOM     46  C   UNL A   1      41.482  25.119  28.113  1.00  0.00     0.029 A 
ATOM     47  N   UNL A   1      42.256  27.076  28.780  1.00  0.00    -0.354 N 
ATOM     48  C   UNL A   1      46.249  28.441  26.988  1.00  0.00     0.074 A 
ATOM     49  C   UNL A   1      45.929  28.175  25.613  1.00  0.00     0.031 C 
ATOM     50  C   UNL A   1      40.461  25.759  28.730  1.00  0.00     0.029 A 
ATOM     51  C   UNL A   1      40.922  27.066  29.161  1.00  0.00     0.049 A 
ATOM     52  H   UNL A   1      42.884  27.784  29.052  1.00  0.00     0.167 HD
ATOM     53  C   UNL A   1      46.799  29.539  27.569  1.00  0.00     0.037 A 
ATOM     54  C   UNL A   1      40.258  28.124  29.693  1.00  0.00     0.037 A 
ATOM     55  C   UNL A   1      47.001  29.337  28.980  1.00  0.00     0.049 A 
ATOM     56  C   UNL A   1      41.287  29.066  30.216  1.00  0.00     0.074 A 
ATOM     57  C   UNL A   1      47.747  28.446  29.728  1.00  0.00     0.029 A 
ATOM     58  N   UNL A   1      46.077  29.866  29.848  1.00  0.00    -0.354 N 
ATOM     59  N   UNL A   1      42.066  28.795  31.230  1.00  0.00    -0.248 NA
ATOM     60  C   UNL A   1      41.786  30.088  29.304  1.00  0.00     0.031 C 
ATOM     61  C   UNL A   1      46.932  28.132  30.855  1.00  0.00     0.029 A 
ATOM     62  C   UNL A   1      45.765  28.893  30.764  1.00  0.00     0.049 A 
ATOM     63  H   UNL A   1      45.707  30.779  29.819  1.00  0.00     0.167 HD
ATOM     64  C   UNL A   1      43.311  29.293  30.868  1.00  0.00     0.074 A 
ATOM     65  C   UNL A   1      43.063  30.130  29.696  1.00  0.00     0.031 C 
ATOM     66  C   UNL A   1      44.460  28.749  31.364  1.00  0.00     0.037 A 
BRANCH  53  67
ATOM     67  C   UNL A   1      46.767  30.904  26.931  1.00  0.00     0.064 A 
ATOM     68  C   UNL A   1      47.950  31.662  26.894  1.00  0.00     0.173 A 
ATOM     69  C   UNL A   1      45.580  31.610  26.629  1.00  0.00     0.173 A 
ATOM     70  F   UNL A   1      49.132  31.098  27.185  1.00  0.00    -0.203 F 
ATOM     71  C   UNL A   1      47.933  33.039  26.656  1.00  0.00     0.198 A 
ATOM     72  C   UNL A   1      45.574  32.969  26.334  1.00  0.00     0.198 A 
ATOM     73  F   UNL A   1      44.366  31.054  26.720  1.00  0.00    -0.203 F 
ATOM     74  F   UNL A   1      49.067  33.743  26.763  1.00  0.00    -0.200 F 
ATOM     75  C   UNL A   1      46.745  33.692  26.382  1.00  0.00     0.200 A 
ATOM     76  F   UNL A   1      44.407  33.584  26.091  1.00  0.00    -0.200 F 
ATOM     77  F   UNL A   1      46.718  35.019  26.218  1.00  0.00    -0.200 F 
ENDBRANCH  53  67
BRANCH  54  78
ATOM     78  C   UNL A   1      38.862  28.541  29.414  1.00  0.00     0.064 A 
ATOM     79  C   UNL A   1      37.952  28.777  30.457  1.00  0.00     0.173 A 
ATOM     80  C   UNL A   1      38.470  28.981  28.134  1.00  0.00     0.173 A 
ATOM     81  F   UNL A   1      38.268  28.439  31.716  1.00  0.00    -0.203 F 
ATOM     82  C   UNL A   1      36.731  29.425  30.234  1.00  0.00     0.198 A 
ATOM     83  C   UNL A   1      37.250  29.621  27.911  1.00  0.00     0.198 A 
ATOM     84  F   UNL A   1      39.302  28.886  27.087  1.00  0.00    -0.203 F 
ATOM     85  F   UNL A   1      35.912  29.683  31.264  1.00  0.00    -0.200 F 
ATOM     86  C   UNL A   1      36.385  29.854  28.962  1.00  0.00     0.200 A 
ATOM     87  F   UNL A   1      36.947  30.065  26.683  1.00  0.00    -0.200 F 
ATOM     88  F   UNL A   1      35.242  30.524  28.759  1.00  0.00    -0.200 F 
ENDBRANCH  54  78
BRANCH  66  89
ATOM     89  C   UNL A   1      44.336  27.740  32.473  1.00  0.00     0.064 A 
ATOM     90  C   UNL A   1      44.205  26.356  32.258  1.00  0.00     0.173 A 
ATOM     91  C   UNL A   1      44.521  28.171  33.792  1.00  0.00     0.173 A 
ATOM     92  F   UNL A   1      44.128  25.857  31.019  1.00  0.00    -0.203 F 
ATOM     93  C   UNL A   1      44.223  25.453  33.321  1.00  0.00     0.198 A 
ATOM     94  C   UNL A   1      44.573  27.265  34.848  1.00  0.00     0.198 A 
ATOM     95  F   UNL A   1      44.710  29.474  34.051  1.00  0.00    -0.203 F 
ATOM     96  F   UNL A   1      44.094  24.138  33.089  1.00  0.00    -0.200 F 
ATOM     97  C   UNL A   1      44.416  25.908  34.614  1.00  0.00     0.200 A 
ATOM     98  F   UNL A   1      44.811  27.706  36.091  1.00  0.00    -0.200 F 
ATOM     99  F   UNL A   1      44.480  25.039  35.631  1.00  0.00    -0.200 F 
ENDBRANCH  66  89
ENDBRANCH  40  41
ENDBRANCH  33  35
ENDBRANCH  32  33
ENDBRANCH  31  32
ENDBRANCH   1  31
TORSDOF 15
ENDMDL
MODEL 2
REMARK VINA RESULT:     -12.6      2.149      2.927
REMARK SMILES NS(=O)(=O)c1ccc(-n2nc(C(=O)OCCOC(=O)c3ccc(-c4c5nc(c(-c6c(F)c(F)c(F)c(F)c6F)c6ccc([nH]6)c(-c6c(F)c(F)c(F)c(F)c6F)c6nc(c(-c7c(F)c(F)c(F)c(F)c7F)c7ccc4[nH]7)C=C6)C=C5)cc3)cc2-c2cc3ccccc3s2)cc1
REMARK SMILES IDX 15 1 14 2 12 3 13 4 11 5 9 6 10 7 84 8 83 9 8 10 5 11 6 12
REMARK SMILES IDX 95 13 7 14 94 15 2 16 3 17 4 18 1 19 85 22 86 23 93 24 87 25
REMARK SMILES IDX 92 26 88 27 91 28 89 29 90 30 16 31 17 32 18 33 19 34 20 35
REMARK SMILES IDX 21 36 82 37 22 38 81 39 23 40 24 41 25 42 75 43 26 44 80 45
REMARK SMILES IDX 74 46 76 47 27 48 79 49 73 50 72 51 28 53 60 54 40 55 59 56
REMARK SMILES IDX 41 57 44 58 58 59 77 60 42 61 43 62 57 64 78 65 45 66 29 67
REMARK SMILES IDX 30 68 38 69 31 70 32 71 36 72 39 73 33 74 34 75 37 76 35 77
REMARK SMILES IDX 61 78 62 79 70 80 63 81 64 82 68 83 71 84 65 85 66 86 69 87
REMARK SMILES IDX 67 88 46 89 47 90 55 91 48 92 49 93 53 94 56 95 50 96 51 97
REMARK SMILES IDX 54 98 52 99
REMARK H PARENT 1 20 1 21 76 52 44 63
REMARK Flexibility Score: inf
ROOT
ATOM      1  C   UNL A   1      40.993  20.869  27.016  1.00  0.00     0.275 C 
ENDROOT
BRANCH   1   2
ATOM      2  O   UNL A   1      39.772  21.258  26.362  1.00  0.00    -0.457 OA
BRANCH   2   3
ATOM      3  C   UNL A   1      39.091  20.305  25.638  1.00  0.00     0.358 C 
ATOM      4  O   UNL A   1      39.493  19.161  25.463  1.00  0.00    -0.244 OA
BRANCH   3   5
ATOM      5  C   UNL A   1      37.813  20.841  25.141  1.00  0.00     0.171 A 
ATOM      6  N   UNL A   1      36.161  22.165  24.888  1.00  0.00    -0.231 N 
ATOM      7  N   UNL A   1      37.526  22.138  24.905  1.00  0.00    -0.160 NA
ATOM      8  C   UNL A   1      35.632  20.917  25.121  1.00  0.00     0.085 A 
ATOM      9  C   UNL A   1      36.678  20.050  24.877  1.00  0.00     0.068 A 
BRANCH   6  10
ATOM     10  C   UNL A   1      35.458  23.329  24.533  1.00  0.00     0.065 A 
ATOM     11  C   UNL A   1      33.977  25.557  23.804  1.00  0.00     0.082 A 
ATOM     12  C   UNL A   1      34.398  25.405  25.132  1.00  0.00     0.024 A 
ATOM     13  C   UNL A   1      34.284  24.593  22.838  1.00  0.00     0.024 A 
ATOM     14  C   UNL A   1      35.128  24.274  25.505  1.00  0.00     0.030 A 
ATOM     15  C   UNL A   1      35.051  23.484  23.199  1.00  0.00     0.030 A 
BRANCH  11  16
ATOM     16  S   UNL A   1      33.037  26.995  23.385  1.00  0.00     0.238 S 
ATOM     17  O   UNL A   1      33.586  28.122  24.116  1.00  0.00    -0.207 OA
ATOM     18  O   UNL A   1      31.641  26.657  23.406  1.00  0.00    -0.207 OA
BRANCH  16  19
ATOM     19  N   UNL A   1      33.397  27.280  21.768  1.00  0.00    -0.225 NA
ATOM     20  H   UNL A   1      33.587  26.392  21.301  1.00  0.00     0.137 HD
ATOM     21  H   UNL A   1      34.218  27.880  21.703  1.00  0.00     0.137 HD
ENDBRANCH  16  19
ENDBRANCH  11  16
ENDBRANCH   6  10
BRANCH   8  22
ATOM     22  C   UNL A   1      34.391  20.520  25.736  1.00  0.00     0.054 A 
ATOM     23  C   UNL A   1      33.392  21.377  26.188  1.00  0.00     0.031 A 
ATOM     24  S   UNL A   1      33.504  19.286  24.850  1.00  0.00    -0.134 S 
ATOM     25  C   UNL A   1      32.526  21.631  25.042  1.00  0.00    -0.007 A 
ATOM     26  C   UNL A   1      32.646  20.601  24.095  1.00  0.00     0.035 A 
ATOM     27  C   UNL A   1      31.776  22.773  24.689  1.00  0.00     0.009 A 
ATOM     28  C   UNL A   1      32.176  20.726  22.779  1.00  0.00     0.019 A 
ATOM     29  C   UNL A   1      31.336  22.924  23.368  1.00  0.00     0.001 A 
ATOM     30  C   UNL A   1      31.569  21.932  22.419  1.00  0.00     0.001 A 
ENDBRANCH   8  22
ENDBRANCH   3   5
ENDBRANCH   2   3
ENDBRANCH   1   2
BRANCH   1  31
ATOM     31  C   UNL A   1      42.205  21.307  26.203  1.00  0.00     0.275 C 
BRANCH  31  32
ATOM     32  O   UNL A   1      41.860  22.440  25.415  1.00  0.00    -0.458 OA
BRANCH  32  33
ATOM     33  C   UNL A   1      42.466  23.594  25.766  1.00  0.00     0.338 C 
ATOM     34  O   UNL A   1      43.618  23.920  25.530  1.00  0.00    -0.246 OA
BRANCH  33  35
ATOM     35  C   UNL A   1      41.565  24.361  26.627  1.00  0.00     0.060 A 
ATOM     36  C   UNL A   1      40.816  25.354  25.993  1.00  0.00     0.016 A 
ATOM     37  C   UNL A   1      41.828  24.372  28.003  1.00  0.00     0.016 A 
ATOM     38  C   UNL A   1      40.617  26.526  26.678  1.00  0.00     0.010 A 
ATOM     39  C   UNL A   1      41.657  25.549  28.674  1.00  0.00     0.010 A 
ATOM     40  C   UNL A   1      41.157  26.636  27.963  1.00  0.00    -0.014 A 
BRANCH  40  41
ATOM     41  C   UNL A   1      41.126  27.924  28.606  1.00  0.00     0.031 A 
ATOM     42  C   UNL A   1      42.251  28.781  28.185  1.00  0.00     0.074 A 
ATOM     43  C   UNL A   1      40.099  28.296  29.391  1.00  0.00     0.049 A 
ATOM     44  N   UNL A   1      43.226  29.220  28.909  1.00  0.00    -0.248 NA
ATOM     45  C   UNL A   1      42.414  29.016  26.740  1.00  0.00     0.031 C 
ATOM     46  C   UNL A   1      38.827  27.607  29.629  1.00  0.00     0.029 A 
ATOM     47  N   UNL A   1      39.948  29.456  30.079  1.00  0.00    -0.354 N 
ATOM     48  C   UNL A   1      44.023  29.953  28.037  1.00  0.00     0.074 A 
ATOM     49  C   UNL A   1      43.597  29.623  26.705  1.00  0.00     0.031 C 
ATOM     50  C   UNL A   1      37.958  28.464  30.213  1.00  0.00     0.029 A 
ATOM     51  C   UNL A   1      38.651  29.708  30.502  1.00  0.00     0.049 A 
ATOM     52  H   UNL A   1      40.697  30.068  30.262  1.00  0.00     0.167 HD
ATOM     53  C   UNL A   1      44.775  30.989  28.492  1.00  0.00     0.037 A 
ATOM     54  C   UNL A   1      38.199  30.907  30.950  1.00  0.00     0.037 A 
ATOM     55  C   UNL A   1      45.007  30.884  29.908  1.00  0.00     0.049 A 
ATOM     56  C   UNL A   1      39.394  31.702  31.346  1.00  0.00     0.074 A 
ATOM     57  C   UNL A   1      45.630  29.949  30.714  1.00  0.00     0.029 A 
ATOM     58  N   UNL A   1      44.227  31.638  30.751  1.00  0.00    -0.354 N 
ATOM     59  N   UNL A   1      40.164  31.394  32.356  1.00  0.00    -0.248 NA
ATOM     60  C   UNL A   1      40.012  32.539  30.324  1.00  0.00     0.031 C 
ATOM     61  C   UNL A   1      44.828  29.881  31.892  1.00  0.00     0.029 A 
ATOM     62  C   UNL A   1      43.802  30.819  31.765  1.00  0.00     0.049 A 
ATOM     63  H   UNL A   1      44.013  32.594  30.645  1.00  0.00     0.167 HD
ATOM     64  C   UNL A   1      41.456  31.639  31.908  1.00  0.00     0.074 A 
ATOM     65  C   UNL A   1      41.295  32.397  30.670  1.00  0.00     0.031 C 
ATOM     66  C   UNL A   1      42.521  30.953  32.418  1.00  0.00     0.037 A 
BRANCH  53  67
ATOM     67  C   UNL A   1      44.940  32.277  27.726  1.00  0.00     0.064 A 
ATOM     68  C   UNL A   1      46.137  32.497  27.021  1.00  0.00     0.173 A 
ATOM     69  C   UNL A   1      44.115  33.412  27.897  1.00  0.00     0.173 A 
ATOM     70  F   UNL A   1      47.004  31.494  26.819  1.00  0.00    -0.203 F 
ATOM     71  C   UNL A   1      46.514  33.772  26.595  1.00  0.00     0.198 A 
ATOM     72  C   UNL A   1      44.468  34.670  27.419  1.00  0.00     0.198 A 
ATOM     73  F   UNL A   1      42.996  33.388  28.630  1.00  0.00    -0.203 F 
ATOM     74  F   UNL A   1      47.722  33.957  26.047  1.00  0.00    -0.200 F 
ATOM     75  C   UNL A   1      45.682  34.858  26.800  1.00  0.00     0.200 A 
ATOM     76  F   UNL A   1      43.654  35.712  27.647  1.00  0.00    -0.200 F 
ATOM     77  F   UNL A   1      46.071  36.090  26.451  1.00  0.00    -0.200 F 
ENDBRANCH  53  67
BRANCH  54  78
ATOM     78  C   UNL A   1      36.880  31.529  30.677  1.00  0.00     0.064 A 
ATOM     79  C   UNL A   1      35.987  31.826  31.718  1.00  0.00     0.173 A 
ATOM     80  C   UNL A   1      36.582  32.094  29.420  1.00  0.00     0.173 A 
ATOM     81  F   UNL A   1      36.224  31.374  32.958  1.00  0.00    -0.203 F 
ATOM     82  C   UNL A   1      34.872  32.649  31.518  1.00  0.00     0.198 A 
ATOM     83  C   UNL A   1      35.467  32.908  29.219  1.00  0.00     0.198 A 
ATOM     84  F   UNL A   1      37.417  31.945  28.382  1.00  0.00    -0.203 F 
ATOM     85  F   UNL A   1      34.072  32.957  32.549  1.00  0.00    -0.200 F 
ATOM     86  C   UNL A   1      34.618  33.196  30.270  1.00  0.00     0.200 A 
ATOM     87  F   UNL A   1      35.256  33.461  28.016  1.00  0.00    -0.200 F 
ATOM     88  F   UNL A   1      33.583  34.029  30.091  1.00  0.00    -0.200 F 
ENDBRANCH  54  78
BRANCH  66  89
ATOM     89  C   UNL A   1      42.283  30.084  33.622  1.00  0.00     0.064 A 
ATOM     90  C   UNL A   1      41.880  28.739  33.547  1.00  0.00     0.173 A 
ATOM     91  C   UNL A   1      42.635  30.579  34.883  1.00  0.00     0.173 A 
ATOM     92  F   UNL A   1      41.626  28.162  32.367  1.00  0.00    -0.203 F 
ATOM     93  C   UNL A   1      41.798  27.941  34.688  1.00  0.00     0.198 A 
ATOM     94  C   UNL A   1      42.586  29.773  36.017  1.00  0.00     0.198 A 
ATOM     95  F   UNL A   1      43.083  31.839  35.008  1.00  0.00    -0.203 F 
ATOM     96  F   UNL A   1      41.408  26.662  34.589  1.00  0.00    -0.200 F 
ATOM     97  C   UNL A   1      42.160  28.457  35.921  1.00  0.00     0.200 A 
ATOM     98  F   UNL A   1      42.986  30.261  37.199  1.00  0.00    -0.200 F 
ATOM     99  F   UNL A   1      42.127  27.680  37.012  1.00  0.00    -0.200 F 
ENDBRANCH  66  89
ENDBRANCH  40  41
ENDBRANCH  33  35
ENDBRANCH  32  33
ENDBRANCH  31  32
ENDBRANCH   1  31
TORSDOF 15
ENDMDL
MODEL 3
REMARK VINA RESULT:     -12.6      2.117      2.997
REMARK SMILES NS(=O)(=O)c1ccc(-n2nc(C(=O)OCCOC(=O)c3ccc(-c4c5nc(c(-c6c(F)c(F)c(F)c(F)c6F)c6ccc([nH]6)c(-c6c(F)c(F)c(F)c(F)c6F)c6nc(c(-c7c(F)c(F)c(F)c(F)c7F)c7ccc4[nH]7)C=C6)C=C5)cc3)cc2-c2cc3ccccc3s2)cc1
REMARK SMILES IDX 15 1 14 2 12 3 13 4 11 5 9 6 10 7 84 8 83 9 8 10 5 11 6 12
REMARK SMILES IDX 95 13 7 14 94 15 2 16 3 17 4 18 1 19 85 22 86 23 93 24 87 25
REMARK SMILES IDX 92 26 88 27 91 28 89 29 90 30 16 31 17 32 18 33 19 34 20 35
REMARK SMILES IDX 21 36 82 37 22 38 81 39 23 40 24 41 25 42 75 43 26 44 80 45
REMARK SMILES IDX 74 46 76 47 27 48 79 49 73 50 72 51 28 53 60 54 40 55 59 56
REMARK SMILES IDX 41 57 44 58 58 59 77 60 42 61 43 62 57 64 78 65 45 66 29 67
REMARK SMILES IDX 30 68 38 69 31 70 32 71 36 72 39 73 33 74 34 75 37 76 35 77
REMARK SMILES IDX 61 78 62 79 70 80 63 81 64 82 68 83 71 84 65 85 66 86 69 87
REMARK SMILES IDX 67 88 46 89 47 90 55 91 48 92 49 93 53 94 56 95 50 96 51 97
REMARK SMILES IDX 54 98 52 99
REMARK H PARENT 1 20 1 21 76 52 44 63
REMARK Flexibility Score: inf
ROOT
ATOM      1  C   UNL A   1      41.121  21.006  26.729  1.00  0.00     0.275 C 
ENDROOT
BRANCH   1   2
ATOM      2  O   UNL A   1      39.865  21.358  26.124  1.00  0.00    -0.457 OA
BRANCH   2   3
ATOM      3  C   UNL A   1      39.104  20.349  25.574  1.00  0.00     0.358 C 
ATOM      4  O   UNL A   1      39.457  19.178  25.517  1.00  0.00    -0.244 OA
BRANCH   3   5
ATOM      5  C   UNL A   1      37.808  20.868  25.105  1.00  0.00     0.171 A 
ATOM      6  N   UNL A   1      36.113  22.148  24.922  1.00  0.00    -0.231 N 
ATOM      7  N   UNL A   1      37.479  22.167  24.941  1.00  0.00    -0.160 NA
ATOM      8  C   UNL A   1      35.627  20.872  25.083  1.00  0.00     0.085 A 
ATOM      9  C   UNL A   1      36.702  20.056  24.794  1.00  0.00     0.068 A 
BRANCH   6  10
ATOM     10  C   UNL A   1      35.372  23.306  24.630  1.00  0.00     0.065 A 
ATOM     11  C   UNL A   1      34.007  25.657  24.085  1.00  0.00     0.082 A 
ATOM     12  C   UNL A   1      34.282  24.756  23.048  1.00  0.00     0.024 A 
ATOM     13  C   UNL A   1      34.422  25.395  25.394  1.00  0.00     0.024 A 
ATOM     14  C   UNL A   1      34.986  23.580  23.317  1.00  0.00     0.030 A 
ATOM     15  C   UNL A   1      35.087  24.200  25.673  1.00  0.00     0.030 A 
BRANCH  11  16
ATOM     16  S   UNL A   1      33.132  27.143  23.690  1.00  0.00     0.238 S 
ATOM     17  O   UNL A   1      33.902  28.267  24.192  1.00  0.00    -0.207 OA
ATOM     18  O   UNL A   1      31.740  26.954  23.991  1.00  0.00    -0.207 OA
BRANCH  16  19
ATOM     19  N   UNL A   1      33.211  27.247  22.014  1.00  0.00    -0.225 NA
ATOM     20  H   UNL A   1      34.032  26.741  21.681  1.00  0.00     0.137 HD
ATOM     21  H   UNL A   1      33.279  28.226  21.737  1.00  0.00     0.137 HD
ENDBRANCH  16  19
ENDBRANCH  11  16
ENDBRANCH   6  10
BRANCH   8  22
ATOM     22  C   UNL A   1      34.399  20.400  25.671  1.00  0.00     0.054 A 
ATOM     23  C   UNL A   1      33.419  21.191  26.262  1.00  0.00     0.031 A 
ATOM     24  S   UNL A   1      33.480  19.302  24.649  1.00  0.00    -0.134 S 
ATOM     25  C   UNL A   1      32.525  21.603  25.185  1.00  0.00    -0.007 A 
ATOM     26  C   UNL A   1      32.612  20.711  24.104  1.00  0.00     0.035 A 
ATOM     27  C   UNL A   1      31.774  22.785  25.012  1.00  0.00     0.009 A 
ATOM     28  C   UNL A   1      32.110  21.017  22.830  1.00  0.00     0.019 A 
ATOM     29  C   UNL A   1      31.302  23.117  23.736  1.00  0.00     0.001 A 
ATOM     30  C   UNL A   1      31.503  22.263  22.655  1.00  0.00     0.001 A 
ENDBRANCH   8  22
ENDBRANCH   3   5
ENDBRANCH   2   3
ENDBRANCH   1   2
BRANCH   1  31
ATOM     31  C   UNL A   1      42.282  21.356  25.805  1.00  0.00     0.275 C 
BRANCH  31  32
ATOM     32  O   UNL A   1      42.996  22.461  26.343  1.00  0.00    -0.458 OA
BRANCH  32  33
ATOM     33  C   UNL A   1      42.731  23.655  25.770  1.00  0.00     0.338 C 
ATOM     34  O   UNL A   1      43.251  24.122  24.770  1.00  0.00    -0.246 OA
BRANCH  33  35
ATOM     35  C   UNL A   1      41.810  24.400  26.630  1.00  0.00     0.060 A 
ATOM     36  C   UNL A   1      41.086  25.419  26.007  1.00  0.00     0.016 A 
ATOM     37  C   UNL A   1      42.033  24.364  28.012  1.00  0.00     0.016 A 
ATOM     38  C   UNL A   1      40.874  26.569  26.724  1.00  0.00     0.010 A 
ATOM     39  C   UNL A   1      41.850  25.520  28.716  1.00  0.00     0.010 A 
ATOM     40  C   UNL A   1      41.378  26.634  28.027  1.00  0.00    -0.014 A 
BRANCH  40  41
ATOM     41  C   UNL A   1      41.336  27.901  28.710  1.00  0.00     0.031 A 
ATOM     42  C   UNL A   1      42.488  28.755  28.364  1.00  0.00     0.074 A 
ATOM     43  C   UNL A   1      40.281  28.260  29.464  1.00  0.00     0.049 A 
ATOM     44  N   UNL A   1      43.436  29.157  29.141  1.00  0.00    -0.248 NA
ATOM     45  C   UNL A   1      42.713  29.035  26.935  1.00  0.00     0.031 C 
ATOM     46  C   UNL A   1      38.993  27.581  29.627  1.00  0.00     0.029 A 
ATOM     47  N   UNL A   1      40.116  29.399  30.183  1.00  0.00    -0.354 N 
ATOM     48  C   UNL A   1      44.278  29.907  28.328  1.00  0.00     0.074 A 
ATOM     49  C   UNL A   1      43.904  29.626  26.969  1.00  0.00     0.031 C 
ATOM     50  C   UNL A   1      38.110  28.431  30.203  1.00  0.00     0.029 A 
ATOM     51  C   UNL A   1      38.806  29.655  30.561  1.00  0.00     0.049 A 
ATOM     52  H   UNL A   1      40.865  29.995  30.417  1.00  0.00     0.167 HD
ATOM     53  C   UNL A   1      45.023  30.917  28.847  1.00  0.00     0.037 A 
ATOM     54  C   UNL A   1      38.351  30.844  31.029  1.00  0.00     0.037 A 
ATOM     55  C   UNL A   1      45.196  30.763  30.267  1.00  0.00     0.049 A 
ATOM     56  C   UNL A   1      39.539  31.611  31.501  1.00  0.00     0.074 A 
ATOM     57  C   UNL A   1      45.773  29.794  31.067  1.00  0.00     0.029 A 
ATOM     58  N   UNL A   1      44.391  31.500  31.101  1.00  0.00    -0.354 N 
ATOM     59  N   UNL A   1      40.262  31.259  32.530  1.00  0.00    -0.248 NA
ATOM     60  C   UNL A   1      40.208  32.471  30.533  1.00  0.00     0.031 C 
ATOM     61  C   UNL A   1      44.923  29.699  32.207  1.00  0.00     0.029 A 
ATOM     62  C   UNL A   1      43.914  30.654  32.070  1.00  0.00     0.049 A 
ATOM     63  H   UNL A   1      44.193  32.461  31.019  1.00  0.00     0.167 HD
ATOM     64  C   UNL A   1      41.574  31.501  32.144  1.00  0.00     0.074 A 
ATOM     65  C   UNL A   1      41.474  32.301  30.926  1.00  0.00     0.031 C 
ATOM     66  C   UNL A   1      42.609  30.785  32.674  1.00  0.00     0.037 A 
BRANCH  53  67
ATOM     67  C   UNL A   1      45.236  32.227  28.131  1.00  0.00     0.064 A 
ATOM     68  C   UNL A   1      44.127  33.056  27.891  1.00  0.00     0.173 A 
ATOM     69  C   UNL A   1      46.412  32.558  27.418  1.00  0.00     0.173 A 
ATOM     70  F   UNL A   1      42.954  32.820  28.498  1.00  0.00    -0.203 F 
ATOM     71  C   UNL A   1      44.170  34.085  26.947  1.00  0.00     0.198 A 
ATOM     72  C   UNL A   1      46.467  33.621  26.523  1.00  0.00     0.198 A 
ATOM     73  F   UNL A   1      47.518  31.807  27.462  1.00  0.00    -0.203 F 
ATOM     74  F   UNL A   1      43.052  34.762  26.654  1.00  0.00    -0.200 F 
ATOM     75  C   UNL A   1      45.338  34.362  26.260  1.00  0.00     0.200 A 
ATOM     76  F   UNL A   1      47.605  33.858  25.854  1.00  0.00    -0.200 F 
ATOM     77  F   UNL A   1      45.362  35.304  25.309  1.00  0.00    -0.200 F 
ENDBRANCH  53  67
BRANCH  54  78
ATOM     78  C   UNL A   1      37.052  31.493  30.723  1.00  0.00     0.064 A 
ATOM     79  C   UNL A   1      36.106  31.738  31.732  1.00  0.00     0.173 A 
ATOM     80  C   UNL A   1      36.825  32.132  29.488  1.00  0.00     0.173 A 
ATOM     81  F   UNL A   1      36.275  31.213  32.954  1.00  0.00    -0.203 F 
ATOM     82  C   UNL A   1      35.009  32.581  31.520  1.00  0.00     0.198 A 
ATOM     83  C   UNL A   1      35.727  32.967  29.275  1.00  0.00     0.198 A 
ATOM     84  F   UNL A   1      37.713  32.036  28.488  1.00  0.00    -0.203 F 
ATOM     85  F   UNL A   1      34.157  32.836  32.524  1.00  0.00    -0.200 F 
ATOM     86  C   UNL A   1      34.824  33.201  30.295  1.00  0.00     0.200 A 
ATOM     87  F   UNL A   1      35.584  33.590  28.097  1.00  0.00    -0.200 F 
ATOM     88  F   UNL A   1      33.806  34.052  30.110  1.00  0.00    -0.200 F 
ENDBRANCH  54  78
BRANCH  66  89
ATOM     89  C   UNL A   1      42.311  29.880  33.838  1.00  0.00     0.064 A 
ATOM     90  C   UNL A   1      41.850  28.558  33.702  1.00  0.00     0.173 A 
ATOM     91  C   UNL A   1      42.661  30.309  35.124  1.00  0.00     0.173 A 
ATOM     92  F   UNL A   1      41.592  28.041  32.495  1.00  0.00    -0.203 F 
ATOM     93  C   UNL A   1      41.712  27.721  34.809  1.00  0.00     0.198 A 
ATOM     94  C   UNL A   1      42.556  29.460  36.223  1.00  0.00     0.198 A 
ATOM     95  F   UNL A   1      43.163  31.540  35.306  1.00  0.00    -0.203 F 
ATOM     96  F   UNL A   1      41.267  26.465  34.652  1.00  0.00    -0.200 F 
ATOM     97  C   UNL A   1      42.073  28.170  36.067  1.00  0.00     0.200 A 
ATOM     98  F   UNL A   1      42.955  29.883  37.430  1.00  0.00    -0.200 F 
ATOM     99  F   UNL A   1      41.987  27.353  37.125  1.00  0.00    -0.200 F 
ENDBRANCH  66  89
ENDBRANCH  40  41
ENDBRANCH  33  35
ENDBRANCH  32  33
ENDBRANCH  31  32
ENDBRANCH   1  31
TORSDOF 15
ENDMDL
