MODEL 1
REMARK VINA RESULT:     -13.3      0.000      0.000
REMARK SMILES O=C(OCCOC(=O)[C@@H]1CC=CC[C@@H]1C(=O)Nc1ccc(O)cc1)c1ccc(-c2c3nc(c(-c4c(F)c(F)c(F)c(F)c4F)c4ccc([nH]4)c(-c4c(F)c(F)c(F)c(F)c4F)c4nc(c(-c5c(F)c(F)c(F)c(F)c5F)c5ccc2[nH]5)C=C4)C=C3)cc1
REMARK SMILES IDX 5 1 4 2 3 3 2 4 1 5 25 6 26 7 87 8 27 9 86 10 28 11 29 12
REMARK SMILES IDX 30 13 80 14 31 15 85 16 79 17 81 18 32 19 84 20 78 21 77 22
REMARK SMILES IDX 33 24 65 25 45 26 64 27 46 28 49 29 63 30 82 31 47 32 48 33
REMARK SMILES IDX 62 35 83 36 50 37 34 38 35 39 43 40 36 41 37 42 41 43 44 44
REMARK SMILES IDX 38 45 39 46 42 47 40 48 66 49 67 50 75 51 68 52 69 53 73 54
REMARK SMILES IDX 76 55 70 56 71 57 74 58 72 59 51 60 52 61 60 62 53 63 54 64
REMARK SMILES IDX 58 65 61 66 55 67 56 68 59 69 57 70 6 71 7 72 8 73 9 74
REMARK SMILES IDX 10 75 14 76 11 77 13 78 12 79 15 80 16 81 17 82 18 84 19 85
REMARK SMILES IDX 24 86 20 87 23 88 21 89 22 90
REMARK H PARENT 81 23 49 34 17 83 22 91
REMARK Flexibility Score: inf
ROOT
ATOM      1  C   UNL A   1      32.021  30.193  25.730  1.00  0.00     0.274 C 
ENDROOT
BRANCH   1   2
ATOM      2  C   UNL A   1      32.150  31.205  26.876  1.00  0.00     0.275 C 
BRANCH   2   3
ATOM      3  O   UNL A   1      33.260  30.857  27.739  1.00  0.00    -0.458 OA
BRANCH   3   4
ATOM      4  C   UNL A   1      34.125  31.762  28.277  1.00  0.00     0.338 C 
ATOM      5  O   UNL A   1      33.761  32.905  28.531  1.00  0.00    -0.246 OA
BRANCH   4   6
ATOM      6  C   UNL A   1      35.589  31.482  28.147  1.00  0.00     0.060 A 
ATOM      7  C   UNL A   1      36.594  32.416  28.353  1.00  0.00     0.016 A 
ATOM      8  C   UNL A   1      35.971  30.158  27.857  1.00  0.00     0.016 A 
ATOM      9  C   UNL A   1      37.907  31.970  28.563  1.00  0.00     0.010 A 
ATOM     10  C   UNL A   1      37.293  29.713  28.045  1.00  0.00     0.010 A 
ATOM     11  C   UNL A   1      38.228  30.574  28.607  1.00  0.00    -0.014 A 
BRANCH  11  12
ATOM     12  C   UNL A   1      39.620  30.103  29.133  1.00  0.00     0.031 A 
ATOM     13  C   UNL A   1      39.035  30.301  30.916  1.00  0.00     0.074 A 
ATOM     14  C   UNL A   1      41.007  29.423  28.489  1.00  0.00     0.049 A 
ATOM     15  N   UNL A   1      39.129  29.493  31.987  1.00  0.00    -0.248 NA
ATOM     16  C   UNL A   1      38.398  31.571  31.334  1.00  0.00     0.031 C 
ATOM     17  C   UNL A   1      41.244  28.363  27.377  1.00  0.00     0.029 A 
ATOM     18  N   UNL A   1      42.417  28.987  29.048  1.00  0.00    -0.354 N 
ATOM     19  C   UNL A   1      39.082  30.254  33.143  1.00  0.00     0.074 A 
ATOM     20  C   UNL A   1      38.368  31.452  32.671  1.00  0.00     0.031 C 
ATOM     21  C   UNL A   1      42.185  27.418  27.598  1.00  0.00     0.029 A 
ATOM     22  C   UNL A   1      42.872  27.649  28.838  1.00  0.00     0.049 A 
ATOM     23  H   UNL A   1      42.979  29.631  29.537  1.00  0.00     0.167 HD
ATOM     24  C   UNL A   1      39.741  30.146  34.366  1.00  0.00     0.037 A 
ATOM     25  C   UNL A   1      43.585  26.630  29.485  1.00  0.00     0.037 A 
ATOM     26  C   UNL A   1      40.856  29.244  34.891  1.00  0.00     0.049 A 
ATOM     27  C   UNL A   1      43.988  26.395  31.014  1.00  0.00     0.074 A 
ATOM     28  C   UNL A   1      41.723  29.553  35.947  1.00  0.00     0.029 A 
ATOM     29  N   UNL A   1      41.327  27.947  34.505  1.00  0.00    -0.354 N 
ATOM     30  N   UNL A   1      43.222  26.312  32.082  1.00  0.00    -0.248 NA
ATOM     31  C   UNL A   1      45.349  25.941  31.360  1.00  0.00     0.031 C 
ATOM     32  C   UNL A   1      42.810  28.648  35.983  1.00  0.00     0.029 A 
ATOM     33  C   UNL A   1      42.660  27.682  34.989  1.00  0.00     0.049 A 
ATOM     34  H   UNL A   1      40.801  27.309  33.970  1.00  0.00     0.167 HD
ATOM     35  C   UNL A   1      43.995  26.212  33.229  1.00  0.00     0.074 A 
ATOM     36  C   UNL A   1      45.261  25.720  32.683  1.00  0.00     0.031 C 
ATOM     37  C   UNL A   1      43.771  26.728  34.504  1.00  0.00     0.037 A 
BRANCH  24  38
ATOM     38  C   UNL A   1      39.419  31.333  35.268  1.00  0.00     0.064 A 
ATOM     39  C   UNL A   1      38.441  31.231  36.270  1.00  0.00     0.173 A 
ATOM     40  C   UNL A   1      40.049  32.581  35.101  1.00  0.00     0.173 A 
ATOM     41  F   UNL A   1      37.778  30.078  36.446  1.00  0.00    -0.203 F 
ATOM     42  C   UNL A   1      38.099  32.330  37.058  1.00  0.00     0.198 A 
ATOM     43  C   UNL A   1      39.726  33.669  35.914  1.00  0.00     0.198 A 
ATOM     44  F   UNL A   1      40.979  32.751  34.147  1.00  0.00    -0.203 F 
ATOM     45  F   UNL A   1      37.121  32.221  37.969  1.00  0.00    -0.200 F 
ATOM     46  C   UNL A   1      38.746  33.546  36.886  1.00  0.00     0.200 A 
ATOM     47  F   UNL A   1      40.355  34.841  35.745  1.00  0.00    -0.200 F 
ATOM     48  F   UNL A   1      38.411  34.600  37.642  1.00  0.00    -0.200 F 
ENDBRANCH  24  38
BRANCH  25  49
ATOM     49  C   UNL A   1      44.064  25.456  28.631  1.00  0.00     0.064 A 
ATOM     50  C   UNL A   1      43.349  24.248  28.520  1.00  0.00     0.173 A 
ATOM     51  C   UNL A   1      45.326  25.494  28.007  1.00  0.00     0.173 A 
ATOM     52  F   UNL A   1      42.161  24.103  29.125  1.00  0.00    -0.203 F 
ATOM     53  C   UNL A   1      43.863  23.153  27.814  1.00  0.00     0.198 A 
ATOM     54  C   UNL A   1      45.818  24.418  27.268  1.00  0.00     0.198 A 
ATOM     55  F   UNL A   1      46.099  26.583  28.123  1.00  0.00    -0.203 F 
ATOM     56  F   UNL A   1      43.180  22.001  27.770  1.00  0.00    -0.200 F 
ATOM     57  C   UNL A   1      45.090  23.245  27.178  1.00  0.00     0.200 A 
ATOM     58  F   UNL A   1      47.008  24.518  26.658  1.00  0.00    -0.200 F 
ATOM     59  F   UNL A   1      45.581  22.200  26.497  1.00  0.00    -0.200 F 
ENDBRANCH  25  49
BRANCH  37  60
ATOM     60  C   UNL A   1      44.965  26.605  35.460  1.00  0.00     0.064 A 
ATOM     61  C   UNL A   1      46.020  27.543  35.516  1.00  0.00     0.173 A 
ATOM     62  C   UNL A   1      45.004  25.563  36.398  1.00  0.00     0.173 A 
ATOM     63  F   UNL A   1      46.024  28.618  34.712  1.00  0.00    -0.203 F 
ATOM     64  C   UNL A   1      47.108  27.375  36.378  1.00  0.00     0.198 A 
ATOM     65  C   UNL A   1      46.069  25.426  37.294  1.00  0.00     0.198 A 
ATOM     66  F   UNL A   1      43.998  24.681  36.464  1.00  0.00    -0.203 F 
ATOM     67  F   UNL A   1      48.136  28.235  36.338  1.00  0.00    -0.200 F 
ATOM     68  C   UNL A   1      47.133  26.314  37.265  1.00  0.00     0.200 A 
ATOM     69  F   UNL A   1      46.066  24.427  38.187  1.00  0.00    -0.200 F 
ATOM     70  F   UNL A   1      48.175  26.151  38.093  1.00  0.00    -0.200 F 
ENDBRANCH  37  60
ENDBRANCH  11  12
ENDBRANCH   4   6
ENDBRANCH   3   4
ENDBRANCH   2   3
ENDBRANCH   1   2
BRANCH   1  71
ATOM     71  O   UNL A   1      33.280  29.534  25.501  1.00  0.00    -0.462 OA
BRANCH  71  72
ATOM     72  C   UNL A   1      33.312  28.678  24.434  1.00  0.00     0.310 C 
ATOM     73  O   UNL A   1      33.793  28.946  23.350  1.00  0.00    -0.252 OA
BRANCH  72  74
ATOM     74  C   UNL A   1      33.005  27.257  24.876  1.00  0.00     0.116 C 
ATOM     75  C   UNL A   1      34.028  26.209  24.383  1.00  0.00     0.043 C 
ATOM     76  C   UNL A   1      31.526  26.739  25.192  1.00  0.00     0.097 C 
ATOM     77  C   UNL A   1      34.000  24.916  25.157  1.00  0.00    -0.030 C 
ATOM     78  C   UNL A   1      31.984  25.669  26.413  1.00  0.00     0.041 C 
ATOM     79  C   UNL A   1      33.101  24.688  26.121  1.00  0.00    -0.030 C 
BRANCH  76  80
ATOM     80  C   UNL A   1      30.053  26.751  23.988  1.00  0.00     0.228 C 
ATOM     81  O   UNL A   1      29.690  25.575  23.727  1.00  0.00    -0.274 OA
ATOM     82  N   UNL A   1      29.155  27.810  23.182  1.00  0.00    -0.326 N 
ATOM     83  H   UNL A   1      28.520  27.272  22.655  1.00  0.00     0.169 HD
BRANCH  82  84
ATOM     84  C   UNL A   1      28.783  29.496  22.806  1.00  0.00     0.041 A 
ATOM     85  C   UNL A   1      27.938  30.686  23.501  1.00  0.00     0.030 A 
ATOM     86  C   UNL A   1      29.214  29.989  21.649  1.00  0.00     0.030 A 
ATOM     87  C   UNL A   1      27.653  31.991  23.115  1.00  0.00     0.048 A 
ATOM     88  C   UNL A   1      28.676  31.264  21.168  1.00  0.00     0.048 A 
ATOM     89  C   UNL A   1      28.013  32.259  21.864  1.00  0.00     0.115 A 
BRANCH  89  90
ATOM     90  O   UNL A   1      27.750  33.451  21.282  1.00  0.00    -0.508 OA
ATOM     91  H   UNL A   1      27.083  33.516  20.628  1.00  0.00     0.293 HD
ENDBRANCH  89  90
ENDBRANCH  82  84
ENDBRANCH  76  80
ENDBRANCH  72  74
ENDBRANCH  71  72
ENDBRANCH   1  71
TORSDOF 14
ENDMDL
MODEL 2
REMARK VINA RESULT:     -13.2      1.387      2.255
REMARK SMILES O=C(OCCOC(=O)[C@@H]1CC=CC[C@@H]1C(=O)Nc1ccc(O)cc1)c1ccc(-c2c3nc(c(-c4c(F)c(F)c(F)c(F)c4F)c4ccc([nH]4)c(-c4c(F)c(F)c(F)c(F)c4F)c4nc(c(-c5c(F)c(F)c(F)c(F)c5F)c5ccc2[nH]5)C=C4)C=C3)cc1
REMARK SMILES IDX 5 1 4 2 3 3 2 4 1 5 25 6 26 7 87 8 27 9 86 10 28 11 29 12
REMARK SMILES IDX 30 13 80 14 31 15 85 16 79 17 81 18 32 19 84 20 78 21 77 22
REMARK SMILES IDX 33 24 65 25 45 26 64 27 46 28 49 29 63 30 82 31 47 32 48 33
REMARK SMILES IDX 62 35 83 36 50 37 34 38 35 39 43 40 36 41 37 42 41 43 44 44
REMARK SMILES IDX 38 45 39 46 42 47 40 48 66 49 67 50 75 51 68 52 69 53 73 54
REMARK SMILES IDX 76 55 70 56 71 57 74 58 72 59 51 60 52 61 60 62 53 63 54 64
REMARK SMILES IDX 58 65 61 66 55 67 56 68 59 69 57 70 6 71 7 72 8 73 9 74
REMARK SMILES IDX 10 75 14 76 11 77 13 78 12 79 15 80 16 81 17 82 18 84 19 85
REMARK SMILES IDX 24 86 20 87 23 88 21 89 22 90
REMARK H PARENT 81 23 49 34 17 83 22 91
REMARK Flexibility Score: inf
ROOT
ATOM      1  C   UNL A   1      31.931  28.063  26.209  1.00  0.00     0.274 C 
ENDROOT
BRANCH   1   2
ATOM      2  C   UNL A   1      33.062  28.638  25.345  1.00  0.00     0.275 C 
BRANCH   2   3
ATOM      3  O   UNL A   1      33.168  30.069  25.531  1.00  0.00    -0.458 OA
BRANCH   3   4
ATOM      4  C   UNL A   1      33.120  30.690  26.743  1.00  0.00     0.338 C 
ATOM      5  O   UNL A   1      32.302  31.577  26.962  1.00  0.00    -0.246 OA
BRANCH   4   6
ATOM      6  C   UNL A   1      34.325  30.584  27.624  1.00  0.00     0.060 A 
ATOM      7  C   UNL A   1      34.687  29.450  28.337  1.00  0.00     0.016 A 
ATOM      8  C   UNL A   1      35.184  31.699  27.679  1.00  0.00     0.016 A 
ATOM      9  C   UNL A   1      35.998  29.340  28.824  1.00  0.00     0.010 A 
ATOM     10  C   UNL A   1      36.492  31.598  28.189  1.00  0.00     0.010 A 
ATOM     11  C   UNL A   1      36.980  30.352  28.571  1.00  0.00    -0.014 A 
BRANCH  11  12
ATOM     12  C   UNL A   1      38.488  30.074  28.860  1.00  0.00     0.031 A 
ATOM     13  C   UNL A   1      38.186  30.258  30.713  1.00  0.00     0.074 A 
ATOM     14  C   UNL A   1      39.825  29.550  28.000  1.00  0.00     0.049 A 
ATOM     15  N   UNL A   1      38.559  29.505  31.763  1.00  0.00    -0.248 NA
ATOM     16  C   UNL A   1      37.472  31.453  31.217  1.00  0.00     0.031 C 
ATOM     17  C   UNL A   1      40.006  28.489  26.877  1.00  0.00     0.029 A 
ATOM     18  N   UNL A   1      41.352  29.310  28.318  1.00  0.00    -0.354 N 
ATOM     19  C   UNL A   1      38.608  30.293  32.901  1.00  0.00     0.074 A 
ATOM     20  C   UNL A   1      37.679  31.377  32.542  1.00  0.00     0.031 C 
ATOM     21  C   UNL A   1      41.084  27.675  26.948  1.00  0.00     0.029 A 
ATOM     22  C   UNL A   1      41.932  28.031  28.051  1.00  0.00     0.049 A 
ATOM     23  H   UNL A   1      41.900  30.034  28.698  1.00  0.00     0.167 HD
ATOM     24  C   UNL A   1      39.469  30.308  33.996  1.00  0.00     0.037 A 
ATOM     25  C   UNL A   1      42.866  27.131  28.581  1.00  0.00     0.037 A 
ATOM     26  C   UNL A   1      40.761  29.569  34.337  1.00  0.00     0.049 A 
ATOM     27  C   UNL A   1      43.544  26.998  30.023  1.00  0.00     0.074 A 
ATOM     28  C   UNL A   1      41.745  30.017  35.228  1.00  0.00     0.029 A 
ATOM     29  N   UNL A   1      41.323  28.327  33.893  1.00  0.00    -0.354 N 
ATOM     30  N   UNL A   1      42.982  26.857  31.206  1.00  0.00    -0.248 NA
ATOM     31  C   UNL A   1      44.990  26.727  30.140  1.00  0.00     0.031 C 
ATOM     32  C   UNL A   1      42.929  29.255  35.091  1.00  0.00     0.029 A 
ATOM     33  C   UNL A   1      42.740  28.245  34.148  1.00  0.00     0.049 A 
ATOM     34  H   UNL A   1      40.800  27.612  33.463  1.00  0.00     0.167 HD
ATOM     35  C   UNL A   1      43.941  26.892  32.207  1.00  0.00     0.074 A 
ATOM     36  C   UNL A   1      45.151  26.542  31.461  1.00  0.00     0.031 C 
ATOM     37  C   UNL A   1      43.868  27.420  33.496  1.00  0.00     0.037 A 
BRANCH  24  38
ATOM     38  C   UNL A   1      39.152  31.475  34.926  1.00  0.00     0.064 A 
ATOM     39  C   UNL A   1      39.647  32.761  34.661  1.00  0.00     0.173 A 
ATOM     40  C   UNL A   1      38.398  31.299  36.102  1.00  0.00     0.173 A 
ATOM     41  F   UNL A   1      40.407  32.977  33.577  1.00  0.00    -0.203 F 
ATOM     42  C   UNL A   1      39.412  33.820  35.539  1.00  0.00     0.198 A 
ATOM     43  C   UNL A   1      38.138  32.369  36.961  1.00  0.00     0.198 A 
ATOM     44  F   UNL A   1      37.912  30.090  36.425  1.00  0.00    -0.203 F 
ATOM     45  F   UNL A   1      39.944  35.025  35.292  1.00  0.00    -0.200 F 
ATOM     46  C   UNL A   1      38.652  33.625  36.684  1.00  0.00     0.200 A 
ATOM     47  F   UNL A   1      37.401  32.177  38.065  1.00  0.00    -0.200 F 
ATOM     48  F   UNL A   1      38.432  34.644  37.527  1.00  0.00    -0.200 F 
ENDBRANCH  24  38
BRANCH  25  49
ATOM     49  C   UNL A   1      43.342  25.996  27.673  1.00  0.00     0.064 A 
ATOM     50  C   UNL A   1      42.914  24.664  27.825  1.00  0.00     0.173 A 
ATOM     51  C   UNL A   1      44.342  26.225  26.708  1.00  0.00     0.173 A 
ATOM     52  F   UNL A   1      42.003  24.344  28.754  1.00  0.00    -0.203 F 
ATOM     53  C   UNL A   1      43.446  23.629  27.044  1.00  0.00     0.198 A 
ATOM     54  C   UNL A   1      44.840  25.201  25.902  1.00  0.00     0.198 A 
ATOM     55  F   UNL A   1      44.853  27.455  26.549  1.00  0.00    -0.203 F 
ATOM     56  F   UNL A   1      43.053  22.363  27.248  1.00  0.00    -0.200 F 
ATOM     57  C   UNL A   1      44.398  23.902  26.075  1.00  0.00     0.200 A 
ATOM     58  F   UNL A   1      45.762  25.477  24.969  1.00  0.00    -0.200 F 
ATOM     59  F   UNL A   1      44.903  22.914  25.324  1.00  0.00    -0.200 F 
ENDBRANCH  25  49
BRANCH  37  60
ATOM     60  C   UNL A   1      45.210  27.477  34.238  1.00  0.00     0.064 A 
ATOM     61  C   UNL A   1      46.158  28.508  34.056  1.00  0.00     0.173 A 
ATOM     62  C   UNL A   1      45.509  26.516  35.214  1.00  0.00     0.173 A 
ATOM     63  F   UNL A   1      45.920  29.516  33.202  1.00  0.00    -0.203 F 
ATOM     64  C   UNL A   1      47.385  28.504  34.727  1.00  0.00     0.198 A 
ATOM     65  C   UNL A   1      46.716  26.543  35.920  1.00  0.00     0.198 A 
ATOM     66  F   UNL A   1      44.622  25.554  35.503  1.00  0.00    -0.203 F 
ATOM     67  F   UNL A   1      48.300  29.448  34.461  1.00  0.00    -0.200 F 
ATOM     68  C   UNL A   1      47.664  27.519  35.657  1.00  0.00     0.200 A 
ATOM     69  F   UNL A   1      46.962  25.617  36.858  1.00  0.00    -0.200 F 
ATOM     70  F   UNL A   1      48.840  27.513  36.302  1.00  0.00    -0.200 F 
ENDBRANCH  37  60
ENDBRANCH  11  12
ENDBRANCH   4   6
ENDBRANCH   3   4
ENDBRANCH   2   3
ENDBRANCH   1   2
BRANCH   1  71
ATOM     71  O   UNL A   1      32.269  26.736  26.654  1.00  0.00    -0.462 OA
BRANCH  71  72
ATOM     72  C   UNL A   1      31.738  25.714  25.915  1.00  0.00     0.310 C 
ATOM     73  O   UNL A   1      30.547  25.505  25.784  1.00  0.00    -0.252 OA
BRANCH  72  74
ATOM     74  C   UNL A   1      32.791  25.105  25.005  1.00  0.00     0.116 C 
ATOM     75  C   UNL A   1      34.226  25.158  25.578  1.00  0.00     0.043 C 
ATOM     76  C   UNL A   1      32.643  25.044  23.414  1.00  0.00     0.097 C 
ATOM     77  C   UNL A   1      35.181  24.192  24.925  1.00  0.00    -0.030 C 
ATOM     78  C   UNL A   1      33.460  23.580  23.229  1.00  0.00     0.041 C 
ATOM     79  C   UNL A   1      34.818  23.431  23.886  1.00  0.00    -0.030 C 
BRANCH  76  80
ATOM     80  C   UNL A   1      32.407  26.532  22.253  1.00  0.00     0.228 C 
ATOM     81  O   UNL A   1      33.288  26.533  21.356  1.00  0.00    -0.274 OA
ATOM     82  N   UNL A   1      31.438  27.803  22.093  1.00  0.00    -0.326 N 
ATOM     83  H   UNL A   1      31.778  28.298  21.313  1.00  0.00     0.169 HD
BRANCH  82  84
ATOM     84  C   UNL A   1      30.043  28.719  22.673  1.00  0.00     0.041 A 
ATOM     85  C   UNL A   1      28.436  28.553  22.623  1.00  0.00     0.030 A 
ATOM     86  C   UNL A   1      30.265  29.890  23.264  1.00  0.00     0.030 A 
ATOM     87  C   UNL A   1      27.390  29.351  23.071  1.00  0.00     0.048 A 
ATOM     88  C   UNL A   1      29.144  30.808  23.479  1.00  0.00     0.048 A 
ATOM     89  C   UNL A   1      27.784  30.554  23.478  1.00  0.00     0.115 A 
BRANCH  89  90
ATOM     90  O   UNL A   1      26.904  31.499  23.878  1.00  0.00    -0.508 OA
ATOM     91  H   UNL A   1      26.834  32.305  23.405  1.00  0.00     0.293 HD
ENDBRANCH  89  90
ENDBRANCH  82  84
ENDBRANCH  76  80
ENDBRANCH  72  74
ENDBRANCH  71  72
ENDBRANCH   1  71
TORSDOF 14
ENDMDL
MODEL 3
REMARK VINA RESULT:     -13.2      5.432     11.169
REMARK SMILES O=C(OCCOC(=O)[C@@H]1CC=CC[C@@H]1C(=O)Nc1ccc(O)cc1)c1ccc(-c2c3nc(c(-c4c(F)c(F)c(F)c(F)c4F)c4ccc([nH]4)c(-c4c(F)c(F)c(F)c(F)c4F)c4nc(c(-c5c(F)c(F)c(F)c(F)c5F)c5ccc2[nH]5)C=C4)C=C3)cc1
REMARK SMILES IDX 5 1 4 2 3 3 2 4 1 5 25 6 26 7 87 8 27 9 86 10 28 11 29 12
REMARK SMILES IDX 30 13 80 14 31 15 85 16 79 17 81 18 32 19 84 20 78 21 77 22
REMARK SMILES IDX 33 24 65 25 45 26 64 27 46 28 49 29 63 30 82 31 47 32 48 33
REMARK SMILES IDX 62 35 83 36 50 37 34 38 35 39 43 40 36 41 37 42 41 43 44 44
REMARK SMILES IDX 38 45 39 46 42 47 40 48 66 49 67 50 75 51 68 52 69 53 73 54
REMARK SMILES IDX 76 55 70 56 71 57 74 58 72 59 51 60 52 61 60 62 53 63 54 64
REMARK SMILES IDX 58 65 61 66 55 67 56 68 59 69 57 70 6 71 7 72 8 73 9 74
REMARK SMILES IDX 10 75 14 76 11 77 13 78 12 79 15 80 16 81 17 82 18 84 19 85
REMARK SMILES IDX 24 86 20 87 23 88 21 89 22 90
REMARK H PARENT 81 23 49 34 17 83 22 91
REMARK Flexibility Score: inf
ROOT
ATOM      1  C   UNL A   1      37.402  21.998  24.623  1.00  0.00     0.274 C 
ENDROOT
BRANCH   1   2
ATOM      2  C   UNL A   1      38.344  20.847  25.000  1.00  0.00     0.275 C 
BRANCH   2   3
ATOM      3  O   UNL A   1      39.134  21.195  26.161  1.00  0.00    -0.458 OA
BRANCH   3   4
ATOM      4  C   UNL A   1      40.267  21.951  26.119  1.00  0.00     0.338 C 
ATOM      5  O   UNL A   1      41.246  21.580  25.481  1.00  0.00    -0.246 OA
BRANCH   4   6
ATOM      6  C   UNL A   1      40.449  22.987  27.183  1.00  0.00     0.060 A 
ATOM      7  C   UNL A   1      41.460  22.977  28.134  1.00  0.00     0.016 A 
ATOM      8  C   UNL A   1      39.564  24.084  27.175  1.00  0.00     0.016 A 
ATOM      9  C   UNL A   1      41.751  24.157  28.832  1.00  0.00     0.010 A 
ATOM     10  C   UNL A   1      39.842  25.261  27.894  1.00  0.00     0.010 A 
ATOM     11  C   UNL A   1      41.056  25.381  28.562  1.00  0.00    -0.014 A 
BRANCH  11  12
ATOM     12  C   UNL A   1      41.593  26.732  29.129  1.00  0.00     0.031 A 
ATOM     13  C   UNL A   1      42.832  26.857  27.713  1.00  0.00     0.074 A 
ATOM     14  C   UNL A   1      41.145  27.828  30.313  1.00  0.00     0.049 A 
ATOM     15  N   UNL A   1      43.156  27.870  26.889  1.00  0.00    -0.248 NA
ATOM     16  C   UNL A   1      43.707  25.701  27.410  1.00  0.00     0.031 C 
ATOM     17  C   UNL A   1      39.764  28.354  30.796  1.00  0.00     0.029 A 
ATOM     18  N   UNL A   1      41.733  29.177  30.886  1.00  0.00    -0.354 N 
ATOM     19  C   UNL A   1      44.448  27.689  26.423  1.00  0.00     0.074 A 
ATOM     20  C   UNL A   1      44.604  26.232  26.563  1.00  0.00     0.031 C 
ATOM     21  C   UNL A   1      39.650  29.677  31.054  1.00  0.00     0.029 A 
ATOM     22  C   UNL A   1      40.912  30.346  30.909  1.00  0.00     0.049 A 
ATOM     23  H   UNL A   1      42.657  29.213  31.224  1.00  0.00     0.167 HD
ATOM     24  C   UNL A   1      45.483  28.582  26.156  1.00  0.00     0.037 A 
ATOM     25  C   UNL A   1      40.992  31.733  30.724  1.00  0.00     0.037 A 
ATOM     26  C   UNL A   1      45.672  30.081  26.378  1.00  0.00     0.049 A 
ATOM     27  C   UNL A   1      42.094  32.672  30.047  1.00  0.00     0.074 A 
ATOM     28  C   UNL A   1      46.902  30.738  26.500  1.00  0.00     0.029 A 
ATOM     29  N   UNL A   1      44.752  31.170  26.531  1.00  0.00    -0.354 N 
ATOM     30  N   UNL A   1      42.585  32.646  28.824  1.00  0.00    -0.248 NA
ATOM     31  C   UNL A   1      42.500  33.931  30.702  1.00  0.00     0.031 C 
ATOM     32  C   UNL A   1      46.722  32.053  26.989  1.00  0.00     0.029 A 
ATOM     33  C   UNL A   1      45.364  32.322  27.147  1.00  0.00     0.049 A 
ATOM     34  H   UNL A   1      43.809  31.134  26.248  1.00  0.00     0.167 HD
ATOM     35  C   UNL A   1      43.606  33.575  28.689  1.00  0.00     0.074 A 
ATOM     36  C   UNL A   1      43.306  34.496  29.787  1.00  0.00     0.031 C 
ATOM     37  C   UNL A   1      44.781  33.508  27.942  1.00  0.00     0.037 A 
BRANCH  24  38
ATOM     38  C   UNL A   1      46.761  27.841  25.774  1.00  0.00     0.064 A 
ATOM     39  C   UNL A   1      47.610  27.314  26.759  1.00  0.00     0.173 A 
ATOM     40  C   UNL A   1      47.160  27.701  24.430  1.00  0.00     0.173 A 
ATOM     41  F   UNL A   1      47.301  27.456  28.057  1.00  0.00    -0.203 F 
ATOM     42  C   UNL A   1      48.810  26.688  26.418  1.00  0.00     0.198 A 
ATOM     43  C   UNL A   1      48.345  27.045  24.093  1.00  0.00     0.198 A 
ATOM     44  F   UNL A   1      46.403  28.200  23.440  1.00  0.00    -0.203 F 
ATOM     45  F   UNL A   1      49.630  26.245  27.382  1.00  0.00    -0.200 F 
ATOM     46  C   UNL A   1      49.173  26.548  25.087  1.00  0.00     0.200 A 
ATOM     47  F   UNL A   1      48.692  26.910  22.805  1.00  0.00    -0.200 F 
ATOM     48  F   UNL A   1      50.328  25.950  24.764  1.00  0.00    -0.200 F 
ENDBRANCH  24  38
BRANCH  25  49
ATOM     49  C   UNL A   1      39.806  32.575  31.197  1.00  0.00     0.064 A 
ATOM     50  C   UNL A   1      38.752  32.958  30.347  1.00  0.00     0.173 A 
ATOM     51  C   UNL A   1      39.787  33.113  32.499  1.00  0.00     0.173 A 
ATOM     52  F   UNL A   1      38.717  32.536  29.075  1.00  0.00    -0.203 F 
ATOM     53  C   UNL A   1      37.733  33.815  30.783  1.00  0.00     0.198 A 
ATOM     54  C   UNL A   1      38.749  33.932  32.945  1.00  0.00     0.198 A 
ATOM     55  F   UNL A   1      40.791  32.851  33.348  1.00  0.00    -0.203 F 
ATOM     56  F   UNL A   1      36.771  34.201  29.932  1.00  0.00    -0.200 F 
ATOM     57  C   UNL A   1      37.726  34.289  32.084  1.00  0.00     0.200 A 
ATOM     58  F   UNL A   1      38.754  34.386  34.205  1.00  0.00    -0.200 F 
ATOM     59  F   UNL A   1      36.749  35.104  32.504  1.00  0.00    -0.200 F 
ENDBRANCH  25  49
BRANCH  37  60
ATOM     60  C   UNL A   1      45.780  34.638  28.224  1.00  0.00     0.064 A 
ATOM     61  C   UNL A   1      46.738  34.591  29.261  1.00  0.00     0.173 A 
ATOM     62  C   UNL A   1      45.828  35.754  27.377  1.00  0.00     0.173 A 
ATOM     63  F   UNL A   1      46.821  33.523  30.070  1.00  0.00    -0.203 F 
ATOM     64  C   UNL A   1      47.608  35.658  29.506  1.00  0.00     0.198 A 
ATOM     65  C   UNL A   1      46.733  36.797  27.595  1.00  0.00     0.198 A 
ATOM     66  F   UNL A   1      45.007  35.832  26.321  1.00  0.00    -0.203 F 
ATOM     67  F   UNL A   1      48.441  35.619  30.556  1.00  0.00    -0.200 F 
ATOM     68  C   UNL A   1      47.603  36.762  28.673  1.00  0.00     0.200 A 
ATOM     69  F   UNL A   1      46.762  37.843  26.756  1.00  0.00    -0.200 F 
ATOM     70  F   UNL A   1      48.437  37.787  28.905  1.00  0.00    -0.200 F 
ENDBRANCH  37  60
ENDBRANCH  11  12
ENDBRANCH   4   6
ENDBRANCH   3   4
ENDBRANCH   2   3
ENDBRANCH   1   2
BRANCH   1  71
ATOM     71  O   UNL A   1      36.727  22.495  25.793  1.00  0.00    -0.462 OA
BRANCH  71  72
ATOM     72  C   UNL A   1      35.382  22.250  25.845  1.00  0.00     0.310 C 
ATOM     73  O   UNL A   1      34.858  21.430  26.575  1.00  0.00    -0.252 OA
BRANCH  72  74
ATOM     74  C   UNL A   1      34.607  23.360  25.156  1.00  0.00     0.116 C 
ATOM     75  C   UNL A   1      34.038  24.425  26.121  1.00  0.00     0.043 C 
ATOM     76  C   UNL A   1      33.851  23.164  23.760  1.00  0.00     0.097 C 
ATOM     77  C   UNL A   1      33.673  25.725  25.451  1.00  0.00    -0.030 C 
ATOM     78  C   UNL A   1      34.117  24.735  23.207  1.00  0.00     0.041 C 
ATOM     79  C   UNL A   1      33.759  25.886  24.125  1.00  0.00    -0.030 C 
BRANCH  76  80
ATOM     80  C   UNL A   1      32.482  21.895  23.397  1.00  0.00     0.228 C 
ATOM     81  O   UNL A   1      31.461  22.469  22.939  1.00  0.00    -0.274 OA
ATOM     82  N   UNL A   1      32.228  20.315  23.526  1.00  0.00    -0.326 N 
ATOM     83  H   UNL A   1      31.306  20.168  23.215  1.00  0.00     0.169 HD
BRANCH  82  84
ATOM     84  C   UNL A   1      32.844  18.719  23.972  1.00  0.00     0.041 A 
ATOM     85  C   UNL A   1      33.612  17.513  23.217  1.00  0.00     0.030 A 
ATOM     86  C   UNL A   1      32.615  18.283  25.208  1.00  0.00     0.030 A 
ATOM     87  C   UNL A   1      34.029  16.254  23.633  1.00  0.00     0.048 A 
ATOM     88  C   UNL A   1      32.834  16.868  25.520  1.00  0.00     0.048 A 
ATOM     89  C   UNL A   1      33.570  15.918  24.834  1.00  0.00     0.115 A 
BRANCH  89  90
ATOM     90  O   UNL A   1      33.805  14.702  25.377  1.00  0.00    -0.508 OA
ATOM     91  H   UNL A   1      34.094  13.995  24.835  1.00  0.00     0.293 HD
ENDBRANCH  89  90
ENDBRANCH  82  84
ENDBRANCH  76  80
ENDBRANCH  72  74
ENDBRANCH  71  72
ENDBRANCH   1  71
TORSDOF 14
ENDMDL
